MODEL        1
REMARK 921   NORMALIZED FREE ENERGY PREDICTED BY IDOCK:   -4.82 KCAL/MOL
REMARK 922        TOTAL FREE ENERGY PREDICTED BY IDOCK:   -5.60 KCAL/MOL
REMARK 923 INTER-LIGAND FREE ENERGY PREDICTED BY IDOCK:   -5.38 KCAL/MOL
REMARK 924 INTRA-LIGAND FREE ENERGY PREDICTED BY IDOCK:   -0.22 KCAL/MOL
REMARK 927      BINDING AFFINITY PREDICTED BY RF-SCORE:    0.00 PKD
ROOT
HETATM    1  C   UNL     1      -7.724  18.563  66.468  1.00  0.00    -0.255 C  
HETATM    2  O   UNL     1      -7.089  18.033  65.561  1.00  0.00    -0.515 OA 
HETATM    3  C   UNL     1      -8.493  17.781  67.504  1.00  0.00    -0.227 C  
HETATM    4  C   UNL     1     -10.009  18.016  67.437  1.00  0.00    -0.328 C  
HETATM    5  C   UNL     1     -10.371  19.470  67.756  1.00  0.00    -0.575 C  
HETATM    6  C   UNL     1     -10.643  17.595  66.095  1.00  0.00    -0.220 C  
ENDROOT
BRANCH   6   7
HETATM    7  C   UNL     1     -10.421  16.131  65.690  1.00  0.00    -0.402 C  
BRANCH   7   8
HETATM    8  C   UNL     1     -11.249  15.707  64.472  1.00  0.00    -0.337 C  
HETATM    9  C   UNL     1     -11.695  14.231  64.460  1.00  0.00    -0.418 C  
HETATM   10  O   UNL     1     -12.413  14.013  63.238  1.00  0.00    -1.139 OA 
HETATM   11  C   UNL     1     -10.514  13.260  64.487  1.00  0.00    -0.434 C  
HETATM   12  C   UNL     1     -12.670  13.920  65.596  1.00  0.00    -0.534 C  
HETATM   13  H   UNL     1     -12.687  13.104  63.231  1.00  0.00     0.000 HD 
ENDBRANCH   7   8
ENDBRANCH   6   7
TORSDOF 2
ENDMDL
MODEL        2
REMARK 921   NORMALIZED FREE ENERGY PREDICTED BY IDOCK:   -4.75 KCAL/MOL
REMARK 922        TOTAL FREE ENERGY PREDICTED BY IDOCK:   -5.53 KCAL/MOL
REMARK 923 INTER-LIGAND FREE ENERGY PREDICTED BY IDOCK:   -5.26 KCAL/MOL
REMARK 924 INTRA-LIGAND FREE ENERGY PREDICTED BY IDOCK:   -0.27 KCAL/MOL
REMARK 927      BINDING AFFINITY PREDICTED BY RF-SCORE:    0.00 PKD
ROOT
HETATM    1  C   UNL     1     -13.621  13.170  72.452  1.00  0.00    -0.567 C  
HETATM    2  O   UNL     1     -13.383  12.216  71.716  1.00  0.00    -0.407 OA 
HETATM    3  C   UNL     1     -14.224  14.462  71.960  1.00  0.00    -0.639 C  
HETATM    4  C   UNL     1     -13.278  15.664  72.104  1.00  0.00    -0.547 C  
HETATM    5  C   UNL     1     -12.961  15.962  73.573  1.00  0.00    -0.707 C  
HETATM    6  C   UNL     1     -11.971  15.523  71.298  1.00  0.00    -0.443 C  
ENDROOT
BRANCH   6   7
HETATM    7  C   UNL     1     -12.145  15.296  69.789  1.00  0.00    -0.357 C  
BRANCH   7   8
HETATM    8  C   UNL     1     -10.885  14.752  69.109  1.00  0.00    -0.267 C  
HETATM    9  C   UNL     1     -11.120  13.601  68.111  1.00  0.00    -0.256 C  
HETATM   10  O   UNL     1      -9.836  13.198  67.614  1.00  0.00    -0.210 OA 
HETATM   11  C   UNL     1     -11.771  12.380  68.763  1.00  0.00    -0.379 C  
HETATM   12  C   UNL     1     -11.931  14.055  66.896  1.00  0.00    -0.479 C  
HETATM   13  H   UNL     1      -9.982  12.489  66.999  1.00  0.00     0.000 HD 
ENDBRANCH   7   8
ENDBRANCH   6   7
TORSDOF 2
ENDMDL
MODEL        3
REMARK 921   NORMALIZED FREE ENERGY PREDICTED BY IDOCK:   -4.74 KCAL/MOL
REMARK 922        TOTAL FREE ENERGY PREDICTED BY IDOCK:   -5.51 KCAL/MOL
REMARK 923 INTER-LIGAND FREE ENERGY PREDICTED BY IDOCK:   -5.12 KCAL/MOL
REMARK 924 INTRA-LIGAND FREE ENERGY PREDICTED BY IDOCK:   -0.40 KCAL/MOL
REMARK 927      BINDING AFFINITY PREDICTED BY RF-SCORE:    0.00 PKD
ROOT
HETATM    1  C   UNL     1     -10.571  17.735  65.584  1.00  0.00    -0.123 C  
HETATM    2  O   UNL     1     -11.098  17.124  64.659  1.00  0.00    -1.036 OA 
HETATM    3  C   UNL     1      -9.496  17.141  66.459  1.00  0.00    -0.290 C  
HETATM    4  C   UNL     1      -9.929  16.979  67.924  1.00  0.00    -0.281 C  
HETATM    5  C   UNL     1     -10.211  18.333  68.584  1.00  0.00    -0.377 C  
HETATM    6  C   UNL     1     -11.137  16.038  68.112  1.00  0.00    -0.344 C  
ENDROOT
BRANCH   6   7
HETATM    7  C   UNL     1     -10.958  14.616  67.561  1.00  0.00    -0.301 C  
BRANCH   7   8
HETATM    8  C   UNL     1     -12.117  14.163  66.667  1.00  0.00    -0.480 C  
HETATM    9  C   UNL     1     -11.733  13.189  65.535  1.00  0.00    -0.357 C  
HETATM   10  O   UNL     1     -12.926  12.914  64.786  1.00  0.00    -0.743 OA 
HETATM   11  C   UNL     1     -10.704  13.781  64.572  1.00  0.00    -0.405 C  
HETATM   12  C   UNL     1     -11.246  11.845  66.079  1.00  0.00    -0.377 C  
HETATM   13  H   UNL     1     -12.689  12.314  64.089  1.00  0.00     0.000 HD 
ENDBRANCH   7   8
ENDBRANCH   6   7
TORSDOF 2
ENDMDL
MODEL        4
REMARK 921   NORMALIZED FREE ENERGY PREDICTED BY IDOCK:   -4.71 KCAL/MOL
REMARK 922        TOTAL FREE ENERGY PREDICTED BY IDOCK:   -5.48 KCAL/MOL
REMARK 923 INTER-LIGAND FREE ENERGY PREDICTED BY IDOCK:   -5.19 KCAL/MOL
REMARK 924 INTRA-LIGAND FREE ENERGY PREDICTED BY IDOCK:   -0.29 KCAL/MOL
REMARK 927      BINDING AFFINITY PREDICTED BY RF-SCORE:    0.00 PKD
ROOT
HETATM    1  C   UNL     1     -12.087  13.336  63.239  1.00  0.00    -0.337 C  
HETATM    2  O   UNL     1     -12.745  14.234  63.756  1.00  0.00    -0.779 OA 
HETATM    3  C   UNL     1     -12.180  11.893  63.667  1.00  0.00    -0.586 C  
HETATM    4  C   UNL     1     -10.874  11.356  64.272  1.00  0.00    -0.416 C  
HETATM    5  C   UNL     1      -9.737  11.344  63.245  1.00  0.00    -0.413 C  
HETATM    6  C   UNL     1     -10.428  12.104  65.546  1.00  0.00    -0.300 C  
ENDROOT
BRANCH   6   7
HETATM    7  C   UNL     1     -11.451  12.126  66.691  1.00  0.00    -0.426 C  
BRANCH   7   8
HETATM    8  C   UNL     1     -11.995  13.526  66.990  1.00  0.00    -0.440 C  
HETATM    9  C   UNL     1     -11.577  14.119  68.351  1.00  0.00    -0.318 C  
HETATM   10  O   UNL     1     -12.211  15.400  68.471  1.00  0.00    -0.563 OA 
HETATM   11  C   UNL     1     -12.035  13.261  69.531  1.00  0.00    -0.366 C  
HETATM   12  C   UNL     1     -10.071  14.372  68.425  1.00  0.00    -0.244 C  
HETATM   13  H   UNL     1     -11.953  15.765  69.309  1.00  0.00     0.000 HD 
ENDBRANCH   7   8
ENDBRANCH   6   7
TORSDOF 2
ENDMDL
MODEL        5
REMARK 921   NORMALIZED FREE ENERGY PREDICTED BY IDOCK:   -4.64 KCAL/MOL
REMARK 922        TOTAL FREE ENERGY PREDICTED BY IDOCK:   -5.40 KCAL/MOL
REMARK 923 INTER-LIGAND FREE ENERGY PREDICTED BY IDOCK:   -5.07 KCAL/MOL
REMARK 924 INTRA-LIGAND FREE ENERGY PREDICTED BY IDOCK:   -0.33 KCAL/MOL
REMARK 927      BINDING AFFINITY PREDICTED BY RF-SCORE:    0.00 PKD
ROOT
HETATM    1  C   UNL     1     -12.245  13.020  63.472  1.00  0.00    -0.501 C  
HETATM    2  O   UNL     1     -12.583  14.178  63.248  1.00  0.00    -0.766 OA 
HETATM    3  C   UNL     1     -12.396  12.363  64.822  1.00  0.00    -0.497 C  
HETATM    4  C   UNL     1     -11.052  11.994  65.468  1.00  0.00    -0.361 C  
HETATM    5  C   UNL     1     -10.300  10.941  64.647  1.00  0.00    -0.407 C  
HETATM    6  C   UNL     1     -10.138  13.208  65.734  1.00  0.00    -0.290 C  
ENDROOT
BRANCH   6   7
HETATM    7  C   UNL     1     -10.744  14.311  66.614  1.00  0.00    -0.290 C  
BRANCH   7   8
HETATM    8  C   UNL     1     -10.895  15.651  65.887  1.00  0.00    -0.297 C  
HETATM    9  C   UNL     1     -10.069  16.814  66.471  1.00  0.00    -0.315 C  
HETATM   10  O   UNL     1     -10.370  17.983  65.696  1.00  0.00    -0.611 OA 
HETATM   11  C   UNL     1     -10.425  17.116  67.927  1.00  0.00    -0.369 C  
HETATM   12  C   UNL     1      -8.565  16.575  66.326  1.00  0.00    -0.367 C  
HETATM   13  H   UNL     1      -9.861  18.699  66.056  1.00  0.00     0.000 HD 
ENDBRANCH   7   8
ENDBRANCH   6   7
TORSDOF 2
ENDMDL
MODEL        6
REMARK 921   NORMALIZED FREE ENERGY PREDICTED BY IDOCK:   -4.60 KCAL/MOL
REMARK 922        TOTAL FREE ENERGY PREDICTED BY IDOCK:   -5.36 KCAL/MOL
REMARK 923 INTER-LIGAND FREE ENERGY PREDICTED BY IDOCK:   -5.07 KCAL/MOL
REMARK 924 INTRA-LIGAND FREE ENERGY PREDICTED BY IDOCK:   -0.28 KCAL/MOL
REMARK 927      BINDING AFFINITY PREDICTED BY RF-SCORE:    0.00 PKD
ROOT
HETATM    1  C   UNL     1     -13.431  13.384  72.333  1.00  0.00    -0.584 C  
HETATM    2  O   UNL     1     -13.526  12.185  72.089  1.00  0.00    -0.494 OA 
HETATM    3  C   UNL     1     -13.808  14.460  71.345  1.00  0.00    -0.409 C  
HETATM    4  C   UNL     1     -12.613  15.314  70.895  1.00  0.00    -0.471 C  
HETATM    5  C   UNL     1     -12.011  16.104  72.062  1.00  0.00    -0.607 C  
HETATM    6  C   UNL     1     -11.511  14.508  70.178  1.00  0.00    -0.297 C  
ENDROOT
BRANCH   6   7
HETATM    7  C   UNL     1     -11.965  13.725  68.938  1.00  0.00    -0.394 C  
BRANCH   7   8
HETATM    8  C   UNL     1     -12.033  14.583  67.671  1.00  0.00    -0.355 C  
HETATM    9  C   UNL     1     -11.300  14.006  66.444  1.00  0.00    -0.333 C  
HETATM   10  O   UNL     1     -11.435  14.958  65.379  1.00  0.00    -0.346 OA 
HETATM   11  C   UNL     1      -9.806  13.797  66.695  1.00  0.00    -0.286 C  
HETATM   12  C   UNL     1     -11.946  12.711  65.950  1.00  0.00    -0.497 C  
HETATM   13  H   UNL     1     -10.983  14.602  64.624  1.00  0.00     0.000 HD 
ENDBRANCH   7   8
ENDBRANCH   6   7
TORSDOF 2
ENDMDL
MODEL        7
REMARK 921   NORMALIZED FREE ENERGY PREDICTED BY IDOCK:   -4.59 KCAL/MOL
REMARK 922        TOTAL FREE ENERGY PREDICTED BY IDOCK:   -5.34 KCAL/MOL
REMARK 923 INTER-LIGAND FREE ENERGY PREDICTED BY IDOCK:   -5.06 KCAL/MOL
REMARK 924 INTRA-LIGAND FREE ENERGY PREDICTED BY IDOCK:   -0.28 KCAL/MOL
REMARK 927      BINDING AFFINITY PREDICTED BY RF-SCORE:    0.00 PKD
ROOT
HETATM    1  C   UNL     1      -9.980  16.429  69.162  1.00  0.00    -0.273 C  
HETATM    2  O   UNL     1     -10.037  15.316  69.676  1.00  0.00    -0.246 OA 
HETATM    3  C   UNL     1     -10.805  16.829  67.965  1.00  0.00    -0.341 C  
HETATM    4  C   UNL     1      -9.959  17.133  66.720  1.00  0.00    -0.291 C  
HETATM    5  C   UNL     1      -9.047  18.345  66.938  1.00  0.00    -0.286 C  
HETATM    6  C   UNL     1      -9.129  15.930  66.226  1.00  0.00    -0.379 C  
ENDROOT
BRANCH   6   7
HETATM    7  C   UNL     1      -9.933  14.664  65.895  1.00  0.00    -0.352 C  
BRANCH   7   8
HETATM    8  C   UNL     1     -10.920  14.858  64.738  1.00  0.00    -0.390 C  
HETATM    9  C   UNL     1     -11.629  13.577  64.256  1.00  0.00    -0.397 C  
HETATM   10  O   UNL     1     -12.470  13.945  63.153  1.00  0.00    -1.121 OA 
HETATM   11  C   UNL     1     -10.650  12.513  63.760  1.00  0.00    -0.471 C  
HETATM   12  C   UNL     1     -12.552  12.998  65.329  1.00  0.00    -0.516 C  
HETATM   13  H   UNL     1     -12.907  13.156  62.857  1.00  0.00     0.000 HD 
ENDBRANCH   7   8
ENDBRANCH   6   7
TORSDOF 2
ENDMDL
MODEL        8
REMARK 921   NORMALIZED FREE ENERGY PREDICTED BY IDOCK:   -4.53 KCAL/MOL
REMARK 922        TOTAL FREE ENERGY PREDICTED BY IDOCK:   -5.28 KCAL/MOL
REMARK 923 INTER-LIGAND FREE ENERGY PREDICTED BY IDOCK:   -5.01 KCAL/MOL
REMARK 924 INTRA-LIGAND FREE ENERGY PREDICTED BY IDOCK:   -0.28 KCAL/MOL
REMARK 927      BINDING AFFINITY PREDICTED BY RF-SCORE:    0.00 PKD
ROOT
HETATM    1  C   UNL     1     -11.393  10.685  68.348  1.00  0.00    -0.283 C  
HETATM    2  O   UNL     1     -12.058  11.714  68.412  1.00  0.00    -0.522 OA 
HETATM    3  C   UNL     1      -9.929  10.669  67.984  1.00  0.00    -0.180 C  
HETATM    4  C   UNL     1      -9.642   9.937  66.664  1.00  0.00    -0.235 C  
HETATM    5  C   UNL     1      -9.998   8.450  66.753  1.00  0.00    -0.354 C  
HETATM    6  C   UNL     1     -10.332  10.574  65.440  1.00  0.00    -0.292 C  
ENDROOT
BRANCH   6   7
HETATM    7  C   UNL     1     -10.000  12.052  65.189  1.00  0.00    -0.265 C  
BRANCH   7   8
HETATM    8  C   UNL     1     -10.855  12.686  64.087  1.00  0.00    -0.431 C  
HETATM    9  C   UNL     1     -11.703  13.896  64.525  1.00  0.00    -0.410 C  
HETATM   10  O   UNL     1     -12.460  14.322  63.383  1.00  0.00    -1.125 OA 
HETATM   11  C   UNL     1     -12.694  13.549  65.637  1.00  0.00    -0.478 C  
HETATM   12  C   UNL     1     -10.833  15.085  64.935  1.00  0.00    -0.430 C  
HETATM   13  H   UNL     1     -12.983  15.068  63.653  1.00  0.00     0.000 HD 
ENDBRANCH   7   8
ENDBRANCH   6   7
TORSDOF 2
ENDMDL
MODEL        9
REMARK 921   NORMALIZED FREE ENERGY PREDICTED BY IDOCK:   -4.53 KCAL/MOL
REMARK 922        TOTAL FREE ENERGY PREDICTED BY IDOCK:   -5.28 KCAL/MOL
REMARK 923 INTER-LIGAND FREE ENERGY PREDICTED BY IDOCK:   -5.06 KCAL/MOL
REMARK 924 INTRA-LIGAND FREE ENERGY PREDICTED BY IDOCK:   -0.21 KCAL/MOL
REMARK 927      BINDING AFFINITY PREDICTED BY RF-SCORE:    0.00 PKD
ROOT
HETATM    1  C   UNL     1      -9.603  14.571  66.534  1.00  0.00    -0.293 C  
HETATM    2  O   UNL     1      -8.740  14.942  67.324  1.00  0.00    -0.182 OA 
HETATM    3  C   UNL     1     -11.028  15.063  66.577  1.00  0.00    -0.327 C  
HETATM    4  C   UNL     1     -12.041  13.955  66.904  1.00  0.00    -0.467 C  
HETATM    5  C   UNL     1     -12.074  12.879  65.813  1.00  0.00    -0.513 C  
HETATM    6  C   UNL     1     -11.821  13.302  68.284  1.00  0.00    -0.389 C  
ENDROOT
BRANCH   6   7
HETATM    7  C   UNL     1     -11.842  14.264  69.481  1.00  0.00    -0.378 C  
BRANCH   7   8
HETATM    8  C   UNL     1     -12.387  13.625  70.762  1.00  0.00    -0.446 C  
HETATM    9  C   UNL     1     -12.861  14.617  71.843  1.00  0.00    -0.328 C  
HETATM   10  O   UNL     1     -13.292  13.843  72.972  1.00  0.00    -0.623 OA 
HETATM   11  C   UNL     1     -11.745  15.549  72.315  1.00  0.00    -0.578 C  
HETATM   12  C   UNL     1     -14.076  15.424  71.383  1.00  0.00    -0.539 C  
HETATM   13  H   UNL     1     -13.584  14.455  73.637  1.00  0.00     0.000 HD 
ENDBRANCH   7   8
ENDBRANCH   6   7
TORSDOF 2
ENDMDL
MODEL       10
REMARK 921   NORMALIZED FREE ENERGY PREDICTED BY IDOCK:   -4.52 KCAL/MOL
REMARK 922        TOTAL FREE ENERGY PREDICTED BY IDOCK:   -5.27 KCAL/MOL
REMARK 923 INTER-LIGAND FREE ENERGY PREDICTED BY IDOCK:   -5.01 KCAL/MOL
REMARK 924 INTRA-LIGAND FREE ENERGY PREDICTED BY IDOCK:   -0.26 KCAL/MOL
REMARK 927      BINDING AFFINITY PREDICTED BY RF-SCORE:    0.00 PKD
ROOT
HETATM    1  C   UNL     1     -12.250  13.767  64.898  1.00  0.00    -0.415 C  
HETATM    2  O   UNL     1     -12.613  14.505  63.988  1.00  0.00    -0.797 OA 
HETATM    3  C   UNL     1     -12.167  14.209  66.337  1.00  0.00    -0.473 C  
HETATM    4  C   UNL     1     -10.733  14.205  66.890  1.00  0.00    -0.286 C  
HETATM    5  C   UNL     1     -10.144  12.791  66.923  1.00  0.00    -0.234 C  
HETATM    6  C   UNL     1      -9.779  15.159  66.143  1.00  0.00    -0.338 C  
ENDROOT
BRANCH   6   7
HETATM    7  C   UNL     1     -10.215  16.631  66.100  1.00  0.00    -0.360 C  
BRANCH   7   8
HETATM    8  C   UNL     1     -10.532  17.209  67.483  1.00  0.00    -0.348 C  
HETATM    9  C   UNL     1      -9.972  18.620  67.752  1.00  0.00    -0.346 C  
HETATM   10  O   UNL     1     -10.329  18.971  69.096  1.00  0.00    -0.524 OA 
HETATM   11  C   UNL     1      -8.448  18.678  67.644  1.00  0.00    -0.284 C  
HETATM   12  C   UNL     1     -10.614  19.671  66.845  1.00  0.00    -0.603 C  
HETATM   13  H   UNL     1      -9.983  19.840  69.261  1.00  0.00     0.000 HD 
ENDBRANCH   7   8
ENDBRANCH   6   7
TORSDOF 2
ENDMDL
MODEL       11
REMARK 921   NORMALIZED FREE ENERGY PREDICTED BY IDOCK:   -4.51 KCAL/MOL
REMARK 922        TOTAL FREE ENERGY PREDICTED BY IDOCK:   -5.26 KCAL/MOL
REMARK 923 INTER-LIGAND FREE ENERGY PREDICTED BY IDOCK:   -5.03 KCAL/MOL
REMARK 924 INTRA-LIGAND FREE ENERGY PREDICTED BY IDOCK:   -0.23 KCAL/MOL
REMARK 927      BINDING AFFINITY PREDICTED BY RF-SCORE:    0.00 PKD
ROOT
HETATM    1  C   UNL     1      -9.398  10.573  69.106  1.00  0.00    -0.187 C  
HETATM    2  O   UNL     1      -8.469  10.690  68.313  1.00  0.00    -0.117 OA 
HETATM    3  C   UNL     1     -10.754  10.041  68.716  1.00  0.00    -0.250 C  
HETATM    4  C   UNL     1     -11.876  11.082  68.852  1.00  0.00    -0.378 C  
HETATM    5  C   UNL     1     -12.074  11.512  70.309  1.00  0.00    -0.444 C  
HETATM    6  C   UNL     1     -11.681  12.322  67.956  1.00  0.00    -0.417 C  
ENDROOT
BRANCH   6   7
HETATM    7  C   UNL     1     -11.545  12.038  66.453  1.00  0.00    -0.381 C  
BRANCH   7   8
HETATM    8  C   UNL     1     -12.349  13.005  65.578  1.00  0.00    -0.527 C  
HETATM    9  C   UNL     1     -11.603  13.552  64.345  1.00  0.00    -0.396 C  
HETATM   10  O   UNL     1     -12.490  14.463  63.680  1.00  0.00    -1.066 OA 
HETATM   11  C   UNL     1     -10.336  14.322  64.717  1.00  0.00    -0.373 C  
HETATM   12  C   UNL     1     -11.283  12.448  63.336  1.00  0.00    -0.492 C  
HETATM   13  H   UNL     1     -12.031  14.800  62.920  1.00  0.00     0.000 HD 
ENDBRANCH   7   8
ENDBRANCH   6   7
TORSDOF 2
ENDMDL
MODEL       12
REMARK 921   NORMALIZED FREE ENERGY PREDICTED BY IDOCK:   -4.48 KCAL/MOL
REMARK 922        TOTAL FREE ENERGY PREDICTED BY IDOCK:   -5.22 KCAL/MOL
REMARK 923 INTER-LIGAND FREE ENERGY PREDICTED BY IDOCK:   -4.92 KCAL/MOL
REMARK 924 INTRA-LIGAND FREE ENERGY PREDICTED BY IDOCK:   -0.31 KCAL/MOL
REMARK 927      BINDING AFFINITY PREDICTED BY RF-SCORE:    0.00 PKD
ROOT
HETATM    1  C   UNL     1     -12.613  13.114  64.394  1.00  0.00    -0.245 C  
HETATM    2  O   UNL     1     -12.549  13.642  63.288  1.00  0.00    -0.816 OA 
HETATM    3  C   UNL     1     -12.779  13.895  65.674  1.00  0.00    -0.534 C  
HETATM    4  C   UNL     1     -11.572  13.778  66.616  1.00  0.00    -0.392 C  
HETATM    5  C   UNL     1     -11.375  12.339  67.106  1.00  0.00    -0.398 C  
HETATM    6  C   UNL     1     -10.259  14.314  66.010  1.00  0.00    -0.327 C  
ENDROOT
BRANCH   6   7
HETATM    7  C   UNL     1     -10.295  15.777  65.545  1.00  0.00    -0.430 C  
BRANCH   7   8
HETATM    8  C   UNL     1      -9.190  16.638  66.167  1.00  0.00    -0.312 C  
HETATM    9  C   UNL     1      -9.676  17.906  66.898  1.00  0.00    -0.309 C  
HETATM   10  O   UNL     1      -8.512  18.598  67.371  1.00  0.00    -0.261 OA 
HETATM   11  C   UNL     1     -10.443  18.857  65.979  1.00  0.00    -0.507 C  
HETATM   12  C   UNL     1     -10.510  17.567  68.135  1.00  0.00    -0.386 C  
HETATM   13  H   UNL     1      -8.812  19.379  67.821  1.00  0.00     0.000 HD 
ENDBRANCH   7   8
ENDBRANCH   6   7
TORSDOF 2
ENDMDL
MODEL       13
REMARK 921   NORMALIZED FREE ENERGY PREDICTED BY IDOCK:   -4.47 KCAL/MOL
REMARK 922        TOTAL FREE ENERGY PREDICTED BY IDOCK:   -5.22 KCAL/MOL
REMARK 923 INTER-LIGAND FREE ENERGY PREDICTED BY IDOCK:   -4.80 KCAL/MOL
REMARK 924 INTRA-LIGAND FREE ENERGY PREDICTED BY IDOCK:   -0.42 KCAL/MOL
REMARK 927      BINDING AFFINITY PREDICTED BY RF-SCORE:    0.00 PKD
ROOT
HETATM    1  C   UNL     1      -9.730   6.385  68.201  1.00  0.00    -0.122 C  
HETATM    2  O   UNL     1      -9.501   7.485  67.709  1.00  0.00    -0.140 OA 
HETATM    3  C   UNL     1     -10.988   6.071  68.972  1.00  0.00    -0.409 C  
HETATM    4  C   UNL     1     -10.725   5.744  70.450  1.00  0.00    -0.372 C  
HETATM    5  C   UNL     1      -9.890   4.469  70.608  1.00  0.00    -0.292 C  
HETATM    6  C   UNL     1     -10.076   6.902  71.235  1.00  0.00    -0.203 C  
ENDROOT
BRANCH   6   7
HETATM    7  C   UNL     1     -10.854   8.226  71.223  1.00  0.00    -0.285 C  
BRANCH   7   8
HETATM    8  C   UNL     1     -11.777   8.397  72.435  1.00  0.00    -0.452 C  
HETATM    9  C   UNL     1     -13.245   8.730  72.102  1.00  0.00    -0.414 C  
HETATM   10  O   UNL     1     -13.937   8.895  73.348  1.00  0.00    -1.236 OA 
HETATM   11  C   UNL     1     -13.389  10.033  71.314  1.00  0.00    -0.410 C  
HETATM   12  C   UNL     1     -13.939   7.581  71.370  1.00  0.00    -0.468 C  
HETATM   13  H   UNL     1     -14.841   9.100  73.143  1.00  0.00     0.000 HD 
ENDBRANCH   7   8
ENDBRANCH   6   7
TORSDOF 2
ENDMDL
MODEL       14
REMARK 921   NORMALIZED FREE ENERGY PREDICTED BY IDOCK:   -4.47 KCAL/MOL
REMARK 922        TOTAL FREE ENERGY PREDICTED BY IDOCK:   -5.21 KCAL/MOL
REMARK 923 INTER-LIGAND FREE ENERGY PREDICTED BY IDOCK:   -4.95 KCAL/MOL
REMARK 924 INTRA-LIGAND FREE ENERGY PREDICTED BY IDOCK:   -0.26 KCAL/MOL
REMARK 927      BINDING AFFINITY PREDICTED BY RF-SCORE:    0.00 PKD
ROOT
HETATM    1  C   UNL     1     -10.268  16.814  68.978  1.00  0.00    -0.310 C  
HETATM    2  O   UNL     1      -9.827  17.139  67.880  1.00  0.00    -0.267 OA 
HETATM    3  C   UNL     1     -10.205  15.403  69.508  1.00  0.00    -0.273 C  
HETATM    4  C   UNL     1     -11.590  14.765  69.698  1.00  0.00    -0.342 C  
HETATM    5  C   UNL     1     -12.412  15.503  70.760  1.00  0.00    -0.491 C  
HETATM    6  C   UNL     1     -12.401  14.645  68.391  1.00  0.00     0.009 C  
ENDROOT
BRANCH   6   7
HETATM    7  C   UNL     1     -11.721  13.858  67.261  1.00  0.00    -0.418 C  
BRANCH   7   8
HETATM    8  C   UNL     1     -12.424  14.011  65.909  1.00  0.00    -0.513 C  
HETATM    9  C   UNL     1     -11.515  14.437  64.739  1.00  0.00    -0.402 C  
HETATM   10  O   UNL     1     -12.348  14.570  63.578  1.00  0.00    -1.081 OA 
HETATM   11  C   UNL     1     -10.837  15.786  64.982  1.00  0.00    -0.461 C  
HETATM   12  C   UNL     1     -10.475  13.367  64.404  1.00  0.00    -0.403 C  
HETATM   13  H   UNL     1     -11.788  14.833  62.858  1.00  0.00     0.000 HD 
ENDBRANCH   7   8
ENDBRANCH   6   7
TORSDOF 2
ENDMDL
MODEL       15
REMARK 921   NORMALIZED FREE ENERGY PREDICTED BY IDOCK:   -4.47 KCAL/MOL
REMARK 922        TOTAL FREE ENERGY PREDICTED BY IDOCK:   -5.21 KCAL/MOL
REMARK 923 INTER-LIGAND FREE ENERGY PREDICTED BY IDOCK:   -4.91 KCAL/MOL
REMARK 924 INTRA-LIGAND FREE ENERGY PREDICTED BY IDOCK:   -0.30 KCAL/MOL
REMARK 927      BINDING AFFINITY PREDICTED BY RF-SCORE:    0.00 PKD
ROOT
HETATM    1  C   UNL     1     -11.182  14.851  69.529  1.00  0.00    -0.277 C  
HETATM    2  O   UNL     1     -11.283  13.639  69.687  1.00  0.00    -0.193 OA 
HETATM    3  C   UNL     1     -11.638  15.562  68.279  1.00  0.00    -0.344 C  
HETATM    4  C   UNL     1     -10.486  16.211  67.497  1.00  0.00    -0.302 C  
HETATM    5  C   UNL     1      -9.810  17.323  68.305  1.00  0.00    -0.304 C  
HETATM    6  C   UNL     1      -9.430  15.203  66.999  1.00  0.00    -0.237 C  
ENDROOT
BRANCH   6   7
HETATM    7  C   UNL     1      -9.964  14.072  66.108  1.00  0.00    -0.325 C  
BRANCH   7   8
HETATM    8  C   UNL     1     -10.820  14.573  64.940  1.00  0.00    -0.436 C  
HETATM    9  C   UNL     1     -11.689  13.501  64.254  1.00  0.00    -0.416 C  
HETATM   10  O   UNL     1     -12.377  14.141  63.170  1.00  0.00    -1.125 OA 
HETATM   11  C   UNL     1     -10.861  12.357  63.669  1.00  0.00    -0.509 C  
HETATM   12  C   UNL     1     -12.769  12.957  65.190  1.00  0.00    -0.443 C  
HETATM   13  H   UNL     1     -12.913  13.481  62.747  1.00  0.00     0.000 HD 
ENDBRANCH   7   8
ENDBRANCH   6   7
TORSDOF 2
ENDMDL
MODEL       16
REMARK 921   NORMALIZED FREE ENERGY PREDICTED BY IDOCK:   -4.47 KCAL/MOL
REMARK 922        TOTAL FREE ENERGY PREDICTED BY IDOCK:   -5.21 KCAL/MOL
REMARK 923 INTER-LIGAND FREE ENERGY PREDICTED BY IDOCK:   -4.93 KCAL/MOL
REMARK 924 INTRA-LIGAND FREE ENERGY PREDICTED BY IDOCK:   -0.28 KCAL/MOL
REMARK 927      BINDING AFFINITY PREDICTED BY RF-SCORE:    0.00 PKD
ROOT
HETATM    1  C   UNL     1     -12.154  13.037  63.513  1.00  0.00    -0.542 C  
HETATM    2  O   UNL     1     -12.939  12.094  63.506  1.00  0.00    -0.794 OA 
HETATM    3  C   UNL     1     -10.835  13.008  64.242  1.00  0.00    -0.430 C  
HETATM    4  C   UNL     1     -10.756  14.024  65.392  1.00  0.00    -0.344 C  
HETATM    5  C   UNL     1     -10.842  15.465  64.880  1.00  0.00    -0.445 C  
HETATM    6  C   UNL     1     -11.808  13.792  66.496  1.00  0.00    -0.438 C  
ENDROOT
BRANCH   6   7
HETATM    7  C   UNL     1     -11.782  12.404  67.153  1.00  0.00    -0.415 C  
BRANCH   7   8
HETATM    8  C   UNL     1     -10.529  12.157  68.000  1.00  0.00    -0.227 C  
HETATM    9  C   UNL     1     -10.506  10.821  68.768  1.00  0.00    -0.199 C  
HETATM   10  O   UNL     1      -9.290  10.788  69.530  1.00  0.00    -0.406 OA 
HETATM   11  C   UNL     1     -11.672  10.685  69.747  1.00  0.00    -0.385 C  
HETATM   12  C   UNL     1     -10.456   9.620  67.823  1.00  0.00    -0.309 C  
HETATM   13  H   UNL     1      -9.276   9.965  70.003  1.00  0.00     0.000 HD 
ENDBRANCH   7   8
ENDBRANCH   6   7
TORSDOF 2
ENDMDL
MODEL       17
REMARK 921   NORMALIZED FREE ENERGY PREDICTED BY IDOCK:   -4.46 KCAL/MOL
REMARK 922        TOTAL FREE ENERGY PREDICTED BY IDOCK:   -5.20 KCAL/MOL
REMARK 923 INTER-LIGAND FREE ENERGY PREDICTED BY IDOCK:   -4.95 KCAL/MOL
REMARK 924 INTRA-LIGAND FREE ENERGY PREDICTED BY IDOCK:   -0.26 KCAL/MOL
REMARK 927      BINDING AFFINITY PREDICTED BY RF-SCORE:    0.00 PKD
ROOT
HETATM    1  C   UNL     1     -13.598  13.305  72.470  1.00  0.00    -0.532 C  
HETATM    2  O   UNL     1     -13.410  12.299  71.792  1.00  0.00    -0.410 OA 
HETATM    3  C   UNL     1     -14.040  14.623  71.886  1.00  0.00    -0.606 C  
HETATM    4  C   UNL     1     -12.992  15.736  72.043  1.00  0.00    -0.513 C  
HETATM    5  C   UNL     1     -12.740  16.072  73.516  1.00  0.00    -0.702 C  
HETATM    6  C   UNL     1     -11.657  15.433  71.333  1.00  0.00    -0.461 C  
ENDROOT
BRANCH   6   7
HETATM    7  C   UNL     1     -11.757  15.152  69.827  1.00  0.00    -0.347 C  
BRANCH   7   8
HETATM    8  C   UNL     1     -11.283  16.323  68.959  1.00  0.00    -0.326 C  
HETATM    9  C   UNL     1     -10.337  15.945  67.803  1.00  0.00    -0.278 C  
HETATM   10  O   UNL     1      -9.969  17.162  67.138  1.00  0.00    -0.267 OA 
HETATM   11  C   UNL     1      -9.052  15.274  68.290  1.00  0.00    -0.181 C  
HETATM   12  C   UNL     1     -11.033  15.074  66.757  1.00  0.00    -0.323 C  
HETATM   13  H   UNL     1      -9.386  16.929  66.426  1.00  0.00     0.000 HD 
ENDBRANCH   7   8
ENDBRANCH   6   7
TORSDOF 2
ENDMDL
MODEL       18
REMARK 921   NORMALIZED FREE ENERGY PREDICTED BY IDOCK:   -4.43 KCAL/MOL
REMARK 922        TOTAL FREE ENERGY PREDICTED BY IDOCK:   -5.17 KCAL/MOL
REMARK 923 INTER-LIGAND FREE ENERGY PREDICTED BY IDOCK:   -4.97 KCAL/MOL
REMARK 924 INTRA-LIGAND FREE ENERGY PREDICTED BY IDOCK:   -0.20 KCAL/MOL
REMARK 927      BINDING AFFINITY PREDICTED BY RF-SCORE:    0.00 PKD
ROOT
HETATM    1  C   UNL     1     -11.297  12.071  67.202  1.00  0.00    -0.333 C  
HETATM    2  O   UNL     1     -12.089  11.353  67.806  1.00  0.00    -0.637 OA 
HETATM    3  C   UNL     1     -10.161  12.798  67.877  1.00  0.00    -0.229 C  
HETATM    4  C   UNL     1     -10.299  14.327  67.813  1.00  0.00    -0.238 C  
HETATM    5  C   UNL     1     -10.236  14.841  66.371  1.00  0.00    -0.299 C  
HETATM    6  C   UNL     1     -11.564  14.865  68.512  1.00  0.00    -0.347 C  
ENDROOT
BRANCH   6   7
HETATM    7  C   UNL     1     -11.714  14.486  69.993  1.00  0.00    -0.359 C  
BRANCH   7   8
HETATM    8  C   UNL     1     -12.805  15.282  70.715  1.00  0.00    -0.494 C  
HETATM    9  C   UNL     1     -13.058  14.875  72.180  1.00  0.00    -0.344 C  
HETATM   10  O   UNL     1     -14.131  15.691  72.671  1.00  0.00    -0.564 OA 
HETATM   11  C   UNL     1     -13.484  13.413  72.319  1.00  0.00    -0.683 C  
HETATM   12  C   UNL     1     -11.850  15.168  73.070  1.00  0.00    -0.444 C  
HETATM   13  H   UNL     1     -14.286  15.439  73.573  1.00  0.00     0.000 HD 
ENDBRANCH   7   8
ENDBRANCH   6   7
TORSDOF 2
ENDMDL
MODEL       19
REMARK 921   NORMALIZED FREE ENERGY PREDICTED BY IDOCK:   -4.40 KCAL/MOL
REMARK 922        TOTAL FREE ENERGY PREDICTED BY IDOCK:   -5.13 KCAL/MOL
REMARK 923 INTER-LIGAND FREE ENERGY PREDICTED BY IDOCK:   -4.83 KCAL/MOL
REMARK 924 INTRA-LIGAND FREE ENERGY PREDICTED BY IDOCK:   -0.30 KCAL/MOL
REMARK 927      BINDING AFFINITY PREDICTED BY RF-SCORE:    0.00 PKD
ROOT
HETATM    1  C   UNL     1     -11.968  14.693  64.384  1.00  0.00    -0.437 C  
HETATM    2  O   UNL     1     -12.436  15.692  63.849  1.00  0.00    -0.693 OA 
HETATM    3  C   UNL     1     -12.051  14.435  65.868  1.00  0.00    -0.358 C  
HETATM    4  C   UNL     1     -10.678  14.420  66.557  1.00  0.00    -0.306 C  
HETATM    5  C   UNL     1      -9.803  13.269  66.050  1.00  0.00    -0.271 C  
HETATM    6  C   UNL     1      -9.914  15.755  66.444  1.00  0.00    -0.294 C  
ENDROOT
BRANCH   6   7
HETATM    7  C   UNL     1     -10.650  16.987  66.990  1.00  0.00    -0.226 C  
BRANCH   7   8
HETATM    8  C   UNL     1     -10.435  18.246  66.144  1.00  0.00    -0.403 C  
HETATM    9  C   UNL     1      -9.617  19.363  66.822  1.00  0.00    -0.346 C  
HETATM   10  O   UNL     1      -9.558  20.465  65.905  1.00  0.00    -0.653 OA 
HETATM   11  C   UNL     1     -10.264  19.865  68.113  1.00  0.00    -0.564 C  
HETATM   12  C   UNL     1      -8.171  18.936  67.077  1.00  0.00    -0.281 C  
HETATM   13  H   UNL     1      -9.054  21.153  66.322  1.00  0.00     0.000 HD 
ENDBRANCH   7   8
ENDBRANCH   6   7
TORSDOF 2
ENDMDL
MODEL       20
REMARK 921   NORMALIZED FREE ENERGY PREDICTED BY IDOCK:   -4.38 KCAL/MOL
REMARK 922        TOTAL FREE ENERGY PREDICTED BY IDOCK:   -5.12 KCAL/MOL
REMARK 923 INTER-LIGAND FREE ENERGY PREDICTED BY IDOCK:   -4.85 KCAL/MOL
REMARK 924 INTRA-LIGAND FREE ENERGY PREDICTED BY IDOCK:   -0.26 KCAL/MOL
REMARK 927      BINDING AFFINITY PREDICTED BY RF-SCORE:    0.00 PKD
ROOT
HETATM    1  C   UNL     1     -11.663  13.480  66.334  1.00  0.00    -0.369 C  
HETATM    2  O   UNL     1     -12.664  14.101  65.991  1.00  0.00    -0.469 OA 
HETATM    3  C   UNL     1     -11.550  12.761  67.655  1.00  0.00    -0.412 C  
HETATM    4  C   UNL     1     -10.472  13.353  68.577  1.00  0.00    -0.260 C  
HETATM    5  C   UNL     1      -9.071  13.205  67.976  1.00  0.00    -0.207 C  
HETATM    6  C   UNL     1     -10.729  14.823  68.964  1.00  0.00    -0.251 C  
ENDROOT
BRANCH   6   7
HETATM    7  C   UNL     1     -12.075  15.101  69.650  1.00  0.00    -0.336 C  
BRANCH   7   8
HETATM    8  C   UNL     1     -12.328  14.210  70.871  1.00  0.00    -0.438 C  
HETATM    9  C   UNL     1     -12.945  14.923  72.090  1.00  0.00    -0.334 C  
HETATM   10  O   UNL     1     -13.067  13.950  73.137  1.00  0.00    -0.497 OA 
HETATM   11  C   UNL     1     -12.069  16.062  72.612  1.00  0.00    -0.640 C  
HETATM   12  C   UNL     1     -14.361  15.426  71.801  1.00  0.00    -0.639 C  
HETATM   13  H   UNL     1     -13.447  14.390  73.888  1.00  0.00     0.000 HD 
ENDBRANCH   7   8
ENDBRANCH   6   7
TORSDOF 2
ENDMDL
MODEL       21
REMARK 921   NORMALIZED FREE ENERGY PREDICTED BY IDOCK:   -4.38 KCAL/MOL
REMARK 922        TOTAL FREE ENERGY PREDICTED BY IDOCK:   -5.11 KCAL/MOL
REMARK 923 INTER-LIGAND FREE ENERGY PREDICTED BY IDOCK:   -4.85 KCAL/MOL
REMARK 924 INTRA-LIGAND FREE ENERGY PREDICTED BY IDOCK:   -0.26 KCAL/MOL
REMARK 927      BINDING AFFINITY PREDICTED BY RF-SCORE:    0.00 PKD
ROOT
HETATM    1  C   UNL     1      -9.136  15.205  68.252  1.00  0.00    -0.183 C  
HETATM    2  O   UNL     1      -8.503  15.641  69.209  1.00  0.00    -0.237 OA 
HETATM    3  C   UNL     1     -10.450  15.789  67.796  1.00  0.00    -0.283 C  
HETATM    4  C   UNL     1     -11.629  14.816  67.947  1.00  0.00    -0.373 C  
HETATM    5  C   UNL     1     -11.464  13.584  67.051  1.00  0.00    -0.369 C  
HETATM    6  C   UNL     1     -11.891  14.380  69.403  1.00  0.00    -0.369 C  
ENDROOT
BRANCH   6   7
HETATM    7  C   UNL     1     -12.151  15.521  70.398  1.00  0.00    -0.426 C  
BRANCH   7   8
HETATM    8  C   UNL     1     -11.644  15.219  71.812  1.00  0.00    -0.498 C  
HETATM    9  C   UNL     1     -12.739  14.917  72.854  1.00  0.00    -0.435 C  
HETATM   10  O   UNL     1     -12.084  14.704  74.112  1.00  0.00    -0.535 OA 
HETATM   11  C   UNL     1     -13.720  16.076  73.029  1.00  0.00    -0.470 C  
HETATM   12  C   UNL     1     -13.490  13.623  72.534  1.00  0.00    -0.675 C  
HETATM   13  H   UNL     1     -12.759  14.518  74.753  1.00  0.00     0.000 HD 
ENDBRANCH   7   8
ENDBRANCH   6   7
TORSDOF 2
ENDMDL
MODEL       22
REMARK 921   NORMALIZED FREE ENERGY PREDICTED BY IDOCK:   -4.33 KCAL/MOL
REMARK 922        TOTAL FREE ENERGY PREDICTED BY IDOCK:   -5.06 KCAL/MOL
REMARK 923 INTER-LIGAND FREE ENERGY PREDICTED BY IDOCK:   -4.80 KCAL/MOL
REMARK 924 INTRA-LIGAND FREE ENERGY PREDICTED BY IDOCK:   -0.26 KCAL/MOL
REMARK 927      BINDING AFFINITY PREDICTED BY RF-SCORE:    0.00 PKD
ROOT
HETATM    1  C   UNL     1     -12.984   8.726  71.456  1.00  0.00    -0.319 C  
HETATM    2  O   UNL     1     -13.826   8.630  72.344  1.00  0.00    -0.394 OA 
HETATM    3  C   UNL     1     -11.733   9.557  71.591  1.00  0.00    -0.460 C  
HETATM    4  C   UNL     1     -11.682  10.738  70.609  1.00  0.00    -0.442 C  
HETATM    5  C   UNL     1     -11.632  10.262  69.154  1.00  0.00    -0.166 C  
HETATM    6  C   UNL     1     -12.833  11.748  70.796  1.00  0.00    -0.164 C  
ENDROOT
BRANCH   6   7
HETATM    7  C   UNL     1     -12.951  12.365  72.197  1.00  0.00    -0.308 C  
BRANCH   7   8
HETATM    8  C   UNL     1     -13.811  13.632  72.231  1.00  0.00    -0.689 C  
HETATM    9  C   UNL     1     -13.056  14.931  72.577  1.00  0.00    -0.389 C  
HETATM   10  O   UNL     1     -14.023  15.991  72.604  1.00  0.00    -0.475 OA 
HETATM   11  C   UNL     1     -12.387  14.876  73.950  1.00  0.00    -0.572 C  
HETATM   12  C   UNL     1     -12.037  15.303  71.499  1.00  0.00    -0.424 C  
HETATM   13  H   UNL     1     -13.557  16.792  72.816  1.00  0.00     0.000 HD 
ENDBRANCH   7   8
ENDBRANCH   6   7
TORSDOF 2
ENDMDL
MODEL       23
REMARK 921   NORMALIZED FREE ENERGY PREDICTED BY IDOCK:   -4.30 KCAL/MOL
REMARK 922        TOTAL FREE ENERGY PREDICTED BY IDOCK:   -5.02 KCAL/MOL
REMARK 923 INTER-LIGAND FREE ENERGY PREDICTED BY IDOCK:   -4.86 KCAL/MOL
REMARK 924 INTRA-LIGAND FREE ENERGY PREDICTED BY IDOCK:   -0.16 KCAL/MOL
REMARK 927      BINDING AFFINITY PREDICTED BY RF-SCORE:    0.00 PKD
ROOT
HETATM    1  C   UNL     1     -10.707  11.213  67.026  1.00  0.00    -0.268 C  
HETATM    2  O   UNL     1     -11.728  11.748  66.605  1.00  0.00    -0.548 OA 
HETATM    3  C   UNL     1     -10.691   9.838  67.647  1.00  0.00    -0.334 C  
HETATM    4  C   UNL     1     -10.291   9.849  69.130  1.00  0.00    -0.225 C  
HETATM    5  C   UNL     1      -8.852  10.338  69.324  1.00  0.00    -0.186 C  
HETATM    6  C   UNL     1     -11.250  10.660  70.025  1.00  0.00    -0.382 C  
ENDROOT
BRANCH   6   7
HETATM    7  C   UNL     1     -12.721  10.222  69.984  1.00  0.00     0.005 C  
BRANCH   7   8
HETATM    8  C   UNL     1     -13.383  10.193  71.366  1.00  0.00    -0.413 C  
HETATM    9  C   UNL     1     -13.292   8.847  72.112  1.00  0.00    -0.440 C  
HETATM   10  O   UNL     1     -13.998   8.999  73.352  1.00  0.00    -1.220 OA 
HETATM   11  C   UNL     1     -13.948   7.701  71.340  1.00  0.00    -0.447 C  
HETATM   12  C   UNL     1     -11.850   8.493  72.475  1.00  0.00    -0.398 C  
HETATM   13  H   UNL     1     -13.941   8.169  73.811  1.00  0.00     0.000 HD 
ENDBRANCH   7   8
ENDBRANCH   6   7
TORSDOF 2
ENDMDL
MODEL       24
REMARK 921   NORMALIZED FREE ENERGY PREDICTED BY IDOCK:   -4.29 KCAL/MOL
REMARK 922        TOTAL FREE ENERGY PREDICTED BY IDOCK:   -5.01 KCAL/MOL
REMARK 923 INTER-LIGAND FREE ENERGY PREDICTED BY IDOCK:   -4.72 KCAL/MOL
REMARK 924 INTRA-LIGAND FREE ENERGY PREDICTED BY IDOCK:   -0.29 KCAL/MOL
REMARK 927      BINDING AFFINITY PREDICTED BY RF-SCORE:    0.00 PKD
ROOT
HETATM    1  C   UNL     1      -8.157  18.628  68.143  1.00  0.00    -0.294 C  
HETATM    2  O   UNL     1      -7.407  17.915  68.801  1.00  0.00    -0.265 OA 
HETATM    3  C   UNL     1      -9.599  18.873  68.511  1.00  0.00    -0.432 C  
HETATM    4  C   UNL     1     -10.591  18.317  67.479  1.00  0.00    -0.432 C  
HETATM    5  C   UNL     1     -10.451  19.019  66.124  1.00  0.00    -0.541 C  
HETATM    6  C   UNL     1     -10.499  16.788  67.294  1.00  0.00    -0.310 C  
ENDROOT
BRANCH   6   7
HETATM    7  C   UNL     1     -10.699  15.955  68.568  1.00  0.00    -0.274 C  
BRANCH   7   8
HETATM    8  C   UNL     1     -12.102  16.091  69.167  1.00  0.00    -0.065 C  
HETATM    9  C   UNL     1     -12.346  15.293  70.464  1.00  0.00    -0.387 C  
HETATM   10  O   UNL     1     -13.712  15.507  70.846  1.00  0.00    -0.794 OA 
HETATM   11  C   UNL     1     -12.146  13.789  70.274  1.00  0.00    -0.425 C  
HETATM   12  C   UNL     1     -11.487  15.807  71.620  1.00  0.00    -0.495 C  
HETATM   13  H   UNL     1     -13.861  15.015  71.645  1.00  0.00     0.000 HD 
ENDBRANCH   7   8
ENDBRANCH   6   7
TORSDOF 2
ENDMDL
MODEL       25
REMARK 921   NORMALIZED FREE ENERGY PREDICTED BY IDOCK:   -4.28 KCAL/MOL
REMARK 922        TOTAL FREE ENERGY PREDICTED BY IDOCK:   -5.00 KCAL/MOL
REMARK 923 INTER-LIGAND FREE ENERGY PREDICTED BY IDOCK:   -4.63 KCAL/MOL
REMARK 924 INTRA-LIGAND FREE ENERGY PREDICTED BY IDOCK:   -0.37 KCAL/MOL
REMARK 927      BINDING AFFINITY PREDICTED BY RF-SCORE:    0.00 PKD
ROOT
HETATM    1  C   UNL     1      -8.090  15.980  67.668  1.00  0.00    -0.149 C  
HETATM    2  O   UNL     1      -7.245  15.416  66.980  1.00  0.00    -0.180 OA 
HETATM    3  C   UNL     1      -9.464  15.411  67.919  1.00  0.00    -0.197 C  
HETATM    4  C   UNL     1     -10.592  16.268  67.324  1.00  0.00    -0.298 C  
HETATM    5  C   UNL     1     -10.659  17.651  67.981  1.00  0.00    -0.379 C  
HETATM    6  C   UNL     1     -10.514  16.415  65.791  1.00  0.00    -0.369 C  
ENDROOT
BRANCH   6   7
HETATM    7  C   UNL     1     -10.517  15.099  64.999  1.00  0.00    -0.418 C  
BRANCH   7   8
HETATM    8  C   UNL     1     -11.917  14.499  64.827  1.00  0.00    -0.449 C  
HETATM    9  C   UNL     1     -11.973  12.959  64.795  1.00  0.00    -0.396 C  
HETATM   10  O   UNL     1     -13.343  12.587  64.585  1.00  0.00    -0.804 OA 
HETATM   11  C   UNL     1     -11.149  12.363  63.653  1.00  0.00    -0.535 C  
HETATM   12  C   UNL     1     -11.559  12.344  66.133  1.00  0.00    -0.452 C  
HETATM   13  H   UNL     1     -13.378  11.638  64.565  1.00  0.00     0.000 HD 
ENDBRANCH   7   8
ENDBRANCH   6   7
TORSDOF 2
ENDMDL
MODEL       26
REMARK 921   NORMALIZED FREE ENERGY PREDICTED BY IDOCK:   -4.27 KCAL/MOL
REMARK 922        TOTAL FREE ENERGY PREDICTED BY IDOCK:   -4.99 KCAL/MOL
REMARK 923 INTER-LIGAND FREE ENERGY PREDICTED BY IDOCK:   -4.73 KCAL/MOL
REMARK 924 INTRA-LIGAND FREE ENERGY PREDICTED BY IDOCK:   -0.26 KCAL/MOL
REMARK 927      BINDING AFFINITY PREDICTED BY RF-SCORE:    0.00 PKD
ROOT
HETATM    1  C   UNL     1     -10.193  10.778  64.626  1.00  0.00    -0.350 C  
HETATM    2  O   UNL     1      -9.404  10.668  65.559  1.00  0.00    -0.184 OA 
HETATM    3  C   UNL     1     -10.240  11.984  63.722  1.00  0.00    -0.447 C  
HETATM    4  C   UNL     1     -11.557  12.768  63.826  1.00  0.00    -0.548 C  
HETATM    5  C   UNL     1     -12.752  11.932  63.358  1.00  0.00    -0.496 C  
HETATM    6  C   UNL     1     -11.829  13.337  65.234  1.00  0.00    -0.386 C  
ENDROOT
BRANCH   6   7
HETATM    7  C   UNL     1     -10.738  14.260  65.796  1.00  0.00    -0.308 C  
BRANCH   7   8
HETATM    8  C   UNL     1     -10.828  15.695  65.268  1.00  0.00    -0.420 C  
HETATM    9  C   UNL     1     -10.097  16.756  66.115  1.00  0.00    -0.345 C  
HETATM   10  O   UNL     1     -10.327  18.029  65.495  1.00  0.00    -0.606 OA 
HETATM   11  C   UNL     1     -10.627  16.833  67.547  1.00  0.00    -0.309 C  
HETATM   12  C   UNL     1      -8.583  16.542  66.115  1.00  0.00    -0.334 C  
HETATM   13  H   UNL     1      -9.876  18.682  66.017  1.00  0.00     0.000 HD 
ENDBRANCH   7   8
ENDBRANCH   6   7
TORSDOF 2
ENDMDL
MODEL       27
REMARK 921   NORMALIZED FREE ENERGY PREDICTED BY IDOCK:   -4.26 KCAL/MOL
REMARK 922        TOTAL FREE ENERGY PREDICTED BY IDOCK:   -4.97 KCAL/MOL
REMARK 923 INTER-LIGAND FREE ENERGY PREDICTED BY IDOCK:   -4.76 KCAL/MOL
REMARK 924 INTRA-LIGAND FREE ENERGY PREDICTED BY IDOCK:   -0.21 KCAL/MOL
REMARK 927      BINDING AFFINITY PREDICTED BY RF-SCORE:    0.00 PKD
ROOT
HETATM    1  C   UNL     1     -12.207  13.133  63.410  1.00  0.00    -0.444 C  
HETATM    2  O   UNL     1     -12.544  14.312  63.378  1.00  0.00    -0.777 OA 
HETATM    3  C   UNL     1     -12.497  12.223  64.578  1.00  0.00    -0.464 C  
HETATM    4  C   UNL     1     -11.229  11.733  65.293  1.00  0.00    -0.315 C  
HETATM    5  C   UNL     1     -10.362  10.863  64.377  1.00  0.00    -0.430 C  
HETATM    6  C   UNL     1     -10.381  12.871  65.898  1.00  0.00    -0.297 C  
ENDROOT
BRANCH   6   7
HETATM    7  C   UNL     1     -11.110  13.779  66.899  1.00  0.00    -0.311 C  
BRANCH   7   8
HETATM    8  C   UNL     1     -10.295  14.064  68.164  1.00  0.00    -0.241 C  
HETATM    9  C   UNL     1     -11.092  14.662  69.341  1.00  0.00    -0.268 C  
HETATM   10  O   UNL     1     -10.164  14.898  70.409  1.00  0.00    -0.483 OA 
HETATM   11  C   UNL     1     -11.749  15.997  68.989  1.00  0.00    -0.322 C  
HETATM   12  C   UNL     1     -12.132  13.680  69.882  1.00  0.00    -0.406 C  
HETATM   13  H   UNL     1     -10.655  15.266  71.133  1.00  0.00     0.000 HD 
ENDBRANCH   7   8
ENDBRANCH   6   7
TORSDOF 2
ENDMDL
MODEL       28
REMARK 921   NORMALIZED FREE ENERGY PREDICTED BY IDOCK:   -4.25 KCAL/MOL
REMARK 922        TOTAL FREE ENERGY PREDICTED BY IDOCK:   -4.97 KCAL/MOL
REMARK 923 INTER-LIGAND FREE ENERGY PREDICTED BY IDOCK:   -4.73 KCAL/MOL
REMARK 924 INTRA-LIGAND FREE ENERGY PREDICTED BY IDOCK:   -0.24 KCAL/MOL
REMARK 927      BINDING AFFINITY PREDICTED BY RF-SCORE:    0.00 PKD
ROOT
HETATM    1  C   UNL     1     -11.396  14.899  64.831  1.00  0.00    -0.413 C  
HETATM    2  O   UNL     1     -10.761  15.554  65.652  1.00  0.00    -0.330 OA 
HETATM    3  C   UNL     1     -12.640  14.121  65.180  1.00  0.00    -0.426 C  
HETATM    4  C   UNL     1     -12.473  12.604  65.009  1.00  0.00    -0.556 C  
HETATM    5  C   UNL     1     -12.220  12.223  63.547  1.00  0.00    -0.669 C  
HETATM    6  C   UNL     1     -11.378  11.996  65.910  1.00  0.00    -0.391 C  
ENDROOT
BRANCH   6   7
HETATM    7  C   UNL     1     -11.553  12.238  67.417  1.00  0.00    -0.425 C  
BRANCH   7   8
HETATM    8  C   UNL     1     -10.297  11.913  68.232  1.00  0.00    -0.211 C  
HETATM    9  C   UNL     1     -10.389  10.648  69.107  1.00  0.00    -0.221 C  
HETATM   10  O   UNL     1      -9.150  10.532  69.821  1.00  0.00    -0.409 OA 
HETATM   11  C   UNL     1     -11.515  10.726  70.139  1.00  0.00    -0.415 C  
HETATM   12  C   UNL     1     -10.522   9.379  68.264  1.00  0.00    -0.260 C  
HETATM   13  H   UNL     1      -9.207   9.752  70.360  1.00  0.00     0.000 HD 
ENDBRANCH   7   8
ENDBRANCH   6   7
TORSDOF 2
ENDMDL
MODEL       29
REMARK 921   NORMALIZED FREE ENERGY PREDICTED BY IDOCK:   -4.24 KCAL/MOL
REMARK 922        TOTAL FREE ENERGY PREDICTED BY IDOCK:   -4.96 KCAL/MOL
REMARK 923 INTER-LIGAND FREE ENERGY PREDICTED BY IDOCK:   -4.68 KCAL/MOL
REMARK 924 INTRA-LIGAND FREE ENERGY PREDICTED BY IDOCK:   -0.28 KCAL/MOL
REMARK 927      BINDING AFFINITY PREDICTED BY RF-SCORE:    0.00 PKD
ROOT
HETATM    1  C   UNL     1     -10.850  17.075  65.108  1.00  0.00    -0.049 C  
HETATM    2  O   UNL     1     -11.409  16.668  64.094  1.00  0.00    -1.141 OA 
HETATM    3  C   UNL     1      -9.780  16.296  65.831  1.00  0.00    -0.354 C  
HETATM    4  C   UNL     1     -10.196  15.866  67.246  1.00  0.00    -0.278 C  
HETATM    5  C   UNL     1     -10.427  17.074  68.159  1.00  0.00    -0.357 C  
HETATM    6  C   UNL     1     -11.428  14.939  67.275  1.00  0.00    -0.350 C  
ENDROOT
BRANCH   6   7
HETATM    7  C   UNL     1     -11.301  13.645  66.457  1.00  0.00    -0.335 C  
BRANCH   7   8
HETATM    8  C   UNL     1     -11.899  12.422  67.161  1.00  0.00    -0.361 C  
HETATM    9  C   UNL     1     -10.926  11.246  67.378  1.00  0.00    -0.282 C  
HETATM   10  O   UNL     1     -11.668  10.189  68.003  1.00  0.00    -0.685 OA 
HETATM   11  C   UNL     1     -10.357  10.703  66.066  1.00  0.00    -0.290 C  
HETATM   12  C   UNL     1      -9.797  11.610  68.342  1.00  0.00    -0.202 C  
HETATM   13  H   UNL     1     -11.069   9.465  68.137  1.00  0.00     0.000 HD 
ENDBRANCH   7   8
ENDBRANCH   6   7
TORSDOF 2
ENDMDL
MODEL       30
REMARK 921   NORMALIZED FREE ENERGY PREDICTED BY IDOCK:   -4.22 KCAL/MOL
REMARK 922        TOTAL FREE ENERGY PREDICTED BY IDOCK:   -4.94 KCAL/MOL
REMARK 923 INTER-LIGAND FREE ENERGY PREDICTED BY IDOCK:   -4.73 KCAL/MOL
REMARK 924 INTRA-LIGAND FREE ENERGY PREDICTED BY IDOCK:   -0.21 KCAL/MOL
REMARK 927      BINDING AFFINITY PREDICTED BY RF-SCORE:    0.00 PKD
ROOT
HETATM    1  C   UNL     1     -11.462  10.797  69.948  1.00  0.00    -0.321 C  
HETATM    2  O   UNL     1     -12.322  11.545  70.403  1.00  0.00    -0.325 OA 
HETATM    3  C   UNL     1     -10.294  11.285  69.128  1.00  0.00    -0.156 C  
HETATM    4  C   UNL     1     -10.313  10.770  67.681  1.00  0.00    -0.236 C  
HETATM    5  C   UNL     1     -10.171   9.246  67.622  1.00  0.00    -0.285 C  
HETATM    6  C   UNL     1     -11.553  11.217  66.881  1.00  0.00     0.003 C  
ENDROOT
BRANCH   6   7
HETATM    7  C   UNL     1     -11.773  12.735  66.796  1.00  0.00    -0.459 C  
BRANCH   7   8
HETATM    8  C   UNL     1     -12.502  13.170  65.520  1.00  0.00    -0.516 C  
HETATM    9  C   UNL     1     -11.598  13.728  64.403  1.00  0.00    -0.395 C  
HETATM   10  O   UNL     1     -12.453  14.120  63.319  1.00  0.00    -1.146 OA 
HETATM   11  C   UNL     1     -10.811  14.962  64.844  1.00  0.00    -0.431 C  
HETATM   12  C   UNL     1     -10.655  12.661  63.846  1.00  0.00    -0.460 C  
HETATM   13  H   UNL     1     -11.895  14.463  62.631  1.00  0.00     0.000 HD 
ENDBRANCH   7   8
ENDBRANCH   6   7
TORSDOF 2
ENDMDL
MODEL       31
REMARK 921   NORMALIZED FREE ENERGY PREDICTED BY IDOCK:   -4.22 KCAL/MOL
REMARK 922        TOTAL FREE ENERGY PREDICTED BY IDOCK:   -4.94 KCAL/MOL
REMARK 923 INTER-LIGAND FREE ENERGY PREDICTED BY IDOCK:   -4.73 KCAL/MOL
REMARK 924 INTRA-LIGAND FREE ENERGY PREDICTED BY IDOCK:   -0.20 KCAL/MOL
REMARK 927      BINDING AFFINITY PREDICTED BY RF-SCORE:    0.00 PKD
ROOT
HETATM    1  C   UNL     1     -12.229  14.299  64.666  1.00  0.00    -0.454 C  
HETATM    2  O   UNL     1     -12.975  13.336  64.811  1.00  0.00    -0.710 OA 
HETATM    3  C   UNL     1     -10.737  14.169  64.485  1.00  0.00    -0.323 C  
HETATM    4  C   UNL     1      -9.932  14.785  65.639  1.00  0.00    -0.390 C  
HETATM    5  C   UNL     1     -10.142  16.300  65.730  1.00  0.00    -0.373 C  
HETATM    6  C   UNL     1     -10.208  14.129  67.007  1.00  0.00    -0.260 C  
ENDROOT
BRANCH   6   7
HETATM    7  C   UNL     1      -9.961  12.615  67.076  1.00  0.00    -0.220 C  
BRANCH   7   8
HETATM    8  C   UNL     1     -11.231  11.807  67.364  1.00  0.00    -0.357 C  
HETATM    9  C   UNL     1     -11.459  11.444  68.845  1.00  0.00    -0.298 C  
HETATM   10  O   UNL     1     -12.659  10.660  68.912  1.00  0.00    -0.742 OA 
HETATM   11  C   UNL     1     -10.321  10.606  69.428  1.00  0.00    -0.234 C  
HETATM   12  C   UNL     1     -11.706  12.685  69.705  1.00  0.00    -0.373 C  
HETATM   13  H   UNL     1     -12.799  10.437  69.825  1.00  0.00     0.000 HD 
ENDBRANCH   7   8
ENDBRANCH   6   7
TORSDOF 2
ENDMDL
MODEL       32
REMARK 921   NORMALIZED FREE ENERGY PREDICTED BY IDOCK:   -4.21 KCAL/MOL
REMARK 922        TOTAL FREE ENERGY PREDICTED BY IDOCK:   -4.92 KCAL/MOL
REMARK 923 INTER-LIGAND FREE ENERGY PREDICTED BY IDOCK:   -4.58 KCAL/MOL
REMARK 924 INTRA-LIGAND FREE ENERGY PREDICTED BY IDOCK:   -0.34 KCAL/MOL
REMARK 927      BINDING AFFINITY PREDICTED BY RF-SCORE:    0.00 PKD
ROOT
HETATM    1  C   UNL     1     -11.966  13.388  67.002  1.00  0.00    -0.379 C  
HETATM    2  O   UNL     1     -12.000  13.957  68.088  1.00  0.00    -0.355 OA 
HETATM    3  C   UNL     1     -10.708  13.252  66.180  1.00  0.00    -0.287 C  
HETATM    4  C   UNL     1     -10.776  14.001  64.841  1.00  0.00    -0.432 C  
HETATM    5  C   UNL     1     -11.858  13.422  63.923  1.00  0.00    -0.492 C  
HETATM    6  C   UNL     1     -10.969  15.523  64.992  1.00  0.00    -0.454 C  
ENDROOT
BRANCH   6   7
HETATM    7  C   UNL     1      -9.903  16.245  65.830  1.00  0.00    -0.332 C  
BRANCH   7   8
HETATM    8  C   UNL     1     -10.488  17.028  67.009  1.00  0.00    -0.279 C  
HETATM    9  C   UNL     1     -10.010  18.489  67.132  1.00  0.00    -0.336 C  
HETATM   10  O   UNL     1     -10.623  19.040  68.306  1.00  0.00    -0.363 OA 
HETATM   11  C   UNL     1      -8.495  18.599  67.302  1.00  0.00    -0.275 C  
HETATM   12  C   UNL     1     -10.482  19.344  65.956  1.00  0.00    -0.596 C  
HETATM   13  H   UNL     1     -10.328  19.940  68.382  1.00  0.00     0.000 HD 
ENDBRANCH   7   8
ENDBRANCH   6   7
TORSDOF 2
ENDMDL
MODEL       33
REMARK 921   NORMALIZED FREE ENERGY PREDICTED BY IDOCK:   -4.20 KCAL/MOL
REMARK 922        TOTAL FREE ENERGY PREDICTED BY IDOCK:   -4.91 KCAL/MOL
REMARK 923 INTER-LIGAND FREE ENERGY PREDICTED BY IDOCK:   -4.70 KCAL/MOL
REMARK 924 INTRA-LIGAND FREE ENERGY PREDICTED BY IDOCK:   -0.21 KCAL/MOL
REMARK 927      BINDING AFFINITY PREDICTED BY RF-SCORE:    0.00 PKD
ROOT
HETATM    1  C   UNL     1     -12.843  15.778  73.927  1.00  0.00    -0.541 C  
HETATM    2  O   UNL     1     -12.456  16.935  74.055  1.00  0.00    -0.476 OA 
HETATM    3  C   UNL     1     -12.037  14.710  73.229  1.00  0.00    -0.214 C  
HETATM    4  C   UNL     1     -12.705  14.188  71.948  1.00  0.00    -0.406 C  
HETATM    5  C   UNL     1     -14.033  13.485  72.248  1.00  0.00    -0.638 C  
HETATM    6  C   UNL     1     -12.912  15.273  70.872  1.00  0.00    -0.522 C  
ENDROOT
BRANCH   6   7
HETATM    7  C   UNL     1     -11.641  16.008  70.420  1.00  0.00    -0.364 C  
BRANCH   7   8
HETATM    8  C   UNL     1     -11.423  15.966  68.904  1.00  0.00    -0.386 C  
HETATM    9  C   UNL     1     -10.127  16.636  68.407  1.00  0.00    -0.268 C  
HETATM   10  O   UNL     1     -10.118  16.536  66.976  1.00  0.00    -0.265 OA 
HETATM   11  C   UNL     1     -10.054  18.119  68.771  1.00  0.00    -0.392 C  
HETATM   12  C   UNL     1      -8.879  15.901  68.898  1.00  0.00    -0.225 C  
HETATM   13  H   UNL     1      -9.320  16.949  66.669  1.00  0.00     0.000 HD 
ENDBRANCH   7   8
ENDBRANCH   6   7
TORSDOF 2
ENDMDL
MODEL       34
REMARK 921   NORMALIZED FREE ENERGY PREDICTED BY IDOCK:   -4.18 KCAL/MOL
REMARK 922        TOTAL FREE ENERGY PREDICTED BY IDOCK:   -4.89 KCAL/MOL
REMARK 923 INTER-LIGAND FREE ENERGY PREDICTED BY IDOCK:   -4.65 KCAL/MOL
REMARK 924 INTRA-LIGAND FREE ENERGY PREDICTED BY IDOCK:   -0.24 KCAL/MOL
REMARK 927      BINDING AFFINITY PREDICTED BY RF-SCORE:    0.00 PKD
ROOT
HETATM    1  C   UNL     1     -10.036  10.819  64.059  1.00  0.00    -0.342 C  
HETATM    2  O   UNL     1      -9.225  10.477  64.915  1.00  0.00    -0.185 OA 
HETATM    3  C   UNL     1     -10.288  12.259  63.688  1.00  0.00    -0.463 C  
HETATM    4  C   UNL     1     -11.711  12.730  64.024  1.00  0.00    -0.494 C  
HETATM    5  C   UNL     1     -12.765  11.970  63.213  1.00  0.00    -0.437 C  
HETATM    6  C   UNL     1     -12.048  12.660  65.527  1.00  0.00    -0.515 C  
ENDROOT
BRANCH   6   7
HETATM    7  C   UNL     1     -11.109  13.448  66.453  1.00  0.00    -0.312 C  
BRANCH   7   8
HETATM    8  C   UNL     1     -11.825  14.539  67.256  1.00  0.00    -0.419 C  
HETATM    9  C   UNL     1     -11.509  14.560  68.764  1.00  0.00    -0.294 C  
HETATM   10  O   UNL     1     -12.295  15.608  69.350  1.00  0.00    -0.563 OA 
HETATM   11  C   UNL     1     -11.882  13.252  69.463  1.00  0.00    -0.388 C  
HETATM   12  C   UNL     1     -10.046  14.915  69.036  1.00  0.00    -0.237 C  
HETATM   13  H   UNL     1     -12.100  15.621  70.279  1.00  0.00     0.000 HD 
ENDBRANCH   7   8
ENDBRANCH   6   7
TORSDOF 2
ENDMDL
MODEL       35
REMARK 921   NORMALIZED FREE ENERGY PREDICTED BY IDOCK:   -4.18 KCAL/MOL
REMARK 922        TOTAL FREE ENERGY PREDICTED BY IDOCK:   -4.88 KCAL/MOL
REMARK 923 INTER-LIGAND FREE ENERGY PREDICTED BY IDOCK:   -4.58 KCAL/MOL
REMARK 924 INTRA-LIGAND FREE ENERGY PREDICTED BY IDOCK:   -0.30 KCAL/MOL
REMARK 927      BINDING AFFINITY PREDICTED BY RF-SCORE:    0.00 PKD
ROOT
HETATM    1  C   UNL     1     -12.053  13.325  63.321  1.00  0.00    -0.337 C  
HETATM    2  O   UNL     1     -12.634  14.236  63.903  1.00  0.00    -0.787 OA 
HETATM    3  C   UNL     1     -12.105  11.888  63.775  1.00  0.00    -0.547 C  
HETATM    4  C   UNL     1     -10.740  11.344  64.222  1.00  0.00    -0.420 C  
HETATM    5  C   UNL     1      -9.738  11.310  63.064  1.00  0.00    -0.389 C  
HETATM    6  C   UNL     1     -10.135  12.101  65.422  1.00  0.00    -0.282 C  
ENDROOT
BRANCH   6   7
HETATM    7  C   UNL     1     -11.009  12.147  66.684  1.00  0.00    -0.325 C  
BRANCH   7   8
HETATM    8  C   UNL     1     -11.354  10.758  67.232  1.00  0.00    -0.173 C  
HETATM    9  C   UNL     1     -11.036  10.542  68.725  1.00  0.00    -0.265 C  
HETATM   10  O   UNL     1     -11.383   9.186  69.042  1.00  0.00    -0.434 OA 
HETATM   11  C   UNL     1      -9.553  10.730  69.044  1.00  0.00    -0.193 C  
HETATM   12  C   UNL     1     -11.896  11.429  69.626  1.00  0.00    -0.431 C  
HETATM   13  H   UNL     1     -11.187   9.053  69.962  1.00  0.00     0.000 HD 
ENDBRANCH   7   8
ENDBRANCH   6   7
TORSDOF 2
ENDMDL
MODEL       36
REMARK 921   NORMALIZED FREE ENERGY PREDICTED BY IDOCK:   -4.17 KCAL/MOL
REMARK 922        TOTAL FREE ENERGY PREDICTED BY IDOCK:   -4.87 KCAL/MOL
REMARK 923 INTER-LIGAND FREE ENERGY PREDICTED BY IDOCK:   -4.51 KCAL/MOL
REMARK 924 INTRA-LIGAND FREE ENERGY PREDICTED BY IDOCK:   -0.36 KCAL/MOL
REMARK 927      BINDING AFFINITY PREDICTED BY RF-SCORE:    0.00 PKD
ROOT
HETATM    1  C   UNL     1     -10.094  11.413  64.780  1.00  0.00    -0.277 C  
HETATM    2  O   UNL     1      -9.506  11.367  65.856  1.00  0.00    -0.216 OA 
HETATM    3  C   UNL     1     -10.416  12.703  64.070  1.00  0.00    -0.443 C  
HETATM    4  C   UNL     1     -11.925  12.969  63.952  1.00  0.00    -0.551 C  
HETATM    5  C   UNL     1     -12.620  11.911  63.089  1.00  0.00    -0.329 C  
HETATM    6  C   UNL     1     -12.640  13.095  65.313  1.00  0.00    -0.531 C  
ENDROOT
BRANCH   6   7
HETATM    7  C   UNL     1     -12.089  14.178  66.251  1.00  0.00    -0.463 C  
BRANCH   7   8
HETATM    8  C   UNL     1     -11.839  13.674  67.677  1.00  0.00    -0.404 C  
HETATM    9  C   UNL     1     -10.902  14.552  68.531  1.00  0.00    -0.249 C  
HETATM   10  O   UNL     1     -10.754  13.905  69.803  1.00  0.00    -0.447 OA 
HETATM   11  C   UNL     1      -9.509  14.697  67.917  1.00  0.00    -0.210 C  
HETATM   12  C   UNL     1     -11.509  15.927  68.813  1.00  0.00    -0.393 C  
HETATM   13  H   UNL     1     -10.177  14.447  70.329  1.00  0.00     0.000 HD 
ENDBRANCH   7   8
ENDBRANCH   6   7
TORSDOF 2
ENDMDL
MODEL       37
REMARK 921   NORMALIZED FREE ENERGY PREDICTED BY IDOCK:   -4.14 KCAL/MOL
REMARK 922        TOTAL FREE ENERGY PREDICTED BY IDOCK:   -4.84 KCAL/MOL
REMARK 923 INTER-LIGAND FREE ENERGY PREDICTED BY IDOCK:   -4.60 KCAL/MOL
REMARK 924 INTRA-LIGAND FREE ENERGY PREDICTED BY IDOCK:   -0.24 KCAL/MOL
REMARK 927      BINDING AFFINITY PREDICTED BY RF-SCORE:    0.00 PKD
ROOT
HETATM    1  C   UNL     1     -12.017  12.836  67.794  1.00  0.00    -0.260 C  
HETATM    2  O   UNL     1     -11.954  11.951  66.947  1.00  0.00    -0.614 OA 
HETATM    3  C   UNL     1     -11.091  12.912  68.981  1.00  0.00    -0.284 C  
HETATM    4  C   UNL     1     -11.813  12.734  70.325  1.00  0.00    -0.292 C  
HETATM    5  C   UNL     1     -12.810  13.869  70.586  1.00  0.00    -0.291 C  
HETATM    6  C   UNL     1     -12.515  11.369  70.476  1.00  0.00    -0.381 C  
ENDROOT
BRANCH   6   7
HETATM    7  C   UNL     1     -11.610  10.139  70.313  1.00  0.00    -0.379 C  
BRANCH   7   8
HETATM    8  C   UNL     1     -11.374   9.384  71.625  1.00  0.00    -0.452 C  
HETATM    9  C   UNL     1     -12.054   8.003  71.722  1.00  0.00    -0.305 C  
HETATM   10  O   UNL     1     -11.759   7.473  73.022  1.00  0.00    -0.594 OA 
HETATM   11  C   UNL     1     -13.575   8.086  71.587  1.00  0.00    -0.390 C  
HETATM   12  C   UNL     1     -11.478   7.012  70.711  1.00  0.00    -0.360 C  
HETATM   13  H   UNL     1     -12.178   6.623  73.082  1.00  0.00     0.000 HD 
ENDBRANCH   7   8
ENDBRANCH   6   7
TORSDOF 2
ENDMDL
MODEL       38
REMARK 921   NORMALIZED FREE ENERGY PREDICTED BY IDOCK:   -4.13 KCAL/MOL
REMARK 922        TOTAL FREE ENERGY PREDICTED BY IDOCK:   -4.84 KCAL/MOL
REMARK 923 INTER-LIGAND FREE ENERGY PREDICTED BY IDOCK:   -4.58 KCAL/MOL
REMARK 924 INTRA-LIGAND FREE ENERGY PREDICTED BY IDOCK:   -0.26 KCAL/MOL
REMARK 927      BINDING AFFINITY PREDICTED BY RF-SCORE:    0.00 PKD
ROOT
HETATM    1  C   UNL     1      -9.893  17.495  67.644  1.00  0.00    -0.291 C  
HETATM    2  O   UNL     1     -10.610  18.447  67.935  1.00  0.00    -0.394 OA 
HETATM    3  C   UNL     1     -10.429  16.114  67.357  1.00  0.00    -0.310 C  
HETATM    4  C   UNL     1      -9.975  15.064  68.383  1.00  0.00    -0.225 C  
HETATM    5  C   UNL     1      -8.457  14.864  68.354  1.00  0.00    -0.153 C  
HETATM    6  C   UNL     1     -10.442  15.362  69.822  1.00  0.00    -0.303 C  
ENDROOT
BRANCH   6   7
HETATM    7  C   UNL     1     -11.959  15.512  70.008  1.00  0.00    -0.385 C  
BRANCH   7   8
HETATM    8  C   UNL     1     -12.605  14.309  70.704  1.00  0.00    -0.424 C  
HETATM    9  C   UNL     1     -13.182  14.591  72.106  1.00  0.00    -0.369 C  
HETATM   10  O   UNL     1     -13.699  13.352  72.611  1.00  0.00    -0.687 OA 
HETATM   11  C   UNL     1     -12.122  15.089  73.089  1.00  0.00    -0.442 C  
HETATM   12  C   UNL     1     -14.362  15.562  72.053  1.00  0.00    -0.600 C  
HETATM   13  H   UNL     1     -14.054  13.526  73.475  1.00  0.00     0.000 HD 
ENDBRANCH   7   8
ENDBRANCH   6   7
TORSDOF 2
ENDMDL
MODEL       39
REMARK 921   NORMALIZED FREE ENERGY PREDICTED BY IDOCK:   -4.13 KCAL/MOL
REMARK 922        TOTAL FREE ENERGY PREDICTED BY IDOCK:   -4.83 KCAL/MOL
REMARK 923 INTER-LIGAND FREE ENERGY PREDICTED BY IDOCK:   -4.55 KCAL/MOL
REMARK 924 INTRA-LIGAND FREE ENERGY PREDICTED BY IDOCK:   -0.28 KCAL/MOL
REMARK 927      BINDING AFFINITY PREDICTED BY RF-SCORE:    0.00 PKD
ROOT
HETATM    1  C   UNL     1      -8.490  18.705  68.440  1.00  0.00    -0.338 C  
HETATM    2  O   UNL     1      -7.839  17.794  68.941  1.00  0.00    -0.263 OA 
HETATM    3  C   UNL     1      -9.998  18.723  68.409  1.00  0.00    -0.441 C  
HETATM    4  C   UNL     1     -10.575  18.656  66.987  1.00  0.00    -0.448 C  
HETATM    5  C   UNL     1     -10.193  19.890  66.163  1.00  0.00    -0.611 C  
HETATM    6  C   UNL     1     -10.193  17.371  66.224  1.00  0.00    -0.344 C  
ENDROOT
BRANCH   6   7
HETATM    7  C   UNL     1     -10.589  16.054  66.906  1.00  0.00    -0.300 C  
BRANCH   7   8
HETATM    8  C   UNL     1      -9.621  14.904  66.612  1.00  0.00    -0.284 C  
HETATM    9  C   UNL     1     -10.267  13.632  66.026  1.00  0.00    -0.307 C  
HETATM   10  O   UNL     1      -9.223  12.662  65.860  1.00  0.00    -0.441 OA 
HETATM   11  C   UNL     1     -11.322  13.028  66.954  1.00  0.00    -0.352 C  
HETATM   12  C   UNL     1     -10.853  13.879  64.636  1.00  0.00    -0.420 C  
HETATM   13  H   UNL     1      -9.621  11.879  65.499  1.00  0.00     0.000 HD 
ENDBRANCH   7   8
ENDBRANCH   6   7
TORSDOF 2
ENDMDL
MODEL       40
REMARK 921   NORMALIZED FREE ENERGY PREDICTED BY IDOCK:   -4.12 KCAL/MOL
REMARK 922        TOTAL FREE ENERGY PREDICTED BY IDOCK:   -4.82 KCAL/MOL
REMARK 923 INTER-LIGAND FREE ENERGY PREDICTED BY IDOCK:   -4.62 KCAL/MOL
REMARK 924 INTRA-LIGAND FREE ENERGY PREDICTED BY IDOCK:   -0.20 KCAL/MOL
REMARK 927      BINDING AFFINITY PREDICTED BY RF-SCORE:    0.00 PKD
ROOT
HETATM    1  C   UNL     1     -11.413  14.307  67.844  1.00  0.00    -0.315 C  
HETATM    2  O   UNL     1     -11.667  14.968  68.846  1.00  0.00    -0.307 OA 
HETATM    3  C   UNL     1     -10.045  14.261  67.210  1.00  0.00    -0.252 C  
HETATM    4  C   UNL     1     -10.012  14.861  65.796  1.00  0.00    -0.376 C  
HETATM    5  C   UNL     1     -10.879  14.059  64.820  1.00  0.00    -0.430 C  
HETATM    6  C   UNL     1     -10.405  16.352  65.748  1.00  0.00    -0.388 C  
ENDROOT
BRANCH   6   7
HETATM    7  C   UNL     1      -9.561  17.287  66.627  1.00  0.00    -0.286 C  
BRANCH   7   8
HETATM    8  C   UNL     1      -9.823  18.772  66.358  1.00  0.00    -0.403 C  
HETATM    9  C   UNL     1      -9.355  19.735  67.467  1.00  0.00    -0.340 C  
HETATM   10  O   UNL     1      -9.721  21.062  67.062  1.00  0.00    -0.671 OA 
HETATM   11  C   UNL     1     -10.029  19.456  68.811  1.00  0.00    -0.522 C  
HETATM   12  C   UNL     1      -7.834  19.734  67.620  1.00  0.00    -0.326 C  
HETATM   13  H   UNL     1      -9.433  21.655  67.746  1.00  0.00     0.000 HD 
ENDBRANCH   7   8
ENDBRANCH   6   7
TORSDOF 2
ENDMDL
MODEL       41
REMARK 921   NORMALIZED FREE ENERGY PREDICTED BY IDOCK:   -4.11 KCAL/MOL
REMARK 922        TOTAL FREE ENERGY PREDICTED BY IDOCK:   -4.81 KCAL/MOL
REMARK 923 INTER-LIGAND FREE ENERGY PREDICTED BY IDOCK:   -4.37 KCAL/MOL
REMARK 924 INTRA-LIGAND FREE ENERGY PREDICTED BY IDOCK:   -0.44 KCAL/MOL
REMARK 927      BINDING AFFINITY PREDICTED BY RF-SCORE:    0.00 PKD
ROOT
HETATM    1  C   UNL     1      -9.087  14.650  68.159  1.00  0.00    -0.187 C  
HETATM    2  O   UNL     1      -9.063  15.356  69.162  1.00  0.00    -0.210 OA 
HETATM    3  C   UNL     1      -8.512  15.079  66.833  1.00  0.00    -0.269 C  
HETATM    4  C   UNL     1      -9.572  15.225  65.731  1.00  0.00    -0.359 C  
HETATM    5  C   UNL     1     -10.239  13.884  65.406  1.00  0.00    -0.356 C  
HETATM    6  C   UNL     1     -10.647  16.288  66.042  1.00  0.00    -0.288 C  
ENDROOT
BRANCH   6   7
HETATM    7  C   UNL     1     -10.117  17.703  66.313  1.00  0.00    -0.344 C  
BRANCH   7   8
HETATM    8  C   UNL     1     -10.581  18.277  67.656  1.00  0.00    -0.427 C  
HETATM    9  C   UNL     1      -9.657  19.348  68.270  1.00  0.00    -0.378 C  
HETATM   10  O   UNL     1     -10.226  19.730  69.530  1.00  0.00    -0.633 OA 
HETATM   11  C   UNL     1      -8.246  18.824  68.536  1.00  0.00    -0.379 C  
HETATM   12  C   UNL     1      -9.607  20.616  67.416  1.00  0.00    -0.544 C  
HETATM   13  H   UNL     1      -9.657  20.390  69.908  1.00  0.00     0.000 HD 
ENDBRANCH   7   8
ENDBRANCH   6   7
TORSDOF 2
ENDMDL
MODEL       42
REMARK 921   NORMALIZED FREE ENERGY PREDICTED BY IDOCK:   -4.10 KCAL/MOL
REMARK 922        TOTAL FREE ENERGY PREDICTED BY IDOCK:   -4.79 KCAL/MOL
REMARK 923 INTER-LIGAND FREE ENERGY PREDICTED BY IDOCK:   -4.36 KCAL/MOL
REMARK 924 INTRA-LIGAND FREE ENERGY PREDICTED BY IDOCK:   -0.44 KCAL/MOL
REMARK 927      BINDING AFFINITY PREDICTED BY RF-SCORE:    0.00 PKD
ROOT
HETATM    1  C   UNL     1     -10.925  11.595  69.122  1.00  0.00    -0.219 C  
HETATM    2  O   UNL     1     -11.091  10.429  68.778  1.00  0.00    -0.231 OA 
HETATM    3  C   UNL     1     -11.510  12.768  68.375  1.00  0.00    -0.349 C  
HETATM    4  C   UNL     1     -10.444  13.681  67.751  1.00  0.00    -0.241 C  
HETATM    5  C   UNL     1      -9.573  14.347  68.821  1.00  0.00    -0.177 C  
HETATM    6  C   UNL     1      -9.554  12.972  66.710  1.00  0.00    -0.248 C  
ENDROOT
BRANCH   6   7
HETATM    7  C   UNL     1     -10.299  12.323  65.535  1.00  0.00    -0.296 C  
BRANCH   7   8
HETATM    8  C   UNL     1     -10.718  13.326  64.455  1.00  0.00    -0.432 C  
HETATM    9  C   UNL     1     -12.189  13.232  64.003  1.00  0.00    -0.410 C  
HETATM   10  O   UNL     1     -12.380  14.209  62.969  1.00  0.00    -1.070 OA 
HETATM   11  C   UNL     1     -12.539  11.863  63.421  1.00  0.00    -0.555 C  
HETATM   12  C   UNL     1     -13.156  13.600  65.129  1.00  0.00    -0.127 C  
HETATM   13  H   UNL     1     -13.286  14.150  62.691  1.00  0.00     0.000 HD 
ENDBRANCH   7   8
ENDBRANCH   6   7
TORSDOF 2
ENDMDL
MODEL       43
REMARK 921   NORMALIZED FREE ENERGY PREDICTED BY IDOCK:   -4.08 KCAL/MOL
REMARK 922        TOTAL FREE ENERGY PREDICTED BY IDOCK:   -4.78 KCAL/MOL
REMARK 923 INTER-LIGAND FREE ENERGY PREDICTED BY IDOCK:   -4.48 KCAL/MOL
REMARK 924 INTRA-LIGAND FREE ENERGY PREDICTED BY IDOCK:   -0.30 KCAL/MOL
REMARK 927      BINDING AFFINITY PREDICTED BY RF-SCORE:    0.00 PKD
ROOT
HETATM    1  C   UNL     1     -10.881   8.143  72.659  1.00  0.00    -0.359 C  
HETATM    2  O   UNL     1      -9.672   8.353  72.657  1.00  0.00    -0.278 OA 
HETATM    3  C   UNL     1     -11.700   8.020  71.399  1.00  0.00    -0.320 C  
HETATM    4  C   UNL     1     -12.744   9.137  71.243  1.00  0.00    -0.340 C  
HETATM    5  C   UNL     1     -13.798   9.084  72.353  1.00  0.00    -0.540 C  
HETATM    6  C   UNL     1     -12.131  10.550  71.163  1.00  0.00    -0.473 C  
ENDROOT
BRANCH   6   7
HETATM    7  C   UNL     1     -11.108  10.764  70.037  1.00  0.00    -0.327 C  
BRANCH   7   8
HETATM    8  C   UNL     1     -11.750  10.902  68.653  1.00  0.00    -0.334 C  
HETATM    9  C   UNL     1     -11.447  12.221  67.915  1.00  0.00    -0.330 C  
HETATM   10  O   UNL     1     -12.161  12.187  66.671  1.00  0.00    -0.622 OA 
HETATM   11  C   UNL     1     -11.921  13.451  68.691  1.00  0.00    -0.362 C  
HETATM   12  C   UNL     1      -9.965  12.349  67.560  1.00  0.00    -0.196 C  
HETATM   13  H   UNL     1     -11.974  13.000  66.217  1.00  0.00     0.000 HD 
ENDBRANCH   7   8
ENDBRANCH   6   7
TORSDOF 2
ENDMDL
MODEL       44
REMARK 921   NORMALIZED FREE ENERGY PREDICTED BY IDOCK:   -4.08 KCAL/MOL
REMARK 922        TOTAL FREE ENERGY PREDICTED BY IDOCK:   -4.77 KCAL/MOL
REMARK 923 INTER-LIGAND FREE ENERGY PREDICTED BY IDOCK:   -4.57 KCAL/MOL
REMARK 924 INTRA-LIGAND FREE ENERGY PREDICTED BY IDOCK:   -0.20 KCAL/MOL
REMARK 927      BINDING AFFINITY PREDICTED BY RF-SCORE:    0.00 PKD
ROOT
HETATM    1  C   UNL     1      -9.300   9.858  68.055  1.00  0.00    -0.130 C  
HETATM    2  O   UNL     1      -8.278   9.692  67.396  1.00  0.00    -0.113 OA 
HETATM    3  C   UNL     1     -10.662  10.044  67.433  1.00  0.00    -0.336 C  
HETATM    4  C   UNL     1     -11.267  11.429  67.704  1.00  0.00    -0.346 C  
HETATM    5  C   UNL     1     -11.531  11.649  69.198  1.00  0.00    -0.364 C  
HETATM    6  C   UNL     1     -10.428  12.593  67.139  1.00  0.00    -0.245 C  
ENDROOT
BRANCH   6   7
HETATM    7  C   UNL     1     -10.153  12.537  65.629  1.00  0.00    -0.285 C  
BRANCH   7   8
HETATM    8  C   UNL     1     -10.540  13.825  64.894  1.00  0.00    -0.427 C  
HETATM    9  C   UNL     1     -11.977  13.859  64.337  1.00  0.00    -0.450 C  
HETATM   10  O   UNL     1     -12.140  15.109  63.653  1.00  0.00    -0.917 OA 
HETATM   11  C   UNL     1     -12.245  12.739  63.331  1.00  0.00    -0.594 C  
HETATM   12  C   UNL     1     -13.023  13.838  65.453  1.00  0.00    -0.361 C  
HETATM   13  H   UNL     1     -13.025  15.130  63.310  1.00  0.00     0.000 HD 
ENDBRANCH   7   8
ENDBRANCH   6   7
TORSDOF 2
ENDMDL
MODEL       45
REMARK 921   NORMALIZED FREE ENERGY PREDICTED BY IDOCK:   -4.07 KCAL/MOL
REMARK 922        TOTAL FREE ENERGY PREDICTED BY IDOCK:   -4.76 KCAL/MOL
REMARK 923 INTER-LIGAND FREE ENERGY PREDICTED BY IDOCK:   -4.56 KCAL/MOL
REMARK 924 INTRA-LIGAND FREE ENERGY PREDICTED BY IDOCK:   -0.20 KCAL/MOL
REMARK 927      BINDING AFFINITY PREDICTED BY RF-SCORE:    0.00 PKD
ROOT
HETATM    1  C   UNL     1      -9.729   8.645  66.410  1.00  0.00    -0.263 C  
HETATM    2  O   UNL     1     -10.671   8.885  67.158  1.00  0.00    -0.265 OA 
HETATM    3  C   UNL     1      -8.681   9.667  66.047  1.00  0.00    -0.155 C  
HETATM    4  C   UNL     1      -8.683  10.032  64.555  1.00  0.00    -0.214 C  
HETATM    5  C   UNL     1      -8.319   8.830  63.678  1.00  0.00    -0.146 C  
HETATM    6  C   UNL     1     -10.008  10.657  64.072  1.00  0.00    -0.401 C  
ENDROOT
BRANCH   6   7
HETATM    7  C   UNL     1     -10.454  11.922  64.820  1.00  0.00    -0.333 C  
BRANCH   7   8
HETATM    8  C   UNL     1     -11.275  12.882  63.953  1.00  0.00    -0.471 C  
HETATM    9  C   UNL     1     -11.834  14.117  64.686  1.00  0.00    -0.431 C  
HETATM   10  O   UNL     1     -12.602  14.866  63.733  1.00  0.00    -0.999 OA 
HETATM   11  C   UNL     1     -12.761  13.746  65.843  1.00  0.00    -0.452 C  
HETATM   12  C   UNL     1     -10.719  15.047  65.169  1.00  0.00    -0.434 C  
HETATM   13  H   UNL     1     -12.946  15.628  64.185  1.00  0.00     0.000 HD 
ENDBRANCH   7   8
ENDBRANCH   6   7
TORSDOF 2
ENDMDL
MODEL       46
REMARK 921   NORMALIZED FREE ENERGY PREDICTED BY IDOCK:   -4.06 KCAL/MOL
REMARK 922        TOTAL FREE ENERGY PREDICTED BY IDOCK:   -4.75 KCAL/MOL
REMARK 923 INTER-LIGAND FREE ENERGY PREDICTED BY IDOCK:   -4.54 KCAL/MOL
REMARK 924 INTRA-LIGAND FREE ENERGY PREDICTED BY IDOCK:   -0.21 KCAL/MOL
REMARK 927      BINDING AFFINITY PREDICTED BY RF-SCORE:    0.00 PKD
ROOT
HETATM    1  C   UNL     1      -8.094  18.677  66.490  1.00  0.00    -0.284 C  
HETATM    2  O   UNL     1      -7.761  17.836  65.661  1.00  0.00    -0.545 OA 
HETATM    3  C   UNL     1      -8.194  18.386  67.967  1.00  0.00    -0.286 C  
HETATM    4  C   UNL     1      -9.626  18.504  68.511  1.00  0.00    -0.388 C  
HETATM    5  C   UNL     1     -10.158  19.936  68.399  1.00  0.00    -0.557 C  
HETATM    6  C   UNL     1     -10.619  17.519  67.861  1.00  0.00    -0.390 C  
ENDROOT
BRANCH   6   7
HETATM    7  C   UNL     1     -10.243  16.034  67.968  1.00  0.00    -0.245 C  
BRANCH   7   8
HETATM    8  C   UNL     1     -11.389  15.090  67.588  1.00  0.00    -0.342 C  
HETATM    9  C   UNL     1     -11.225  14.367  66.236  1.00  0.00    -0.338 C  
HETATM   10  O   UNL     1     -12.401  13.572  66.033  1.00  0.00    -0.433 OA 
HETATM   11  C   UNL     1     -11.110  15.338  65.060  1.00  0.00    -0.436 C  
HETATM   12  C   UNL     1     -10.043  13.397  66.247  1.00  0.00    -0.299 C  
HETATM   13  H   UNL     1     -12.300  13.126  65.200  1.00  0.00     0.000 HD 
ENDBRANCH   7   8
ENDBRANCH   6   7
TORSDOF 2
ENDMDL
MODEL       47
REMARK 921   NORMALIZED FREE ENERGY PREDICTED BY IDOCK:   -4.03 KCAL/MOL
REMARK 922        TOTAL FREE ENERGY PREDICTED BY IDOCK:   -4.72 KCAL/MOL
REMARK 923 INTER-LIGAND FREE ENERGY PREDICTED BY IDOCK:   -4.43 KCAL/MOL
REMARK 924 INTRA-LIGAND FREE ENERGY PREDICTED BY IDOCK:   -0.30 KCAL/MOL
REMARK 927      BINDING AFFINITY PREDICTED BY RF-SCORE:    0.00 PKD
ROOT
HETATM    1  C   UNL     1     -11.302  14.921  64.515  1.00  0.00    -0.300 C  
HETATM    2  O   UNL     1     -10.977  15.898  65.183  1.00  0.00    -0.398 OA 
HETATM    3  C   UNL     1     -12.553  14.120  64.777  1.00  0.00    -0.326 C  
HETATM    4  C   UNL     1     -12.266  12.675  65.213  1.00  0.00    -0.532 C  
HETATM    5  C   UNL     1     -11.565  11.879  64.107  1.00  0.00    -0.434 C  
HETATM    6  C   UNL     1     -11.465  12.572  66.527  1.00  0.00    -0.418 C  
ENDROOT
BRANCH   6   7
HETATM    7  C   UNL     1     -12.097  13.266  67.743  1.00  0.00    -0.281 C  
BRANCH   7   8
HETATM    8  C   UNL     1     -11.105  13.510  68.884  1.00  0.00    -0.305 C  
HETATM    9  C   UNL     1     -11.273  14.850  69.628  1.00  0.00    -0.275 C  
HETATM   10  O   UNL     1     -10.240  14.919  70.621  1.00  0.00    -0.415 OA 
HETATM   11  C   UNL     1     -11.113  16.059  68.705  1.00  0.00    -0.349 C  
HETATM   12  C   UNL     1     -12.602  14.922  70.380  1.00  0.00    -0.394 C  
HETATM   13  H   UNL     1     -10.345  15.745  71.079  1.00  0.00     0.000 HD 
ENDBRANCH   7   8
ENDBRANCH   6   7
TORSDOF 2
ENDMDL
MODEL       48
REMARK 921   NORMALIZED FREE ENERGY PREDICTED BY IDOCK:   -4.02 KCAL/MOL
REMARK 922        TOTAL FREE ENERGY PREDICTED BY IDOCK:   -4.71 KCAL/MOL
REMARK 923 INTER-LIGAND FREE ENERGY PREDICTED BY IDOCK:   -4.44 KCAL/MOL
REMARK 924 INTRA-LIGAND FREE ENERGY PREDICTED BY IDOCK:   -0.28 KCAL/MOL
REMARK 927      BINDING AFFINITY PREDICTED BY RF-SCORE:    0.00 PKD
ROOT
HETATM    1  C   UNL     1     -11.484  11.795  66.667  1.00  0.00    -0.267 C  
HETATM    2  O   UNL     1     -11.956  12.094  67.759  1.00  0.00    -0.506 OA 
HETATM    3  C   UNL     1     -10.205  12.388  66.130  1.00  0.00    -0.262 C  
HETATM    4  C   UNL     1     -10.415  13.237  64.867  1.00  0.00    -0.387 C  
HETATM    5  C   UNL     1     -10.928  12.392  63.696  1.00  0.00    -0.525 C  
HETATM    6  C   UNL     1     -11.337  14.454  65.085  1.00  0.00    -0.359 C  
ENDROOT
BRANCH   6   7
HETATM    7  C   UNL     1     -10.895  15.430  66.185  1.00  0.00    -0.313 C  
BRANCH   7   8
HETATM    8  C   UNL     1      -9.573  16.139  65.871  1.00  0.00    -0.359 C  
HETATM    9  C   UNL     1      -9.413  17.540  66.493  1.00  0.00    -0.272 C  
HETATM   10  O   UNL     1      -8.149  18.058  66.057  1.00  0.00    -0.483 OA 
HETATM   11  C   UNL     1     -10.499  18.515  66.035  1.00  0.00    -0.433 C  
HETATM   12  C   UNL     1      -9.354  17.484  68.020  1.00  0.00    -0.272 C  
HETATM   13  H   UNL     1      -8.050  18.922  66.440  1.00  0.00     0.000 HD 
ENDBRANCH   7   8
ENDBRANCH   6   7
TORSDOF 2
ENDMDL
MODEL       49
REMARK 921   NORMALIZED FREE ENERGY PREDICTED BY IDOCK:   -4.02 KCAL/MOL
REMARK 922        TOTAL FREE ENERGY PREDICTED BY IDOCK:   -4.71 KCAL/MOL
REMARK 923 INTER-LIGAND FREE ENERGY PREDICTED BY IDOCK:   -4.29 KCAL/MOL
REMARK 924 INTRA-LIGAND FREE ENERGY PREDICTED BY IDOCK:   -0.41 KCAL/MOL
REMARK 927      BINDING AFFINITY PREDICTED BY RF-SCORE:    0.00 PKD
ROOT
HETATM    1  C   UNL     1      -8.554  10.657  68.344  1.00  0.00    -0.134 C  
HETATM    2  O   UNL     1      -8.313  11.643  69.033  1.00  0.00    -0.019 OA 
HETATM    3  C   UNL     1      -8.851  10.733  66.867  1.00  0.00    -0.144 C  
HETATM    4  C   UNL     1     -10.278  10.287  66.513  1.00  0.00    -0.289 C  
HETATM    5  C   UNL     1     -10.506   8.808  66.840  1.00  0.00    -0.319 C  
HETATM    6  C   UNL     1     -11.377  11.149  67.168  1.00  0.00    -0.257 C  
ENDROOT
BRANCH   6   7
HETATM    7  C   UNL     1     -11.312  12.652  66.858  1.00  0.00    -0.373 C  
BRANCH   7   8
HETATM    8  C   UNL     1     -12.172  13.061  65.658  1.00  0.00    -0.521 C  
HETATM    9  C   UNL     1     -11.399  13.662  64.468  1.00  0.00    -0.375 C  
HETATM   10  O   UNL     1     -12.365  14.020  63.470  1.00  0.00    -1.032 OA 
HETATM   11  C   UNL     1     -10.628  14.927  64.845  1.00  0.00    -0.417 C  
HETATM   12  C   UNL     1     -10.466  12.639  63.818  1.00  0.00    -0.411 C  
HETATM   13  H   UNL     1     -11.889  14.390  62.736  1.00  0.00     0.000 HD 
ENDBRANCH   7   8
ENDBRANCH   6   7
TORSDOF 2
ENDMDL
MODEL       50
REMARK 921   NORMALIZED FREE ENERGY PREDICTED BY IDOCK:   -4.01 KCAL/MOL
REMARK 922        TOTAL FREE ENERGY PREDICTED BY IDOCK:   -4.70 KCAL/MOL
REMARK 923 INTER-LIGAND FREE ENERGY PREDICTED BY IDOCK:   -4.44 KCAL/MOL
REMARK 924 INTRA-LIGAND FREE ENERGY PREDICTED BY IDOCK:   -0.26 KCAL/MOL
REMARK 927      BINDING AFFINITY PREDICTED BY RF-SCORE:    0.00 PKD
ROOT
HETATM    1  C   UNL     1     -12.752  15.818  73.876  1.00  0.00    -0.605 C  
HETATM    2  O   UNL     1     -12.433  17.000  73.965  1.00  0.00    -0.384 OA 
HETATM    3  C   UNL     1     -11.934  14.796  73.126  1.00  0.00    -0.237 C  
HETATM    4  C   UNL     1     -12.663  14.215  71.906  1.00  0.00    -0.406 C  
HETATM    5  C   UNL     1     -13.914  13.431  72.314  1.00  0.00    -0.605 C  
HETATM    6  C   UNL     1     -13.025  15.270  70.840  1.00  0.00    -0.522 C  
ENDROOT
BRANCH   6   7
HETATM    7  C   UNL     1     -11.844  16.080  70.285  1.00  0.00    -0.268 C  
BRANCH   7   8
HETATM    8  C   UNL     1     -10.699  15.205  69.765  1.00  0.00    -0.288 C  
HETATM    9  C   UNL     1     -10.569  15.134  68.230  1.00  0.00    -0.243 C  
HETATM   10  O   UNL     1      -9.484  14.244  67.935  1.00  0.00    -0.202 OA 
HETATM   11  C   UNL     1     -11.825  14.577  67.558  1.00  0.00    -0.404 C  
HETATM   12  C   UNL     1     -10.194  16.488  67.626  1.00  0.00    -0.279 C  
HETATM   13  H   UNL     1      -9.404  14.200  66.990  1.00  0.00     0.000 HD 
ENDBRANCH   7   8
ENDBRANCH   6   7
TORSDOF 2
ENDMDL
MODEL       51
REMARK 921   NORMALIZED FREE ENERGY PREDICTED BY IDOCK:   -4.01 KCAL/MOL
REMARK 922        TOTAL FREE ENERGY PREDICTED BY IDOCK:   -4.70 KCAL/MOL
REMARK 923 INTER-LIGAND FREE ENERGY PREDICTED BY IDOCK:   -4.33 KCAL/MOL
REMARK 924 INTRA-LIGAND FREE ENERGY PREDICTED BY IDOCK:   -0.37 KCAL/MOL
REMARK 927      BINDING AFFINITY PREDICTED BY RF-SCORE:    0.00 PKD
ROOT
HETATM    1  C   UNL     1      -7.529  18.852  66.243  1.00  0.00    -0.265 C  
HETATM    2  O   UNL     1      -7.163  17.850  65.637  1.00  0.00    -0.514 OA 
HETATM    3  C   UNL     1      -8.068  18.816  67.651  1.00  0.00    -0.270 C  
HETATM    4  C   UNL     1      -9.539  19.245  67.747  1.00  0.00    -0.395 C  
HETATM    5  C   UNL     1      -9.730  20.709  67.337  1.00  0.00    -0.552 C  
HETATM    6  C   UNL     1     -10.501  18.342  66.947  1.00  0.00    -0.419 C  
ENDROOT
BRANCH   6   7
HETATM    7  C   UNL     1     -10.468  16.852  67.315  1.00  0.00    -0.301 C  
BRANCH   7   8
HETATM    8  C   UNL     1     -10.714  16.589  68.804  1.00  0.00    -0.339 C  
HETATM    9  C   UNL     1     -10.097  15.288  69.354  1.00  0.00    -0.264 C  
HETATM   10  O   UNL     1     -10.465  15.193  70.737  1.00  0.00    -0.513 OA 
HETATM   11  C   UNL     1     -10.624  14.040  68.644  1.00  0.00    -0.263 C  
HETATM   12  C   UNL     1      -8.568  15.320  69.316  1.00  0.00    -0.236 C  
HETATM   13  H   UNL     1     -10.085  14.391  71.076  1.00  0.00     0.000 HD 
ENDBRANCH   7   8
ENDBRANCH   6   7
TORSDOF 2
ENDMDL
MODEL       52
REMARK 921   NORMALIZED FREE ENERGY PREDICTED BY IDOCK:   -3.98 KCAL/MOL
REMARK 922        TOTAL FREE ENERGY PREDICTED BY IDOCK:   -4.66 KCAL/MOL
REMARK 923 INTER-LIGAND FREE ENERGY PREDICTED BY IDOCK:   -4.29 KCAL/MOL
REMARK 924 INTRA-LIGAND FREE ENERGY PREDICTED BY IDOCK:   -0.37 KCAL/MOL
REMARK 927      BINDING AFFINITY PREDICTED BY RF-SCORE:    0.00 PKD
ROOT
HETATM    1  C   UNL     1      -9.647  19.735  66.242  1.00  0.00    -0.423 C  
HETATM    2  O   UNL     1     -10.735  19.747  65.676  1.00  0.00    -0.505 OA 
HETATM    3  C   UNL     1      -8.852  18.475  66.478  1.00  0.00    -0.301 C  
HETATM    4  C   UNL     1      -8.687  18.133  67.967  1.00  0.00    -0.276 C  
HETATM    5  C   UNL     1      -7.876  19.203  68.705  1.00  0.00    -0.383 C  
HETATM    6  C   UNL     1     -10.022  17.885  68.697  1.00  0.00    -0.387 C  
ENDROOT
BRANCH   6   7
HETATM    7  C   UNL     1     -10.905  16.777  68.102  1.00  0.00    -0.353 C  
BRANCH   7   8
HETATM    8  C   UNL     1     -10.170  15.444  67.931  1.00  0.00    -0.239 C  
HETATM    9  C   UNL     1     -10.636  14.583  66.740  1.00  0.00    -0.276 C  
HETATM   10  O   UNL     1      -9.874  13.368  66.768  1.00  0.00    -0.250 OA 
HETATM   11  C   UNL     1     -12.116  14.207  66.829  1.00  0.00    -0.474 C  
HETATM   12  C   UNL     1     -10.333  15.253  65.399  1.00  0.00    -0.421 C  
HETATM   13  H   UNL     1     -10.161  12.838  66.034  1.00  0.00     0.000 HD 
ENDBRANCH   7   8
ENDBRANCH   6   7
TORSDOF 2
ENDMDL
MODEL       53
REMARK 921   NORMALIZED FREE ENERGY PREDICTED BY IDOCK:   -3.90 KCAL/MOL
REMARK 922        TOTAL FREE ENERGY PREDICTED BY IDOCK:   -4.58 KCAL/MOL
REMARK 923 INTER-LIGAND FREE ENERGY PREDICTED BY IDOCK:   -4.37 KCAL/MOL
REMARK 924 INTRA-LIGAND FREE ENERGY PREDICTED BY IDOCK:   -0.21 KCAL/MOL
REMARK 927      BINDING AFFINITY PREDICTED BY RF-SCORE:    0.00 PKD
ROOT
HETATM    1  C   UNL     1     -10.660   8.935  70.744  1.00  0.00    -0.226 C  
HETATM    2  O   UNL     1     -11.060   8.987  71.903  1.00  0.00    -0.355 OA 
HETATM    3  C   UNL     1      -9.919  10.066  70.074  1.00  0.00    -0.273 C  
HETATM    4  C   UNL     1     -10.689  10.679  68.895  1.00  0.00    -0.254 C  
HETATM    5  C   UNL     1     -10.885   9.667  67.760  1.00  0.00    -0.278 C  
HETATM    6  C   UNL     1     -12.046  11.294  69.293  1.00  0.00    -0.372 C  
ENDROOT
BRANCH   6   7
HETATM    7  C   UNL     1     -11.985  12.384  70.374  1.00  0.00    -0.342 C  
BRANCH   7   8
HETATM    8  C   UNL     1     -12.675  13.688  69.959  1.00  0.00    -0.044 C  
HETATM    9  C   UNL     1     -12.970  14.672  71.108  1.00  0.00    -0.350 C  
HETATM   10  O   UNL     1     -13.649  15.800  70.540  1.00  0.00    -0.766 OA 
HETATM   11  C   UNL     1     -13.881  14.070  72.179  1.00  0.00    -0.627 C  
HETATM   12  C   UNL     1     -11.687  15.213  71.740  1.00  0.00    -0.480 C  
HETATM   13  H   UNL     1     -13.831  16.406  71.248  1.00  0.00     0.000 HD 
ENDBRANCH   7   8
ENDBRANCH   6   7
TORSDOF 2
ENDMDL
MODEL       54
REMARK 921   NORMALIZED FREE ENERGY PREDICTED BY IDOCK:   -3.87 KCAL/MOL
REMARK 922        TOTAL FREE ENERGY PREDICTED BY IDOCK:   -4.54 KCAL/MOL
REMARK 923 INTER-LIGAND FREE ENERGY PREDICTED BY IDOCK:   -4.26 KCAL/MOL
REMARK 924 INTRA-LIGAND FREE ENERGY PREDICTED BY IDOCK:   -0.28 KCAL/MOL
REMARK 927      BINDING AFFINITY PREDICTED BY RF-SCORE:    0.00 PKD
ROOT
HETATM    1  C   UNL     1      -9.259  13.284  67.253  1.00  0.00    -0.222 C  
HETATM    2  O   UNL     1      -8.224  13.473  67.884  1.00  0.00    -0.142 OA 
HETATM    3  C   UNL     1      -9.678  14.132  66.079  1.00  0.00    -0.297 C  
HETATM    4  C   UNL     1     -10.970  14.924  66.333  1.00  0.00    -0.336 C  
HETATM    5  C   UNL     1     -12.170  13.995  66.540  1.00  0.00    -0.485 C  
HETATM    6  C   UNL     1     -10.865  15.921  67.505  1.00  0.00    -0.305 C  
ENDROOT
BRANCH   6   7
HETATM    7  C   UNL     1      -9.743  16.963  67.388  1.00  0.00    -0.247 C  
BRANCH   7   8
HETATM    8  C   UNL     1     -10.054  18.076  66.382  1.00  0.00    -0.384 C  
HETATM    9  C   UNL     1      -9.579  19.485  66.790  1.00  0.00    -0.357 C  
HETATM   10  O   UNL     1      -9.993  20.390  65.757  1.00  0.00    -0.615 OA 
HETATM   11  C   UNL     1     -10.203  19.959  68.103  1.00  0.00    -0.564 C  
HETATM   12  C   UNL     1      -8.054  19.575  66.859  1.00  0.00    -0.306 C  
HETATM   13  H   UNL     1      -9.700  21.258  66.009  1.00  0.00     0.000 HD 
ENDBRANCH   7   8
ENDBRANCH   6   7
TORSDOF 2
ENDMDL
MODEL       55
REMARK 921   NORMALIZED FREE ENERGY PREDICTED BY IDOCK:   -3.85 KCAL/MOL
REMARK 922        TOTAL FREE ENERGY PREDICTED BY IDOCK:   -4.52 KCAL/MOL
REMARK 923 INTER-LIGAND FREE ENERGY PREDICTED BY IDOCK:   -4.21 KCAL/MOL
REMARK 924 INTRA-LIGAND FREE ENERGY PREDICTED BY IDOCK:   -0.32 KCAL/MOL
REMARK 927      BINDING AFFINITY PREDICTED BY RF-SCORE:    0.00 PKD
ROOT
HETATM    1  C   UNL     1     -11.739  12.142  66.787  1.00  0.00    -0.305 C  
HETATM    2  O   UNL     1     -11.906  12.358  67.984  1.00  0.00    -0.348 OA 
HETATM    3  C   UNL     1     -10.506  12.576  66.034  1.00  0.00    -0.282 C  
HETATM    4  C   UNL     1     -10.797  13.621  64.947  1.00  0.00    -0.382 C  
HETATM    5  C   UNL     1     -11.699  13.056  63.846  1.00  0.00    -0.531 C  
HETATM    6  C   UNL     1     -11.390  14.935  65.495  1.00  0.00    -0.339 C  
ENDROOT
BRANCH   6   7
HETATM    7  C   UNL     1     -10.544  15.651  66.558  1.00  0.00    -0.307 C  
BRANCH   7   8
HETATM    8  C   UNL     1     -11.270  15.823  67.896  1.00  0.00    -0.313 C  
HETATM    9  C   UNL     1     -10.450  16.507  69.007  1.00  0.00    -0.303 C  
HETATM   10  O   UNL     1     -11.271  16.539  70.184  1.00  0.00    -0.439 OA 
HETATM   11  C   UNL     1      -9.172  15.741  69.352  1.00  0.00    -0.263 C  
HETATM   12  C   UNL     1     -10.128  17.962  68.665  1.00  0.00    -0.394 C  
HETATM   13  H   UNL     1     -10.765  16.961  70.868  1.00  0.00     0.000 HD 
ENDBRANCH   7   8
ENDBRANCH   6   7
TORSDOF 2
ENDMDL
MODEL       56
REMARK 921   NORMALIZED FREE ENERGY PREDICTED BY IDOCK:   -3.85 KCAL/MOL
REMARK 922        TOTAL FREE ENERGY PREDICTED BY IDOCK:   -4.52 KCAL/MOL
REMARK 923 INTER-LIGAND FREE ENERGY PREDICTED BY IDOCK:   -4.25 KCAL/MOL
REMARK 924 INTRA-LIGAND FREE ENERGY PREDICTED BY IDOCK:   -0.27 KCAL/MOL
REMARK 927      BINDING AFFINITY PREDICTED BY RF-SCORE:    0.00 PKD
ROOT
HETATM    1  C   UNL     1     -10.399   9.465  71.201  1.00  0.00    -0.307 C  
HETATM    2  O   UNL     1      -9.304   9.345  70.659  1.00  0.00    -0.248 OA 
HETATM    3  C   UNL     1     -11.705   9.232  70.484  1.00  0.00    -0.225 C  
HETATM    4  C   UNL     1     -12.564  10.499  70.364  1.00  0.00    -0.364 C  
HETATM    5  C   UNL     1     -13.005  11.016  71.737  1.00  0.00    -0.544 C  
HETATM    6  C   UNL     1     -11.888  11.632  69.565  1.00  0.00    -0.414 C  
ENDROOT
BRANCH   6   7
HETATM    7  C   UNL     1     -11.463  11.269  68.134  1.00  0.00    -0.376 C  
BRANCH   7   8
HETATM    8  C   UNL     1     -10.363  12.180  67.580  1.00  0.00    -0.215 C  
HETATM    9  C   UNL     1     -10.755  13.006  66.339  1.00  0.00    -0.282 C  
HETATM   10  O   UNL     1      -9.597  13.755  65.942  1.00  0.00    -0.454 OA 
HETATM   11  C   UNL     1     -11.170  12.130  65.156  1.00  0.00    -0.378 C  
HETATM   12  C   UNL     1     -11.845  14.030  66.656  1.00  0.00    -0.443 C  
HETATM   13  H   UNL     1      -9.839  14.264  65.178  1.00  0.00     0.000 HD 
ENDBRANCH   7   8
ENDBRANCH   6   7
TORSDOF 2
ENDMDL
MODEL       57
REMARK 921   NORMALIZED FREE ENERGY PREDICTED BY IDOCK:   -3.83 KCAL/MOL
REMARK 922        TOTAL FREE ENERGY PREDICTED BY IDOCK:   -4.49 KCAL/MOL
REMARK 923 INTER-LIGAND FREE ENERGY PREDICTED BY IDOCK:   -4.26 KCAL/MOL
REMARK 924 INTRA-LIGAND FREE ENERGY PREDICTED BY IDOCK:   -0.23 KCAL/MOL
REMARK 927      BINDING AFFINITY PREDICTED BY RF-SCORE:    0.00 PKD
ROOT
HETATM    1  C   UNL     1     -11.787  14.245  65.052  1.00  0.00    -0.396 C  
HETATM    2  O   UNL     1     -12.962  13.895  65.100  1.00  0.00    -0.744 OA 
HETATM    3  C   UNL     1     -10.782  13.915  66.128  1.00  0.00    -0.283 C  
HETATM    4  C   UNL     1     -10.248  15.156  66.858  1.00  0.00    -0.259 C  
HETATM    5  C   UNL     1      -9.463  16.073  65.914  1.00  0.00    -0.351 C  
HETATM    6  C   UNL     1     -11.340  15.962  67.590  1.00  0.00    -0.151 C  
ENDROOT
BRANCH   6   7
HETATM    7  C   UNL     1     -12.157  15.178  68.628  1.00  0.00    -0.184 C  
BRANCH   7   8
HETATM    8  C   UNL     1     -11.729  15.456  70.072  1.00  0.00    -0.349 C  
HETATM    9  C   UNL     1     -12.576  14.759  71.156  1.00  0.00    -0.337 C  
HETATM   10  O   UNL     1     -12.059  15.169  72.430  1.00  0.00    -0.348 OA 
HETATM   11  C   UNL     1     -14.050  15.163  71.100  1.00  0.00    -0.463 C  
HETATM   12  C   UNL     1     -12.434  13.238  71.101  1.00  0.00    -0.397 C  
HETATM   13  H   UNL     1     -12.581  14.740  73.097  1.00  0.00     0.000 HD 
ENDBRANCH   7   8
ENDBRANCH   6   7
TORSDOF 2
ENDMDL
MODEL       58
REMARK 921   NORMALIZED FREE ENERGY PREDICTED BY IDOCK:   -3.83 KCAL/MOL
REMARK 922        TOTAL FREE ENERGY PREDICTED BY IDOCK:   -4.49 KCAL/MOL
REMARK 923 INTER-LIGAND FREE ENERGY PREDICTED BY IDOCK:   -4.27 KCAL/MOL
REMARK 924 INTRA-LIGAND FREE ENERGY PREDICTED BY IDOCK:   -0.22 KCAL/MOL
REMARK 927      BINDING AFFINITY PREDICTED BY RF-SCORE:    0.00 PKD
ROOT
HETATM    1  C   UNL     1     -11.027  11.343  66.013  1.00  0.00    -0.226 C  
HETATM    2  O   UNL     1     -10.587  11.694  67.103  1.00  0.00    -0.215 OA 
HETATM    3  C   UNL     1     -10.375  11.708  64.703  1.00  0.00    -0.341 C  
HETATM    4  C   UNL     1     -11.250  12.613  63.822  1.00  0.00    -0.519 C  
HETATM    5  C   UNL     1     -12.537  11.906  63.388  1.00  0.00    -0.555 C  
HETATM    6  C   UNL     1     -11.586  13.971  64.472  1.00  0.00    -0.403 C  
ENDROOT
BRANCH   6   7
HETATM    7  C   UNL     1     -10.377  14.822  64.888  1.00  0.00    -0.365 C  
BRANCH   7   8
HETATM    8  C   UNL     1     -10.746  16.266  65.242  1.00  0.00    -0.349 C  
HETATM    9  C   UNL     1     -10.083  16.822  66.518  1.00  0.00    -0.315 C  
HETATM   10  O   UNL     1     -10.576  18.155  66.709  1.00  0.00    -0.357 OA 
HETATM   11  C   UNL     1     -10.435  16.011  67.766  1.00  0.00    -0.298 C  
HETATM   12  C   UNL     1      -8.565  16.941  66.366  1.00  0.00    -0.328 C  
HETATM   13  H   UNL     1     -10.167  18.497  67.495  1.00  0.00     0.000 HD 
ENDBRANCH   7   8
ENDBRANCH   6   7
TORSDOF 2
ENDMDL
MODEL       59
REMARK 921   NORMALIZED FREE ENERGY PREDICTED BY IDOCK:   -3.82 KCAL/MOL
REMARK 922        TOTAL FREE ENERGY PREDICTED BY IDOCK:   -4.49 KCAL/MOL
REMARK 923 INTER-LIGAND FREE ENERGY PREDICTED BY IDOCK:   -4.32 KCAL/MOL
REMARK 924 INTRA-LIGAND FREE ENERGY PREDICTED BY IDOCK:   -0.17 KCAL/MOL
REMARK 927      BINDING AFFINITY PREDICTED BY RF-SCORE:    0.00 PKD
ROOT
HETATM    1  C   UNL     1     -11.925  15.558  69.486  1.00  0.00    -0.350 C  
HETATM    2  O   UNL     1     -11.468  15.185  68.409  1.00  0.00    -0.304 OA 
HETATM    3  C   UNL     1     -11.437  15.038  70.815  1.00  0.00    -0.335 C  
HETATM    4  C   UNL     1     -12.508  14.252  71.587  1.00  0.00    -0.419 C  
HETATM    5  C   UNL     1     -13.694  15.142  71.973  1.00  0.00    -0.576 C  
HETATM    6  C   UNL     1     -13.009  12.995  70.846  1.00  0.00    -0.121 C  
ENDROOT
BRANCH   6   7
HETATM    7  C   UNL     1     -11.925  11.976  70.466  1.00  0.00    -0.338 C  
BRANCH   7   8
HETATM    8  C   UNL     1     -12.488  10.595  70.115  1.00  0.00    -0.342 C  
HETATM    9  C   UNL     1     -12.459   9.562  71.259  1.00  0.00    -0.346 C  
HETATM   10  O   UNL     1     -12.980   8.332  70.736  1.00  0.00    -0.474 OA 
HETATM   11  C   UNL     1     -11.044   9.289  71.769  1.00  0.00    -0.398 C  
HETATM   12  C   UNL     1     -13.377   9.964  72.414  1.00  0.00    -0.321 C  
HETATM   13  H   UNL     1     -12.962   7.696  71.441  1.00  0.00     0.000 HD 
ENDBRANCH   7   8
ENDBRANCH   6   7
TORSDOF 2
ENDMDL
MODEL       60
REMARK 921   NORMALIZED FREE ENERGY PREDICTED BY IDOCK:   -3.80 KCAL/MOL
REMARK 922        TOTAL FREE ENERGY PREDICTED BY IDOCK:   -4.46 KCAL/MOL
REMARK 923 INTER-LIGAND FREE ENERGY PREDICTED BY IDOCK:   -4.15 KCAL/MOL
REMARK 924 INTRA-LIGAND FREE ENERGY PREDICTED BY IDOCK:   -0.31 KCAL/MOL
REMARK 927      BINDING AFFINITY PREDICTED BY RF-SCORE:    0.00 PKD
ROOT
HETATM    1  C   UNL     1     -10.962  15.549  67.050  1.00  0.00    -0.283 C  
HETATM    2  O   UNL     1     -10.131  15.658  67.947  1.00  0.00    -0.223 OA 
HETATM    3  C   UNL     1     -12.092  14.551  67.088  1.00  0.00    -0.301 C  
HETATM    4  C   UNL     1     -11.998  13.488  65.983  1.00  0.00    -0.449 C  
HETATM    5  C   UNL     1     -12.125  14.108  64.588  1.00  0.00    -0.469 C  
HETATM    6  C   UNL     1     -10.724  12.623  66.064  1.00  0.00    -0.295 C  
ENDROOT
BRANCH   6   7
HETATM    7  C   UNL     1     -10.512  11.879  67.391  1.00  0.00    -0.242 C  
BRANCH   7   8
HETATM    8  C   UNL     1     -11.784  11.203  67.915  1.00  0.00    -0.260 C  
HETATM    9  C   UNL     1     -11.882  11.085  69.450  1.00  0.00    -0.335 C  
HETATM   10  O   UNL     1     -13.104  10.395  69.747  1.00  0.00    -0.577 OA 
HETATM   11  C   UNL     1     -10.732  10.277  70.052  1.00  0.00    -0.345 C  
HETATM   12  C   UNL     1     -11.984  12.455  70.122  1.00  0.00    -0.376 C  
HETATM   13  H   UNL     1     -13.164  10.323  70.692  1.00  0.00     0.000 HD 
ENDBRANCH   7   8
ENDBRANCH   6   7
TORSDOF 2
ENDMDL
MODEL       61
REMARK 921   NORMALIZED FREE ENERGY PREDICTED BY IDOCK:   -3.79 KCAL/MOL
REMARK 922        TOTAL FREE ENERGY PREDICTED BY IDOCK:   -4.46 KCAL/MOL
REMARK 923 INTER-LIGAND FREE ENERGY PREDICTED BY IDOCK:   -4.18 KCAL/MOL
REMARK 924 INTRA-LIGAND FREE ENERGY PREDICTED BY IDOCK:   -0.28 KCAL/MOL
REMARK 927      BINDING AFFINITY PREDICTED BY RF-SCORE:    0.00 PKD
ROOT
HETATM    1  C   UNL     1     -13.682  14.616  71.185  1.00  0.00    -0.314 C  
HETATM    2  O   UNL     1     -14.268  15.648  70.875  1.00  0.00    -0.392 OA 
HETATM    3  C   UNL     1     -12.181  14.473  71.141  1.00  0.00    -0.411 C  
HETATM    4  C   UNL     1     -11.701  13.441  70.109  1.00  0.00    -0.266 C  
HETATM    5  C   UNL     1     -12.176  12.028  70.459  1.00  0.00    -0.414 C  
HETATM    6  C   UNL     1     -12.093  13.787  68.658  1.00  0.00    -0.333 C  
ENDROOT
BRANCH   6   7
HETATM    7  C   UNL     1     -11.610  15.153  68.150  1.00  0.00    -0.358 C  
BRANCH   7   8
HETATM    8  C   UNL     1     -10.160  15.137  67.655  1.00  0.00    -0.231 C  
HETATM    9  C   UNL     1      -9.929  15.779  66.272  1.00  0.00    -0.295 C  
HETATM   10  O   UNL     1      -8.536  15.632  65.962  1.00  0.00    -0.376 OA 
HETATM   11  C   UNL     1     -10.728  15.093  65.164  1.00  0.00    -0.442 C  
HETATM   12  C   UNL     1     -10.213  17.282  66.286  1.00  0.00    -0.347 C  
HETATM   13  H   UNL     1      -8.394  16.028  65.110  1.00  0.00     0.000 HD 
ENDBRANCH   7   8
ENDBRANCH   6   7
TORSDOF 2
ENDMDL
MODEL       62
REMARK 921   NORMALIZED FREE ENERGY PREDICTED BY IDOCK:   -3.79 KCAL/MOL
REMARK 922        TOTAL FREE ENERGY PREDICTED BY IDOCK:   -4.46 KCAL/MOL
REMARK 923 INTER-LIGAND FREE ENERGY PREDICTED BY IDOCK:   -4.25 KCAL/MOL
REMARK 924 INTRA-LIGAND FREE ENERGY PREDICTED BY IDOCK:   -0.21 KCAL/MOL
REMARK 927      BINDING AFFINITY PREDICTED BY RF-SCORE:    0.00 PKD
ROOT
HETATM    1  C   UNL     1     -11.391  14.898  65.196  1.00  0.00    -0.379 C  
HETATM    2  O   UNL     1     -10.700  15.414  66.069  1.00  0.00    -0.307 OA 
HETATM    3  C   UNL     1     -12.611  14.064  65.494  1.00  0.00    -0.543 C  
HETATM    4  C   UNL     1     -12.461  12.597  65.066  1.00  0.00    -0.556 C  
HETATM    5  C   UNL     1     -12.308  12.464  63.547  1.00  0.00    -0.648 C  
HETATM    6  C   UNL     1     -11.311  11.858  65.780  1.00  0.00    -0.354 C  
ENDROOT
BRANCH   6   7
HETATM    7  C   UNL     1     -11.383  11.848  67.314  1.00  0.00    -0.393 C  
BRANCH   7   8
HETATM    8  C   UNL     1     -10.146  12.456  67.983  1.00  0.00    -0.214 C  
HETATM    9  C   UNL     1      -9.050  11.447  68.381  1.00  0.00    -0.179 C  
HETATM   10  O   UNL     1      -8.003  12.187  69.025  1.00  0.00    -0.339 OA 
HETATM   11  C   UNL     1      -9.552  10.394  69.370  1.00  0.00    -0.213 C  
HETATM   12  C   UNL     1      -8.419  10.778  67.160  1.00  0.00    -0.126 C  
HETATM   13  H   UNL     1      -7.329  11.565  69.270  1.00  0.00     0.000 HD 
ENDBRANCH   7   8
ENDBRANCH   6   7
TORSDOF 2
ENDMDL
MODEL       63
REMARK 921   NORMALIZED FREE ENERGY PREDICTED BY IDOCK:   -3.78 KCAL/MOL
REMARK 922        TOTAL FREE ENERGY PREDICTED BY IDOCK:   -4.44 KCAL/MOL
REMARK 923 INTER-LIGAND FREE ENERGY PREDICTED BY IDOCK:   -4.15 KCAL/MOL
REMARK 924 INTRA-LIGAND FREE ENERGY PREDICTED BY IDOCK:   -0.30 KCAL/MOL
REMARK 927      BINDING AFFINITY PREDICTED BY RF-SCORE:    0.00 PKD
ROOT
HETATM    1  C   UNL     1     -11.028  14.689  69.074  1.00  0.00    -0.258 C  
HETATM    2  O   UNL     1     -11.286  15.008  70.231  1.00  0.00    -0.243 OA 
HETATM    3  C   UNL     1      -9.778  15.130  68.355  1.00  0.00    -0.212 C  
HETATM    4  C   UNL     1     -10.061  16.042  67.152  1.00  0.00    -0.270 C  
HETATM    5  C   UNL     1     -10.853  15.310  66.062  1.00  0.00    -0.331 C  
HETATM    6  C   UNL     1     -10.771  17.359  67.526  1.00  0.00    -0.278 C  
ENDROOT
BRANCH   6   7
HETATM    7  C   UNL     1     -10.042  18.232  68.559  1.00  0.00    -0.419 C  
BRANCH   7   8
HETATM    8  C   UNL     1      -9.775  19.658  68.066  1.00  0.00    -0.501 C  
HETATM    9  C   UNL     1      -8.341  19.926  67.570  1.00  0.00    -0.324 C  
HETATM   10  O   UNL     1      -8.270  21.309  67.195  1.00  0.00    -0.624 OA 
HETATM   11  C   UNL     1      -7.289  19.682  68.653  1.00  0.00    -0.375 C  
HETATM   12  C   UNL     1      -8.012  19.120  66.313  1.00  0.00    -0.312 C  
HETATM   13  H   UNL     1      -7.386  21.473  66.890  1.00  0.00     0.000 HD 
ENDBRANCH   7   8
ENDBRANCH   6   7
TORSDOF 2
ENDMDL
MODEL       64
REMARK 921   NORMALIZED FREE ENERGY PREDICTED BY IDOCK:   -3.75 KCAL/MOL
REMARK 922        TOTAL FREE ENERGY PREDICTED BY IDOCK:   -4.41 KCAL/MOL
REMARK 923 INTER-LIGAND FREE ENERGY PREDICTED BY IDOCK:   -4.11 KCAL/MOL
REMARK 924 INTRA-LIGAND FREE ENERGY PREDICTED BY IDOCK:   -0.30 KCAL/MOL
REMARK 927      BINDING AFFINITY PREDICTED BY RF-SCORE:    0.00 PKD
ROOT
HETATM    1  C   UNL     1     -10.511  18.430  67.698  1.00  0.00    -0.419 C  
HETATM    2  O   UNL     1     -10.736  18.917  66.594  1.00  0.00    -0.398 OA 
HETATM    3  C   UNL     1      -9.586  17.257  67.910  1.00  0.00    -0.269 C  
HETATM    4  C   UNL     1     -10.306  16.006  68.436  1.00  0.00    -0.251 C  
HETATM    5  C   UNL     1     -10.901  16.240  69.828  1.00  0.00    -0.356 C  
HETATM    6  C   UNL     1     -11.391  15.468  67.481  1.00  0.00    -0.232 C  
ENDROOT
BRANCH   6   7
HETATM    7  C   UNL     1     -10.910  15.119  66.065  1.00  0.00    -0.335 C  
BRANCH   7   8
HETATM    8  C   UNL     1      -9.823  14.038  66.043  1.00  0.00    -0.316 C  
HETATM    9  C   UNL     1     -10.254  12.683  65.447  1.00  0.00    -0.284 C  
HETATM   10  O   UNL     1      -9.131  11.796  65.552  1.00  0.00    -0.395 OA 
HETATM   11  C   UNL     1     -11.420  12.050  66.207  1.00  0.00    -0.408 C  
HETATM   12  C   UNL     1     -10.581  12.793  63.957  1.00  0.00    -0.446 C  
HETATM   13  H   UNL     1      -9.397  10.961  65.184  1.00  0.00     0.000 HD 
ENDBRANCH   7   8
ENDBRANCH   6   7
TORSDOF 2
ENDMDL
MODEL       65
REMARK 921   NORMALIZED FREE ENERGY PREDICTED BY IDOCK:   -3.74 KCAL/MOL
REMARK 922        TOTAL FREE ENERGY PREDICTED BY IDOCK:   -4.40 KCAL/MOL
REMARK 923 INTER-LIGAND FREE ENERGY PREDICTED BY IDOCK:   -4.04 KCAL/MOL
REMARK 924 INTRA-LIGAND FREE ENERGY PREDICTED BY IDOCK:   -0.36 KCAL/MOL
REMARK 927      BINDING AFFINITY PREDICTED BY RF-SCORE:    0.00 PKD
ROOT
HETATM    1  C   UNL     1     -11.526  14.779  65.482  1.00  0.00    -0.329 C  
HETATM    2  O   UNL     1     -12.360  13.935  65.793  1.00  0.00    -0.430 OA 
HETATM    3  C   UNL     1     -10.061  14.467  65.303  1.00  0.00    -0.389 C  
HETATM    4  C   UNL     1      -9.162  15.172  66.330  1.00  0.00    -0.336 C  
HETATM    5  C   UNL     1      -9.217  16.696  66.177  1.00  0.00    -0.312 C  
HETATM    6  C   UNL     1      -9.460  14.776  67.790  1.00  0.00    -0.204 C  
ENDROOT
BRANCH   6   7
HETATM    7  C   UNL     1      -9.365  13.275  68.101  1.00  0.00    -0.220 C  
BRANCH   7   8
HETATM    8  C   UNL     1     -10.714  12.643  68.457  1.00  0.00    -0.271 C  
HETATM    9  C   UNL     1     -10.923  11.204  67.945  1.00  0.00    -0.253 C  
HETATM   10  O   UNL     1     -12.244  10.801  68.333  1.00  0.00    -0.832 OA 
HETATM   11  C   UNL     1     -10.833  11.102  66.422  1.00  0.00    -0.284 C  
HETATM   12  C   UNL     1      -9.959  10.218  68.606  1.00  0.00    -0.183 C  
HETATM   13  H   UNL     1     -12.372   9.914  68.017  1.00  0.00     0.000 HD 
ENDBRANCH   7   8
ENDBRANCH   6   7
TORSDOF 2
ENDMDL
MODEL       66
REMARK 921   NORMALIZED FREE ENERGY PREDICTED BY IDOCK:   -3.74 KCAL/MOL
REMARK 922        TOTAL FREE ENERGY PREDICTED BY IDOCK:   -4.40 KCAL/MOL
REMARK 923 INTER-LIGAND FREE ENERGY PREDICTED BY IDOCK:   -4.13 KCAL/MOL
REMARK 924 INTRA-LIGAND FREE ENERGY PREDICTED BY IDOCK:   -0.27 KCAL/MOL
REMARK 927      BINDING AFFINITY PREDICTED BY RF-SCORE:    0.00 PKD
ROOT
HETATM    1  C   UNL     1     -13.182  14.618  70.670  1.00  0.00    -0.209 C  
HETATM    2  O   UNL     1     -13.608  15.642  71.195  1.00  0.00    -0.582 OA 
HETATM    3  C   UNL     1     -11.713  14.335  70.482  1.00  0.00    -0.309 C  
HETATM    4  C   UNL     1     -11.294  14.263  69.006  1.00  0.00    -0.303 C  
HETATM    5  C   UNL     1     -11.971  13.094  68.282  1.00  0.00    -0.328 C  
HETATM    6  C   UNL     1     -11.532  15.574  68.230  1.00  0.00    -0.359 C  
ENDROOT
BRANCH   6   7
HETATM    7  C   UNL     1     -10.842  16.819  68.808  1.00  0.00    -0.318 C  
BRANCH   7   8
HETATM    8  C   UNL     1      -9.561  17.204  68.059  1.00  0.00    -0.267 C  
HETATM    9  C   UNL     1      -9.512  18.655  67.541  1.00  0.00    -0.291 C  
HETATM   10  O   UNL     1      -8.272  18.815  66.838  1.00  0.00    -0.251 OA 
HETATM   11  C   UNL     1     -10.646  18.969  66.564  1.00  0.00    -0.495 C  
HETATM   12  C   UNL     1      -9.494  19.669  68.685  1.00  0.00    -0.422 C  
HETATM   13  H   UNL     1      -8.242  19.709  66.519  1.00  0.00     0.000 HD 
ENDBRANCH   7   8
ENDBRANCH   6   7
TORSDOF 2
ENDMDL
MODEL       67
REMARK 921   NORMALIZED FREE ENERGY PREDICTED BY IDOCK:   -3.74 KCAL/MOL
REMARK 922        TOTAL FREE ENERGY PREDICTED BY IDOCK:   -4.39 KCAL/MOL
REMARK 923 INTER-LIGAND FREE ENERGY PREDICTED BY IDOCK:   -4.16 KCAL/MOL
REMARK 924 INTRA-LIGAND FREE ENERGY PREDICTED BY IDOCK:   -0.24 KCAL/MOL
REMARK 927      BINDING AFFINITY PREDICTED BY RF-SCORE:    0.00 PKD
ROOT
HETATM    1  C   UNL     1      -8.974  10.276  68.934  1.00  0.00    -0.164 C  
HETATM    2  O   UNL     1      -8.811  10.041  70.128  1.00  0.00    -0.165 OA 
HETATM    3  C   UNL     1      -9.117  11.672  68.380  1.00  0.00    -0.180 C  
HETATM    4  C   UNL     1     -10.497  11.938  67.760  1.00  0.00    -0.224 C  
HETATM    5  C   UNL     1     -10.750  11.048  66.539  1.00  0.00    -0.298 C  
HETATM    6  C   UNL     1     -11.663  11.805  68.762  1.00  0.00    -0.389 C  
ENDROOT
BRANCH   6   7
HETATM    7  C   UNL     1     -11.573  12.704  70.004  1.00  0.00    -0.199 C  
BRANCH   7   8
HETATM    8  C   UNL     1     -12.511  13.914  69.944  1.00  0.00    -0.285 C  
HETATM    9  C   UNL     1     -12.918  14.500  71.311  1.00  0.00    -0.333 C  
HETATM   10  O   UNL     1     -13.821  15.585  71.057  1.00  0.00    -0.765 OA 
HETATM   11  C   UNL     1     -13.645  13.484  72.193  1.00  0.00    -0.651 C  
HETATM   12  C   UNL     1     -11.723  15.097  72.055  1.00  0.00    -0.504 C  
HETATM   13  H   UNL     1     -14.072  15.946  71.900  1.00  0.00     0.000 HD 
ENDBRANCH   7   8
ENDBRANCH   6   7
TORSDOF 2
ENDMDL
MODEL       68
REMARK 921   NORMALIZED FREE ENERGY PREDICTED BY IDOCK:   -3.72 KCAL/MOL
REMARK 922        TOTAL FREE ENERGY PREDICTED BY IDOCK:   -4.37 KCAL/MOL
REMARK 923 INTER-LIGAND FREE ENERGY PREDICTED BY IDOCK:   -4.13 KCAL/MOL
REMARK 924 INTRA-LIGAND FREE ENERGY PREDICTED BY IDOCK:   -0.25 KCAL/MOL
REMARK 927      BINDING AFFINITY PREDICTED BY RF-SCORE:    0.00 PKD
ROOT
HETATM    1  C   UNL     1      -9.167  16.106  66.057  1.00  0.00    -0.328 C  
HETATM    2  O   UNL     1      -8.085  15.698  66.468  1.00  0.00    -0.249 OA 
HETATM    3  C   UNL     1     -10.488  15.517  66.485  1.00  0.00    -0.301 C  
HETATM    4  C   UNL     1     -11.253  14.848  65.333  1.00  0.00    -0.359 C  
HETATM    5  C   UNL     1     -11.653  15.862  64.255  1.00  0.00    -0.179 C  
HETATM    6  C   UNL     1     -10.498  13.666  64.692  1.00  0.00    -0.442 C  
ENDROOT
BRANCH   6   7
HETATM    7  C   UNL     1     -10.102  12.535  65.654  1.00  0.00    -0.285 C  
BRANCH   7   8
HETATM    8  C   UNL     1     -11.264  12.047  66.525  1.00  0.00    -0.387 C  
HETATM    9  C   UNL     1     -10.900  10.968  67.564  1.00  0.00    -0.263 C  
HETATM   10  O   UNL     1     -12.109  10.608  68.247  1.00  0.00    -0.817 OA 
HETATM   11  C   UNL     1     -10.333   9.701  66.922  1.00  0.00    -0.307 C  
HETATM   12  C   UNL     1      -9.943  11.502  68.631  1.00  0.00    -0.207 C  
HETATM   13  H   UNL     1     -11.884   9.943  68.887  1.00  0.00     0.000 HD 
ENDBRANCH   7   8
ENDBRANCH   6   7
TORSDOF 2
ENDMDL
MODEL       69
REMARK 921   NORMALIZED FREE ENERGY PREDICTED BY IDOCK:   -3.70 KCAL/MOL
REMARK 922        TOTAL FREE ENERGY PREDICTED BY IDOCK:   -4.35 KCAL/MOL
REMARK 923 INTER-LIGAND FREE ENERGY PREDICTED BY IDOCK:   -3.95 KCAL/MOL
REMARK 924 INTRA-LIGAND FREE ENERGY PREDICTED BY IDOCK:   -0.41 KCAL/MOL
REMARK 927      BINDING AFFINITY PREDICTED BY RF-SCORE:    0.00 PKD
ROOT
HETATM    1  C   UNL     1     -12.344  13.082  63.830  1.00  0.00    -0.397 C  
HETATM    2  O   UNL     1     -13.125  12.137  63.779  1.00  0.00    -0.774 OA 
HETATM    3  C   UNL     1     -10.852  12.914  63.968  1.00  0.00    -0.443 C  
HETATM    4  C   UNL     1     -10.299  13.474  65.287  1.00  0.00    -0.344 C  
HETATM    5  C   UNL     1     -10.492  14.991  65.383  1.00  0.00    -0.406 C  
HETATM    6  C   UNL     1     -10.877  12.787  66.542  1.00  0.00    -0.280 C  
ENDROOT
BRANCH   6   7
HETATM    7  C   UNL     1     -10.684  11.265  66.611  1.00  0.00    -0.321 C  
BRANCH   7   8
HETATM    8  C   UNL     1      -9.227  10.850  66.840  1.00  0.00    -0.175 C  
HETATM    9  C   UNL     1      -8.792   9.553  66.128  1.00  0.00    -0.152 C  
HETATM   10  O   UNL     1      -7.427   9.304  66.492  1.00  0.00    -0.091 OA 
HETATM   11  C   UNL     1      -9.618   8.340  66.559  1.00  0.00    -0.312 C  
HETATM   12  C   UNL     1      -8.814   9.702  64.607  1.00  0.00    -0.253 C  
HETATM   13  H   UNL     1      -7.160   8.505  66.054  1.00  0.00     0.000 HD 
ENDBRANCH   7   8
ENDBRANCH   6   7
TORSDOF 2
ENDMDL
MODEL       70
REMARK 921   NORMALIZED FREE ENERGY PREDICTED BY IDOCK:   -3.70 KCAL/MOL
REMARK 922        TOTAL FREE ENERGY PREDICTED BY IDOCK:   -4.35 KCAL/MOL
REMARK 923 INTER-LIGAND FREE ENERGY PREDICTED BY IDOCK:   -4.02 KCAL/MOL
REMARK 924 INTRA-LIGAND FREE ENERGY PREDICTED BY IDOCK:   -0.33 KCAL/MOL
REMARK 927      BINDING AFFINITY PREDICTED BY RF-SCORE:    0.00 PKD
ROOT
HETATM    1  C   UNL     1     -10.913  16.586  68.958  1.00  0.00    -0.306 C  
HETATM    2  O   UNL     1     -10.592  16.445  67.782  1.00  0.00    -0.305 OA 
HETATM    3  C   UNL     1     -10.438  15.670  70.059  1.00  0.00    -0.333 C  
HETATM    4  C   UNL     1     -11.575  14.874  70.717  1.00  0.00    -0.345 C  
HETATM    5  C   UNL     1     -12.570  15.795  71.431  1.00  0.00    -0.516 C  
HETATM    6  C   UNL     1     -12.324  13.942  69.742  1.00  0.00    -0.330 C  
ENDROOT
BRANCH   6   7
HETATM    7  C   UNL     1     -11.450  12.912  69.012  1.00  0.00    -0.358 C  
BRANCH   7   8
HETATM    8  C   UNL     1     -11.893  12.658  67.567  1.00  0.00    -0.396 C  
HETATM    9  C   UNL     1     -10.799  12.110  66.629  1.00  0.00    -0.268 C  
HETATM   10  O   UNL     1     -11.381  11.979  65.325  1.00  0.00    -0.325 OA 
HETATM   11  C   UNL     1      -9.599  13.050  66.512  1.00  0.00    -0.260 C  
HETATM   12  C   UNL     1     -10.344  10.709  67.042  1.00  0.00    -0.280 C  
HETATM   13  H   UNL     1     -10.707  11.641  64.748  1.00  0.00     0.000 HD 
ENDBRANCH   7   8
ENDBRANCH   6   7
TORSDOF 2
ENDMDL
MODEL       71
REMARK 921   NORMALIZED FREE ENERGY PREDICTED BY IDOCK:   -3.69 KCAL/MOL
REMARK 922        TOTAL FREE ENERGY PREDICTED BY IDOCK:   -4.35 KCAL/MOL
REMARK 923 INTER-LIGAND FREE ENERGY PREDICTED BY IDOCK:   -4.12 KCAL/MOL
REMARK 924 INTRA-LIGAND FREE ENERGY PREDICTED BY IDOCK:   -0.23 KCAL/MOL
REMARK 927      BINDING AFFINITY PREDICTED BY RF-SCORE:    0.00 PKD
ROOT
HETATM    1  C   UNL     1      -8.747  18.568  67.666  1.00  0.00    -0.267 C  
HETATM    2  O   UNL     1      -9.939  18.693  67.930  1.00  0.00    -0.318 OA 
HETATM    3  C   UNL     1      -8.244  18.096  66.325  1.00  0.00    -0.243 C  
HETATM    4  C   UNL     1      -7.508  16.749  66.394  1.00  0.00    -0.302 C  
HETATM    5  C   UNL     1      -6.230  16.846  67.234  1.00  0.00    -0.198 C  
HETATM    6  C   UNL     1      -8.388  15.588  66.901  1.00  0.00    -0.290 C  
ENDROOT
BRANCH   6   7
HETATM    7  C   UNL     1      -9.671  15.332  66.097  1.00  0.00    -0.343 C  
BRANCH   7   8
HETATM    8  C   UNL     1     -10.112  13.864  66.112  1.00  0.00    -0.317 C  
HETATM    9  C   UNL     1     -11.579  13.622  66.517  1.00  0.00    -0.366 C  
HETATM   10  O   UNL     1     -11.793  12.203  66.516  1.00  0.00    -0.569 OA 
HETATM   11  C   UNL     1     -11.896  14.140  67.920  1.00  0.00    -0.405 C  
HETATM   12  C   UNL     1     -12.557  14.206  65.496  1.00  0.00    -0.501 C  
HETATM   13  H   UNL     1     -12.697  12.054  66.765  1.00  0.00     0.000 HD 
ENDBRANCH   7   8
ENDBRANCH   6   7
TORSDOF 2
ENDMDL
MODEL       72
REMARK 921   NORMALIZED FREE ENERGY PREDICTED BY IDOCK:   -3.67 KCAL/MOL
REMARK 922        TOTAL FREE ENERGY PREDICTED BY IDOCK:   -4.32 KCAL/MOL
REMARK 923 INTER-LIGAND FREE ENERGY PREDICTED BY IDOCK:   -3.99 KCAL/MOL
REMARK 924 INTRA-LIGAND FREE ENERGY PREDICTED BY IDOCK:   -0.33 KCAL/MOL
REMARK 927      BINDING AFFINITY PREDICTED BY RF-SCORE:    0.00 PKD
ROOT
HETATM    1  C   UNL     1     -11.446   6.299  70.648  1.00  0.00    -0.329 C  
HETATM    2  O   UNL     1     -11.518   6.291  69.423  1.00  0.00    -0.427 OA 
HETATM    3  C   UNL     1     -12.220   7.261  71.514  1.00  0.00    -0.387 C  
HETATM    4  C   UNL     1     -11.319   8.233  72.293  1.00  0.00    -0.446 C  
HETATM    5  C   UNL     1     -10.428   7.495  73.298  1.00  0.00    -0.426 C  
HETATM    6  C   UNL     1     -10.459   9.140  71.390  1.00  0.00    -0.414 C  
ENDROOT
BRANCH   6   7
HETATM    7  C   UNL     1     -11.238   9.997  70.381  1.00  0.00    -0.393 C  
BRANCH   7   8
HETATM    8  C   UNL     1     -10.881   9.691  68.923  1.00  0.00    -0.201 C  
HETATM    9  C   UNL     1     -10.486  10.913  68.070  1.00  0.00    -0.191 C  
HETATM   10  O   UNL     1     -10.232  10.441  66.740  1.00  0.00    -0.209 OA 
HETATM   11  C   UNL     1     -11.599  11.958  67.989  1.00  0.00    -0.401 C  
HETATM   12  C   UNL     1      -9.185  11.552  68.558  1.00  0.00    -0.167 C  
HETATM   13  H   UNL     1      -9.989  11.194  66.215  1.00  0.00     0.000 HD 
ENDBRANCH   7   8
ENDBRANCH   6   7
TORSDOF 2
ENDMDL
MODEL       73
REMARK 921   NORMALIZED FREE ENERGY PREDICTED BY IDOCK:   -3.66 KCAL/MOL
REMARK 922        TOTAL FREE ENERGY PREDICTED BY IDOCK:   -4.31 KCAL/MOL
REMARK 923 INTER-LIGAND FREE ENERGY PREDICTED BY IDOCK:   -4.07 KCAL/MOL
REMARK 924 INTRA-LIGAND FREE ENERGY PREDICTED BY IDOCK:   -0.24 KCAL/MOL
REMARK 927      BINDING AFFINITY PREDICTED BY RF-SCORE:    0.00 PKD
ROOT
HETATM    1  C   UNL     1      -9.837   7.930  66.917  1.00  0.00    -0.239 C  
HETATM    2  O   UNL     1     -10.021   9.032  67.426  1.00  0.00    -0.180 OA 
HETATM    3  C   UNL     1     -10.906   6.869  66.839  1.00  0.00    -0.380 C  
HETATM    4  C   UNL     1     -10.574   5.613  67.659  1.00  0.00    -0.279 C  
HETATM    5  C   UNL     1      -9.330   4.899  67.122  1.00  0.00    -0.139 C  
HETATM    6  C   UNL     1     -10.417   5.884  69.169  1.00  0.00    -0.338 C  
ENDROOT
BRANCH   6   7
HETATM    7  C   UNL     1     -11.629   6.532  69.855  1.00  0.00    -0.433 C  
BRANCH   7   8
HETATM    8  C   UNL     1     -11.565   6.470  71.384  1.00  0.00    -0.371 C  
HETATM    9  C   UNL     1     -11.579   7.836  72.100  1.00  0.00    -0.317 C  
HETATM   10  O   UNL     1     -11.470   7.580  73.507  1.00  0.00    -0.608 OA 
HETATM   11  C   UNL     1     -10.403   8.725  71.695  1.00  0.00    -0.391 C  
HETATM   12  C   UNL     1     -12.904   8.573  71.896  1.00  0.00    -0.399 C  
HETATM   13  H   UNL     1     -11.479   8.422  73.948  1.00  0.00     0.000 HD 
ENDBRANCH   7   8
ENDBRANCH   6   7
TORSDOF 2
ENDMDL
MODEL       74
REMARK 921   NORMALIZED FREE ENERGY PREDICTED BY IDOCK:   -3.64 KCAL/MOL
REMARK 922        TOTAL FREE ENERGY PREDICTED BY IDOCK:   -4.29 KCAL/MOL
REMARK 923 INTER-LIGAND FREE ENERGY PREDICTED BY IDOCK:   -4.05 KCAL/MOL
REMARK 924 INTRA-LIGAND FREE ENERGY PREDICTED BY IDOCK:   -0.24 KCAL/MOL
REMARK 927      BINDING AFFINITY PREDICTED BY RF-SCORE:    0.00 PKD
ROOT
HETATM    1  C   UNL     1      -9.144  14.508  68.354  1.00  0.00    -0.191 C  
HETATM    2  O   UNL     1      -8.206  13.867  68.819  1.00  0.00    -0.122 OA 
HETATM    3  C   UNL     1     -10.477  14.642  69.047  1.00  0.00    -0.248 C  
HETATM    4  C   UNL     1     -11.631  13.993  68.269  1.00  0.00    -0.364 C  
HETATM    5  C   UNL     1     -11.865  14.684  66.922  1.00  0.00    -0.345 C  
HETATM    6  C   UNL     1     -11.461  12.474  68.061  1.00  0.00    -0.368 C  
ENDROOT
BRANCH   6   7
HETATM    7  C   UNL     1     -11.293  11.646  69.344  1.00  0.00    -0.342 C  
BRANCH   7   8
HETATM    8  C   UNL     1     -12.402  10.608  69.544  1.00  0.00    -0.154 C  
HETATM    9  C   UNL     1     -12.602  10.129  70.995  1.00  0.00    -0.381 C  
HETATM   10  O   UNL     1     -13.640   9.139  70.978  1.00  0.00    -0.567 OA 
HETATM   11  C   UNL     1     -11.347   9.479  71.578  1.00  0.00    -0.456 C  
HETATM   12  C   UNL     1     -13.094  11.255  71.905  1.00  0.00    -0.510 C  
HETATM   13  H   UNL     1     -13.763   8.844  71.873  1.00  0.00     0.000 HD 
ENDBRANCH   7   8
ENDBRANCH   6   7
TORSDOF 2
ENDMDL
MODEL       75
REMARK 921   NORMALIZED FREE ENERGY PREDICTED BY IDOCK:   -3.64 KCAL/MOL
REMARK 922        TOTAL FREE ENERGY PREDICTED BY IDOCK:   -4.29 KCAL/MOL
REMARK 923 INTER-LIGAND FREE ENERGY PREDICTED BY IDOCK:   -3.99 KCAL/MOL
REMARK 924 INTRA-LIGAND FREE ENERGY PREDICTED BY IDOCK:   -0.30 KCAL/MOL
REMARK 927      BINDING AFFINITY PREDICTED BY RF-SCORE:    0.00 PKD
ROOT
HETATM    1  C   UNL     1     -10.746  15.818  68.861  1.00  0.00    -0.248 C  
HETATM    2  O   UNL     1     -10.668  16.781  68.104  1.00  0.00    -0.336 OA 
HETATM    3  C   UNL     1     -10.063  14.500  68.593  1.00  0.00    -0.244 C  
HETATM    4  C   UNL     1     -11.047  13.341  68.375  1.00  0.00    -0.299 C  
HETATM    5  C   UNL     1     -11.875  13.057  69.632  1.00  0.00    -0.385 C  
HETATM    6  C   UNL     1     -11.978  13.540  67.161  1.00  0.00    -0.426 C  
ENDROOT
BRANCH   6   7
HETATM    7  C   UNL     1     -11.272  13.759  65.815  1.00  0.00    -0.300 C  
BRANCH   7   8
HETATM    8  C   UNL     1     -11.882  12.942  64.671  1.00  0.00    -0.422 C  
HETATM    9  C   UNL     1     -10.957  11.870  64.062  1.00  0.00    -0.381 C  
HETATM   10  O   UNL     1     -11.678  11.245  62.989  1.00  0.00    -0.863 OA 
HETATM   11  C   UNL     1      -9.675  12.463  63.478  1.00  0.00     0.162 C  
HETATM   12  C   UNL     1     -10.629  10.763  65.064  1.00  0.00    -0.243 C  
HETATM   13  H   UNL     1     -11.108  10.585  62.614  1.00  0.00     0.000 HD 
ENDBRANCH   7   8
ENDBRANCH   6   7
TORSDOF 2
ENDMDL
MODEL       76
REMARK 921   NORMALIZED FREE ENERGY PREDICTED BY IDOCK:   -3.64 KCAL/MOL
REMARK 922        TOTAL FREE ENERGY PREDICTED BY IDOCK:   -4.28 KCAL/MOL
REMARK 923 INTER-LIGAND FREE ENERGY PREDICTED BY IDOCK:   -3.94 KCAL/MOL
REMARK 924 INTRA-LIGAND FREE ENERGY PREDICTED BY IDOCK:   -0.35 KCAL/MOL
REMARK 927      BINDING AFFINITY PREDICTED BY RF-SCORE:    0.00 PKD
ROOT
HETATM    1  C   UNL     1      -6.530  18.818  66.382  1.00  0.00    -0.196 C  
HETATM    2  O   UNL     1      -7.092  18.323  65.410  1.00  0.00    -0.537 OA 
HETATM    3  C   UNL     1      -6.497  18.162  67.739  1.00  0.00    -0.188 C  
HETATM    4  C   UNL     1      -7.240  18.964  68.818  1.00  0.00    -0.351 C  
HETATM    5  C   UNL     1      -6.577  20.323  69.069  1.00  0.00    -0.281 C  
HETATM    6  C   UNL     1      -8.742  19.155  68.523  1.00  0.00    -0.401 C  
ENDROOT
BRANCH   6   7
HETATM    7  C   UNL     1      -9.546  17.861  68.325  1.00  0.00    -0.312 C  
BRANCH   7   8
HETATM    8  C   UNL     1      -9.964  17.625  66.870  1.00  0.00    -0.323 C  
HETATM    9  C   UNL     1     -10.175  16.149  66.478  1.00  0.00    -0.297 C  
HETATM   10  O   UNL     1     -10.515  16.123  65.084  1.00  0.00    -0.560 OA 
HETATM   11  C   UNL     1      -8.914  15.304  66.665  1.00  0.00    -0.324 C  
HETATM   12  C   UNL     1     -11.355  15.523  67.222  1.00  0.00    -0.167 C  
HETATM   13  H   UNL     1     -10.645  15.214  64.843  1.00  0.00     0.000 HD 
ENDBRANCH   7   8
ENDBRANCH   6   7
TORSDOF 2
ENDMDL
MODEL       77
REMARK 921   NORMALIZED FREE ENERGY PREDICTED BY IDOCK:   -3.64 KCAL/MOL
REMARK 922        TOTAL FREE ENERGY PREDICTED BY IDOCK:   -4.28 KCAL/MOL
REMARK 923 INTER-LIGAND FREE ENERGY PREDICTED BY IDOCK:   -4.05 KCAL/MOL
REMARK 924 INTRA-LIGAND FREE ENERGY PREDICTED BY IDOCK:   -0.23 KCAL/MOL
REMARK 927      BINDING AFFINITY PREDICTED BY RF-SCORE:    0.00 PKD
ROOT
HETATM    1  C   UNL     1      -7.691   5.967  71.385  1.00  0.00    -0.107 C  
HETATM    2  O   UNL     1      -7.437   6.947  72.079  1.00  0.00    -0.089 OA 
HETATM    3  C   UNL     1      -8.585   6.023  70.172  1.00  0.00    -0.135 C  
HETATM    4  C   UNL     1      -9.872   5.198  70.329  1.00  0.00    -0.295 C  
HETATM    5  C   UNL     1      -9.571   3.703  70.473  1.00  0.00    -0.256 C  
HETATM    6  C   UNL     1     -10.773   5.670  71.489  1.00  0.00    -0.306 C  
ENDROOT
BRANCH   6   7
HETATM    7  C   UNL     1     -11.214   7.140  71.427  1.00  0.00    -0.278 C  
BRANCH   7   8
HETATM    8  C   UNL     1     -12.141   7.543  72.579  1.00  0.00    -0.158 C  
HETATM    9  C   UNL     1     -13.306   8.475  72.191  1.00  0.00    -0.351 C  
HETATM   10  O   UNL     1     -14.030   8.775  73.393  1.00  0.00    -1.132 OA 
HETATM   11  C   UNL     1     -12.828   9.798  71.592  1.00  0.00    -0.519 C  
HETATM   12  C   UNL     1     -14.298   7.787  71.251  1.00  0.00    -0.425 C  
HETATM   13  H   UNL     1     -14.748   9.349  73.154  1.00  0.00     0.000 HD 
ENDBRANCH   7   8
ENDBRANCH   6   7
TORSDOF 2
ENDMDL
MODEL       78
REMARK 921   NORMALIZED FREE ENERGY PREDICTED BY IDOCK:   -3.63 KCAL/MOL
REMARK 922        TOTAL FREE ENERGY PREDICTED BY IDOCK:   -4.27 KCAL/MOL
REMARK 923 INTER-LIGAND FREE ENERGY PREDICTED BY IDOCK:   -4.08 KCAL/MOL
REMARK 924 INTRA-LIGAND FREE ENERGY PREDICTED BY IDOCK:   -0.20 KCAL/MOL
REMARK 927      BINDING AFFINITY PREDICTED BY RF-SCORE:    0.00 PKD
ROOT
HETATM    1  C   UNL     1     -11.477  13.034  69.001  1.00  0.00    -0.303 C  
HETATM    2  O   UNL     1     -12.157  13.244  70.001  1.00  0.00    -0.322 OA 
HETATM    3  C   UNL     1     -11.653  11.822  68.122  1.00  0.00    -0.391 C  
HETATM    4  C   UNL     1     -10.430  10.892  68.121  1.00  0.00    -0.211 C  
HETATM    5  C   UNL     1      -9.197  11.580  67.526  1.00  0.00    -0.166 C  
HETATM    6  C   UNL     1     -10.094  10.310  69.509  1.00  0.00    -0.260 C  
ENDROOT
BRANCH   6   7
HETATM    7  C   UNL     1     -11.225   9.525  70.188  1.00  0.00    -0.275 C  
BRANCH   7   8
HETATM    8  C   UNL     1     -10.804   8.879  71.512  1.00  0.00    -0.396 C  
HETATM    9  C   UNL     1     -11.939   8.201  72.305  1.00  0.00    -0.377 C  
HETATM   10  O   UNL     1     -11.368   7.698  73.521  1.00  0.00    -0.604 OA 
HETATM   11  C   UNL     1     -13.056   9.175  72.683  1.00  0.00    -0.345 C  
HETATM   12  C   UNL     1     -12.510   6.992  71.563  1.00  0.00    -0.426 C  
HETATM   13  H   UNL     1     -12.068   7.280  74.009  1.00  0.00     0.000 HD 
ENDBRANCH   7   8
ENDBRANCH   6   7
TORSDOF 2
ENDMDL
MODEL       79
REMARK 921   NORMALIZED FREE ENERGY PREDICTED BY IDOCK:   -3.62 KCAL/MOL
REMARK 922        TOTAL FREE ENERGY PREDICTED BY IDOCK:   -4.27 KCAL/MOL
REMARK 923 INTER-LIGAND FREE ENERGY PREDICTED BY IDOCK:   -3.85 KCAL/MOL
REMARK 924 INTRA-LIGAND FREE ENERGY PREDICTED BY IDOCK:   -0.42 KCAL/MOL
REMARK 927      BINDING AFFINITY PREDICTED BY RF-SCORE:    0.00 PKD
ROOT
HETATM    1  C   UNL     1     -11.025   9.806  70.065  1.00  0.00    -0.277 C  
HETATM    2  O   UNL     1     -10.382   9.233  69.191  1.00  0.00    -0.200 OA 
HETATM    3  C   UNL     1     -10.923   9.458  71.529  1.00  0.00    -0.429 C  
HETATM    4  C   UNL     1     -12.230   8.897  72.110  1.00  0.00    -0.437 C  
HETATM    5  C   UNL     1     -13.356   9.935  72.074  1.00  0.00    -0.532 C  
HETATM    6  C   UNL     1     -12.695   7.589  71.438  1.00  0.00    -0.382 C  
ENDROOT
BRANCH   6   7
HETATM    7  C   UNL     1     -11.685   6.433  71.471  1.00  0.00    -0.369 C  
BRANCH   7   8
HETATM    8  C   UNL     1     -11.875   5.496  72.668  1.00  0.00    -0.176 C  
HETATM    9  C   UNL     1     -10.608   5.231  73.505  1.00  0.00    -0.270 C  
HETATM   10  O   UNL     1     -10.968   4.308  74.543  1.00  0.00    -0.238 OA 
HETATM   11  C   UNL     1      -9.483   4.597  72.687  1.00  0.00    -0.163 C  
HETATM   12  C   UNL     1     -10.113   6.497  74.206  1.00  0.00    -0.379 C  
HETATM   13  H   UNL     1     -10.187   4.145  75.058  1.00  0.00     0.000 HD 
ENDBRANCH   7   8
ENDBRANCH   6   7
TORSDOF 2
ENDMDL
MODEL       80
REMARK 921   NORMALIZED FREE ENERGY PREDICTED BY IDOCK:   -3.62 KCAL/MOL
REMARK 922        TOTAL FREE ENERGY PREDICTED BY IDOCK:   -4.27 KCAL/MOL
REMARK 923 INTER-LIGAND FREE ENERGY PREDICTED BY IDOCK:   -3.84 KCAL/MOL
REMARK 924 INTRA-LIGAND FREE ENERGY PREDICTED BY IDOCK:   -0.42 KCAL/MOL
REMARK 927      BINDING AFFINITY PREDICTED BY RF-SCORE:    0.00 PKD
ROOT
HETATM    1  C   UNL     1     -12.578  13.687  65.548  1.00  0.00    -0.496 C  
HETATM    2  O   UNL     1     -13.109  12.836  64.841  1.00  0.00    -0.833 OA 
HETATM    3  C   UNL     1     -11.177  13.552  66.090  1.00  0.00    -0.306 C  
HETATM    4  C   UNL     1     -11.128  13.456  67.622  1.00  0.00    -0.288 C  
HETATM    5  C   UNL     1     -11.639  14.739  68.286  1.00  0.00    -0.348 C  
HETATM    6  C   UNL     1     -11.875  12.232  68.190  1.00  0.00    -0.372 C  
ENDROOT
BRANCH   6   7
HETATM    7  C   UNL     1     -11.407  10.868  67.663  1.00  0.00    -0.345 C  
BRANCH   7   8
HETATM    8  C   UNL     1     -10.106  10.382  68.312  1.00  0.00    -0.174 C  
HETATM    9  C   UNL     1      -9.076   9.768  67.343  1.00  0.00    -0.134 C  
HETATM   10  O   UNL     1      -7.957   9.336  68.129  1.00  0.00    -0.098 OA 
HETATM   11  C   UNL     1      -9.622   8.549  66.599  1.00  0.00    -0.292 C  
HETATM   12  C   UNL     1      -8.536  10.803  66.354  1.00  0.00    -0.159 C  
HETATM   13  H   UNL     1      -7.322   8.958  67.531  1.00  0.00     0.000 HD 
ENDBRANCH   7   8
ENDBRANCH   6   7
TORSDOF 2
ENDMDL
MODEL       81
REMARK 921   NORMALIZED FREE ENERGY PREDICTED BY IDOCK:   -3.60 KCAL/MOL
REMARK 922        TOTAL FREE ENERGY PREDICTED BY IDOCK:   -4.24 KCAL/MOL
REMARK 923 INTER-LIGAND FREE ENERGY PREDICTED BY IDOCK:   -3.86 KCAL/MOL
REMARK 924 INTRA-LIGAND FREE ENERGY PREDICTED BY IDOCK:   -0.38 KCAL/MOL
REMARK 927      BINDING AFFINITY PREDICTED BY RF-SCORE:    0.00 PKD
ROOT
HETATM    1  C   UNL     1      -9.055   9.748  63.574  1.00  0.00    -0.228 C  
HETATM    2  O   UNL     1      -9.763  10.283  62.726  1.00  0.00    -0.294 OA 
HETATM    3  C   UNL     1      -9.511   9.490  64.988  1.00  0.00    -0.273 C  
HETATM    4  C   UNL     1      -8.715  10.283  66.035  1.00  0.00    -0.162 C  
HETATM    5  C   UNL     1      -7.241   9.865  66.061  1.00  0.00    -0.106 C  
HETATM    6  C   UNL     1      -8.829  11.812  65.872  1.00  0.00    -0.003 C  
ENDROOT
BRANCH   6   7
HETATM    7  C   UNL     1     -10.257  12.376  65.905  1.00  0.00    -0.273 C  
BRANCH   7   8
HETATM    8  C   UNL     1     -10.501  13.470  64.861  1.00  0.00    -0.417 C  
HETATM    9  C   UNL     1     -11.956  13.596  64.367  1.00  0.00    -0.437 C  
HETATM   10  O   UNL     1     -11.980  14.630  63.372  1.00  0.00    -0.599 OA 
HETATM   11  C   UNL     1     -12.470  12.312  63.716  1.00  0.00    -0.619 C  
HETATM   12  C   UNL     1     -12.900  14.047  65.482  1.00  0.00    -0.453 C  
HETATM   13  H   UNL     1     -12.876  14.708  63.069  1.00  0.00     0.000 HD 
ENDBRANCH   7   8
ENDBRANCH   6   7
TORSDOF 2
ENDMDL
MODEL       82
REMARK 921   NORMALIZED FREE ENERGY PREDICTED BY IDOCK:   -3.59 KCAL/MOL
REMARK 922        TOTAL FREE ENERGY PREDICTED BY IDOCK:   -4.23 KCAL/MOL
REMARK 923 INTER-LIGAND FREE ENERGY PREDICTED BY IDOCK:   -3.92 KCAL/MOL
REMARK 924 INTRA-LIGAND FREE ENERGY PREDICTED BY IDOCK:   -0.32 KCAL/MOL
REMARK 927      BINDING AFFINITY PREDICTED BY RF-SCORE:    0.00 PKD
ROOT
HETATM    1  C   UNL     1      -8.460   9.072  66.257  1.00  0.00    -0.125 C  
HETATM    2  O   UNL     1      -8.103   9.860  65.387  1.00  0.00    -0.125 OA 
HETATM    3  C   UNL     1      -9.890   8.628  66.434  1.00  0.00    -0.341 C  
HETATM    4  C   UNL     1     -10.502   9.076  67.770  1.00  0.00    -0.305 C  
HETATM    5  C   UNL     1      -9.786   8.436  68.963  1.00  0.00    -0.184 C  
HETATM    6  C   UNL     1     -10.554  10.608  67.944  1.00  0.00    -0.266 C  
ENDROOT
BRANCH   6   7
HETATM    7  C   UNL     1     -11.314  11.372  66.850  1.00  0.00    -0.284 C  
BRANCH   7   8
HETATM    8  C   UNL     1     -10.437  12.372  66.089  1.00  0.00    -0.274 C  
HETATM    9  C   UNL     1     -11.140  13.128  64.945  1.00  0.00    -0.314 C  
HETATM   10  O   UNL     1     -10.161  13.976  64.328  1.00  0.00    -0.697 OA 
HETATM   11  C   UNL     1     -11.688  12.189  63.869  1.00  0.00    -0.546 C  
HETATM   12  C   UNL     1     -12.244  14.050  65.464  1.00  0.00    -0.455 C  
HETATM   13  H   UNL     1     -10.595  14.441  63.624  1.00  0.00     0.000 HD 
ENDBRANCH   7   8
ENDBRANCH   6   7
TORSDOF 2
ENDMDL
MODEL       83
REMARK 921   NORMALIZED FREE ENERGY PREDICTED BY IDOCK:   -3.59 KCAL/MOL
REMARK 922        TOTAL FREE ENERGY PREDICTED BY IDOCK:   -4.23 KCAL/MOL
REMARK 923 INTER-LIGAND FREE ENERGY PREDICTED BY IDOCK:   -3.79 KCAL/MOL
REMARK 924 INTRA-LIGAND FREE ENERGY PREDICTED BY IDOCK:   -0.44 KCAL/MOL
REMARK 927      BINDING AFFINITY PREDICTED BY RF-SCORE:    0.00 PKD
ROOT
HETATM    1  C   UNL     1      -7.993  17.019  66.668  1.00  0.00    -0.267 C  
HETATM    2  O   UNL     1      -8.586  17.571  65.747  1.00  0.00    -0.521 OA 
HETATM    3  C   UNL     1      -8.025  15.529  66.896  1.00  0.00    -0.264 C  
HETATM    4  C   UNL     1      -8.709  15.133  68.214  1.00  0.00    -0.171 C  
HETATM    5  C   UNL     1      -7.939  15.657  69.430  1.00  0.00    -0.226 C  
HETATM    6  C   UNL     1     -10.188  15.564  68.298  1.00  0.00    -0.222 C  
ENDROOT
BRANCH   6   7
HETATM    7  C   UNL     1     -11.094  15.041  67.174  1.00  0.00    -0.332 C  
BRANCH   7   8
HETATM    8  C   UNL     1     -11.550  13.593  67.387  1.00  0.00    -0.389 C  
HETATM    9  C   UNL     1     -11.348  12.655  66.181  1.00  0.00    -0.330 C  
HETATM   10  O   UNL     1     -11.868  11.369  66.550  1.00  0.00    -0.352 OA 
HETATM   11  C   UNL     1     -12.105  13.124  64.938  1.00  0.00    -0.448 C  
HETATM   12  C   UNL     1      -9.867  12.447  65.861  1.00  0.00    -0.265 C  
HETATM   13  H   UNL     1     -11.743  10.791  65.806  1.00  0.00     0.000 HD 
ENDBRANCH   7   8
ENDBRANCH   6   7
TORSDOF 2
ENDMDL
MODEL       84
REMARK 921   NORMALIZED FREE ENERGY PREDICTED BY IDOCK:   -3.58 KCAL/MOL
REMARK 922        TOTAL FREE ENERGY PREDICTED BY IDOCK:   -4.22 KCAL/MOL
REMARK 923 INTER-LIGAND FREE ENERGY PREDICTED BY IDOCK:   -3.90 KCAL/MOL
REMARK 924 INTRA-LIGAND FREE ENERGY PREDICTED BY IDOCK:   -0.32 KCAL/MOL
REMARK 927      BINDING AFFINITY PREDICTED BY RF-SCORE:    0.00 PKD
ROOT
HETATM    1  C   UNL     1     -12.362   9.459  71.509  1.00  0.00    -0.370 C  
HETATM    2  O   UNL     1     -12.965  10.502  71.743  1.00  0.00    -0.429 OA 
HETATM    3  C   UNL     1     -10.868   9.395  71.312  1.00  0.00    -0.431 C  
HETATM    4  C   UNL     1     -10.462   8.964  69.895  1.00  0.00    -0.223 C  
HETATM    5  C   UNL     1     -10.917   7.534  69.587  1.00  0.00    -0.164 C  
HETATM    6  C   UNL     1     -10.951   9.924  68.791  1.00  0.00    -0.217 C  
ENDROOT
BRANCH   6   7
HETATM    7  C   UNL     1     -10.499  11.384  68.937  1.00  0.00    -0.219 C  
BRANCH   7   8
HETATM    8  C   UNL     1     -11.612  12.395  68.644  1.00  0.00    -0.365 C  
HETATM    9  C   UNL     1     -11.346  13.343  67.458  1.00  0.00    -0.298 C  
HETATM   10  O   UNL     1     -12.465  14.236  67.366  1.00  0.00    -0.588 OA 
HETATM   11  C   UNL     1     -10.089  14.191  67.654  1.00  0.00    -0.236 C  
HETATM   12  C   UNL     1     -11.283  12.590  66.129  1.00  0.00    -0.362 C  
HETATM   13  H   UNL     1     -12.301  14.819  66.635  1.00  0.00     0.000 HD 
ENDBRANCH   7   8
ENDBRANCH   6   7
TORSDOF 2
ENDMDL
MODEL       85
REMARK 921   NORMALIZED FREE ENERGY PREDICTED BY IDOCK:   -3.58 KCAL/MOL
REMARK 922        TOTAL FREE ENERGY PREDICTED BY IDOCK:   -4.22 KCAL/MOL
REMARK 923 INTER-LIGAND FREE ENERGY PREDICTED BY IDOCK:   -4.01 KCAL/MOL
REMARK 924 INTRA-LIGAND FREE ENERGY PREDICTED BY IDOCK:   -0.21 KCAL/MOL
REMARK 927      BINDING AFFINITY PREDICTED BY RF-SCORE:    0.00 PKD
ROOT
HETATM    1  C   UNL     1     -10.298   6.317  68.218  1.00  0.00    -0.194 C  
HETATM    2  O   UNL     1     -10.615   5.621  69.178  1.00  0.00    -0.253 OA 
HETATM    3  C   UNL     1      -9.241   7.390  68.289  1.00  0.00    -0.137 C  
HETATM    4  C   UNL     1      -9.797   8.804  68.060  1.00  0.00    -0.201 C  
HETATM    5  C   UNL     1     -10.366   8.965  66.646  1.00  0.00    -0.294 C  
HETATM    6  C   UNL     1     -10.847   9.234  69.105  1.00  0.00    -0.154 C  
ENDROOT
BRANCH   6   7
HETATM    7  C   UNL     1     -10.380   9.192  70.567  1.00  0.00    -0.288 C  
BRANCH   7   8
HETATM    8  C   UNL     1     -11.497   9.501  71.569  1.00  0.00    -0.466 C  
HETATM    9  C   UNL     1     -12.132   8.271  72.248  1.00  0.00    -0.379 C  
HETATM   10  O   UNL     1     -13.175   8.750  73.108  1.00  0.00    -0.866 OA 
HETATM   11  C   UNL     1     -12.762   7.305  71.244  1.00  0.00    -0.400 C  
HETATM   12  C   UNL     1     -11.134   7.537  73.145  1.00  0.00    -0.378 C  
HETATM   13  H   UNL     1     -13.566   7.992  73.526  1.00  0.00     0.000 HD 
ENDBRANCH   7   8
ENDBRANCH   6   7
TORSDOF 2
ENDMDL
MODEL       86
REMARK 921   NORMALIZED FREE ENERGY PREDICTED BY IDOCK:   -3.55 KCAL/MOL
REMARK 922        TOTAL FREE ENERGY PREDICTED BY IDOCK:   -4.19 KCAL/MOL
REMARK 923 INTER-LIGAND FREE ENERGY PREDICTED BY IDOCK:   -3.92 KCAL/MOL
REMARK 924 INTRA-LIGAND FREE ENERGY PREDICTED BY IDOCK:   -0.27 KCAL/MOL
REMARK 927      BINDING AFFINITY PREDICTED BY RF-SCORE:    0.00 PKD
ROOT
HETATM    1  C   UNL     1     -10.169  18.168  65.804  1.00  0.00    -0.105 C  
HETATM    2  O   UNL     1     -11.004  17.723  65.023  1.00  0.00    -0.784 OA 
HETATM    3  C   UNL     1      -9.143  17.306  66.497  1.00  0.00    -0.289 C  
HETATM    4  C   UNL     1      -9.319  17.266  68.023  1.00  0.00    -0.264 C  
HETATM    5  C   UNL     1      -9.101  18.645  68.653  1.00  0.00    -0.344 C  
HETATM    6  C   UNL     1     -10.674  16.685  68.475  1.00  0.00    -0.351 C  
ENDROOT
BRANCH   6   7
HETATM    7  C   UNL     1     -10.986  15.268  67.974  1.00  0.00    -0.299 C  
BRANCH   7   8
HETATM    8  C   UNL     1     -10.870  14.199  69.066  1.00  0.00    -0.273 C  
HETATM    9  C   UNL     1     -10.605  12.767  68.560  1.00  0.00    -0.252 C  
HETATM   10  O   UNL     1     -10.571  11.909  69.709  1.00  0.00    -0.355 OA 
HETATM   11  C   UNL     1     -11.707  12.258  67.630  1.00  0.00    -0.403 C  
HETATM   12  C   UNL     1      -9.236  12.643  67.888  1.00  0.00    -0.201 C  
HETATM   13  H   UNL     1     -10.408  11.027  69.397  1.00  0.00     0.000 HD 
ENDBRANCH   7   8
ENDBRANCH   6   7
TORSDOF 2
ENDMDL
MODEL       87
REMARK 921   NORMALIZED FREE ENERGY PREDICTED BY IDOCK:   -3.55 KCAL/MOL
REMARK 922        TOTAL FREE ENERGY PREDICTED BY IDOCK:   -4.19 KCAL/MOL
REMARK 923 INTER-LIGAND FREE ENERGY PREDICTED BY IDOCK:   -3.79 KCAL/MOL
REMARK 924 INTRA-LIGAND FREE ENERGY PREDICTED BY IDOCK:   -0.40 KCAL/MOL
REMARK 927      BINDING AFFINITY PREDICTED BY RF-SCORE:    0.00 PKD
ROOT
HETATM    1  C   UNL     1      -8.333   7.149  68.008  1.00  0.00    -0.119 C  
HETATM    2  O   UNL     1      -7.422   7.114  68.830  1.00  0.00    -0.093 OA 
HETATM    3  C   UNL     1      -9.695   7.723  68.308  1.00  0.00    -0.169 C  
HETATM    4  C   UNL     1     -10.818   6.675  68.257  1.00  0.00    -0.322 C  
HETATM    5  C   UNL     1     -10.985   6.094  66.849  1.00  0.00    -0.384 C  
HETATM    6  C   UNL     1     -10.649   5.536  69.283  1.00  0.00    -0.325 C  
ENDROOT
BRANCH   6   7
HETATM    7  C   UNL     1     -10.546   5.979  70.750  1.00  0.00    -0.316 C  
BRANCH   7   8
HETATM    8  C   UNL     1     -11.832   6.621  71.281  1.00  0.00    -0.403 C  
HETATM    9  C   UNL     1     -11.628   7.862  72.173  1.00  0.00    -0.328 C  
HETATM   10  O   UNL     1     -12.927   8.293  72.606  1.00  0.00    -0.593 OA 
HETATM   11  C   UNL     1     -10.798   7.560  73.421  1.00  0.00    -0.339 C  
HETATM   12  C   UNL     1     -11.022   9.030  71.396  1.00  0.00    -0.394 C  
HETATM   13  H   UNL     1     -12.801   9.057  73.155  1.00  0.00     0.000 HD 
ENDBRANCH   7   8
ENDBRANCH   6   7
TORSDOF 2
ENDMDL
MODEL       88
REMARK 921   NORMALIZED FREE ENERGY PREDICTED BY IDOCK:   -3.55 KCAL/MOL
REMARK 922        TOTAL FREE ENERGY PREDICTED BY IDOCK:   -4.19 KCAL/MOL
REMARK 923 INTER-LIGAND FREE ENERGY PREDICTED BY IDOCK:   -3.88 KCAL/MOL
REMARK 924 INTRA-LIGAND FREE ENERGY PREDICTED BY IDOCK:   -0.31 KCAL/MOL
REMARK 927      BINDING AFFINITY PREDICTED BY RF-SCORE:    0.00 PKD
ROOT
HETATM    1  C   UNL     1      -8.112  16.179  67.403  1.00  0.00    -0.159 C  
HETATM    2  O   UNL     1      -7.918  15.004  67.109  1.00  0.00    -0.196 OA 
HETATM    3  C   UNL     1      -8.611  16.621  68.756  1.00  0.00    -0.261 C  
HETATM    4  C   UNL     1      -9.997  17.280  68.704  1.00  0.00    -0.327 C  
HETATM    5  C   UNL     1      -9.975  18.582  67.897  1.00  0.00    -0.374 C  
HETATM    6  C   UNL     1     -11.106  16.348  68.175  1.00  0.00    -0.320 C  
ENDROOT
BRANCH   6   7
HETATM    7  C   UNL     1     -11.289  15.032  68.946  1.00  0.00    -0.312 C  
BRANCH   7   8
HETATM    8  C   UNL     1     -11.926  13.921  68.105  1.00  0.00    -0.385 C  
HETATM    9  C   UNL     1     -11.448  12.492  68.432  1.00  0.00    -0.312 C  
HETATM   10  O   UNL     1     -12.113  11.602  67.524  1.00  0.00    -0.611 OA 
HETATM   11  C   UNL     1      -9.941  12.316  68.237  1.00  0.00    -0.216 C  
HETATM   12  C   UNL     1     -11.860  12.061  69.840  1.00  0.00    -0.405 C  
HETATM   13  H   UNL     1     -11.818  10.722  67.726  1.00  0.00     0.000 HD 
ENDBRANCH   7   8
ENDBRANCH   6   7
TORSDOF 2
ENDMDL
MODEL       89
REMARK 921   NORMALIZED FREE ENERGY PREDICTED BY IDOCK:   -3.55 KCAL/MOL
REMARK 922        TOTAL FREE ENERGY PREDICTED BY IDOCK:   -4.19 KCAL/MOL
REMARK 923 INTER-LIGAND FREE ENERGY PREDICTED BY IDOCK:   -3.93 KCAL/MOL
REMARK 924 INTRA-LIGAND FREE ENERGY PREDICTED BY IDOCK:   -0.25 KCAL/MOL
REMARK 927      BINDING AFFINITY PREDICTED BY RF-SCORE:    0.00 PKD
ROOT
HETATM    1  C   UNL     1     -12.392  16.051  72.521  1.00  0.00    -0.496 C  
HETATM    2  O   UNL     1     -11.721  16.966  72.053  1.00  0.00    -0.158 OA 
HETATM    3  C   UNL     1     -11.944  14.611  72.513  1.00  0.00    -0.187 C  
HETATM    4  C   UNL     1     -12.838  13.704  71.653  1.00  0.00    -0.427 C  
HETATM    5  C   UNL     1     -14.264  13.625  72.207  1.00  0.00    -0.521 C  
HETATM    6  C   UNL     1     -12.871  14.101  70.163  1.00  0.00    -0.107 C  
ENDROOT
BRANCH   6   7
HETATM    7  C   UNL     1     -11.507  14.145  69.459  1.00  0.00    -0.334 C  
BRANCH   7   8
HETATM    8  C   UNL     1     -11.539  14.892  68.122  1.00  0.00    -0.356 C  
HETATM    9  C   UNL     1     -10.980  14.108  66.917  1.00  0.00    -0.300 C  
HETATM   10  O   UNL     1     -11.051  14.975  65.775  1.00  0.00    -0.340 OA 
HETATM   11  C   UNL     1      -9.518  13.704  67.104  1.00  0.00    -0.244 C  
HETATM   12  C   UNL     1     -11.836  12.885  66.585  1.00  0.00    -0.461 C  
HETATM   13  H   UNL     1     -10.707  14.492  65.033  1.00  0.00     0.000 HD 
ENDBRANCH   7   8
ENDBRANCH   6   7
TORSDOF 2
ENDMDL
MODEL       90
REMARK 921   NORMALIZED FREE ENERGY PREDICTED BY IDOCK:   -3.55 KCAL/MOL
REMARK 922        TOTAL FREE ENERGY PREDICTED BY IDOCK:   -4.18 KCAL/MOL
REMARK 923 INTER-LIGAND FREE ENERGY PREDICTED BY IDOCK:   -3.73 KCAL/MOL
REMARK 924 INTRA-LIGAND FREE ENERGY PREDICTED BY IDOCK:   -0.45 KCAL/MOL
REMARK 927      BINDING AFFINITY PREDICTED BY RF-SCORE:    0.00 PKD
ROOT
HETATM    1  C   UNL     1      -9.646   6.108  70.338  1.00  0.00    -0.164 C  
HETATM    2  O   UNL     1      -8.980   6.897  69.675  1.00  0.00    -0.143 OA 
HETATM    3  C   UNL     1     -11.154   6.081  70.319  1.00  0.00    -0.415 C  
HETATM    4  C   UNL     1     -11.782   6.447  71.673  1.00  0.00    -0.367 C  
HETATM    5  C   UNL     1     -11.427   5.423  72.756  1.00  0.00    -0.333 C  
HETATM    6  C   UNL     1     -11.432   7.870  72.154  1.00  0.00    -0.377 C  
ENDROOT
BRANCH   6   7
HETATM    7  C   UNL     1     -11.807   9.005  71.191  1.00  0.00    -0.362 C  
BRANCH   7   8
HETATM    8  C   UNL     1     -10.616   9.885  70.799  1.00  0.00    -0.309 C  
HETATM    9  C   UNL     1     -10.723  10.562  69.418  1.00  0.00    -0.241 C  
HETATM   10  O   UNL     1      -9.510  11.301  69.210  1.00  0.00    -0.406 OA 
HETATM   11  C   UNL     1     -10.855   9.553  68.277  1.00  0.00    -0.194 C  
HETATM   12  C   UNL     1     -11.863  11.580  69.369  1.00  0.00    -0.417 C  
HETATM   13  H   UNL     1      -9.577  11.718  68.360  1.00  0.00     0.000 HD 
ENDBRANCH   7   8
ENDBRANCH   6   7
TORSDOF 2
ENDMDL
MODEL       91
REMARK 921   NORMALIZED FREE ENERGY PREDICTED BY IDOCK:   -3.54 KCAL/MOL
REMARK 922        TOTAL FREE ENERGY PREDICTED BY IDOCK:   -4.18 KCAL/MOL
REMARK 923 INTER-LIGAND FREE ENERGY PREDICTED BY IDOCK:   -3.74 KCAL/MOL
REMARK 924 INTRA-LIGAND FREE ENERGY PREDICTED BY IDOCK:   -0.44 KCAL/MOL
REMARK 927      BINDING AFFINITY PREDICTED BY RF-SCORE:    0.00 PKD
ROOT
HETATM    1  C   UNL     1     -11.047   9.902  69.231  1.00  0.00    -0.181 C  
HETATM    2  O   UNL     1     -10.648   9.158  68.340  1.00  0.00    -0.214 OA 
HETATM    3  C   UNL     1     -10.635   9.756  70.674  1.00  0.00    -0.382 C  
HETATM    4  C   UNL     1     -11.803   9.396  71.604  1.00  0.00    -0.464 C  
HETATM    5  C   UNL     1     -12.854  10.511  71.650  1.00  0.00    -0.581 C  
HETATM    6  C   UNL     1     -12.475   8.051  71.262  1.00  0.00    -0.270 C  
ENDROOT
BRANCH   6   7
HETATM    7  C   UNL     1     -11.544   6.830  71.257  1.00  0.00    -0.366 C  
BRANCH   7   8
HETATM    8  C   UNL     1     -11.344   6.226  69.863  1.00  0.00    -0.504 C  
HETATM    9  C   UNL     1      -9.979   5.550  69.627  1.00  0.00    -0.214 C  
HETATM   10  O   UNL     1      -9.961   5.088  68.269  1.00  0.00    -0.155 OA 
HETATM   11  C   UNL     1      -8.806   6.514  69.807  1.00  0.00    -0.143 C  
HETATM   12  C   UNL     1      -9.795   4.312  70.507  1.00  0.00    -0.269 C  
HETATM   13  H   UNL     1      -9.120   4.672  68.124  1.00  0.00     0.000 HD 
ENDBRANCH   7   8
ENDBRANCH   6   7
TORSDOF 2
ENDMDL
MODEL       92
REMARK 921   NORMALIZED FREE ENERGY PREDICTED BY IDOCK:   -3.54 KCAL/MOL
REMARK 922        TOTAL FREE ENERGY PREDICTED BY IDOCK:   -4.18 KCAL/MOL
REMARK 923 INTER-LIGAND FREE ENERGY PREDICTED BY IDOCK:   -3.94 KCAL/MOL
REMARK 924 INTRA-LIGAND FREE ENERGY PREDICTED BY IDOCK:   -0.23 KCAL/MOL
REMARK 927      BINDING AFFINITY PREDICTED BY RF-SCORE:    0.00 PKD
ROOT
HETATM    1  C   UNL     1      -9.409   3.444  68.563  1.00  0.00    -0.168 C  
HETATM    2  O   UNL     1      -9.507   2.778  69.589  1.00  0.00    -0.140 OA 
HETATM    3  C   UNL     1      -8.842   4.842  68.538  1.00  0.00    -0.119 C  
HETATM    4  C   UNL     1      -9.872   5.905  68.129  1.00  0.00    -0.155 C  
HETATM    5  C   UNL     1     -10.359   5.698  66.691  1.00  0.00    -0.311 C  
HETATM    6  C   UNL     1     -11.078   6.000  69.086  1.00  0.00    -0.405 C  
ENDROOT
BRANCH   6   7
HETATM    7  C   UNL     1     -10.735   6.284  70.556  1.00  0.00    -0.327 C  
BRANCH   7   8
HETATM    8  C   UNL     1     -11.898   6.897  71.342  1.00  0.00    -0.373 C  
HETATM    9  C   UNL     1     -11.503   7.983  72.362  1.00  0.00    -0.389 C  
HETATM   10  O   UNL     1     -12.705   8.402  73.025  1.00  0.00    -0.697 OA 
HETATM   11  C   UNL     1     -10.539   7.466  73.430  1.00  0.00    -0.427 C  
HETATM   12  C   UNL     1     -10.931   9.226  71.679  1.00  0.00    -0.433 C  
HETATM   13  H   UNL     1     -12.461   9.072  73.653  1.00  0.00     0.000 HD 
ENDBRANCH   7   8
ENDBRANCH   6   7
TORSDOF 2
ENDMDL
MODEL       93
REMARK 921   NORMALIZED FREE ENERGY PREDICTED BY IDOCK:   -3.52 KCAL/MOL
REMARK 922        TOTAL FREE ENERGY PREDICTED BY IDOCK:   -4.15 KCAL/MOL
REMARK 923 INTER-LIGAND FREE ENERGY PREDICTED BY IDOCK:   -4.07 KCAL/MOL
REMARK 924 INTRA-LIGAND FREE ENERGY PREDICTED BY IDOCK:   -0.08 KCAL/MOL
REMARK 927      BINDING AFFINITY PREDICTED BY RF-SCORE:    0.00 PKD
ROOT
HETATM    1  C   UNL     1     -13.620  14.370  71.460  1.00  0.00    -0.370 C  
HETATM    2  O   UNL     1     -14.252  15.419  71.390  1.00  0.00    -0.502 OA 
HETATM    3  C   UNL     1     -12.121  14.298  71.310  1.00  0.00    -0.391 C  
HETATM    4  C   UNL     1     -11.673  13.507  70.072  1.00  0.00    -0.311 C  
HETATM    5  C   UNL     1     -12.088  12.035  70.161  1.00  0.00    -0.377 C  
HETATM    6  C   UNL     1     -12.160  14.114  68.740  1.00  0.00    -0.326 C  
ENDROOT
BRANCH   6   7
HETATM    7  C   UNL     1     -11.746  15.571  68.487  1.00  0.00    -0.351 C  
BRANCH   7   8
HETATM    8  C   UNL     1     -10.347  15.904  69.016  1.00  0.00    -0.231 C  
HETATM    9  C   UNL     1      -9.577  16.973  68.216  1.00  0.00    -0.273 C  
HETATM   10  O   UNL     1      -8.288  17.118  68.828  1.00  0.00    -0.262 OA 
HETATM   11  C   UNL     1      -9.358  16.572  66.757  1.00  0.00    -0.262 C  
HETATM   12  C   UNL     1     -10.251  18.344  68.300  1.00  0.00    -0.412 C  
HETATM   13  H   UNL     1      -7.814  17.776  68.335  1.00  0.00     0.000 HD 
ENDBRANCH   7   8
ENDBRANCH   6   7
TORSDOF 2
ENDMDL
MODEL       94
REMARK 921   NORMALIZED FREE ENERGY PREDICTED BY IDOCK:   -3.51 KCAL/MOL
REMARK 922        TOTAL FREE ENERGY PREDICTED BY IDOCK:   -4.14 KCAL/MOL
REMARK 923 INTER-LIGAND FREE ENERGY PREDICTED BY IDOCK:   -3.73 KCAL/MOL
REMARK 924 INTRA-LIGAND FREE ENERGY PREDICTED BY IDOCK:   -0.41 KCAL/MOL
REMARK 927      BINDING AFFINITY PREDICTED BY RF-SCORE:    0.00 PKD
ROOT
HETATM    1  C   UNL     1      -6.325  18.880  66.100  1.00  0.00    -0.193 C  
HETATM    2  O   UNL     1      -6.704  18.885  64.933  1.00  0.00    -0.496 OA 
HETATM    3  C   UNL     1      -6.695  17.798  67.083  1.00  0.00    -0.192 C  
HETATM    4  C   UNL     1      -7.560  18.306  68.246  1.00  0.00    -0.289 C  
HETATM    5  C   UNL     1      -6.805  19.322  69.110  1.00  0.00    -0.371 C  
HETATM    6  C   UNL     1      -8.914  18.895  67.800  1.00  0.00    -0.320 C  
ENDROOT
BRANCH   6   7
HETATM    7  C   UNL     1      -9.809  17.949  66.986  1.00  0.00    -0.314 C  
BRANCH   7   8
HETATM    8  C   UNL     1     -10.922  17.302  67.817  1.00  0.00    -0.163 C  
HETATM    9  C   UNL     1     -10.910  15.761  67.846  1.00  0.00    -0.314 C  
HETATM   10  O   UNL     1     -12.037  15.341  68.628  1.00  0.00    -0.553 OA 
HETATM   11  C   UNL     1     -11.054  15.145  66.454  1.00  0.00    -0.312 C  
HETATM   12  C   UNL     1      -9.668  15.213  68.550  1.00  0.00    -0.214 C  
HETATM   13  H   UNL     1     -12.030  14.391  68.646  1.00  0.00     0.000 HD 
ENDBRANCH   7   8
ENDBRANCH   6   7
TORSDOF 2
ENDMDL
MODEL       95
REMARK 921   NORMALIZED FREE ENERGY PREDICTED BY IDOCK:   -3.50 KCAL/MOL
REMARK 922        TOTAL FREE ENERGY PREDICTED BY IDOCK:   -4.13 KCAL/MOL
REMARK 923 INTER-LIGAND FREE ENERGY PREDICTED BY IDOCK:   -3.67 KCAL/MOL
REMARK 924 INTRA-LIGAND FREE ENERGY PREDICTED BY IDOCK:   -0.46 KCAL/MOL
REMARK 927      BINDING AFFINITY PREDICTED BY RF-SCORE:    0.00 PKD
ROOT
HETATM    1  C   UNL     1     -11.142  15.304  68.558  1.00  0.00    -0.282 C  
HETATM    2  O   UNL     1     -10.947  14.624  69.561  1.00  0.00    -0.250 OA 
HETATM    3  C   UNL     1     -11.899  14.801  67.354  1.00  0.00    -0.320 C  
HETATM    4  C   UNL     1     -11.029  14.699  66.091  1.00  0.00    -0.329 C  
HETATM    5  C   UNL     1     -10.524  16.073  65.640  1.00  0.00    -0.416 C  
HETATM    6  C   UNL     1      -9.845  13.720  66.233  1.00  0.00    -0.314 C  
ENDROOT
BRANCH   6   7
HETATM    7  C   UNL     1     -10.220  12.279  66.610  1.00  0.00    -0.235 C  
BRANCH   7   8
HETATM    8  C   UNL     1      -9.627  11.829  67.949  1.00  0.00    -0.187 C  
HETATM    9  C   UNL     1     -10.444  10.764  68.706  1.00  0.00    -0.199 C  
HETATM   10  O   UNL     1      -9.764  10.504  69.942  1.00  0.00    -0.425 OA 
HETATM   11  C   UNL     1     -11.859  11.237  69.044  1.00  0.00    -0.421 C  
HETATM   12  C   UNL     1     -10.489   9.435  67.950  1.00  0.00    -0.296 C  
HETATM   13  H   UNL     1     -10.267   9.847  70.409  1.00  0.00     0.000 HD 
ENDBRANCH   7   8
ENDBRANCH   6   7
TORSDOF 2
ENDMDL
MODEL       96
REMARK 921   NORMALIZED FREE ENERGY PREDICTED BY IDOCK:   -3.49 KCAL/MOL
REMARK 922        TOTAL FREE ENERGY PREDICTED BY IDOCK:   -4.12 KCAL/MOL
REMARK 923 INTER-LIGAND FREE ENERGY PREDICTED BY IDOCK:   -3.75 KCAL/MOL
REMARK 924 INTRA-LIGAND FREE ENERGY PREDICTED BY IDOCK:   -0.37 KCAL/MOL
REMARK 927      BINDING AFFINITY PREDICTED BY RF-SCORE:    0.00 PKD
ROOT
HETATM    1  C   UNL     1      -9.113  13.113  66.598  1.00  0.00    -0.173 C  
HETATM    2  O   UNL     1      -8.043  12.972  67.181  1.00  0.00    -0.171 OA 
HETATM    3  C   UNL     1      -9.697  14.461  66.257  1.00  0.00    -0.330 C  
HETATM    4  C   UNL     1     -11.017  14.752  66.987  1.00  0.00    -0.324 C  
HETATM    5  C   UNL     1     -12.121  13.775  66.570  1.00  0.00    -0.483 C  
HETATM    6  C   UNL     1     -10.883  14.772  68.524  1.00  0.00    -0.255 C  
ENDROOT
BRANCH   6   7
HETATM    7  C   UNL     1      -9.857  15.769  69.085  1.00  0.00    -0.247 C  
BRANCH   7   8
HETATM    8  C   UNL     1     -10.460  17.140  69.409  1.00  0.00    -0.203 C  
HETATM    9  C   UNL     1      -9.949  18.305  68.539  1.00  0.00    -0.393 C  
HETATM   10  O   UNL     1     -10.585  19.501  69.013  1.00  0.00    -0.451 OA 
HETATM   11  C   UNL     1      -8.437  18.506  68.652  1.00  0.00    -0.326 C  
HETATM   12  C   UNL     1     -10.361  18.148  67.075  1.00  0.00    -0.391 C  
HETATM   13  H   UNL     1     -10.270  20.219  68.477  1.00  0.00     0.000 HD 
ENDBRANCH   7   8
ENDBRANCH   6   7
TORSDOF 2
ENDMDL
MODEL       97
REMARK 921   NORMALIZED FREE ENERGY PREDICTED BY IDOCK:   -3.44 KCAL/MOL
REMARK 922        TOTAL FREE ENERGY PREDICTED BY IDOCK:   -4.07 KCAL/MOL
REMARK 923 INTER-LIGAND FREE ENERGY PREDICTED BY IDOCK:   -3.75 KCAL/MOL
REMARK 924 INTRA-LIGAND FREE ENERGY PREDICTED BY IDOCK:   -0.32 KCAL/MOL
REMARK 927      BINDING AFFINITY PREDICTED BY RF-SCORE:    0.00 PKD
ROOT
HETATM    1  C   UNL     1      -9.994  11.048  64.125  1.00  0.00    -0.329 C  
HETATM    2  O   UNL     1      -9.918  12.028  63.390  1.00  0.00    -0.417 OA 
HETATM    3  C   UNL     1     -10.740  11.054  65.436  1.00  0.00    -0.222 C  
HETATM    4  C   UNL     1      -9.825  10.847  66.653  1.00  0.00    -0.237 C  
HETATM    5  C   UNL     1      -9.161   9.467  66.634  1.00  0.00    -0.193 C  
HETATM    6  C   UNL     1      -8.756  11.946  66.817  1.00  0.00    -0.193 C  
ENDROOT
BRANCH   6   7
HETATM    7  C   UNL     1      -9.293  13.381  66.927  1.00  0.00    -0.253 C  
BRANCH   7   8
HETATM    8  C   UNL     1     -10.456  13.518  67.916  1.00  0.00    -0.253 C  
HETATM    9  C   UNL     1     -11.511  14.580  67.548  1.00  0.00    -0.356 C  
HETATM   10  O   UNL     1     -12.486  14.594  68.600  1.00  0.00    -0.583 OA 
HETATM   11  C   UNL     1     -10.920  15.986  67.442  1.00  0.00    -0.237 C  
HETATM   12  C   UNL     1     -12.263  14.217  66.267  1.00  0.00    -0.474 C  
HETATM   13  H   UNL     1     -13.136  15.248  68.373  1.00  0.00     0.000 HD 
ENDBRANCH   7   8
ENDBRANCH   6   7
TORSDOF 2
ENDMDL
MODEL       98
REMARK 921   NORMALIZED FREE ENERGY PREDICTED BY IDOCK:   -3.43 KCAL/MOL
REMARK 922        TOTAL FREE ENERGY PREDICTED BY IDOCK:   -4.05 KCAL/MOL
REMARK 923 INTER-LIGAND FREE ENERGY PREDICTED BY IDOCK:   -3.82 KCAL/MOL
REMARK 924 INTRA-LIGAND FREE ENERGY PREDICTED BY IDOCK:   -0.23 KCAL/MOL
REMARK 927      BINDING AFFINITY PREDICTED BY RF-SCORE:    0.00 PKD
ROOT
HETATM    1  C   UNL     1     -13.737  14.608  71.356  1.00  0.00    -0.404 C  
HETATM    2  O   UNL     1     -14.127  15.671  70.883  1.00  0.00    -0.434 OA 
HETATM    3  C   UNL     1     -12.289  14.186  71.357  1.00  0.00    -0.425 C  
HETATM    4  C   UNL     1     -12.022  12.937  70.503  1.00  0.00    -0.282 C  
HETATM    5  C   UNL     1     -12.746  11.707  71.060  1.00  0.00    -0.395 C  
HETATM    6  C   UNL     1     -12.365  13.122  69.011  1.00  0.00     0.059 C  
ENDROOT
BRANCH   6   7
HETATM    7  C   UNL     1     -11.644  14.281  68.306  1.00  0.00    -0.358 C  
BRANCH   7   8
HETATM    8  C   UNL     1     -12.202  14.581  66.911  1.00  0.00    -0.220 C  
HETATM    9  C   UNL     1     -11.152  14.978  65.853  1.00  0.00    -0.334 C  
HETATM   10  O   UNL     1     -11.858  15.261  64.637  1.00  0.00    -0.362 OA 
HETATM   11  C   UNL     1     -10.371  16.234  66.242  1.00  0.00    -0.335 C  
HETATM   12  C   UNL     1     -10.195  13.827  65.540  1.00  0.00    -0.332 C  
HETATM   13  H   UNL     1     -11.211  15.505  63.986  1.00  0.00     0.000 HD 
ENDBRANCH   7   8
ENDBRANCH   6   7
TORSDOF 2
ENDMDL
MODEL       99
REMARK 921   NORMALIZED FREE ENERGY PREDICTED BY IDOCK:   -3.43 KCAL/MOL
REMARK 922        TOTAL FREE ENERGY PREDICTED BY IDOCK:   -4.05 KCAL/MOL
REMARK 923 INTER-LIGAND FREE ENERGY PREDICTED BY IDOCK:   -3.76 KCAL/MOL
REMARK 924 INTRA-LIGAND FREE ENERGY PREDICTED BY IDOCK:   -0.30 KCAL/MOL
REMARK 927      BINDING AFFINITY PREDICTED BY RF-SCORE:    0.00 PKD
ROOT
HETATM    1  C   UNL     1     -10.005   7.906  68.005  1.00  0.00    -0.177 C  
HETATM    2  O   UNL     1     -10.610   7.530  67.006  1.00  0.00    -0.319 OA 
HETATM    3  C   UNL     1     -10.533   8.964  68.941  1.00  0.00    -0.225 C  
HETATM    4  C   UNL     1      -9.669  10.234  68.968  1.00  0.00    -0.213 C  
HETATM    5  C   UNL     1      -8.266   9.952  69.514  1.00  0.00    -0.163 C  
HETATM    6  C   UNL     1      -9.572  10.946  67.603  1.00  0.00    -0.177 C  
ENDROOT
BRANCH   6   7
HETATM    7  C   UNL     1     -10.912  11.356  66.974  1.00  0.00    -0.347 C  
BRANCH   7   8
HETATM    8  C   UNL     1     -11.540  12.587  67.636  1.00  0.00    -0.416 C  
HETATM    9  C   UNL     1     -11.622  13.843  66.747  1.00  0.00    -0.378 C  
HETATM   10  O   UNL     1     -12.191  14.892  67.543  1.00  0.00    -0.494 OA 
HETATM   11  C   UNL     1     -10.249  14.316  66.268  1.00  0.00    -0.307 C  
HETATM   12  C   UNL     1     -12.564  13.642  65.560  1.00  0.00    -0.541 C  
HETATM   13  H   UNL     1     -12.242  15.666  66.995  1.00  0.00     0.000 HD 
ENDBRANCH   7   8
ENDBRANCH   6   7
TORSDOF 2
ENDMDL
MODEL      100
REMARK 921   NORMALIZED FREE ENERGY PREDICTED BY IDOCK:   -3.43 KCAL/MOL
REMARK 922        TOTAL FREE ENERGY PREDICTED BY IDOCK:   -4.05 KCAL/MOL
REMARK 923 INTER-LIGAND FREE ENERGY PREDICTED BY IDOCK:   -3.62 KCAL/MOL
REMARK 924 INTRA-LIGAND FREE ENERGY PREDICTED BY IDOCK:   -0.43 KCAL/MOL
REMARK 927      BINDING AFFINITY PREDICTED BY RF-SCORE:    0.00 PKD
ROOT
HETATM    1  C   UNL     1     -11.210  14.108  67.842  1.00  0.00    -0.279 C  
HETATM    2  O   UNL     1     -10.770  13.897  68.968  1.00  0.00    -0.240 OA 
HETATM    3  C   UNL     1     -12.267  13.250  67.193  1.00  0.00    -0.281 C  
HETATM    4  C   UNL     1     -11.764  12.509  65.945  1.00  0.00    -0.480 C  
HETATM    5  C   UNL     1     -11.371  13.483  64.830  1.00  0.00    -0.362 C  
HETATM    6  C   UNL     1     -10.603  11.534  66.230  1.00  0.00    -0.309 C  
ENDROOT
BRANCH   6   7
HETATM    7  C   UNL     1     -10.891  10.452  67.280  1.00  0.00    -0.324 C  
BRANCH   7   8
HETATM    8  C   UNL     1      -9.848  10.403  68.402  1.00  0.00    -0.173 C  
HETATM    9  C   UNL     1     -10.346   9.819  69.739  1.00  0.00    -0.246 C  
HETATM   10  O   UNL     1      -9.257   9.895  70.669  1.00  0.00    -0.313 OA 
HETATM   11  C   UNL     1     -11.516  10.609  70.326  1.00  0.00    -0.422 C  
HETATM   12  C   UNL     1     -10.707   8.338  69.616  1.00  0.00    -0.196 C  
HETATM   13  H   UNL     1      -9.564   9.535  71.493  1.00  0.00     0.000 HD 
ENDBRANCH   7   8
ENDBRANCH   6   7
TORSDOF 2
ENDMDL
MODEL      101
REMARK 921   NORMALIZED FREE ENERGY PREDICTED BY IDOCK:   -3.41 KCAL/MOL
REMARK 922        TOTAL FREE ENERGY PREDICTED BY IDOCK:   -4.03 KCAL/MOL
REMARK 923 INTER-LIGAND FREE ENERGY PREDICTED BY IDOCK:   -3.71 KCAL/MOL
REMARK 924 INTRA-LIGAND FREE ENERGY PREDICTED BY IDOCK:   -0.32 KCAL/MOL
REMARK 927      BINDING AFFINITY PREDICTED BY RF-SCORE:    0.00 PKD
ROOT
HETATM    1  C   UNL     1     -10.098  12.326  66.501  1.00  0.00    -0.215 C  
HETATM    2  O   UNL     1     -10.173  11.102  66.490  1.00  0.00    -0.216 OA 
HETATM    3  C   UNL     1      -9.595  13.113  67.685  1.00  0.00    -0.210 C  
HETATM    4  C   UNL     1     -10.669  14.012  68.316  1.00  0.00    -0.262 C  
HETATM    5  C   UNL     1     -11.137  15.101  67.345  1.00  0.00    -0.325 C  
HETATM    6  C   UNL     1     -11.884  13.234  68.862  1.00  0.00    -0.367 C  
ENDROOT
BRANCH   6   7
HETATM    7  C   UNL     1     -11.563  12.157  69.909  1.00  0.00    -0.297 C  
BRANCH   7   8
HETATM    8  C   UNL     1     -11.765  10.729  69.390  1.00  0.00    -0.378 C  
HETATM    9  C   UNL     1     -11.019   9.632  70.175  1.00  0.00    -0.275 C  
HETATM   10  O   UNL     1     -11.290   8.383  69.523  1.00  0.00    -0.438 OA 
HETATM   11  C   UNL     1      -9.503   9.837  70.177  1.00  0.00    -0.277 C  
HETATM   12  C   UNL     1     -11.544   9.496  71.604  1.00  0.00    -0.451 C  
HETATM   13  H   UNL     1     -10.830   7.707  70.006  1.00  0.00     0.000 HD 
ENDBRANCH   7   8
ENDBRANCH   6   7
TORSDOF 2
ENDMDL
MODEL      102
REMARK 921   NORMALIZED FREE ENERGY PREDICTED BY IDOCK:   -3.40 KCAL/MOL
REMARK 922        TOTAL FREE ENERGY PREDICTED BY IDOCK:   -4.02 KCAL/MOL
REMARK 923 INTER-LIGAND FREE ENERGY PREDICTED BY IDOCK:   -3.62 KCAL/MOL
REMARK 924 INTRA-LIGAND FREE ENERGY PREDICTED BY IDOCK:   -0.39 KCAL/MOL
REMARK 927      BINDING AFFINITY PREDICTED BY RF-SCORE:    0.00 PKD
ROOT
HETATM    1  C   UNL     1     -12.402   9.667  71.126  1.00  0.00    -0.339 C  
HETATM    2  O   UNL     1     -11.385  10.197  70.690  1.00  0.00    -0.307 OA 
HETATM    3  C   UNL     1     -12.389   8.633  72.224  1.00  0.00    -0.449 C  
HETATM    4  C   UNL     1     -12.877   7.252  71.762  1.00  0.00    -0.369 C  
HETATM    5  C   UNL     1     -14.347   7.287  71.331  1.00  0.00    -0.484 C  
HETATM    6  C   UNL     1     -12.013   6.632  70.645  1.00  0.00    -0.404 C  
ENDROOT
BRANCH   6   7
HETATM    7  C   UNL     1     -10.522   6.468  70.977  1.00  0.00    -0.260 C  
BRANCH   7   8
HETATM    8  C   UNL     1     -10.113   5.011  71.219  1.00  0.00    -0.276 C  
HETATM    9  C   UNL     1      -9.686   4.679  72.663  1.00  0.00    -0.143 C  
HETATM   10  O   UNL     1      -9.300   3.298  72.686  1.00  0.00    -0.097 OA 
HETATM   11  C   UNL     1      -8.487   5.506  73.128  1.00  0.00    -0.118 C  
HETATM   12  C   UNL     1     -10.848   4.820  73.648  1.00  0.00    -0.377 C  
HETATM   13  H   UNL     1      -9.038   3.093  73.576  1.00  0.00     0.000 HD 
ENDBRANCH   7   8
ENDBRANCH   6   7
TORSDOF 2
ENDMDL
MODEL      103
REMARK 921   NORMALIZED FREE ENERGY PREDICTED BY IDOCK:   -3.39 KCAL/MOL
REMARK 922        TOTAL FREE ENERGY PREDICTED BY IDOCK:   -4.01 KCAL/MOL
REMARK 923 INTER-LIGAND FREE ENERGY PREDICTED BY IDOCK:   -3.79 KCAL/MOL
REMARK 924 INTRA-LIGAND FREE ENERGY PREDICTED BY IDOCK:   -0.21 KCAL/MOL
REMARK 927      BINDING AFFINITY PREDICTED BY RF-SCORE:    0.00 PKD
ROOT
HETATM    1  C   UNL     1     -12.294  13.354  65.217  1.00  0.00    -0.469 C  
HETATM    2  O   UNL     1     -12.857  12.307  64.912  1.00  0.00    -0.628 OA 
HETATM    3  C   UNL     1     -10.880  13.680  64.807  1.00  0.00    -0.402 C  
HETATM    4  C   UNL     1      -9.916  13.796  65.998  1.00  0.00    -0.319 C  
HETATM    5  C   UNL     1     -10.292  14.961  66.919  1.00  0.00    -0.264 C  
HETATM    6  C   UNL     1      -9.785  12.495  66.817  1.00  0.00    -0.234 C  
ENDROOT
BRANCH   6   7
HETATM    7  C   UNL     1      -9.337  11.258  66.026  1.00  0.00    -0.234 C  
BRANCH   7   8
HETATM    8  C   UNL     1     -10.307  10.078  66.147  1.00  0.00    -0.225 C  
HETATM    9  C   UNL     1      -9.958   9.048  67.239  1.00  0.00    -0.216 C  
HETATM   10  O   UNL     1     -10.943   8.006  67.173  1.00  0.00    -0.486 OA 
HETATM   11  C   UNL     1      -8.586   8.406  67.027  1.00  0.00    -0.124 C  
HETATM   12  C   UNL     1     -10.058   9.648  68.642  1.00  0.00    -0.196 C  
HETATM   13  H   UNL     1     -10.727   7.372  67.847  1.00  0.00     0.000 HD 
ENDBRANCH   7   8
ENDBRANCH   6   7
TORSDOF 2
ENDMDL
MODEL      104
REMARK 921   NORMALIZED FREE ENERGY PREDICTED BY IDOCK:   -3.38 KCAL/MOL
REMARK 922        TOTAL FREE ENERGY PREDICTED BY IDOCK:   -4.00 KCAL/MOL
REMARK 923 INTER-LIGAND FREE ENERGY PREDICTED BY IDOCK:   -3.64 KCAL/MOL
REMARK 924 INTRA-LIGAND FREE ENERGY PREDICTED BY IDOCK:   -0.36 KCAL/MOL
REMARK 927      BINDING AFFINITY PREDICTED BY RF-SCORE:    0.00 PKD
ROOT
HETATM    1  C   UNL     1     -11.126  10.981  69.296  1.00  0.00    -0.254 C  
HETATM    2  O   UNL     1     -11.889  11.513  70.097  1.00  0.00    -0.326 OA 
HETATM    3  C   UNL     1      -9.950  11.695  68.677  1.00  0.00    -0.192 C  
HETATM    4  C   UNL     1     -10.080  11.867  67.156  1.00  0.00    -0.222 C  
HETATM    5  C   UNL     1     -10.091  10.517  66.433  1.00  0.00    -0.285 C  
HETATM    6  C   UNL     1     -11.303  12.705  66.729  1.00  0.00    -0.373 C  
ENDROOT
BRANCH   6   7
HETATM    7  C   UNL     1     -11.376  14.119  67.326  1.00  0.00    -0.349 C  
BRANCH   7   8
HETATM    8  C   UNL     1     -10.914  15.211  66.354  1.00  0.00    -0.329 C  
HETATM    9  C   UNL     1      -9.958  16.262  66.952  1.00  0.00    -0.260 C  
HETATM   10  O   UNL     1      -9.674  17.215  65.918  1.00  0.00    -0.490 OA 
HETATM   11  C   UNL     1     -10.577  17.020  68.127  1.00  0.00    -0.369 C  
HETATM   12  C   UNL     1      -8.617  15.649  67.356  1.00  0.00    -0.192 C  
HETATM   13  H   UNL     1      -9.085  17.863  66.286  1.00  0.00     0.000 HD 
ENDBRANCH   7   8
ENDBRANCH   6   7
TORSDOF 2
ENDMDL
MODEL      105
REMARK 921   NORMALIZED FREE ENERGY PREDICTED BY IDOCK:   -3.38 KCAL/MOL
REMARK 922        TOTAL FREE ENERGY PREDICTED BY IDOCK:   -3.99 KCAL/MOL
REMARK 923 INTER-LIGAND FREE ENERGY PREDICTED BY IDOCK:   -3.73 KCAL/MOL
REMARK 924 INTRA-LIGAND FREE ENERGY PREDICTED BY IDOCK:   -0.26 KCAL/MOL
REMARK 927      BINDING AFFINITY PREDICTED BY RF-SCORE:    0.00 PKD
ROOT
HETATM    1  C   UNL     1     -11.390  10.756  69.254  1.00  0.00    -0.286 C  
HETATM    2  O   UNL     1     -11.834  10.979  68.132  1.00  0.00    -0.573 OA 
HETATM    3  C   UNL     1      -9.986  10.268  69.504  1.00  0.00    -0.252 C  
HETATM    4  C   UNL     1      -9.934   8.861  70.120  1.00  0.00    -0.207 C  
HETATM    5  C   UNL     1     -10.570   8.831  71.514  1.00  0.00    -0.379 C  
HETATM    6  C   UNL     1     -10.564   7.771  69.228  1.00  0.00    -0.199 C  
ENDROOT
BRANCH   6   7
HETATM    7  C   UNL     1      -9.963   7.642  67.820  1.00  0.00    -0.219 C  
BRANCH   7   8
HETATM    8  C   UNL     1     -10.851   6.851  66.854  1.00  0.00    -0.380 C  
HETATM    9  C   UNL     1     -10.251   5.527  66.342  1.00  0.00    -0.201 C  
HETATM   10  O   UNL     1     -11.196   4.956  65.426  1.00  0.00    -0.814 OA 
HETATM   11  C   UNL     1      -8.936   5.730  65.588  1.00  0.00    -0.122 C  
HETATM   12  C   UNL     1     -10.071   4.508  67.468  1.00  0.00    -0.096 C  
HETATM   13  H   UNL     1     -10.826   4.141  65.110  1.00  0.00     0.000 HD 
ENDBRANCH   7   8
ENDBRANCH   6   7
TORSDOF 2
ENDMDL
MODEL      106
REMARK 921   NORMALIZED FREE ENERGY PREDICTED BY IDOCK:   -3.38 KCAL/MOL
REMARK 922        TOTAL FREE ENERGY PREDICTED BY IDOCK:   -3.99 KCAL/MOL
REMARK 923 INTER-LIGAND FREE ENERGY PREDICTED BY IDOCK:   -3.71 KCAL/MOL
REMARK 924 INTRA-LIGAND FREE ENERGY PREDICTED BY IDOCK:   -0.28 KCAL/MOL
REMARK 927      BINDING AFFINITY PREDICTED BY RF-SCORE:    0.00 PKD
ROOT
HETATM    1  C   UNL     1     -10.515   6.096  73.412  1.00  0.00    -0.253 C  
HETATM    2  O   UNL     1      -9.567   5.318  73.417  1.00  0.00    -0.140 OA 
HETATM    3  C   UNL     1     -11.650   6.009  72.422  1.00  0.00    -0.349 C  
HETATM    4  C   UNL     1     -11.731   7.223  71.485  1.00  0.00    -0.320 C  
HETATM    5  C   UNL     1     -12.036   8.512  72.256  1.00  0.00    -0.455 C  
HETATM    6  C   UNL     1     -10.476   7.415  70.610  1.00  0.00    -0.224 C  
ENDROOT
BRANCH   6   7
HETATM    7  C   UNL     1     -10.098   6.219  69.724  1.00  0.00    -0.217 C  
BRANCH   7   8
HETATM    8  C   UNL     1     -11.031   6.037  68.522  1.00  0.00    -0.350 C  
HETATM    9  C   UNL     1     -10.332   5.691  67.193  1.00  0.00    -0.248 C  
HETATM   10  O   UNL     1     -11.351   5.604  66.186  1.00  0.00    -0.739 OA 
HETATM   11  C   UNL     1      -9.335   6.764  66.755  1.00  0.00    -0.189 C  
HETATM   12  C   UNL     1      -9.657   4.320  67.243  1.00  0.00    -0.224 C  
HETATM   13  H   UNL     1     -10.920   5.390  65.367  1.00  0.00     0.000 HD 
ENDBRANCH   7   8
ENDBRANCH   6   7
TORSDOF 2
ENDMDL
MODEL      107
REMARK 921   NORMALIZED FREE ENERGY PREDICTED BY IDOCK:   -3.35 KCAL/MOL
REMARK 922        TOTAL FREE ENERGY PREDICTED BY IDOCK:   -3.96 KCAL/MOL
REMARK 923 INTER-LIGAND FREE ENERGY PREDICTED BY IDOCK:   -3.82 KCAL/MOL
REMARK 924 INTRA-LIGAND FREE ENERGY PREDICTED BY IDOCK:   -0.14 KCAL/MOL
REMARK 927      BINDING AFFINITY PREDICTED BY RF-SCORE:    0.00 PKD
ROOT
HETATM    1  C   UNL     1     -11.333  16.250  68.459  1.00  0.00    -0.330 C  
HETATM    2  O   UNL     1     -11.019  16.100  67.282  1.00  0.00    -0.283 OA 
HETATM    3  C   UNL     1     -10.558  15.647  69.604  1.00  0.00    -0.284 C  
HETATM    4  C   UNL     1     -11.361  14.604  70.396  1.00  0.00    -0.232 C  
HETATM    5  C   UNL     1     -12.577  15.231  71.087  1.00  0.00    -0.457 C  
HETATM    6  C   UNL     1     -11.801  13.390  69.552  1.00  0.00    -0.391 C  
ENDROOT
BRANCH   6   7
HETATM    7  C   UNL     1     -10.666  12.619  68.861  1.00  0.00    -0.201 C  
BRANCH   7   8
HETATM    8  C   UNL     1     -11.069  11.205  68.431  1.00  0.00    -0.303 C  
HETATM    9  C   UNL     1     -10.728  10.088  69.437  1.00  0.00    -0.233 C  
HETATM   10  O   UNL     1     -11.135   8.844  68.849  1.00  0.00    -0.440 OA 
HETATM   11  C   UNL     1      -9.230   9.996  69.729  1.00  0.00    -0.227 C  
HETATM   12  C   UNL     1     -11.520  10.230  70.738  1.00  0.00    -0.438 C  
HETATM   13  H   UNL     1     -10.925   8.157  69.469  1.00  0.00     0.000 HD 
ENDBRANCH   7   8
ENDBRANCH   6   7
TORSDOF 2
ENDMDL
MODEL      108
REMARK 921   NORMALIZED FREE ENERGY PREDICTED BY IDOCK:   -3.34 KCAL/MOL
REMARK 922        TOTAL FREE ENERGY PREDICTED BY IDOCK:   -3.95 KCAL/MOL
REMARK 923 INTER-LIGAND FREE ENERGY PREDICTED BY IDOCK:   -3.68 KCAL/MOL
REMARK 924 INTRA-LIGAND FREE ENERGY PREDICTED BY IDOCK:   -0.27 KCAL/MOL
REMARK 927      BINDING AFFINITY PREDICTED BY RF-SCORE:    0.00 PKD
ROOT
HETATM    1  C   UNL     1     -11.584  13.067  65.622  1.00  0.00    -0.354 C  
HETATM    2  O   UNL     1     -12.505  12.257  65.669  1.00  0.00    -0.591 OA 
HETATM    3  C   UNL     1     -10.131  12.664  65.584  1.00  0.00    -0.285 C  
HETATM    4  C   UNL     1      -9.346  13.112  66.827  1.00  0.00    -0.244 C  
HETATM    5  C   UNL     1      -9.284  14.639  66.936  1.00  0.00    -0.267 C  
HETATM    6  C   UNL     1      -9.875  12.509  68.144  1.00  0.00    -0.221 C  
ENDROOT
BRANCH   6   7
HETATM    7  C   UNL     1      -9.917  10.975  68.198  1.00  0.00    -0.190 C  
BRANCH   7   8
HETATM    8  C   UNL     1     -11.091  10.430  69.019  1.00  0.00    -0.297 C  
HETATM    9  C   UNL     1     -10.822   9.101  69.752  1.00  0.00    -0.211 C  
HETATM   10  O   UNL     1     -12.034   8.731  70.423  1.00  0.00    -0.478 OA 
HETATM   11  C   UNL     1     -10.452   7.966  68.797  1.00  0.00    -0.198 C  
HETATM   12  C   UNL     1      -9.757   9.255  70.839  1.00  0.00    -0.346 C  
HETATM   13  H   UNL     1     -11.868   7.912  70.875  1.00  0.00     0.000 HD 
ENDBRANCH   7   8
ENDBRANCH   6   7
TORSDOF 2
ENDMDL
MODEL      109
REMARK 921   NORMALIZED FREE ENERGY PREDICTED BY IDOCK:   -3.34 KCAL/MOL
REMARK 922        TOTAL FREE ENERGY PREDICTED BY IDOCK:   -3.95 KCAL/MOL
REMARK 923 INTER-LIGAND FREE ENERGY PREDICTED BY IDOCK:   -3.69 KCAL/MOL
REMARK 924 INTRA-LIGAND FREE ENERGY PREDICTED BY IDOCK:   -0.26 KCAL/MOL
REMARK 927      BINDING AFFINITY PREDICTED BY RF-SCORE:    0.00 PKD
ROOT
HETATM    1  C   UNL     1      -9.395  18.105  67.496  1.00  0.00    -0.258 C  
HETATM    2  O   UNL     1     -10.484  17.980  68.048  1.00  0.00    -0.372 OA 
HETATM    3  C   UNL     1      -8.954  17.245  66.339  1.00  0.00    -0.282 C  
HETATM    4  C   UNL     1      -7.742  16.360  66.670  1.00  0.00    -0.310 C  
HETATM    5  C   UNL     1      -6.497  17.199  66.978  1.00  0.00    -0.225 C  
HETATM    6  C   UNL     1      -8.000  15.358  67.813  1.00  0.00    -0.159 C  
ENDROOT
BRANCH   6   7
HETATM    7  C   UNL     1      -9.180  14.399  67.596  1.00  0.00    -0.196 C  
BRANCH   7   8
HETATM    8  C   UNL     1     -10.365  14.677  68.527  1.00  0.00    -0.238 C  
HETATM    9  C   UNL     1     -11.648  13.881  68.215  1.00  0.00    -0.337 C  
HETATM   10  O   UNL     1     -12.649  14.302  69.153  1.00  0.00    -0.525 OA 
HETATM   11  C   UNL     1     -12.183  14.153  66.809  1.00  0.00    -0.429 C  
HETATM   12  C   UNL     1     -11.455  12.380  68.435  1.00  0.00    -0.356 C  
HETATM   13  H   UNL     1     -13.439  13.812  68.961  1.00  0.00     0.000 HD 
ENDBRANCH   7   8
ENDBRANCH   6   7
TORSDOF 2
ENDMDL
MODEL      110
REMARK 921   NORMALIZED FREE ENERGY PREDICTED BY IDOCK:   -3.32 KCAL/MOL
REMARK 922        TOTAL FREE ENERGY PREDICTED BY IDOCK:   -3.93 KCAL/MOL
REMARK 923 INTER-LIGAND FREE ENERGY PREDICTED BY IDOCK:   -3.61 KCAL/MOL
REMARK 924 INTRA-LIGAND FREE ENERGY PREDICTED BY IDOCK:   -0.32 KCAL/MOL
REMARK 927      BINDING AFFINITY PREDICTED BY RF-SCORE:    0.00 PKD
ROOT
HETATM    1  C   UNL     1      -7.193  17.249  67.325  1.00  0.00    -0.165 C  
HETATM    2  O   UNL     1      -7.133  16.052  67.061  1.00  0.00    -0.208 OA 
HETATM    3  C   UNL     1      -7.854  17.789  68.568  1.00  0.00    -0.290 C  
HETATM    4  C   UNL     1      -9.090  18.651  68.270  1.00  0.00    -0.347 C  
HETATM    5  C   UNL     1      -8.722  19.918  67.490  1.00  0.00    -0.401 C  
HETATM    6  C   UNL     1     -10.215  17.889  67.540  1.00  0.00    -0.366 C  
ENDROOT
BRANCH   6   7
HETATM    7  C   UNL     1     -10.735  16.633  68.255  1.00  0.00    -0.351 C  
BRANCH   7   8
HETATM    8  C   UNL     1     -11.282  15.572  67.295  1.00  0.00    -0.226 C  
HETATM    9  C   UNL     1     -11.168  14.116  67.788  1.00  0.00    -0.287 C  
HETATM   10  O   UNL     1     -11.686  13.273  66.749  1.00  0.00    -0.345 OA 
HETATM   11  C   UNL     1      -9.722  13.695  68.051  1.00  0.00    -0.226 C  
HETATM   12  C   UNL     1     -12.034  13.862  69.023  1.00  0.00    -0.402 C  
HETATM   13  H   UNL     1     -11.616  12.376  67.053  1.00  0.00     0.000 HD 
ENDBRANCH   7   8
ENDBRANCH   6   7
TORSDOF 2
ENDMDL
MODEL      111
REMARK 921   NORMALIZED FREE ENERGY PREDICTED BY IDOCK:   -3.31 KCAL/MOL
REMARK 922        TOTAL FREE ENERGY PREDICTED BY IDOCK:   -3.92 KCAL/MOL
REMARK 923 INTER-LIGAND FREE ENERGY PREDICTED BY IDOCK:   -3.65 KCAL/MOL
REMARK 924 INTRA-LIGAND FREE ENERGY PREDICTED BY IDOCK:   -0.26 KCAL/MOL
REMARK 927      BINDING AFFINITY PREDICTED BY RF-SCORE:    0.00 PKD
ROOT
HETATM    1  C   UNL     1     -10.579  18.450  65.997  1.00  0.00    -0.309 C  
HETATM    2  O   UNL     1     -10.767  17.472  65.280  1.00  0.00    -0.656 OA 
HETATM    3  C   UNL     1      -9.238  18.786  66.601  1.00  0.00    -0.333 C  
HETATM    4  C   UNL     1      -9.230  18.710  68.135  1.00  0.00    -0.340 C  
HETATM    5  C   UNL     1     -10.166  19.751  68.758  1.00  0.00    -0.473 C  
HETATM    6  C   UNL     1      -9.556  17.308  68.688  1.00  0.00    -0.284 C  
ENDROOT
BRANCH   6   7
HETATM    7  C   UNL     1      -8.640  16.176  68.201  1.00  0.00    -0.177 C  
BRANCH   7   8
HETATM    8  C   UNL     1      -8.280  15.172  69.302  1.00  0.00    -0.216 C  
HETATM    9  C   UNL     1      -6.779  14.844  69.428  1.00  0.00    -0.153 C  
HETATM   10  O   UNL     1      -6.642  13.866  70.469  1.00  0.00    -0.406 OA 
HETATM   11  C   UNL     1      -6.197  14.245  68.147  1.00  0.00    -0.138 C  
HETATM   12  C   UNL     1      -5.964  16.061  69.868  1.00  0.00    -0.169 C  
HETATM   13  H   UNL     1      -5.717  13.664  70.546  1.00  0.00     0.000 HD 
ENDBRANCH   7   8
ENDBRANCH   6   7
TORSDOF 2
ENDMDL
MODEL      112
REMARK 921   NORMALIZED FREE ENERGY PREDICTED BY IDOCK:   -3.31 KCAL/MOL
REMARK 922        TOTAL FREE ENERGY PREDICTED BY IDOCK:   -3.91 KCAL/MOL
REMARK 923 INTER-LIGAND FREE ENERGY PREDICTED BY IDOCK:   -3.54 KCAL/MOL
REMARK 924 INTRA-LIGAND FREE ENERGY PREDICTED BY IDOCK:   -0.38 KCAL/MOL
REMARK 927      BINDING AFFINITY PREDICTED BY RF-SCORE:    0.00 PKD
ROOT
HETATM    1  C   UNL     1     -10.890  12.117  63.749  1.00  0.00    -0.432 C  
HETATM    2  O   UNL     1     -10.460  10.989  63.527  1.00  0.00    -0.361 OA 
HETATM    3  C   UNL     1     -10.307  13.032  64.796  1.00  0.00    -0.356 C  
HETATM    4  C   UNL     1     -11.284  13.345  65.939  1.00  0.00    -0.314 C  
HETATM    5  C   UNL     1     -12.509  14.119  65.440  1.00  0.00    -0.488 C  
HETATM    6  C   UNL     1     -11.733  12.099  66.729  1.00  0.00    -0.377 C  
ENDROOT
BRANCH   6   7
HETATM    7  C   UNL     1     -10.601  11.269  67.352  1.00  0.00    -0.262 C  
BRANCH   7   8
HETATM    8  C   UNL     1      -9.694  12.082  68.282  1.00  0.00    -0.205 C  
HETATM    9  C   UNL     1      -8.252  11.556  68.421  1.00  0.00    -0.152 C  
HETATM   10  O   UNL     1      -7.575  12.410  69.354  1.00  0.00    -0.312 OA 
HETATM   11  C   UNL     1      -8.197  10.130  68.971  1.00  0.00    -0.132 C  
HETATM   12  C   UNL     1      -7.479  11.653  67.106  1.00  0.00    -0.146 C  
HETATM   13  H   UNL     1      -6.686  12.085  69.440  1.00  0.00     0.000 HD 
ENDBRANCH   7   8
ENDBRANCH   6   7
TORSDOF 2
ENDMDL
MODEL      113
REMARK 921   NORMALIZED FREE ENERGY PREDICTED BY IDOCK:   -3.30 KCAL/MOL
REMARK 922        TOTAL FREE ENERGY PREDICTED BY IDOCK:   -3.91 KCAL/MOL
REMARK 923 INTER-LIGAND FREE ENERGY PREDICTED BY IDOCK:   -3.63 KCAL/MOL
REMARK 924 INTRA-LIGAND FREE ENERGY PREDICTED BY IDOCK:   -0.28 KCAL/MOL
REMARK 927      BINDING AFFINITY PREDICTED BY RF-SCORE:    0.00 PKD
ROOT
HETATM    1  C   UNL     1     -10.259  12.424  67.350  1.00  0.00    -0.208 C  
HETATM    2  O   UNL     1      -9.949  13.068  68.348  1.00  0.00    -0.231 OA 
HETATM    3  C   UNL     1     -11.098  11.171  67.404  1.00  0.00    -0.370 C  
HETATM    4  C   UNL     1     -10.339   9.915  66.948  1.00  0.00    -0.300 C  
HETATM    5  C   UNL     1      -9.934  10.003  65.473  1.00  0.00    -0.367 C  
HETATM    6  C   UNL     1      -9.107   9.587  67.816  1.00  0.00    -0.133 C  
ENDROOT
BRANCH   6   7
HETATM    7  C   UNL     1      -9.386   9.396  69.314  1.00  0.00    -0.167 C  
BRANCH   7   8
HETATM    8  C   UNL     1     -10.656   8.586  69.596  1.00  0.00    -0.221 C  
HETATM    9  C   UNL     1     -11.341   8.883  70.945  1.00  0.00    -0.283 C  
HETATM   10  O   UNL     1     -12.474   8.009  71.049  1.00  0.00    -0.470 OA 
HETATM   11  C   UNL     1     -10.429   8.608  72.141  1.00  0.00    -0.411 C  
HETATM   12  C   UNL     1     -11.888  10.310  71.005  1.00  0.00    -0.472 C  
HETATM   13  H   UNL     1     -12.895   8.192  71.880  1.00  0.00     0.000 HD 
ENDBRANCH   7   8
ENDBRANCH   6   7
TORSDOF 2
ENDMDL
MODEL      114
REMARK 921   NORMALIZED FREE ENERGY PREDICTED BY IDOCK:   -3.29 KCAL/MOL
REMARK 922        TOTAL FREE ENERGY PREDICTED BY IDOCK:   -3.90 KCAL/MOL
REMARK 923 INTER-LIGAND FREE ENERGY PREDICTED BY IDOCK:   -3.46 KCAL/MOL
REMARK 924 INTRA-LIGAND FREE ENERGY PREDICTED BY IDOCK:   -0.44 KCAL/MOL
REMARK 927      BINDING AFFINITY PREDICTED BY RF-SCORE:    0.00 PKD
ROOT
HETATM    1  C   UNL     1     -10.428   9.033  71.576  1.00  0.00    -0.339 C  
HETATM    2  O   UNL     1      -9.341   8.795  71.057  1.00  0.00    -0.181 OA 
HETATM    3  C   UNL     1     -11.744   8.808  70.875  1.00  0.00    -0.299 C  
HETATM    4  C   UNL     1     -12.526  10.106  70.623  1.00  0.00    -0.372 C  
HETATM    5  C   UNL     1     -12.938  10.782  71.935  1.00  0.00    -0.524 C  
HETATM    6  C   UNL     1     -11.782  11.112  69.721  1.00  0.00    -0.419 C  
ENDROOT
BRANCH   6   7
HETATM    7  C   UNL     1     -11.376  10.584  68.337  1.00  0.00    -0.328 C  
BRANCH   7   8
HETATM    8  C   UNL     1      -9.869  10.672  68.074  1.00  0.00    -0.177 C  
HETATM    9  C   UNL     1      -9.323   9.674  67.033  1.00  0.00    -0.147 C  
HETATM   10  O   UNL     1      -7.905   9.874  66.954  1.00  0.00    -0.102 OA 
HETATM   11  C   UNL     1      -9.567   8.218  67.431  1.00  0.00    -0.205 C  
HETATM   12  C   UNL     1      -9.877   9.947  65.635  1.00  0.00    -0.368 C  
HETATM   13  H   UNL     1      -7.569   9.259  66.313  1.00  0.00     0.000 HD 
ENDBRANCH   7   8
ENDBRANCH   6   7
TORSDOF 2
ENDMDL
MODEL      115
REMARK 921   NORMALIZED FREE ENERGY PREDICTED BY IDOCK:   -3.29 KCAL/MOL
REMARK 922        TOTAL FREE ENERGY PREDICTED BY IDOCK:   -3.89 KCAL/MOL
REMARK 923 INTER-LIGAND FREE ENERGY PREDICTED BY IDOCK:   -3.46 KCAL/MOL
REMARK 924 INTRA-LIGAND FREE ENERGY PREDICTED BY IDOCK:   -0.43 KCAL/MOL
REMARK 927      BINDING AFFINITY PREDICTED BY RF-SCORE:    0.00 PKD
ROOT
HETATM    1  C   UNL     1      -8.015   4.478  73.258  1.00  0.00    -0.095 C  
HETATM    2  O   UNL     1      -7.116   5.287  73.465  1.00  0.00    -0.082 OA 
HETATM    3  C   UNL     1      -9.098   4.692  72.230  1.00  0.00    -0.146 C  
HETATM    4  C   UNL     1     -10.499   4.822  72.846  1.00  0.00    -0.257 C  
HETATM    5  C   UNL     1     -10.931   3.530  73.546  1.00  0.00    -0.330 C  
HETATM    6  C   UNL     1     -10.645   6.019  73.808  1.00  0.00    -0.265 C  
ENDROOT
BRANCH   6   7
HETATM    7  C   UNL     1     -10.314   7.394  73.207  1.00  0.00    -0.405 C  
BRANCH   7   8
HETATM    8  C   UNL     1     -11.524   8.079  72.563  1.00  0.00    -0.471 C  
HETATM    9  C   UNL     1     -11.344   8.476  71.084  1.00  0.00    -0.270 C  
HETATM   10  O   UNL     1     -12.549   9.137  70.671  1.00  0.00    -0.497 OA 
HETATM   11  C   UNL     1     -10.184   9.450  70.872  1.00  0.00    -0.373 C  
HETATM   12  C   UNL     1     -11.190   7.253  70.179  1.00  0.00    -0.264 C  
HETATM   13  H   UNL     1     -12.438   9.381  69.760  1.00  0.00     0.000 HD 
ENDBRANCH   7   8
ENDBRANCH   6   7
TORSDOF 2
ENDMDL
MODEL      116
REMARK 921   NORMALIZED FREE ENERGY PREDICTED BY IDOCK:   -3.27 KCAL/MOL
REMARK 922        TOTAL FREE ENERGY PREDICTED BY IDOCK:   -3.88 KCAL/MOL
REMARK 923 INTER-LIGAND FREE ENERGY PREDICTED BY IDOCK:   -3.44 KCAL/MOL
REMARK 924 INTRA-LIGAND FREE ENERGY PREDICTED BY IDOCK:   -0.44 KCAL/MOL
REMARK 927      BINDING AFFINITY PREDICTED BY RF-SCORE:    0.00 PKD
ROOT
HETATM    1  C   UNL     1     -11.947  11.126  68.783  1.00  0.00    -0.268 C  
HETATM    2  O   UNL     1     -11.697  10.793  67.628  1.00  0.00    -0.538 OA 
HETATM    3  C   UNL     1     -10.969  10.964  69.919  1.00  0.00    -0.266 C  
HETATM    4  C   UNL     1     -11.445   9.973  70.992  1.00  0.00    -0.463 C  
HETATM    5  C   UNL     1     -12.717  10.465  71.691  1.00  0.00    -0.560 C  
HETATM    6  C   UNL     1     -11.654   8.540  70.462  1.00  0.00    -0.145 C  
ENDROOT
BRANCH   6   7
HETATM    7  C   UNL     1     -10.427   7.894  69.801  1.00  0.00    -0.233 C  
BRANCH   7   8
HETATM    8  C   UNL     1     -10.699   7.390  68.380  1.00  0.00    -0.142 C  
HETATM    9  C   UNL     1      -9.484   7.405  67.432  1.00  0.00    -0.141 C  
HETATM   10  O   UNL     1      -9.937   6.946  66.151  1.00  0.00    -0.420 OA 
HETATM   11  C   UNL     1      -8.900   8.806  67.245  1.00  0.00    -0.141 C  
HETATM   12  C   UNL     1      -8.397   6.427  67.882  1.00  0.00    -0.118 C  
HETATM   13  H   UNL     1      -9.188   6.955  65.567  1.00  0.00     0.000 HD 
ENDBRANCH   7   8
ENDBRANCH   6   7
TORSDOF 2
ENDMDL
MODEL      117
REMARK 921   NORMALIZED FREE ENERGY PREDICTED BY IDOCK:   -3.27 KCAL/MOL
REMARK 922        TOTAL FREE ENERGY PREDICTED BY IDOCK:   -3.87 KCAL/MOL
REMARK 923 INTER-LIGAND FREE ENERGY PREDICTED BY IDOCK:   -3.54 KCAL/MOL
REMARK 924 INTRA-LIGAND FREE ENERGY PREDICTED BY IDOCK:   -0.33 KCAL/MOL
REMARK 927      BINDING AFFINITY PREDICTED BY RF-SCORE:    0.00 PKD
ROOT
HETATM    1  C   UNL     1     -11.729  13.755  65.454  1.00  0.00    -0.335 C  
HETATM    2  O   UNL     1     -11.166  13.917  64.376  1.00  0.00    -0.373 OA 
HETATM    3  C   UNL     1     -11.648  14.749  66.586  1.00  0.00    -0.319 C  
HETATM    4  C   UNL     1     -10.934  14.195  67.828  1.00  0.00    -0.274 C  
HETATM    5  C   UNL     1     -11.702  13.022  68.446  1.00  0.00    -0.386 C  
HETATM    6  C   UNL     1      -9.468  13.790  67.571  1.00  0.00    -0.220 C  
ENDROOT
BRANCH   6   7
HETATM    7  C   UNL     1      -8.562  14.900  67.019  1.00  0.00    -0.265 C  
BRANCH   7   8
HETATM    8  C   UNL     1      -8.468  16.120  67.942  1.00  0.00    -0.166 C  
HETATM    9  C   UNL     1      -8.547  17.488  67.236  1.00  0.00    -0.225 C  
HETATM   10  O   UNL     1      -8.399  18.497  68.245  1.00  0.00    -0.302 OA 
HETATM   11  C   UNL     1      -7.431  17.687  66.210  1.00  0.00    -0.340 C  
HETATM   12  C   UNL     1      -9.915  17.719  66.591  1.00  0.00    -0.338 C  
HETATM   13  H   UNL     1      -8.448  19.340  67.809  1.00  0.00     0.000 HD 
ENDBRANCH   7   8
ENDBRANCH   6   7
TORSDOF 2
ENDMDL
MODEL      118
REMARK 921   NORMALIZED FREE ENERGY PREDICTED BY IDOCK:   -3.27 KCAL/MOL
REMARK 922        TOTAL FREE ENERGY PREDICTED BY IDOCK:   -3.87 KCAL/MOL
REMARK 923 INTER-LIGAND FREE ENERGY PREDICTED BY IDOCK:   -3.59 KCAL/MOL
REMARK 924 INTRA-LIGAND FREE ENERGY PREDICTED BY IDOCK:   -0.28 KCAL/MOL
REMARK 927      BINDING AFFINITY PREDICTED BY RF-SCORE:    0.00 PKD
ROOT
HETATM    1  C   UNL     1     -11.768  12.600  66.374  1.00  0.00    -0.405 C  
HETATM    2  O   UNL     1     -12.196  13.616  65.835  1.00  0.00    -0.408 OA 
HETATM    3  C   UNL     1     -11.340  12.549  67.819  1.00  0.00    -0.351 C  
HETATM    4  C   UNL     1      -9.841  12.263  67.997  1.00  0.00    -0.204 C  
HETATM    5  C   UNL     1      -9.464  10.875  67.470  1.00  0.00    -0.168 C  
HETATM    6  C   UNL     1      -8.927  13.334  67.367  1.00  0.00    -0.215 C  
ENDROOT
BRANCH   6   7
HETATM    7  C   UNL     1      -9.150  14.769  67.866  1.00  0.00    -0.183 C  
BRANCH   7   8
HETATM    8  C   UNL     1      -9.128  15.812  66.744  1.00  0.00    -0.276 C  
HETATM    9  C   UNL     1      -9.301  17.274  67.199  1.00  0.00    -0.243 C  
HETATM   10  O   UNL     1      -9.299  18.091  66.020  1.00  0.00    -0.505 OA 
HETATM   11  C   UNL     1     -10.625  17.511  67.927  1.00  0.00    -0.390 C  
HETATM   12  C   UNL     1      -8.127  17.748  68.056  1.00  0.00    -0.243 C  
HETATM   13  H   UNL     1      -9.406  18.992  66.301  1.00  0.00     0.000 HD 
ENDBRANCH   7   8
ENDBRANCH   6   7
TORSDOF 2
ENDMDL
MODEL      119
REMARK 921   NORMALIZED FREE ENERGY PREDICTED BY IDOCK:   -3.26 KCAL/MOL
REMARK 922        TOTAL FREE ENERGY PREDICTED BY IDOCK:   -3.86 KCAL/MOL
REMARK 923 INTER-LIGAND FREE ENERGY PREDICTED BY IDOCK:   -3.61 KCAL/MOL
REMARK 924 INTRA-LIGAND FREE ENERGY PREDICTED BY IDOCK:   -0.26 KCAL/MOL
REMARK 927      BINDING AFFINITY PREDICTED BY RF-SCORE:    0.00 PKD
ROOT
HETATM    1  C   UNL     1     -10.878  15.283  67.753  1.00  0.00    -0.295 C  
HETATM    2  O   UNL     1     -10.693  15.687  66.609  1.00  0.00    -0.308 OA 
HETATM    3  C   UNL     1     -10.107  14.136  68.359  1.00  0.00    -0.238 C  
HETATM    4  C   UNL     1     -10.988  12.921  68.685  1.00  0.00    -0.295 C  
HETATM    5  C   UNL     1     -12.030  13.249  69.759  1.00  0.00    -0.391 C  
HETATM    6  C   UNL     1     -11.678  12.306  67.449  1.00  0.00    -0.405 C  
ENDROOT
BRANCH   6   7
HETATM    7  C   UNL     1     -10.737  11.860  66.321  1.00  0.00    -0.309 C  
BRANCH   7   8
HETATM    8  C   UNL     1     -10.441  10.357  66.338  1.00  0.00    -0.246 C  
HETATM    9  C   UNL     1      -9.294   9.900  65.415  1.00  0.00    -0.239 C  
HETATM   10  O   UNL     1      -9.195   8.474  65.531  1.00  0.00    -0.376 OA 
HETATM   11  C   UNL     1      -9.556  10.231  63.945  1.00  0.00    -0.354 C  
HETATM   12  C   UNL     1      -7.945  10.465  65.859  1.00  0.00    -0.151 C  
HETATM   13  H   UNL     1      -8.488   8.193  64.962  1.00  0.00     0.000 HD 
ENDBRANCH   7   8
ENDBRANCH   6   7
TORSDOF 2
ENDMDL
MODEL      120
REMARK 921   NORMALIZED FREE ENERGY PREDICTED BY IDOCK:   -3.24 KCAL/MOL
REMARK 922        TOTAL FREE ENERGY PREDICTED BY IDOCK:   -3.84 KCAL/MOL
REMARK 923 INTER-LIGAND FREE ENERGY PREDICTED BY IDOCK:   -3.40 KCAL/MOL
REMARK 924 INTRA-LIGAND FREE ENERGY PREDICTED BY IDOCK:   -0.45 KCAL/MOL
REMARK 927      BINDING AFFINITY PREDICTED BY RF-SCORE:    0.00 PKD
ROOT
HETATM    1  C   UNL     1      -9.268   9.587  65.856  1.00  0.00    -0.206 C  
HETATM    2  O   UNL     1      -9.705   9.597  67.003  1.00  0.00    -0.165 OA 
HETATM    3  C   UNL     1      -8.693  10.808  65.181  1.00  0.00    -0.174 C  
HETATM    4  C   UNL     1      -9.514  11.271  63.968  1.00  0.00    -0.202 C  
HETATM    5  C   UNL     1      -9.515  10.221  62.852  1.00  0.00    -0.333 C  
HETATM    6  C   UNL     1     -10.961  11.674  64.316  1.00  0.00    -0.418 C  
ENDROOT
BRANCH   6   7
HETATM    7  C   UNL     1     -11.103  12.779  65.373  1.00  0.00    -0.317 C  
BRANCH   7   8
HETATM    8  C   UNL     1     -11.757  12.295  66.672  1.00  0.00    -0.417 C  
HETATM    9  C   UNL     1     -11.280  13.006  67.954  1.00  0.00    -0.271 C  
HETATM   10  O   UNL     1     -11.963  12.395  69.059  1.00  0.00    -0.296 OA 
HETATM   11  C   UNL     1      -9.778  12.848  68.190  1.00  0.00    -0.227 C  
HETATM   12  C   UNL     1     -11.673  14.484  67.967  1.00  0.00    -0.373 C  
HETATM   13  H   UNL     1     -11.669  12.833  69.848  1.00  0.00     0.000 HD 
ENDBRANCH   7   8
ENDBRANCH   6   7
TORSDOF 2
ENDMDL
MODEL      121
REMARK 921   NORMALIZED FREE ENERGY PREDICTED BY IDOCK:   -3.24 KCAL/MOL
REMARK 922        TOTAL FREE ENERGY PREDICTED BY IDOCK:   -3.84 KCAL/MOL
REMARK 923 INTER-LIGAND FREE ENERGY PREDICTED BY IDOCK:   -3.62 KCAL/MOL
REMARK 924 INTRA-LIGAND FREE ENERGY PREDICTED BY IDOCK:   -0.22 KCAL/MOL
REMARK 927      BINDING AFFINITY PREDICTED BY RF-SCORE:    0.00 PKD
ROOT
HETATM    1  C   UNL     1      -9.731   8.333  72.780  1.00  0.00    -0.266 C  
HETATM    2  O   UNL     1      -8.577   8.749  72.758  1.00  0.00    -0.412 OA 
HETATM    3  C   UNL     1     -10.412   7.722  71.581  1.00  0.00    -0.241 C  
HETATM    4  C   UNL     1     -11.609   8.545  71.080  1.00  0.00    -0.325 C  
HETATM    5  C   UNL     1     -12.728   8.608  72.125  1.00  0.00    -0.447 C  
HETATM    6  C   UNL     1     -11.233   9.969  70.622  1.00  0.00    -0.425 C  
ENDROOT
BRANCH   6   7
HETATM    7  C   UNL     1     -10.170  10.048  69.516  1.00  0.00    -0.255 C  
BRANCH   7   8
HETATM    8  C   UNL     1     -10.466   9.132  68.324  1.00  0.00    -0.254 C  
HETATM    9  C   UNL     1      -9.776   9.526  67.003  1.00  0.00    -0.176 C  
HETATM   10  O   UNL     1     -10.202   8.589  66.003  1.00  0.00    -0.426 OA 
HETATM   11  C   UNL     1     -10.169  10.925  66.528  1.00  0.00    -0.282 C  
HETATM   12  C   UNL     1      -8.255   9.398  67.094  1.00  0.00    -0.113 C  
HETATM   13  H   UNL     1      -9.777   8.833  65.190  1.00  0.00     0.000 HD 
ENDBRANCH   7   8
ENDBRANCH   6   7
TORSDOF 2
ENDMDL
MODEL      122
REMARK 921   NORMALIZED FREE ENERGY PREDICTED BY IDOCK:   -3.22 KCAL/MOL
REMARK 922        TOTAL FREE ENERGY PREDICTED BY IDOCK:   -3.81 KCAL/MOL
REMARK 923 INTER-LIGAND FREE ENERGY PREDICTED BY IDOCK:   -3.41 KCAL/MOL
REMARK 924 INTRA-LIGAND FREE ENERGY PREDICTED BY IDOCK:   -0.40 KCAL/MOL
REMARK 927      BINDING AFFINITY PREDICTED BY RF-SCORE:    0.00 PKD
ROOT
HETATM    1  C   UNL     1      -8.434  10.989  67.876  1.00  0.00    -0.128 C  
HETATM    2  O   UNL     1      -8.387  11.581  68.950  1.00  0.00    -0.110 OA 
HETATM    3  C   UNL     1      -8.711  11.680  66.564  1.00  0.00    -0.182 C  
HETATM    4  C   UNL     1     -10.028  11.232  65.911  1.00  0.00    -0.277 C  
HETATM    5  C   UNL     1      -9.994   9.750  65.527  1.00  0.00    -0.329 C  
HETATM    6  C   UNL     1     -11.276  11.528  66.768  1.00  0.00    -0.350 C  
ENDROOT
BRANCH   6   7
HETATM    7  C   UNL     1     -11.474  12.999  67.162  1.00  0.00    -0.379 C  
BRANCH   7   8
HETATM    8  C   UNL     1     -11.410  13.235  68.675  1.00  0.00    -0.324 C  
HETATM    9  C   UNL     1     -10.773  14.571  69.106  1.00  0.00    -0.252 C  
HETATM   10  O   UNL     1     -10.761  14.594  70.541  1.00  0.00    -0.481 OA 
HETATM   11  C   UNL     1      -9.328  14.717  68.626  1.00  0.00    -0.206 C  
HETATM   12  C   UNL     1     -11.609  15.772  68.662  1.00  0.00    -0.392 C  
HETATM   13  H   UNL     1     -10.369  15.417  70.806  1.00  0.00     0.000 HD 
ENDBRANCH   7   8
ENDBRANCH   6   7
TORSDOF 2
ENDMDL
MODEL      123
REMARK 921   NORMALIZED FREE ENERGY PREDICTED BY IDOCK:   -3.21 KCAL/MOL
REMARK 922        TOTAL FREE ENERGY PREDICTED BY IDOCK:   -3.81 KCAL/MOL
REMARK 923 INTER-LIGAND FREE ENERGY PREDICTED BY IDOCK:   -3.57 KCAL/MOL
REMARK 924 INTRA-LIGAND FREE ENERGY PREDICTED BY IDOCK:   -0.24 KCAL/MOL
REMARK 927      BINDING AFFINITY PREDICTED BY RF-SCORE:    0.00 PKD
ROOT
HETATM    1  C   UNL     1      -9.892  10.536  67.733  1.00  0.00    -0.165 C  
HETATM    2  O   UNL     1      -9.070  10.867  66.884  1.00  0.00    -0.151 OA 
HETATM    3  C   UNL     1     -11.356  10.889  67.646  1.00  0.00    -0.345 C  
HETATM    4  C   UNL     1     -11.820  11.826  68.772  1.00  0.00    -0.380 C  
HETATM    5  C   UNL     1     -11.700  11.161  70.147  1.00  0.00    -0.439 C  
HETATM    6  C   UNL     1     -11.100  13.189  68.779  1.00  0.00    -0.309 C  
ENDROOT
BRANCH   6   7
HETATM    7  C   UNL     1     -11.206  14.000  67.479  1.00  0.00    -0.328 C  
BRANCH   7   8
HETATM    8  C   UNL     1     -11.500  15.485  67.714  1.00  0.00    -0.247 C  
HETATM    9  C   UNL     1     -10.436  16.461  67.173  1.00  0.00    -0.297 C  
HETATM   10  O   UNL     1     -10.859  17.788  67.521  1.00  0.00    -0.344 OA 
HETATM   11  C   UNL     1      -9.058  16.233  67.795  1.00  0.00    -0.195 C  
HETATM   12  C   UNL     1     -10.349  16.422  65.647  1.00  0.00    -0.371 C  
HETATM   13  H   UNL     1     -10.203  18.389  67.188  1.00  0.00     0.000 HD 
ENDBRANCH   7   8
ENDBRANCH   6   7
TORSDOF 2
ENDMDL
MODEL      124
REMARK 921   NORMALIZED FREE ENERGY PREDICTED BY IDOCK:   -3.21 KCAL/MOL
REMARK 922        TOTAL FREE ENERGY PREDICTED BY IDOCK:   -3.81 KCAL/MOL
REMARK 923 INTER-LIGAND FREE ENERGY PREDICTED BY IDOCK:   -3.67 KCAL/MOL
REMARK 924 INTRA-LIGAND FREE ENERGY PREDICTED BY IDOCK:   -0.14 KCAL/MOL
REMARK 927      BINDING AFFINITY PREDICTED BY RF-SCORE:    0.00 PKD
ROOT
HETATM    1  C   UNL     1     -12.048  13.032  65.536  1.00  0.00    -0.452 C  
HETATM    2  O   UNL     1     -12.756  13.975  65.877  1.00  0.00    -0.495 OA 
HETATM    3  C   UNL     1     -11.558  11.977  66.495  1.00  0.00    -0.384 C  
HETATM    4  C   UNL     1     -10.031  11.973  66.663  1.00  0.00    -0.219 C  
HETATM    5  C   UNL     1      -9.319  11.615  65.354  1.00  0.00    -0.143 C  
HETATM    6  C   UNL     1      -9.467  13.293  67.228  1.00  0.00    -0.233 C  
ENDROOT
BRANCH   6   7
HETATM    7  C   UNL     1     -10.043  13.732  68.582  1.00  0.00    -0.195 C  
BRANCH   7   8
HETATM    8  C   UNL     1     -11.066  14.867  68.466  1.00  0.00    -0.275 C  
HETATM    9  C   UNL     1     -11.900  15.134  69.734  1.00  0.00    -0.333 C  
HETATM   10  O   UNL     1     -12.822  16.189  69.424  1.00  0.00    -0.383 OA 
HETATM   11  C   UNL     1     -12.716  13.916  70.169  1.00  0.00    -0.182 C  
HETATM   12  C   UNL     1     -11.036  15.641  70.890  1.00  0.00    -0.377 C  
HETATM   13  H   UNL     1     -13.336  16.353  70.206  1.00  0.00     0.000 HD 
ENDBRANCH   7   8
ENDBRANCH   6   7
TORSDOF 2
ENDMDL
MODEL      125
REMARK 921   NORMALIZED FREE ENERGY PREDICTED BY IDOCK:   -3.21 KCAL/MOL
REMARK 922        TOTAL FREE ENERGY PREDICTED BY IDOCK:   -3.81 KCAL/MOL
REMARK 923 INTER-LIGAND FREE ENERGY PREDICTED BY IDOCK:   -3.58 KCAL/MOL
REMARK 924 INTRA-LIGAND FREE ENERGY PREDICTED BY IDOCK:   -0.23 KCAL/MOL
REMARK 927      BINDING AFFINITY PREDICTED BY RF-SCORE:    0.00 PKD
ROOT
HETATM    1  C   UNL     1     -12.242  13.440  65.389  1.00  0.00    -0.452 C  
HETATM    2  O   UNL     1     -12.525  12.362  65.902  1.00  0.00    -0.583 OA 
HETATM    3  C   UNL     1     -10.949  13.691  64.654  1.00  0.00    -0.403 C  
HETATM    4  C   UNL     1     -10.057  14.736  65.341  1.00  0.00    -0.406 C  
HETATM    5  C   UNL     1     -10.720  16.117  65.366  1.00  0.00    -0.374 C  
HETATM    6  C   UNL     1      -9.615  14.336  66.763  1.00  0.00    -0.290 C  
ENDROOT
BRANCH   6   7
HETATM    7  C   UNL     1      -8.866  12.999  66.871  1.00  0.00    -0.184 C  
BRANCH   7   8
HETATM    8  C   UNL     1      -8.977  12.353  68.256  1.00  0.00    -0.178 C  
HETATM    9  C   UNL     1      -8.053  11.142  68.493  1.00  0.00    -0.146 C  
HETATM   10  O   UNL     1      -8.326  10.649  69.813  1.00  0.00    -0.381 OA 
HETATM   11  C   UNL     1      -8.313  10.002  67.507  1.00  0.00    -0.118 C  
HETATM   12  C   UNL     1      -6.576  11.538  68.477  1.00  0.00    -0.063 C  
HETATM   13  H   UNL     1      -7.757   9.903  69.958  1.00  0.00     0.000 HD 
ENDBRANCH   7   8
ENDBRANCH   6   7
TORSDOF 2
ENDMDL
MODEL      126
REMARK 921   NORMALIZED FREE ENERGY PREDICTED BY IDOCK:   -3.21 KCAL/MOL
REMARK 922        TOTAL FREE ENERGY PREDICTED BY IDOCK:   -3.80 KCAL/MOL
REMARK 923 INTER-LIGAND FREE ENERGY PREDICTED BY IDOCK:   -4.00 KCAL/MOL
REMARK 924 INTRA-LIGAND FREE ENERGY PREDICTED BY IDOCK:    0.19 KCAL/MOL
REMARK 927      BINDING AFFINITY PREDICTED BY RF-SCORE:    0.00 PKD
ROOT
HETATM    1  C   UNL     1      -8.223  19.216  68.324  1.00  0.00    -0.334 C  
HETATM    2  O   UNL     1      -7.605  18.457  69.064  1.00  0.00    -0.259 OA 
HETATM    3  C   UNL     1      -9.695  19.504  68.481  1.00  0.00    -0.503 C  
HETATM    4  C   UNL     1     -10.538  19.014  67.293  1.00  0.00    -0.554 C  
HETATM    5  C   UNL     1     -10.172  19.748  65.999  1.00  0.00    -0.600 C  
HETATM    6  C   UNL     1     -10.470  17.489  67.073  1.00  0.00    -0.293 C  
ENDROOT
BRANCH   6   7
HETATM    7  C   UNL     1     -10.887  16.629  68.275  1.00  0.00    -0.356 C  
BRANCH   7   8
HETATM    8  C   UNL     1      -9.735  15.801  68.856  1.00  0.00    -0.225 C  
HETATM    9  C   UNL     1      -9.113  14.771  67.893  1.00  0.00    -0.183 C  
HETATM   10  O   UNL     1      -8.093  14.071  68.619  1.00  0.00    -0.140 OA 
HETATM   11  C   UNL     1     -10.127  13.739  67.400  1.00  0.00    -0.244 C  
HETATM   12  C   UNL     1      -8.416  15.445  66.710  1.00  0.00    -0.307 C  
HETATM   13  H   UNL     1      -7.709  13.436  68.025  1.00  0.00     0.000 HD 
ENDBRANCH   7   8
ENDBRANCH   6   7
TORSDOF 2
ENDMDL
MODEL      127
REMARK 921   NORMALIZED FREE ENERGY PREDICTED BY IDOCK:   -3.20 KCAL/MOL
REMARK 922        TOTAL FREE ENERGY PREDICTED BY IDOCK:   -3.79 KCAL/MOL
REMARK 923 INTER-LIGAND FREE ENERGY PREDICTED BY IDOCK:   -3.40 KCAL/MOL
REMARK 924 INTRA-LIGAND FREE ENERGY PREDICTED BY IDOCK:   -0.39 KCAL/MOL
REMARK 927      BINDING AFFINITY PREDICTED BY RF-SCORE:    0.00 PKD
ROOT
HETATM    1  C   UNL     1     -11.856  14.811  64.346  1.00  0.00    -0.380 C  
HETATM    2  O   UNL     1     -11.037  15.649  64.710  1.00  0.00    -0.441 OA 
HETATM    3  C   UNL     1     -12.465  13.793  65.277  1.00  0.00    -0.512 C  
HETATM    4  C   UNL     1     -12.084  12.347  64.926  1.00  0.00    -0.470 C  
HETATM    5  C   UNL     1     -12.627  11.936  63.553  1.00  0.00    -0.579 C  
HETATM    6  C   UNL     1     -10.568  12.071  64.999  1.00  0.00    -0.332 C  
ENDROOT
BRANCH   6   7
HETATM    7  C   UNL     1      -9.907  12.369  66.352  1.00  0.00    -0.249 C  
BRANCH   7   8
HETATM    8  C   UNL     1      -8.795  13.420  66.265  1.00  0.00     0.224 C  
HETATM    9  C   UNL     1      -8.415  14.089  67.601  1.00  0.00    -0.191 C  
HETATM   10  O   UNL     1      -7.401  15.064  67.317  1.00  0.00    -0.199 OA 
HETATM   11  C   UNL     1      -9.592  14.816  68.251  1.00  0.00    -0.215 C  
HETATM   12  C   UNL     1      -7.793  13.092  68.581  1.00  0.00    -0.056 C  
HETATM   13  H   UNL     1      -7.167  15.475  68.140  1.00  0.00     0.000 HD 
ENDBRANCH   7   8
ENDBRANCH   6   7
TORSDOF 2
ENDMDL
MODEL      128
REMARK 921   NORMALIZED FREE ENERGY PREDICTED BY IDOCK:   -3.19 KCAL/MOL
REMARK 922        TOTAL FREE ENERGY PREDICTED BY IDOCK:   -3.79 KCAL/MOL
REMARK 923 INTER-LIGAND FREE ENERGY PREDICTED BY IDOCK:   -3.38 KCAL/MOL
REMARK 924 INTRA-LIGAND FREE ENERGY PREDICTED BY IDOCK:   -0.41 KCAL/MOL
REMARK 927      BINDING AFFINITY PREDICTED BY RF-SCORE:    0.00 PKD
ROOT
HETATM    1  C   UNL     1     -10.679  13.118  67.517  1.00  0.00    -0.238 C  
HETATM    2  O   UNL     1      -9.614  12.684  67.943  1.00  0.00    -0.197 OA 
HETATM    3  C   UNL     1     -11.752  12.238  66.926  1.00  0.00    -0.404 C  
HETATM    4  C   UNL     1     -12.009  12.513  65.437  1.00  0.00    -0.492 C  
HETATM    5  C   UNL     1     -12.550  13.928  65.208  1.00  0.00    -0.508 C  
HETATM    6  C   UNL     1     -10.778  12.266  64.541  1.00  0.00    -0.358 C  
ENDROOT
BRANCH   6   7
HETATM    7  C   UNL     1     -10.178  10.855  64.616  1.00  0.00    -0.411 C  
BRANCH   7   8
HETATM    8  C   UNL     1      -8.811  10.814  65.307  1.00  0.00    -0.200 C  
HETATM    9  C   UNL     1      -8.488   9.503  66.051  1.00  0.00    -0.124 C  
HETATM   10  O   UNL     1      -7.201   9.667  66.665  1.00  0.00    -0.085 OA 
HETATM   11  C   UNL     1      -9.496   9.191  67.158  1.00  0.00    -0.197 C  
HETATM   12  C   UNL     1      -8.362   8.319  65.092  1.00  0.00    -0.167 C  
HETATM   13  H   UNL     1      -7.003   8.859  67.123  1.00  0.00     0.000 HD 
ENDBRANCH   7   8
ENDBRANCH   6   7
TORSDOF 2
ENDMDL
MODEL      129
REMARK 921   NORMALIZED FREE ENERGY PREDICTED BY IDOCK:   -3.18 KCAL/MOL
REMARK 922        TOTAL FREE ENERGY PREDICTED BY IDOCK:   -3.77 KCAL/MOL
REMARK 923 INTER-LIGAND FREE ENERGY PREDICTED BY IDOCK:   -3.53 KCAL/MOL
REMARK 924 INTRA-LIGAND FREE ENERGY PREDICTED BY IDOCK:   -0.25 KCAL/MOL
REMARK 927      BINDING AFFINITY PREDICTED BY RF-SCORE:    0.00 PKD
ROOT
HETATM    1  C   UNL     1     -11.154   7.120  72.718  1.00  0.00    -0.300 C  
HETATM    2  O   UNL     1     -10.002   6.716  72.586  1.00  0.00    -0.169 OA 
HETATM    3  C   UNL     1     -12.111   7.278  71.563  1.00  0.00    -0.365 C  
HETATM    4  C   UNL     1     -12.521   8.737  71.313  1.00  0.00    -0.301 C  
HETATM    5  C   UNL     1     -13.301   9.317  72.497  1.00  0.00    -0.463 C  
HETATM    6  C   UNL     1     -11.338   9.660  70.956  1.00  0.00    -0.444 C  
ENDROOT
BRANCH   6   7
HETATM    7  C   UNL     1     -10.512   9.234  69.733  1.00  0.00    -0.235 C  
BRANCH   7   8
HETATM    8  C   UNL     1      -9.653  10.365  69.158  1.00  0.00    -0.226 C  
HETATM    9  C   UNL     1     -10.107  10.903  67.786  1.00  0.00    -0.177 C  
HETATM   10  O   UNL     1      -9.168  11.915  67.394  1.00  0.00    -0.171 OA 
HETATM   11  C   UNL     1     -10.110   9.825  66.703  1.00  0.00    -0.303 C  
HETATM   12  C   UNL     1     -11.472  11.588  67.865  1.00  0.00    -0.372 C  
HETATM   13  H   UNL     1      -9.447  12.246  66.549  1.00  0.00     0.000 HD 
ENDBRANCH   7   8
ENDBRANCH   6   7
TORSDOF 2
ENDMDL
MODEL      130
REMARK 921   NORMALIZED FREE ENERGY PREDICTED BY IDOCK:   -3.18 KCAL/MOL
REMARK 922        TOTAL FREE ENERGY PREDICTED BY IDOCK:   -3.77 KCAL/MOL
REMARK 923 INTER-LIGAND FREE ENERGY PREDICTED BY IDOCK:   -3.58 KCAL/MOL
REMARK 924 INTRA-LIGAND FREE ENERGY PREDICTED BY IDOCK:   -0.18 KCAL/MOL
REMARK 927      BINDING AFFINITY PREDICTED BY RF-SCORE:    0.00 PKD
ROOT
HETATM    1  C   UNL     1     -12.706  10.488  70.117  1.00  0.00    -0.127 C  
HETATM    2  O   UNL     1     -11.695  10.838  69.515  1.00  0.00    -0.272 OA 
HETATM    3  C   UNL     1     -12.762  10.330  71.616  1.00  0.00    -0.561 C  
HETATM    4  C   UNL     1     -13.011   8.881  72.063  1.00  0.00    -0.454 C  
HETATM    5  C   UNL     1     -14.383   8.376  71.606  1.00  0.00    -0.536 C  
HETATM    6  C   UNL     1     -11.910   7.898  71.617  1.00  0.00    -0.325 C  
ENDROOT
BRANCH   6   7
HETATM    7  C   UNL     1     -10.486   8.246  72.076  1.00  0.00    -0.350 C  
BRANCH   7   8
HETATM    8  C   UNL     1     -10.064   7.510  73.352  1.00  0.00    -0.393 C  
HETATM    9  C   UNL     1      -9.172   6.272  73.133  1.00  0.00    -0.128 C  
HETATM   10  O   UNL     1      -8.918   5.696  74.422  1.00  0.00    -0.120 OA 
HETATM   11  C   UNL     1      -9.848   5.205  72.271  1.00  0.00    -0.216 C  
HETATM   12  C   UNL     1      -7.808   6.646  72.551  1.00  0.00    -0.102 C  
HETATM   13  H   UNL     1      -8.369   4.933  74.287  1.00  0.00     0.000 HD 
ENDBRANCH   7   8
ENDBRANCH   6   7
TORSDOF 2
ENDMDL
MODEL      131
REMARK 921   NORMALIZED FREE ENERGY PREDICTED BY IDOCK:   -3.17 KCAL/MOL
REMARK 922        TOTAL FREE ENERGY PREDICTED BY IDOCK:   -3.77 KCAL/MOL
REMARK 923 INTER-LIGAND FREE ENERGY PREDICTED BY IDOCK:   -4.05 KCAL/MOL
REMARK 924 INTRA-LIGAND FREE ENERGY PREDICTED BY IDOCK:    0.28 KCAL/MOL
REMARK 927      BINDING AFFINITY PREDICTED BY RF-SCORE:    0.00 PKD
ROOT
HETATM    1  C   UNL     1     -11.068  14.056  68.821  1.00  0.00    -0.264 C  
HETATM    2  O   UNL     1     -12.155  14.151  68.259  1.00  0.00    -0.340 OA 
HETATM    3  C   UNL     1     -10.329  15.239  69.396  1.00  0.00    -0.255 C  
HETATM    4  C   UNL     1      -8.994  15.520  68.690  1.00  0.00    -0.194 C  
HETATM    5  C   UNL     1      -8.004  14.365  68.873  1.00  0.00    -0.109 C  
HETATM    6  C   UNL     1      -9.144  15.855  67.192  1.00  0.00    -0.226 C  
ENDROOT
BRANCH   6   7
HETATM    7  C   UNL     1     -10.055  17.049  66.870  1.00  0.00    -0.298 C  
BRANCH   7   8
HETATM    8  C   UNL     1     -10.460  17.853  68.110  1.00  0.00    -0.380 C  
HETATM    9  C   UNL     1      -9.705  19.182  68.308  1.00  0.00    -0.373 C  
HETATM   10  O   UNL     1     -10.183  19.766  69.529  1.00  0.00    -0.633 OA 
HETATM   11  C   UNL     1      -8.195  18.986  68.446  1.00  0.00    -0.382 C  
HETATM   12  C   UNL     1     -10.016  20.187  67.198  1.00  0.00    -0.595 C  
HETATM   13  H   UNL     1      -9.717  20.585  69.651  1.00  0.00     0.000 HD 
ENDBRANCH   7   8
ENDBRANCH   6   7
TORSDOF 2
ENDMDL
MODEL      132
REMARK 921   NORMALIZED FREE ENERGY PREDICTED BY IDOCK:   -3.17 KCAL/MOL
REMARK 922        TOTAL FREE ENERGY PREDICTED BY IDOCK:   -3.76 KCAL/MOL
REMARK 923 INTER-LIGAND FREE ENERGY PREDICTED BY IDOCK:   -3.52 KCAL/MOL
REMARK 924 INTRA-LIGAND FREE ENERGY PREDICTED BY IDOCK:   -0.24 KCAL/MOL
REMARK 927      BINDING AFFINITY PREDICTED BY RF-SCORE:    0.00 PKD
ROOT
HETATM    1  C   UNL     1     -11.136  15.159  66.694  1.00  0.00    -0.308 C  
HETATM    2  O   UNL     1     -10.277  15.175  67.570  1.00  0.00    -0.236 OA 
HETATM    3  C   UNL     1     -12.112  14.023  66.514  1.00  0.00    -0.488 C  
HETATM    4  C   UNL     1     -11.936  13.278  65.183  1.00  0.00    -0.413 C  
HETATM    5  C   UNL     1     -12.229  14.185  63.983  1.00  0.00    -0.369 C  
HETATM    6  C   UNL     1     -10.551  12.618  65.021  1.00  0.00    -0.329 C  
ENDROOT
BRANCH   6   7
HETATM    7  C   UNL     1     -10.161  11.621  66.122  1.00  0.00    -0.259 C  
BRANCH   7   8
HETATM    8  C   UNL     1     -10.469  10.165  65.758  1.00  0.00    -0.128 C  
HETATM    9  C   UNL     1      -9.713   9.106  66.584  1.00  0.00    -0.223 C  
HETATM   10  O   UNL     1     -10.093   7.819  66.076  1.00  0.00    -0.418 OA 
HETATM   11  C   UNL     1      -8.194   9.229  66.450  1.00  0.00    -0.111 C  
HETATM   12  C   UNL     1     -10.125   9.128  68.056  1.00  0.00    -0.238 C  
HETATM   13  H   UNL     1      -9.627   7.166  66.585  1.00  0.00     0.000 HD 
ENDBRANCH   7   8
ENDBRANCH   6   7
TORSDOF 2
ENDMDL
MODEL      133
REMARK 921   NORMALIZED FREE ENERGY PREDICTED BY IDOCK:   -3.17 KCAL/MOL
REMARK 922        TOTAL FREE ENERGY PREDICTED BY IDOCK:   -3.76 KCAL/MOL
REMARK 923 INTER-LIGAND FREE ENERGY PREDICTED BY IDOCK:   -3.55 KCAL/MOL
REMARK 924 INTRA-LIGAND FREE ENERGY PREDICTED BY IDOCK:   -0.20 KCAL/MOL
REMARK 927      BINDING AFFINITY PREDICTED BY RF-SCORE:    0.00 PKD
ROOT
HETATM    1  C   UNL     1     -11.034   5.916  69.519  1.00  0.00    -0.368 C  
HETATM    2  O   UNL     1     -11.629   6.586  70.356  1.00  0.00    -0.375 OA 
HETATM    3  C   UNL     1      -9.689   6.303  68.955  1.00  0.00    -0.144 C  
HETATM    4  C   UNL     1      -9.730   6.613  67.451  1.00  0.00    -0.155 C  
HETATM    5  C   UNL     1     -10.113   5.378  66.629  1.00  0.00    -0.250 C  
HETATM    6  C   UNL     1     -10.651   7.796  67.087  1.00  0.00    -0.401 C  
ENDROOT
BRANCH   6   7
HETATM    7  C   UNL     1     -10.328   9.124  67.787  1.00  0.00    -0.302 C  
BRANCH   7   8
HETATM    8  C   UNL     1     -11.147  10.304  67.255  1.00  0.00    -0.215 C  
HETATM    9  C   UNL     1     -11.296  11.494  68.224  1.00  0.00    -0.286 C  
HETATM   10  O   UNL     1     -12.121  12.472  67.576  1.00  0.00    -0.453 OA 
HETATM   11  C   UNL     1     -11.979  11.103  69.535  1.00  0.00    -0.425 C  
HETATM   12  C   UNL     1      -9.955  12.175  68.501  1.00  0.00    -0.180 C  
HETATM   13  H   UNL     1     -12.212  13.204  68.173  1.00  0.00     0.000 HD 
ENDBRANCH   7   8
ENDBRANCH   6   7
TORSDOF 2
ENDMDL
MODEL      134
REMARK 921   NORMALIZED FREE ENERGY PREDICTED BY IDOCK:   -3.16 KCAL/MOL
REMARK 922        TOTAL FREE ENERGY PREDICTED BY IDOCK:   -3.75 KCAL/MOL
REMARK 923 INTER-LIGAND FREE ENERGY PREDICTED BY IDOCK:   -3.48 KCAL/MOL
REMARK 924 INTRA-LIGAND FREE ENERGY PREDICTED BY IDOCK:   -0.26 KCAL/MOL
REMARK 927      BINDING AFFINITY PREDICTED BY RF-SCORE:    0.00 PKD
ROOT
HETATM    1  C   UNL     1      -6.913  11.466  69.040  1.00  0.00    -0.106 C  
HETATM    2  O   UNL     1      -6.407  12.444  68.498  1.00  0.00    -0.058 OA 
HETATM    3  C   UNL     1      -7.658  10.396  68.282  1.00  0.00    -0.095 C  
HETATM    4  C   UNL     1      -9.148  10.320  68.650  1.00  0.00    -0.152 C  
HETATM    5  C   UNL     1      -9.349   9.917  70.114  1.00  0.00    -0.200 C  
HETATM    6  C   UNL     1      -9.928  11.615  68.345  1.00  0.00    -0.201 C  
ENDROOT
BRANCH   6   7
HETATM    7  C   UNL     1      -9.873  12.092  66.887  1.00  0.00    -0.213 C  
BRANCH   7   8
HETATM    8  C   UNL     1     -11.169  11.826  66.113  1.00  0.00    -0.363 C  
HETATM    9  C   UNL     1     -11.882  13.082  65.572  1.00  0.00    -0.395 C  
HETATM   10  O   UNL     1     -13.084  12.642  64.923  1.00  0.00    -0.850 OA 
HETATM   11  C   UNL     1     -12.281  14.056  66.682  1.00  0.00    -0.463 C  
HETATM   12  C   UNL     1     -11.051  13.795  64.506  1.00  0.00    -0.388 C  
HETATM   13  H   UNL     1     -13.523  13.416  64.590  1.00  0.00     0.000 HD 
ENDBRANCH   7   8
ENDBRANCH   6   7
TORSDOF 2
ENDMDL
MODEL      135
REMARK 921   NORMALIZED FREE ENERGY PREDICTED BY IDOCK:   -3.15 KCAL/MOL
REMARK 922        TOTAL FREE ENERGY PREDICTED BY IDOCK:   -3.74 KCAL/MOL
REMARK 923 INTER-LIGAND FREE ENERGY PREDICTED BY IDOCK:   -3.31 KCAL/MOL
REMARK 924 INTRA-LIGAND FREE ENERGY PREDICTED BY IDOCK:   -0.43 KCAL/MOL
REMARK 927      BINDING AFFINITY PREDICTED BY RF-SCORE:    0.00 PKD
ROOT
HETATM    1  C   UNL     1      -7.609   9.465  65.197  1.00  0.00    -0.108 C  
HETATM    2  O   UNL     1      -6.830  10.342  64.840  1.00  0.00    -0.114 OA 
HETATM    3  C   UNL     1      -9.108   9.603  65.104  1.00  0.00    -0.279 C  
HETATM    4  C   UNL     1      -9.803   9.607  66.474  1.00  0.00    -0.298 C  
HETATM    5  C   UNL     1      -9.619   8.272  67.205  1.00  0.00    -0.234 C  
HETATM    6  C   UNL     1      -9.368  10.773  67.385  1.00  0.00    -0.163 C  
ENDROOT
BRANCH   6   7
HETATM    7  C   UNL     1      -9.571  12.179  66.802  1.00  0.00    -0.216 C  
BRANCH   7   8
HETATM    8  C   UNL     1     -11.032  12.639  66.826  1.00  0.00    -0.296 C  
HETATM    9  C   UNL     1     -11.522  13.344  65.545  1.00  0.00    -0.305 C  
HETATM   10  O   UNL     1     -12.883  13.737  65.769  1.00  0.00    -0.482 OA 
HETATM   11  C   UNL     1     -10.720  14.605  65.223  1.00  0.00    -0.396 C  
HETATM   12  C   UNL     1     -11.538  12.397  64.344  1.00  0.00    -0.418 C  
HETATM   13  H   UNL     1     -13.185  14.171  64.980  1.00  0.00     0.000 HD 
ENDBRANCH   7   8
ENDBRANCH   6   7
TORSDOF 2
ENDMDL
MODEL      136
REMARK 921   NORMALIZED FREE ENERGY PREDICTED BY IDOCK:   -3.14 KCAL/MOL
REMARK 922        TOTAL FREE ENERGY PREDICTED BY IDOCK:   -3.73 KCAL/MOL
REMARK 923 INTER-LIGAND FREE ENERGY PREDICTED BY IDOCK:   -3.31 KCAL/MOL
REMARK 924 INTRA-LIGAND FREE ENERGY PREDICTED BY IDOCK:   -0.43 KCAL/MOL
REMARK 927      BINDING AFFINITY PREDICTED BY RF-SCORE:    0.00 PKD
ROOT
HETATM    1  C   UNL     1      -8.015   8.056  72.873  1.00  0.00    -0.151 C  
HETATM    2  O   UNL     1      -7.531   8.988  72.240  1.00  0.00    -0.340 OA 
HETATM    3  C   UNL     1      -8.820   6.952  72.234  1.00  0.00    -0.141 C  
HETATM    4  C   UNL     1     -10.284   6.925  72.696  1.00  0.00    -0.210 C  
HETATM    5  C   UNL     1     -10.399   6.620  74.193  1.00  0.00    -0.347 C  
HETATM    6  C   UNL     1     -11.065   8.211  72.357  1.00  0.00    -0.437 C  
ENDROOT
BRANCH   6   7
HETATM    7  C   UNL     1     -11.095   8.594  70.870  1.00  0.00    -0.310 C  
BRANCH   7   8
HETATM    8  C   UNL     1     -10.437   9.947  70.579  1.00  0.00    -0.330 C  
HETATM    9  C   UNL     1      -9.710  10.047  69.223  1.00  0.00    -0.215 C  
HETATM   10  O   UNL     1      -9.127  11.356  69.148  1.00  0.00    -0.395 OA 
HETATM   11  C   UNL     1      -8.582   9.026  69.083  1.00  0.00    -0.133 C  
HETATM   12  C   UNL     1     -10.681   9.939  68.046  1.00  0.00    -0.296 C  
HETATM   13  H   UNL     1      -8.680  11.418  68.313  1.00  0.00     0.000 HD 
ENDBRANCH   7   8
ENDBRANCH   6   7
TORSDOF 2
ENDMDL
MODEL      137
REMARK 921   NORMALIZED FREE ENERGY PREDICTED BY IDOCK:   -3.14 KCAL/MOL
REMARK 922        TOTAL FREE ENERGY PREDICTED BY IDOCK:   -3.73 KCAL/MOL
REMARK 923 INTER-LIGAND FREE ENERGY PREDICTED BY IDOCK:   -3.32 KCAL/MOL
REMARK 924 INTRA-LIGAND FREE ENERGY PREDICTED BY IDOCK:   -0.41 KCAL/MOL
REMARK 927      BINDING AFFINITY PREDICTED BY RF-SCORE:    0.00 PKD
ROOT
HETATM    1  C   UNL     1     -11.919  14.039  68.848  1.00  0.00    -0.352 C  
HETATM    2  O   UNL     1     -11.878  13.308  69.832  1.00  0.00    -0.312 OA 
HETATM    3  C   UNL     1     -11.936  13.518  67.432  1.00  0.00    -0.398 C  
HETATM    4  C   UNL     1     -10.687  13.909  66.628  1.00  0.00    -0.281 C  
HETATM    5  C   UNL     1     -10.587  15.427  66.442  1.00  0.00    -0.307 C  
HETATM    6  C   UNL     1      -9.373  13.361  67.220  1.00  0.00    -0.233 C  
ENDROOT
BRANCH   6   7
HETATM    7  C   UNL     1      -9.309  11.836  67.389  1.00  0.00    -0.174 C  
BRANCH   7   8
HETATM    8  C   UNL     1      -8.520  11.135  66.278  1.00  0.00    -0.168 C  
HETATM    9  C   UNL     1      -9.345  10.193  65.378  1.00  0.00    -0.216 C  
HETATM   10  O   UNL     1      -8.438   9.602  64.436  1.00  0.00    -0.155 OA 
HETATM   11  C   UNL     1     -10.006   9.060  66.163  1.00  0.00    -0.311 C  
HETATM   12  C   UNL     1     -10.386  10.955  64.556  1.00  0.00    -0.417 C  
HETATM   13  H   UNL     1      -8.947   9.022  63.882  1.00  0.00     0.000 HD 
ENDBRANCH   7   8
ENDBRANCH   6   7
TORSDOF 2
ENDMDL
MODEL      138
REMARK 921   NORMALIZED FREE ENERGY PREDICTED BY IDOCK:   -3.13 KCAL/MOL
REMARK 922        TOTAL FREE ENERGY PREDICTED BY IDOCK:   -3.72 KCAL/MOL
REMARK 923 INTER-LIGAND FREE ENERGY PREDICTED BY IDOCK:   -3.46 KCAL/MOL
REMARK 924 INTRA-LIGAND FREE ENERGY PREDICTED BY IDOCK:   -0.26 KCAL/MOL
REMARK 927      BINDING AFFINITY PREDICTED BY RF-SCORE:    0.00 PKD
ROOT
HETATM    1  C   UNL     1      -9.696   5.390  66.494  1.00  0.00    -0.164 C  
HETATM    2  O   UNL     1     -10.774   4.887  66.197  1.00  0.00    -0.317 OA 
HETATM    3  C   UNL     1      -9.123   5.353  67.889  1.00  0.00    -0.112 C  
HETATM    4  C   UNL     1      -8.996   6.744  68.528  1.00  0.00    -0.121 C  
HETATM    5  C   UNL     1      -8.005   7.629  67.765  1.00  0.00    -0.121 C  
HETATM    6  C   UNL     1     -10.344   7.477  68.689  1.00  0.00    -0.218 C  
ENDROOT
BRANCH   6   7
HETATM    7  C   UNL     1     -11.410   6.730  69.503  1.00  0.00    -0.292 C  
BRANCH   7   8
HETATM    8  C   UNL     1     -11.240   6.893  71.017  1.00  0.00    -0.323 C  
HETATM    9  C   UNL     1     -12.268   7.817  71.700  1.00  0.00    -0.313 C  
HETATM   10  O   UNL     1     -11.926   7.881  73.092  1.00  0.00    -0.662 OA 
HETATM   11  C   UNL     1     -12.236   9.242  71.147  1.00  0.00    -0.373 C  
HETATM   12  C   UNL     1     -13.685   7.246  71.628  1.00  0.00    -0.446 C  
HETATM   13  H   UNL     1     -12.559   8.450  73.512  1.00  0.00     0.000 HD 
ENDBRANCH   7   8
ENDBRANCH   6   7
TORSDOF 2
ENDMDL
MODEL      139
REMARK 921   NORMALIZED FREE ENERGY PREDICTED BY IDOCK:   -3.12 KCAL/MOL
REMARK 922        TOTAL FREE ENERGY PREDICTED BY IDOCK:   -3.71 KCAL/MOL
REMARK 923 INTER-LIGAND FREE ENERGY PREDICTED BY IDOCK:   -3.40 KCAL/MOL
REMARK 924 INTRA-LIGAND FREE ENERGY PREDICTED BY IDOCK:   -0.31 KCAL/MOL
REMARK 927      BINDING AFFINITY PREDICTED BY RF-SCORE:    0.00 PKD
ROOT
HETATM    1  C   UNL     1     -13.960  13.238  71.920  1.00  0.00    -0.115 C  
HETATM    2  O   UNL     1     -14.013  14.320  71.343  1.00  0.00    -0.350 OA 
HETATM    3  C   UNL     1     -12.667  12.508  72.187  1.00  0.00    -0.027 C  
HETATM    4  C   UNL     1     -12.565  11.168  71.444  1.00  0.00    -0.479 C  
HETATM    5  C   UNL     1     -13.633  10.176  71.916  1.00  0.00    -0.333 C  
HETATM    6  C   UNL     1     -12.613  11.306  69.908  1.00  0.00    -0.129 C  
ENDROOT
BRANCH   6   7
HETATM    7  C   UNL     1     -11.542  12.217  69.292  1.00  0.00    -0.383 C  
BRANCH   7   8
HETATM    8  C   UNL     1     -11.947  12.794  67.932  1.00  0.00    -0.320 C  
HETATM    9  C   UNL     1     -11.375  14.190  67.612  1.00  0.00    -0.319 C  
HETATM   10  O   UNL     1     -11.892  14.579  66.331  1.00  0.00    -0.383 OA 
HETATM   11  C   UNL     1     -11.802  15.248  68.628  1.00  0.00    -0.329 C  
HETATM   12  C   UNL     1      -9.852  14.164  67.472  1.00  0.00    -0.235 C  
HETATM   13  H   UNL     1     -11.539  15.438  66.134  1.00  0.00     0.000 HD 
ENDBRANCH   7   8
ENDBRANCH   6   7
TORSDOF 2
ENDMDL
MODEL      140
REMARK 921   NORMALIZED FREE ENERGY PREDICTED BY IDOCK:   -3.09 KCAL/MOL
REMARK 922        TOTAL FREE ENERGY PREDICTED BY IDOCK:   -3.67 KCAL/MOL
REMARK 923 INTER-LIGAND FREE ENERGY PREDICTED BY IDOCK:   -3.41 KCAL/MOL
REMARK 924 INTRA-LIGAND FREE ENERGY PREDICTED BY IDOCK:   -0.26 KCAL/MOL
REMARK 927      BINDING AFFINITY PREDICTED BY RF-SCORE:    0.00 PKD
ROOT
HETATM    1  C   UNL     1      -6.470  19.654  66.421  1.00  0.00    -0.188 C  
HETATM    2  O   UNL     1      -5.598  18.867  66.067  1.00  0.00    -0.149 OA 
HETATM    3  C   UNL     1      -7.278  19.478  67.682  1.00  0.00    -0.273 C  
HETATM    4  C   UNL     1      -8.773  19.245  67.416  1.00  0.00    -0.326 C  
HETATM    5  C   UNL     1      -9.425  20.461  66.749  1.00  0.00    -0.478 C  
HETATM    6  C   UNL     1      -9.065  17.972  66.595  1.00  0.00    -0.290 C  
ENDROOT
BRANCH   6   7
HETATM    7  C   UNL     1      -8.531  16.663  67.194  1.00  0.00    -0.213 C  
BRANCH   7   8
HETATM    8  C   UNL     1      -8.602  15.480  66.223  1.00  0.00    -0.208 C  
HETATM    9  C   UNL     1      -9.509  14.316  66.668  1.00  0.00    -0.286 C  
HETATM   10  O   UNL     1      -9.415  13.294  65.665  1.00  0.00    -0.483 OA 
HETATM   11  C   UNL     1      -9.071  13.704  67.999  1.00  0.00    -0.192 C  
HETATM   12  C   UNL     1     -10.981  14.730  66.726  1.00  0.00    -0.327 C  
HETATM   13  H   UNL     1      -9.975  12.577  65.939  1.00  0.00     0.000 HD 
ENDBRANCH   7   8
ENDBRANCH   6   7
TORSDOF 2
ENDMDL
MODEL      141
REMARK 921   NORMALIZED FREE ENERGY PREDICTED BY IDOCK:   -3.08 KCAL/MOL
REMARK 922        TOTAL FREE ENERGY PREDICTED BY IDOCK:   -3.66 KCAL/MOL
REMARK 923 INTER-LIGAND FREE ENERGY PREDICTED BY IDOCK:   -3.63 KCAL/MOL
REMARK 924 INTRA-LIGAND FREE ENERGY PREDICTED BY IDOCK:   -0.03 KCAL/MOL
REMARK 927      BINDING AFFINITY PREDICTED BY RF-SCORE:    0.00 PKD
ROOT
HETATM    1  C   UNL     1      -5.691  17.406  69.202  1.00  0.00    -0.189 C  
HETATM    2  O   UNL     1      -5.398  18.569  68.944  1.00  0.00    -0.188 OA 
HETATM    3  C   UNL     1      -5.964  16.369  68.141  1.00  0.00    -0.116 C  
HETATM    4  C   UNL     1      -7.411  15.853  68.157  1.00  0.00    -0.132 C  
HETATM    5  C   UNL     1      -7.734  15.115  69.460  1.00  0.00    -0.197 C  
HETATM    6  C   UNL     1      -8.463  16.951  67.897  1.00  0.00    -0.203 C  
ENDROOT
BRANCH   6   7
HETATM    7  C   UNL     1      -8.301  17.723  66.579  1.00  0.00    -0.294 C  
BRANCH   7   8
HETATM    8  C   UNL     1      -8.296  19.244  66.764  1.00  0.00    -0.311 C  
HETATM    9  C   UNL     1      -9.687  19.895  66.896  1.00  0.00    -0.407 C  
HETATM   10  O   UNL     1      -9.486  21.311  67.016  1.00  0.00    -0.609 OA 
HETATM   11  C   UNL     1     -10.569  19.653  65.670  1.00  0.00    -0.462 C  
HETATM   12  C   UNL     1     -10.407  19.452  68.170  1.00  0.00    -0.525 C  
HETATM   13  H   UNL     1     -10.343  21.712  67.098  1.00  0.00     0.000 HD 
ENDBRANCH   7   8
ENDBRANCH   6   7
TORSDOF 2
ENDMDL
MODEL      142
REMARK 921   NORMALIZED FREE ENERGY PREDICTED BY IDOCK:   -3.03 KCAL/MOL
REMARK 922        TOTAL FREE ENERGY PREDICTED BY IDOCK:   -3.60 KCAL/MOL
REMARK 923 INTER-LIGAND FREE ENERGY PREDICTED BY IDOCK:   -3.16 KCAL/MOL
REMARK 924 INTRA-LIGAND FREE ENERGY PREDICTED BY IDOCK:   -0.45 KCAL/MOL
REMARK 927      BINDING AFFINITY PREDICTED BY RF-SCORE:    0.00 PKD
ROOT
HETATM    1  C   UNL     1      -9.904   5.856  70.710  1.00  0.00    -0.183 C  
HETATM    2  O   UNL     1      -9.290   5.840  69.648  1.00  0.00    -0.135 OA 
HETATM    3  C   UNL     1     -11.251   6.515  70.875  1.00  0.00    -0.366 C  
HETATM    4  C   UNL     1     -11.226   7.712  71.838  1.00  0.00    -0.299 C  
HETATM    5  C   UNL     1     -10.868   7.282  73.264  1.00  0.00    -0.404 C  
HETATM    6  C   UNL     1     -10.296   8.855  71.381  1.00  0.00    -0.377 C  
ENDROOT
BRANCH   6   7
HETATM    7  C   UNL     1     -10.595   9.433  69.990  1.00  0.00    -0.267 C  
BRANCH   7   8
HETATM    8  C   UNL     1      -9.414   9.319  69.020  1.00  0.00    -0.155 C  
HETATM    9  C   UNL     1      -9.795   9.147  67.536  1.00  0.00    -0.177 C  
HETATM   10  O   UNL     1      -8.573   9.015  66.795  1.00  0.00    -0.120 OA 
HETATM   11  C   UNL     1     -10.630   7.891  67.285  1.00  0.00    -0.365 C  
HETATM   12  C   UNL     1     -10.505  10.382  66.982  1.00  0.00    -0.309 C  
HETATM   13  H   UNL     1      -8.808   8.908  65.881  1.00  0.00     0.000 HD 
ENDBRANCH   7   8
ENDBRANCH   6   7
TORSDOF 2
ENDMDL
MODEL      143
REMARK 921   NORMALIZED FREE ENERGY PREDICTED BY IDOCK:   -3.03 KCAL/MOL
REMARK 922        TOTAL FREE ENERGY PREDICTED BY IDOCK:   -3.60 KCAL/MOL
REMARK 923 INTER-LIGAND FREE ENERGY PREDICTED BY IDOCK:   -3.36 KCAL/MOL
REMARK 924 INTRA-LIGAND FREE ENERGY PREDICTED BY IDOCK:   -0.24 KCAL/MOL
REMARK 927      BINDING AFFINITY PREDICTED BY RF-SCORE:    0.00 PKD
ROOT
HETATM    1  C   UNL     1     -11.956   7.075  71.902  1.00  0.00    -0.320 C  
HETATM    2  O   UNL     1     -12.533   6.649  70.906  1.00  0.00    -0.325 OA 
HETATM    3  C   UNL     1     -11.484   8.501  72.036  1.00  0.00    -0.431 C  
HETATM    4  C   UNL     1      -9.956   8.627  72.129  1.00  0.00    -0.386 C  
HETATM    5  C   UNL     1      -9.409   7.956  73.393  1.00  0.00    -0.348 C  
HETATM    6  C   UNL     1      -9.215   8.096  70.885  1.00  0.00    -0.171 C  
ENDROOT
BRANCH   6   7
HETATM    7  C   UNL     1      -9.615   8.743  69.550  1.00  0.00    -0.167 C  
BRANCH   7   8
HETATM    8  C   UNL     1      -8.835   8.191  68.352  1.00  0.00    -0.133 C  
HETATM    9  C   UNL     1      -9.665   7.971  67.072  1.00  0.00    -0.211 C  
HETATM   10  O   UNL     1      -8.785   7.416  66.084  1.00  0.00    -0.145 OA 
HETATM   11  C   UNL     1     -10.815   6.984  67.278  1.00  0.00    -0.403 C  
HETATM   12  C   UNL     1     -10.186   9.288  66.496  1.00  0.00    -0.316 C  
HETATM   13  H   UNL     1      -9.296   7.281  65.295  1.00  0.00     0.000 HD 
ENDBRANCH   7   8
ENDBRANCH   6   7
TORSDOF 2
ENDMDL
MODEL      144
REMARK 921   NORMALIZED FREE ENERGY PREDICTED BY IDOCK:   -3.00 KCAL/MOL
REMARK 922        TOTAL FREE ENERGY PREDICTED BY IDOCK:   -3.57 KCAL/MOL
REMARK 923 INTER-LIGAND FREE ENERGY PREDICTED BY IDOCK:   -3.28 KCAL/MOL
REMARK 924 INTRA-LIGAND FREE ENERGY PREDICTED BY IDOCK:   -0.29 KCAL/MOL
REMARK 927      BINDING AFFINITY PREDICTED BY RF-SCORE:    0.00 PKD
ROOT
HETATM    1  C   UNL     1     -11.902  11.220  68.501  1.00  0.00    -0.285 C  
HETATM    2  O   UNL     1     -11.880  11.432  67.293  1.00  0.00    -0.594 OA 
HETATM    3  C   UNL     1     -10.669  11.261  69.369  1.00  0.00    -0.188 C  
HETATM    4  C   UNL     1     -10.317   9.900  69.986  1.00  0.00    -0.320 C  
HETATM    5  C   UNL     1     -11.407   9.416  70.948  1.00  0.00    -0.386 C  
HETATM    6  C   UNL     1     -10.011   8.807  68.942  1.00  0.00    -0.200 C  
ENDROOT
BRANCH   6   7
HETATM    7  C   UNL     1      -8.879   9.133  67.956  1.00  0.00    -0.129 C  
BRANCH   7   8
HETATM    8  C   UNL     1      -8.887   8.243  66.709  1.00  0.00    -0.158 C  
HETATM    9  C   UNL     1      -8.578   8.965  65.383  1.00  0.00    -0.176 C  
HETATM   10  O   UNL     1      -8.673   7.991  64.334  1.00  0.00    -0.384 OA 
HETATM   11  C   UNL     1      -9.577  10.081  65.074  1.00  0.00    -0.362 C  
HETATM   12  C   UNL     1      -7.146   9.502  65.345  1.00  0.00    -0.095 C  
HETATM   13  H   UNL     1      -8.483   8.436  63.517  1.00  0.00     0.000 HD 
ENDBRANCH   7   8
ENDBRANCH   6   7
TORSDOF 2
ENDMDL
MODEL      145
REMARK 921   NORMALIZED FREE ENERGY PREDICTED BY IDOCK:   -3.00 KCAL/MOL
REMARK 922        TOTAL FREE ENERGY PREDICTED BY IDOCK:   -3.57 KCAL/MOL
REMARK 923 INTER-LIGAND FREE ENERGY PREDICTED BY IDOCK:   -4.06 KCAL/MOL
REMARK 924 INTRA-LIGAND FREE ENERGY PREDICTED BY IDOCK:    0.49 KCAL/MOL
REMARK 927      BINDING AFFINITY PREDICTED BY RF-SCORE:    0.00 PKD
ROOT
HETATM    1  C   UNL     1     -11.228  14.865  66.418  1.00  0.00    -0.331 C  
HETATM    2  O   UNL     1     -10.801  15.518  67.366  1.00  0.00    -0.304 OA 
HETATM    3  C   UNL     1     -12.404  13.927  66.525  1.00  0.00    -0.447 C  
HETATM    4  C   UNL     1     -12.029  12.457  66.285  1.00  0.00    -0.369 C  
HETATM    5  C   UNL     1     -11.526  12.228  64.855  1.00  0.00    -0.382 C  
HETATM    6  C   UNL     1     -11.007  11.904  67.299  1.00  0.00    -0.319 C  
ENDROOT
BRANCH   6   7
HETATM    7  C   UNL     1     -11.421  12.002  68.775  1.00  0.00    -0.355 C  
BRANCH   7   8
HETATM    8  C   UNL     1     -11.837  10.656  69.377  1.00  0.00    -0.325 C  
HETATM    9  C   UNL     1     -10.812   9.516  69.212  1.00  0.00    -0.191 C  
HETATM   10  O   UNL     1     -11.388   8.337  69.793  1.00  0.00    -0.454 OA 
HETATM   11  C   UNL     1     -10.504   9.210  67.746  1.00  0.00    -0.306 C  
HETATM   12  C   UNL     1      -9.522   9.792  69.985  1.00  0.00    -0.278 C  
HETATM   13  H   UNL     1     -10.757   7.635  69.691  1.00  0.00     0.000 HD 
ENDBRANCH   7   8
ENDBRANCH   6   7
TORSDOF 2
ENDMDL
MODEL      146
REMARK 921   NORMALIZED FREE ENERGY PREDICTED BY IDOCK:   -2.98 KCAL/MOL
REMARK 922        TOTAL FREE ENERGY PREDICTED BY IDOCK:   -3.55 KCAL/MOL
REMARK 923 INTER-LIGAND FREE ENERGY PREDICTED BY IDOCK:   -3.27 KCAL/MOL
REMARK 924 INTRA-LIGAND FREE ENERGY PREDICTED BY IDOCK:   -0.27 KCAL/MOL
REMARK 927      BINDING AFFINITY PREDICTED BY RF-SCORE:    0.00 PKD
ROOT
HETATM    1  C   UNL     1     -11.164   9.919  70.821  1.00  0.00    -0.353 C  
HETATM    2  O   UNL     1     -11.772  10.302  69.826  1.00  0.00    -0.240 OA 
HETATM    3  C   UNL     1     -10.034   8.923  70.765  1.00  0.00    -0.282 C  
HETATM    4  C   UNL     1     -10.353   7.604  71.486  1.00  0.00    -0.223 C  
HETATM    5  C   UNL     1     -10.560   7.817  72.989  1.00  0.00    -0.441 C  
HETATM    6  C   UNL     1     -11.557   6.848  70.888  1.00  0.00    -0.384 C  
ENDROOT
BRANCH   6   7
HETATM    7  C   UNL     1     -11.446   6.502  69.396  1.00  0.00    -0.346 C  
BRANCH   7   8
HETATM    8  C   UNL     1     -10.052   6.013  68.990  1.00  0.00    -0.223 C  
HETATM    9  C   UNL     1      -9.673   6.256  67.516  1.00  0.00    -0.117 C  
HETATM   10  O   UNL     1      -8.366   5.699  67.315  1.00  0.00    -0.102 OA 
HETATM   11  C   UNL     1     -10.628   5.566  66.541  1.00  0.00    -0.343 C  
HETATM   12  C   UNL     1      -9.562   7.746  67.193  1.00  0.00    -0.220 C  
HETATM   13  H   UNL     1      -8.133   5.849  66.406  1.00  0.00     0.000 HD 
ENDBRANCH   7   8
ENDBRANCH   6   7
TORSDOF 2
ENDMDL
MODEL      147
REMARK 921   NORMALIZED FREE ENERGY PREDICTED BY IDOCK:   -2.97 KCAL/MOL
REMARK 922        TOTAL FREE ENERGY PREDICTED BY IDOCK:   -3.54 KCAL/MOL
REMARK 923 INTER-LIGAND FREE ENERGY PREDICTED BY IDOCK:   -3.09 KCAL/MOL
REMARK 924 INTRA-LIGAND FREE ENERGY PREDICTED BY IDOCK:   -0.45 KCAL/MOL
REMARK 927      BINDING AFFINITY PREDICTED BY RF-SCORE:    0.00 PKD
ROOT
HETATM    1  C   UNL     1     -12.018   9.696  70.574  1.00  0.00    -0.172 C  
HETATM    2  O   UNL     1     -10.933   9.872  70.028  1.00  0.00    -0.251 OA 
HETATM    3  C   UNL     1     -12.163   9.084  71.944  1.00  0.00    -0.451 C  
HETATM    4  C   UNL     1     -12.897   7.735  71.930  1.00  0.00    -0.317 C  
HETATM    5  C   UNL     1     -14.347   7.885  71.458  1.00  0.00    -0.563 C  
HETATM    6  C   UNL     1     -12.181   6.648  71.102  1.00  0.00    -0.357 C  
ENDROOT
BRANCH   6   7
HETATM    7  C   UNL     1     -10.736   6.342  71.521  1.00  0.00    -0.292 C  
BRANCH   7   8
HETATM    8  C   UNL     1      -9.718   6.572  70.400  1.00  0.00    -0.186 C  
HETATM    9  C   UNL     1      -8.318   7.020  70.863  1.00  0.00    -0.129 C  
HETATM   10  O   UNL     1      -7.525   7.225  69.686  1.00  0.00    -0.089 OA 
HETATM   11  C   UNL     1      -8.349   8.337  71.640  1.00  0.00    -0.187 C  
HETATM   12  C   UNL     1      -7.611   5.935  71.676  1.00  0.00    -0.100 C  
HETATM   13  H   UNL     1      -6.662   7.502  69.971  1.00  0.00     0.000 HD 
ENDBRANCH   7   8
ENDBRANCH   6   7
TORSDOF 2
ENDMDL
MODEL      148
REMARK 921   NORMALIZED FREE ENERGY PREDICTED BY IDOCK:   -2.97 KCAL/MOL
REMARK 922        TOTAL FREE ENERGY PREDICTED BY IDOCK:   -3.54 KCAL/MOL
REMARK 923 INTER-LIGAND FREE ENERGY PREDICTED BY IDOCK:   -3.09 KCAL/MOL
REMARK 924 INTRA-LIGAND FREE ENERGY PREDICTED BY IDOCK:   -0.45 KCAL/MOL
REMARK 927      BINDING AFFINITY PREDICTED BY RF-SCORE:    0.00 PKD
ROOT
HETATM    1  C   UNL     1      -9.000  11.344  67.894  1.00  0.00    -0.153 C  
HETATM    2  O   UNL     1      -8.664  10.907  68.990  1.00  0.00    -0.159 OA 
HETATM    3  C   UNL     1     -10.373  11.136  67.307  1.00  0.00    -0.243 C  
HETATM    4  C   UNL     1     -10.363  10.285  66.028  1.00  0.00    -0.248 C  
HETATM    5  C   UNL     1      -9.598  10.977  64.895  1.00  0.00    -0.289 C  
HETATM    6  C   UNL     1      -9.818   8.857  66.238  1.00  0.00    -0.355 C  
ENDROOT
BRANCH   6   7
HETATM    7  C   UNL     1     -10.548   8.021  67.300  1.00  0.00    -0.360 C  
BRANCH   7   8
HETATM    8  C   UNL     1      -9.654   7.624  68.479  1.00  0.00    -0.149 C  
HETATM    9  C   UNL     1     -10.369   7.511  69.840  1.00  0.00    -0.223 C  
HETATM   10  O   UNL     1      -9.374   7.177  70.818  1.00  0.00    -0.160 OA 
HETATM   11  C   UNL     1     -11.024   8.824  70.271  1.00  0.00    -0.255 C  
HETATM   12  C   UNL     1     -11.390   6.372  69.855  1.00  0.00    -0.500 C  
HETATM   13  H   UNL     1      -9.815   7.108  71.656  1.00  0.00     0.000 HD 
ENDBRANCH   7   8
ENDBRANCH   6   7
TORSDOF 2
ENDMDL
MODEL      149
REMARK 921   NORMALIZED FREE ENERGY PREDICTED BY IDOCK:   -2.97 KCAL/MOL
REMARK 922        TOTAL FREE ENERGY PREDICTED BY IDOCK:   -3.54 KCAL/MOL
REMARK 923 INTER-LIGAND FREE ENERGY PREDICTED BY IDOCK:   -3.14 KCAL/MOL
REMARK 924 INTRA-LIGAND FREE ENERGY PREDICTED BY IDOCK:   -0.39 KCAL/MOL
REMARK 927      BINDING AFFINITY PREDICTED BY RF-SCORE:    0.00 PKD
ROOT
HETATM    1  C   UNL     1      -8.971   7.705  71.962  1.00  0.00    -0.124 C  
HETATM    2  O   UNL     1      -7.795   7.705  71.610  1.00  0.00    -0.083 OA 
HETATM    3  C   UNL     1     -10.034   6.873  71.291  1.00  0.00    -0.189 C  
HETATM    4  C   UNL     1     -11.116   7.716  70.599  1.00  0.00    -0.269 C  
HETATM    5  C   UNL     1     -11.910   8.554  71.606  1.00  0.00    -0.370 C  
HETATM    6  C   UNL     1     -10.572   8.618  69.473  1.00  0.00    -0.218 C  
ENDROOT
BRANCH   6   7
HETATM    7  C   UNL     1      -9.815   7.892  68.351  1.00  0.00    -0.185 C  
BRANCH   7   8
HETATM    8  C   UNL     1     -10.740   7.157  67.374  1.00  0.00    -0.368 C  
HETATM    9  C   UNL     1     -10.188   5.830  66.816  1.00  0.00    -0.221 C  
HETATM   10  O   UNL     1     -11.162   5.317  65.897  1.00  0.00    -0.796 OA 
HETATM   11  C   UNL     1      -8.877   6.014  66.051  1.00  0.00    -0.159 C  
HETATM   12  C   UNL     1     -10.027   4.774  67.910  1.00  0.00    -0.161 C  
HETATM   13  H   UNL     1     -10.822   4.499  65.553  1.00  0.00     0.000 HD 
ENDBRANCH   7   8
ENDBRANCH   6   7
TORSDOF 2
ENDMDL
MODEL      150
REMARK 921   NORMALIZED FREE ENERGY PREDICTED BY IDOCK:   -2.96 KCAL/MOL
REMARK 922        TOTAL FREE ENERGY PREDICTED BY IDOCK:   -3.53 KCAL/MOL
REMARK 923 INTER-LIGAND FREE ENERGY PREDICTED BY IDOCK:   -3.12 KCAL/MOL
REMARK 924 INTRA-LIGAND FREE ENERGY PREDICTED BY IDOCK:   -0.41 KCAL/MOL
REMARK 927      BINDING AFFINITY PREDICTED BY RF-SCORE:    0.00 PKD
ROOT
HETATM    1  C   UNL     1     -10.336  15.305  67.629  1.00  0.00    -0.250 C  
HETATM    2  O   UNL     1     -11.003  16.092  66.964  1.00  0.00    -0.273 OA 
HETATM    3  C   UNL     1      -9.693  15.672  68.943  1.00  0.00    -0.220 C  
HETATM    4  C   UNL     1      -8.158  15.631  68.899  1.00  0.00    -0.197 C  
HETATM    5  C   UNL     1      -7.637  14.214  68.637  1.00  0.00    -0.126 C  
HETATM    6  C   UNL     1      -7.541  16.617  67.885  1.00  0.00    -0.169 C  
ENDROOT
BRANCH   6   7
HETATM    7  C   UNL     1      -7.923  18.091  68.081  1.00  0.00    -0.270 C  
BRANCH   7   8
HETATM    8  C   UNL     1      -8.394  18.771  66.791  1.00  0.00    -0.288 C  
HETATM    9  C   UNL     1      -9.353  19.963  66.988  1.00  0.00    -0.370 C  
HETATM   10  O   UNL     1      -9.717  20.437  65.683  1.00  0.00    -0.603 OA 
HETATM   11  C   UNL     1     -10.639  19.570  67.715  1.00  0.00    -0.542 C  
HETATM   12  C   UNL     1      -8.671  21.133  67.698  1.00  0.00     0.192 C  
HETATM   13  H   UNL     1     -10.307  21.171  65.805  1.00  0.00     0.000 HD 
ENDBRANCH   7   8
ENDBRANCH   6   7
TORSDOF 2
ENDMDL
MODEL      151
REMARK 921   NORMALIZED FREE ENERGY PREDICTED BY IDOCK:   -2.95 KCAL/MOL
REMARK 922        TOTAL FREE ENERGY PREDICTED BY IDOCK:   -3.52 KCAL/MOL
REMARK 923 INTER-LIGAND FREE ENERGY PREDICTED BY IDOCK:   -3.32 KCAL/MOL
REMARK 924 INTRA-LIGAND FREE ENERGY PREDICTED BY IDOCK:   -0.20 KCAL/MOL
REMARK 927      BINDING AFFINITY PREDICTED BY RF-SCORE:    0.00 PKD
ROOT
HETATM    1  C   UNL     1      -8.994   9.598  66.587  1.00  0.00    -0.146 C  
HETATM    2  O   UNL     1      -9.155  10.675  67.154  1.00  0.00    -0.143 OA 
HETATM    3  C   UNL     1     -10.080   8.558  66.466  1.00  0.00    -0.328 C  
HETATM    4  C   UNL     1      -9.757   7.257  67.216  1.00  0.00    -0.204 C  
HETATM    5  C   UNL     1      -8.531   6.553  66.626  1.00  0.00    -0.116 C  
HETATM    6  C   UNL     1      -9.578   7.446  68.736  1.00  0.00    -0.147 C  
ENDROOT
BRANCH   6   7
HETATM    7  C   UNL     1     -10.772   8.075  69.469  1.00  0.00    -0.185 C  
BRANCH   7   8
HETATM    8  C   UNL     1     -10.772   7.798  70.976  1.00  0.00    -0.241 C  
HETATM    9  C   UNL     1     -12.039   8.251  71.729  1.00  0.00    -0.319 C  
HETATM   10  O   UNL     1     -11.839   7.952  73.118  1.00  0.00    -0.651 OA 
HETATM   11  C   UNL     1     -12.289   9.755  71.608  1.00  0.00    -0.495 C  
HETATM   12  C   UNL     1     -13.275   7.465  71.291  1.00  0.00    -0.342 C  
HETATM   13  H   UNL     1     -12.620   8.231  73.582  1.00  0.00     0.000 HD 
ENDBRANCH   7   8
ENDBRANCH   6   7
TORSDOF 2
ENDMDL
MODEL      152
REMARK 921   NORMALIZED FREE ENERGY PREDICTED BY IDOCK:   -2.94 KCAL/MOL
REMARK 922        TOTAL FREE ENERGY PREDICTED BY IDOCK:   -3.51 KCAL/MOL
REMARK 923 INTER-LIGAND FREE ENERGY PREDICTED BY IDOCK:   -3.19 KCAL/MOL
REMARK 924 INTRA-LIGAND FREE ENERGY PREDICTED BY IDOCK:   -0.31 KCAL/MOL
REMARK 927      BINDING AFFINITY PREDICTED BY RF-SCORE:    0.00 PKD
ROOT
HETATM    1  C   UNL     1      -9.704  10.058  65.246  1.00  0.00    -0.306 C  
HETATM    2  O   UNL     1      -9.218   8.961  65.502  1.00  0.00    -0.220 OA 
HETATM    3  C   UNL     1      -9.299  11.326  65.955  1.00  0.00    -0.234 C  
HETATM    4  C   UNL     1     -10.438  11.950  66.776  1.00  0.00    -0.253 C  
HETATM    5  C   UNL     1     -11.597  12.403  65.883  1.00  0.00    -0.449 C  
HETATM    6  C   UNL     1     -10.963  11.035  67.901  1.00  0.00    -0.317 C  
ENDROOT
BRANCH   6   7
HETATM    7  C   UNL     1      -9.912  10.568  68.918  1.00  0.00    -0.213 C  
BRANCH   7   8
HETATM    8  C   UNL     1      -9.953   9.059  69.181  1.00  0.00    -0.187 C  
HETATM    9  C   UNL     1      -9.691   8.637  70.641  1.00  0.00    -0.184 C  
HETATM   10  O   UNL     1      -9.725   7.204  70.684  1.00  0.00    -0.176 OA 
HETATM   11  C   UNL     1      -8.318   9.085  71.146  1.00  0.00    -0.212 C  
HETATM   12  C   UNL     1     -10.793   9.124  71.582  1.00  0.00    -0.442 C  
HETATM   13  H   UNL     1      -9.564   6.945  71.583  1.00  0.00     0.000 HD 
ENDBRANCH   7   8
ENDBRANCH   6   7
TORSDOF 2
ENDMDL
MODEL      153
REMARK 921   NORMALIZED FREE ENERGY PREDICTED BY IDOCK:   -2.94 KCAL/MOL
REMARK 922        TOTAL FREE ENERGY PREDICTED BY IDOCK:   -3.51 KCAL/MOL
REMARK 923 INTER-LIGAND FREE ENERGY PREDICTED BY IDOCK:   -3.25 KCAL/MOL
REMARK 924 INTRA-LIGAND FREE ENERGY PREDICTED BY IDOCK:   -0.26 KCAL/MOL
REMARK 927      BINDING AFFINITY PREDICTED BY RF-SCORE:    0.00 PKD
ROOT
HETATM    1  C   UNL     1     -11.947  11.126  68.783  1.00  0.00    -0.268 C  
HETATM    2  O   UNL     1     -11.697  10.793  67.628  1.00  0.00    -0.538 OA 
HETATM    3  C   UNL     1     -10.969  10.964  69.919  1.00  0.00    -0.266 C  
HETATM    4  C   UNL     1     -11.445   9.973  70.992  1.00  0.00    -0.463 C  
HETATM    5  C   UNL     1     -12.717  10.465  71.691  1.00  0.00    -0.560 C  
HETATM    6  C   UNL     1     -11.654   8.540  70.462  1.00  0.00    -0.145 C  
ENDROOT
BRANCH   6   7
HETATM    7  C   UNL     1     -10.427   7.894  69.801  1.00  0.00    -0.233 C  
BRANCH   7   8
HETATM    8  C   UNL     1      -9.538   7.131  70.789  1.00  0.00    -0.168 C  
HETATM    9  C   UNL     1      -8.770   5.934  70.194  1.00  0.00    -0.141 C  
HETATM   10  O   UNL     1      -8.035   5.324  71.265  1.00  0.00    -0.104 OA 
HETATM   11  C   UNL     1      -9.699   4.873  69.603  1.00  0.00    -0.266 C  
HETATM   12  C   UNL     1      -7.735   6.378  69.159  1.00  0.00    -0.101 C  
HETATM   13  H   UNL     1      -7.562   4.587  70.899  1.00  0.00     0.000 HD 
ENDBRANCH   7   8
ENDBRANCH   6   7
TORSDOF 2
ENDMDL
MODEL      154
REMARK 921   NORMALIZED FREE ENERGY PREDICTED BY IDOCK:   -2.94 KCAL/MOL
REMARK 922        TOTAL FREE ENERGY PREDICTED BY IDOCK:   -3.50 KCAL/MOL
REMARK 923 INTER-LIGAND FREE ENERGY PREDICTED BY IDOCK:   -3.28 KCAL/MOL
REMARK 924 INTRA-LIGAND FREE ENERGY PREDICTED BY IDOCK:   -0.22 KCAL/MOL
REMARK 927      BINDING AFFINITY PREDICTED BY RF-SCORE:    0.00 PKD
ROOT
HETATM    1  C   UNL     1     -12.123  13.085  65.957  1.00  0.00    -0.432 C  
HETATM    2  O   UNL     1     -12.063  12.509  67.039  1.00  0.00    -0.521 OA 
HETATM    3  C   UNL     1     -10.904  13.467  65.155  1.00  0.00    -0.322 C  
HETATM    4  C   UNL     1     -10.731  14.986  65.004  1.00  0.00    -0.448 C  
HETATM    5  C   UNL     1     -11.882  15.610  64.209  1.00  0.00    -0.151 C  
HETATM    6  C   UNL     1     -10.553  15.725  66.345  1.00  0.00    -0.307 C  
ENDROOT
BRANCH   6   7
HETATM    7  C   UNL     1      -9.379  15.248  67.213  1.00  0.00    -0.212 C  
BRANCH   7   8
HETATM    8  C   UNL     1      -8.721  16.375  68.016  1.00  0.00    -0.183 C  
HETATM    9  C   UNL     1      -7.257  16.122  68.428  1.00  0.00    -0.135 C  
HETATM   10  O   UNL     1      -6.830  17.253  69.200  1.00  0.00    -0.233 OA 
HETATM   11  C   UNL     1      -7.098  14.876  69.300  1.00  0.00    -0.160 C  
HETATM   12  C   UNL     1      -6.327  16.050  67.216  1.00  0.00    -0.181 C  
HETATM   13  H   UNL     1      -5.928  17.097  69.454  1.00  0.00     0.000 HD 
ENDBRANCH   7   8
ENDBRANCH   6   7
TORSDOF 2
ENDMDL
MODEL      155
REMARK 921   NORMALIZED FREE ENERGY PREDICTED BY IDOCK:   -2.92 KCAL/MOL
REMARK 922        TOTAL FREE ENERGY PREDICTED BY IDOCK:   -3.48 KCAL/MOL
REMARK 923 INTER-LIGAND FREE ENERGY PREDICTED BY IDOCK:   -3.83 KCAL/MOL
REMARK 924 INTRA-LIGAND FREE ENERGY PREDICTED BY IDOCK:    0.35 KCAL/MOL
REMARK 927      BINDING AFFINITY PREDICTED BY RF-SCORE:    0.00 PKD
ROOT
HETATM    1  C   UNL     1     -12.188  13.029  65.238  1.00  0.00    -0.466 C  
HETATM    2  O   UNL     1     -12.289  12.232  66.165  1.00  0.00    -0.588 OA 
HETATM    3  C   UNL     1     -10.873  13.380  64.589  1.00  0.00    -0.405 C  
HETATM    4  C   UNL     1     -10.473  14.850  64.788  1.00  0.00    -0.296 C  
HETATM    5  C   UNL     1     -11.463  15.803  64.111  1.00  0.00    -0.079 C  
HETATM    6  C   UNL     1     -10.286  15.246  66.267  1.00  0.00    -0.303 C  
ENDROOT
BRANCH   6   7
HETATM    7  C   UNL     1      -9.258  14.415  67.049  1.00  0.00    -0.246 C  
BRANCH   7   8
HETATM    8  C   UNL     1      -9.854  13.706  68.270  1.00  0.00    -0.232 C  
HETATM    9  C   UNL     1     -10.750  14.582  69.168  1.00  0.00    -0.252 C  
HETATM   10  O   UNL     1     -11.176  13.767  70.269  1.00  0.00    -0.485 OA 
HETATM   11  C   UNL     1     -10.007  15.789  69.742  1.00  0.00    -0.250 C  
HETATM   12  C   UNL     1     -12.021  15.029  68.444  1.00  0.00    -0.231 C  
HETATM   13  H   UNL     1     -11.728  14.307  70.822  1.00  0.00     0.000 HD 
ENDBRANCH   7   8
ENDBRANCH   6   7
TORSDOF 2
ENDMDL
MODEL      156
REMARK 921   NORMALIZED FREE ENERGY PREDICTED BY IDOCK:   -2.92 KCAL/MOL
REMARK 922        TOTAL FREE ENERGY PREDICTED BY IDOCK:   -3.48 KCAL/MOL
REMARK 923 INTER-LIGAND FREE ENERGY PREDICTED BY IDOCK:   -3.22 KCAL/MOL
REMARK 924 INTRA-LIGAND FREE ENERGY PREDICTED BY IDOCK:   -0.26 KCAL/MOL
REMARK 927      BINDING AFFINITY PREDICTED BY RF-SCORE:    0.00 PKD
ROOT
HETATM    1  C   UNL     1     -11.286  16.412  68.580  1.00  0.00    -0.332 C  
HETATM    2  O   UNL     1     -10.886  16.792  67.484  1.00  0.00    -0.307 OA 
HETATM    3  C   UNL     1     -10.631  15.298  69.357  1.00  0.00    -0.257 C  
HETATM    4  C   UNL     1     -11.539  14.072  69.539  1.00  0.00    -0.350 C  
HETATM    5  C   UNL     1     -12.776  14.404  70.378  1.00  0.00    -0.362 C  
HETATM    6  C   UNL     1     -11.963  13.413  68.210  1.00  0.00    -0.352 C  
ENDROOT
BRANCH   6   7
HETATM    7  C   UNL     1     -10.812  12.959  67.300  1.00  0.00    -0.277 C  
BRANCH   7   8
HETATM    8  C   UNL     1      -9.735  12.157  68.040  1.00  0.00    -0.203 C  
HETATM    9  C   UNL     1      -9.542  10.708  67.552  1.00  0.00    -0.161 C  
HETATM   10  O   UNL     1      -8.536  10.109  68.382  1.00  0.00    -0.114 OA 
HETATM   11  C   UNL     1     -10.813   9.868  67.682  1.00  0.00    -0.318 C  
HETATM   12  C   UNL     1      -9.009  10.654  66.120  1.00  0.00    -0.184 C  
HETATM   13  H   UNL     1      -8.417   9.216  68.081  1.00  0.00     0.000 HD 
ENDBRANCH   7   8
ENDBRANCH   6   7
TORSDOF 2
ENDMDL
MODEL      157
REMARK 921   NORMALIZED FREE ENERGY PREDICTED BY IDOCK:   -2.91 KCAL/MOL
REMARK 922        TOTAL FREE ENERGY PREDICTED BY IDOCK:   -3.47 KCAL/MOL
REMARK 923 INTER-LIGAND FREE ENERGY PREDICTED BY IDOCK:   -3.21 KCAL/MOL
REMARK 924 INTRA-LIGAND FREE ENERGY PREDICTED BY IDOCK:   -0.26 KCAL/MOL
REMARK 927      BINDING AFFINITY PREDICTED BY RF-SCORE:    0.00 PKD
ROOT
HETATM    1  C   UNL     1      -9.873   5.852  70.623  1.00  0.00    -0.183 C  
HETATM    2  O   UNL     1      -8.810   5.715  70.025  1.00  0.00    -0.126 OA 
HETATM    3  C   UNL     1     -11.135   6.345  69.961  1.00  0.00    -0.442 C  
HETATM    4  C   UNL     1     -11.618   7.696  70.511  1.00  0.00    -0.195 C  
HETATM    5  C   UNL     1     -12.013   7.597  71.988  1.00  0.00    -0.341 C  
HETATM    6  C   UNL     1     -10.608   8.844  70.309  1.00  0.00    -0.246 C  
ENDROOT
BRANCH   6   7
HETATM    7  C   UNL     1     -10.184   9.103  68.856  1.00  0.00    -0.221 C  
BRANCH   7   8
HETATM    8  C   UNL     1     -11.155  10.011  68.093  1.00  0.00    -0.252 C  
HETATM    9  C   UNL     1     -10.514  10.894  67.004  1.00  0.00    -0.244 C  
HETATM   10  O   UNL     1     -11.559  11.696  66.436  1.00  0.00    -0.447 OA 
HETATM   11  C   UNL     1      -9.451  11.840  67.564  1.00  0.00    -0.174 C  
HETATM   12  C   UNL     1      -9.939  10.059  65.859  1.00  0.00    -0.339 C  
HETATM   13  H   UNL     1     -11.164  12.240  65.765  1.00  0.00     0.000 HD 
ENDBRANCH   7   8
ENDBRANCH   6   7
TORSDOF 2
ENDMDL
MODEL      158
REMARK 921   NORMALIZED FREE ENERGY PREDICTED BY IDOCK:   -2.89 KCAL/MOL
REMARK 922        TOTAL FREE ENERGY PREDICTED BY IDOCK:   -3.44 KCAL/MOL
REMARK 923 INTER-LIGAND FREE ENERGY PREDICTED BY IDOCK:   -3.22 KCAL/MOL
REMARK 924 INTRA-LIGAND FREE ENERGY PREDICTED BY IDOCK:   -0.22 KCAL/MOL
REMARK 927      BINDING AFFINITY PREDICTED BY RF-SCORE:    0.00 PKD
ROOT
HETATM    1  C   UNL     1     -10.065   5.851  66.372  1.00  0.00    -0.110 C  
HETATM    2  O   UNL     1     -10.527   4.856  66.922  1.00  0.00    -0.221 OA 
HETATM    3  C   UNL     1      -8.946   6.674  66.960  1.00  0.00    -0.120 C  
HETATM    4  C   UNL     1      -9.372   8.104  67.323  1.00  0.00    -0.174 C  
HETATM    5  C   UNL     1      -9.780   8.904  66.081  1.00  0.00    -0.338 C  
HETATM    6  C   UNL     1     -10.489   8.168  68.384  1.00  0.00    -0.205 C  
ENDROOT
BRANCH   6   7
HETATM    7  C   UNL     1     -10.178   7.466  69.714  1.00  0.00    -0.210 C  
BRANCH   7   8
HETATM    8  C   UNL     1     -11.433   7.071  70.499  1.00  0.00    -0.363 C  
HETATM    9  C   UNL     1     -11.175   6.471  71.895  1.00  0.00    -0.272 C  
HETATM   10  O   UNL     1     -12.451   6.125  72.453  1.00  0.00    -0.542 OA 
HETATM   11  C   UNL     1     -10.330   5.198  71.842  1.00  0.00    -0.275 C  
HETATM   12  C   UNL     1     -10.550   7.491  72.848  1.00  0.00    -0.390 C  
HETATM   13  H   UNL     1     -12.292   5.756  73.313  1.00  0.00     0.000 HD 
ENDBRANCH   7   8
ENDBRANCH   6   7
TORSDOF 2
ENDMDL
MODEL      159
REMARK 921   NORMALIZED FREE ENERGY PREDICTED BY IDOCK:   -2.86 KCAL/MOL
REMARK 922        TOTAL FREE ENERGY PREDICTED BY IDOCK:   -3.41 KCAL/MOL
REMARK 923 INTER-LIGAND FREE ENERGY PREDICTED BY IDOCK:   -3.08 KCAL/MOL
REMARK 924 INTRA-LIGAND FREE ENERGY PREDICTED BY IDOCK:   -0.33 KCAL/MOL
REMARK 927      BINDING AFFINITY PREDICTED BY RF-SCORE:    0.00 PKD
ROOT
HETATM    1  C   UNL     1     -11.880  10.060  70.828  1.00  0.00    -0.346 C  
HETATM    2  O   UNL     1     -11.850  11.232  70.466  1.00  0.00    -0.338 OA 
HETATM    3  C   UNL     1     -10.640   9.223  71.020  1.00  0.00    -0.386 C  
HETATM    4  C   UNL     1     -10.549   8.042  70.042  1.00  0.00    -0.242 C  
HETATM    5  C   UNL     1     -11.686   7.038  70.260  1.00  0.00    -0.284 C  
HETATM    6  C   UNL     1     -10.496   8.468  68.560  1.00  0.00    -0.205 C  
ENDROOT
BRANCH   6   7
HETATM    7  C   UNL     1      -9.350   9.419  68.187  1.00  0.00    -0.142 C  
BRANCH   7   8
HETATM    8  C   UNL     1      -9.820  10.669  67.437  1.00  0.00    -0.198 C  
HETATM    9  C   UNL     1      -9.071  10.971  66.123  1.00  0.00    -0.192 C  
HETATM   10  O   UNL     1      -9.614  12.188  65.592  1.00  0.00    -0.310 OA 
HETATM   11  C   UNL     1      -7.572  11.184  66.337  1.00  0.00    -0.109 C  
HETATM   12  C   UNL     1      -9.314   9.892  65.067  1.00  0.00    -0.323 C  
HETATM   13  H   UNL     1      -9.152  12.373  64.783  1.00  0.00     0.000 HD 
ENDBRANCH   7   8
ENDBRANCH   6   7
TORSDOF 2
ENDMDL
MODEL      160
REMARK 921   NORMALIZED FREE ENERGY PREDICTED BY IDOCK:   -2.84 KCAL/MOL
REMARK 922        TOTAL FREE ENERGY PREDICTED BY IDOCK:   -3.39 KCAL/MOL
REMARK 923 INTER-LIGAND FREE ENERGY PREDICTED BY IDOCK:   -3.08 KCAL/MOL
REMARK 924 INTRA-LIGAND FREE ENERGY PREDICTED BY IDOCK:   -0.31 KCAL/MOL
REMARK 927      BINDING AFFINITY PREDICTED BY RF-SCORE:    0.00 PKD
ROOT
HETATM    1  C   UNL     1     -10.378   7.836  66.899  1.00  0.00    -0.326 C  
HETATM    2  O   UNL     1     -10.639   8.818  67.587  1.00  0.00    -0.253 OA 
HETATM    3  C   UNL     1     -11.159   6.547  66.971  1.00  0.00    -0.411 C  
HETATM    4  C   UNL     1     -10.325   5.363  67.485  1.00  0.00    -0.246 C  
HETATM    5  C   UNL     1      -9.176   5.024  66.530  1.00  0.00    -0.135 C  
HETATM    6  C   UNL     1      -9.784   5.561  68.915  1.00  0.00    -0.193 C  
ENDROOT
BRANCH   6   7
HETATM    7  C   UNL     1     -10.845   5.834  69.992  1.00  0.00    -0.403 C  
BRANCH   7   8
HETATM    8  C   UNL     1     -10.657   7.179  70.701  1.00  0.00    -0.243 C  
HETATM    9  C   UNL     1     -10.117   7.093  72.142  1.00  0.00    -0.180 C  
HETATM   10  O   UNL     1     -10.049   8.432  72.652  1.00  0.00    -0.292 OA 
HETATM   11  C   UNL     1     -11.032   6.288  73.066  1.00  0.00    -0.271 C  
HETATM   12  C   UNL     1      -8.691   6.541  72.186  1.00  0.00    -0.131 C  
HETATM   13  H   UNL     1      -9.717   8.379  73.541  1.00  0.00     0.000 HD 
ENDBRANCH   7   8
ENDBRANCH   6   7
TORSDOF 2
ENDMDL
MODEL      161
REMARK 921   NORMALIZED FREE ENERGY PREDICTED BY IDOCK:   -2.84 KCAL/MOL
REMARK 922        TOTAL FREE ENERGY PREDICTED BY IDOCK:   -3.39 KCAL/MOL
REMARK 923 INTER-LIGAND FREE ENERGY PREDICTED BY IDOCK:   -3.33 KCAL/MOL
REMARK 924 INTRA-LIGAND FREE ENERGY PREDICTED BY IDOCK:   -0.06 KCAL/MOL
REMARK 927      BINDING AFFINITY PREDICTED BY RF-SCORE:    0.00 PKD
ROOT
HETATM    1  C   UNL     1      -9.817  11.246  64.762  1.00  0.00    -0.266 C  
HETATM    2  O   UNL     1      -8.730  11.123  65.317  1.00  0.00    -0.142 OA 
HETATM    3  C   UNL     1     -10.162  12.412  63.869  1.00  0.00    -0.409 C  
HETATM    4  C   UNL     1     -11.293  13.289  64.427  1.00  0.00    -0.415 C  
HETATM    5  C   UNL     1     -12.613  12.517  64.521  1.00  0.00    -0.503 C  
HETATM    6  C   UNL     1     -10.961  13.936  65.788  1.00  0.00    -0.285 C  
ENDROOT
BRANCH   6   7
HETATM    7  C   UNL     1      -9.695  14.805  65.814  1.00  0.00    -0.347 C  
BRANCH   7   8
HETATM    8  C   UNL     1      -9.275  15.220  67.228  1.00  0.00    -0.209 C  
HETATM    9  C   UNL     1      -8.443  14.176  68.001  1.00  0.00    -0.171 C  
HETATM   10  O   UNL     1      -8.184  14.718  69.304  1.00  0.00    -0.281 OA 
HETATM   11  C   UNL     1      -9.186  12.852  68.186  1.00  0.00    -0.212 C  
HETATM   12  C   UNL     1      -7.079  13.940  67.352  1.00  0.00    -0.091 C  
HETATM   13  H   UNL     1      -7.672  14.075  69.779  1.00  0.00     0.000 HD 
ENDBRANCH   7   8
ENDBRANCH   6   7
TORSDOF 2
ENDMDL
MODEL      162
REMARK 921   NORMALIZED FREE ENERGY PREDICTED BY IDOCK:   -2.83 KCAL/MOL
REMARK 922        TOTAL FREE ENERGY PREDICTED BY IDOCK:   -3.39 KCAL/MOL
REMARK 923 INTER-LIGAND FREE ENERGY PREDICTED BY IDOCK:   -2.94 KCAL/MOL
REMARK 924 INTRA-LIGAND FREE ENERGY PREDICTED BY IDOCK:   -0.45 KCAL/MOL
REMARK 927      BINDING AFFINITY PREDICTED BY RF-SCORE:    0.00 PKD
ROOT
HETATM    1  C   UNL     1      -8.290   3.567  72.964  1.00  0.00    -0.082 C  
HETATM    2  O   UNL     1      -7.524   4.520  72.864  1.00  0.00    -0.080 OA 
HETATM    3  C   UNL     1      -9.548   3.429  72.143  1.00  0.00    -0.206 C  
HETATM    4  C   UNL     1     -10.830   3.471  72.988  1.00  0.00    -0.200 C  
HETATM    5  C   UNL     1     -10.910   2.284  73.954  1.00  0.00    -0.265 C  
HETATM    6  C   UNL     1     -11.021   4.793  73.759  1.00  0.00    -0.371 C  
ENDROOT
BRANCH   6   7
HETATM    7  C   UNL     1     -11.038   6.064  72.898  1.00  0.00    -0.290 C  
BRANCH   7   8
HETATM    8  C   UNL     1      -9.985   7.095  73.318  1.00  0.00    -0.296 C  
HETATM    9  C   UNL     1      -9.503   8.038  72.198  1.00  0.00    -0.202 C  
HETATM   10  O   UNL     1      -8.500   8.893  72.763  1.00  0.00    -0.380 OA 
HETATM   11  C   UNL     1      -8.869   7.286  71.027  1.00  0.00    -0.144 C  
HETATM   12  C   UNL     1     -10.623   8.955  71.702  1.00  0.00    -0.422 C  
HETATM   13  H   UNL     1      -8.203   9.475  72.073  1.00  0.00     0.000 HD 
ENDBRANCH   7   8
ENDBRANCH   6   7
TORSDOF 2
ENDMDL
MODEL      163
REMARK 921   NORMALIZED FREE ENERGY PREDICTED BY IDOCK:   -2.83 KCAL/MOL
REMARK 922        TOTAL FREE ENERGY PREDICTED BY IDOCK:   -3.38 KCAL/MOL
REMARK 923 INTER-LIGAND FREE ENERGY PREDICTED BY IDOCK:   -3.09 KCAL/MOL
REMARK 924 INTRA-LIGAND FREE ENERGY PREDICTED BY IDOCK:   -0.28 KCAL/MOL
REMARK 927      BINDING AFFINITY PREDICTED BY RF-SCORE:    0.00 PKD
ROOT
HETATM    1  C   UNL     1     -10.493  11.762  67.825  1.00  0.00    -0.194 C  
HETATM    2  O   UNL     1     -11.663  11.461  68.039  1.00  0.00    -0.484 OA 
HETATM    3  C   UNL     1      -9.483  10.798  67.253  1.00  0.00    -0.177 C  
HETATM    4  C   UNL     1      -8.342  10.469  68.227  1.00  0.00    -0.122 C  
HETATM    5  C   UNL     1      -7.500  11.707  68.552  1.00  0.00    -0.113 C  
HETATM    6  C   UNL     1      -8.816   9.795  69.531  1.00  0.00    -0.202 C  
ENDROOT
BRANCH   6   7
HETATM    7  C   UNL     1      -9.612   8.493  69.352  1.00  0.00    -0.170 C  
BRANCH   7   8
HETATM    8  C   UNL     1     -11.081   8.619  69.768  1.00  0.00    -0.073 C  
HETATM    9  C   UNL     1     -11.516   7.706  70.932  1.00  0.00    -0.282 C  
HETATM   10  O   UNL     1     -12.916   7.929  71.149  1.00  0.00    -0.500 OA 
HETATM   11  C   UNL     1     -11.323   6.222  70.620  1.00  0.00    -0.409 C  
HETATM   12  C   UNL     1     -10.812   8.074  72.239  1.00  0.00    -0.369 C  
HETATM   13  H   UNL     1     -13.183   7.367  71.866  1.00  0.00     0.000 HD 
ENDBRANCH   7   8
ENDBRANCH   6   7
TORSDOF 2
ENDMDL
MODEL      164
REMARK 921   NORMALIZED FREE ENERGY PREDICTED BY IDOCK:   -2.82 KCAL/MOL
REMARK 922        TOTAL FREE ENERGY PREDICTED BY IDOCK:   -3.37 KCAL/MOL
REMARK 923 INTER-LIGAND FREE ENERGY PREDICTED BY IDOCK:   -3.11 KCAL/MOL
REMARK 924 INTRA-LIGAND FREE ENERGY PREDICTED BY IDOCK:   -0.27 KCAL/MOL
REMARK 927      BINDING AFFINITY PREDICTED BY RF-SCORE:    0.00 PKD
ROOT
HETATM    1  C   UNL     1      -6.138  17.934  68.382  1.00  0.00    -0.179 C  
HETATM    2  O   UNL     1      -6.632  18.901  67.810  1.00  0.00    -0.206 OA 
HETATM    3  C   UNL     1      -6.139  16.542  67.801  1.00  0.00    -0.153 C  
HETATM    4  C   UNL     1      -6.968  15.544  68.623  1.00  0.00    -0.116 C  
HETATM    5  C   UNL     1      -6.380  15.339  70.024  1.00  0.00    -0.147 C  
HETATM    6  C   UNL     1      -8.461  15.915  68.726  1.00  0.00    -0.204 C  
ENDROOT
BRANCH   6   7
HETATM    7  C   UNL     1      -9.195  16.076  67.387  1.00  0.00    -0.214 C  
BRANCH   7   8
HETATM    8  C   UNL     1     -10.683  15.719  67.465  1.00  0.00    -0.317 C  
HETATM    9  C   UNL     1     -11.133  14.567  66.543  1.00  0.00    -0.332 C  
HETATM   10  O   UNL     1     -12.548  14.408  66.720  1.00  0.00    -0.540 OA 
HETATM   11  C   UNL     1     -10.879  14.863  65.065  1.00  0.00    -0.439 C  
HETATM   12  C   UNL     1     -10.495  13.236  66.941  1.00  0.00    -0.261 C  
HETATM   13  H   UNL     1     -12.825  13.699  66.153  1.00  0.00     0.000 HD 
ENDBRANCH   7   8
ENDBRANCH   6   7
TORSDOF 2
ENDMDL
MODEL      165
REMARK 921   NORMALIZED FREE ENERGY PREDICTED BY IDOCK:   -2.80 KCAL/MOL
REMARK 922        TOTAL FREE ENERGY PREDICTED BY IDOCK:   -3.35 KCAL/MOL
REMARK 923 INTER-LIGAND FREE ENERGY PREDICTED BY IDOCK:   -3.10 KCAL/MOL
REMARK 924 INTRA-LIGAND FREE ENERGY PREDICTED BY IDOCK:   -0.25 KCAL/MOL
REMARK 927      BINDING AFFINITY PREDICTED BY RF-SCORE:    0.00 PKD
ROOT
HETATM    1  C   UNL     1     -11.817   7.425  71.711  1.00  0.00    -0.294 C  
HETATM    2  O   UNL     1     -12.656   6.909  70.978  1.00  0.00    -0.374 OA 
HETATM    3  C   UNL     1     -11.396   8.869  71.597  1.00  0.00    -0.407 C  
HETATM    4  C   UNL     1      -9.924   9.040  71.194  1.00  0.00    -0.365 C  
HETATM    5  C   UNL     1      -8.976   8.482  72.260  1.00  0.00    -0.299 C  
HETATM    6  C   UNL     1      -9.585   8.435  69.816  1.00  0.00    -0.170 C  
ENDROOT
BRANCH   6   7
HETATM    7  C   UNL     1     -10.414   8.967  68.638  1.00  0.00    -0.229 C  
BRANCH   7   8
HETATM    8  C   UNL     1     -10.025  10.388  68.216  1.00  0.00    -0.168 C  
HETATM    9  C   UNL     1      -9.178  10.485  66.932  1.00  0.00    -0.155 C  
HETATM   10  O   UNL     1      -8.877  11.873  66.724  1.00  0.00    -0.184 OA 
HETATM   11  C   UNL     1      -7.851   9.734  67.045  1.00  0.00    -0.102 C  
HETATM   12  C   UNL     1      -9.954  10.021  65.699  1.00  0.00    -0.355 C  
HETATM   13  H   UNL     1      -8.355  11.932  65.933  1.00  0.00     0.000 HD 
ENDBRANCH   7   8
ENDBRANCH   6   7
TORSDOF 2
ENDMDL
MODEL      166
REMARK 921   NORMALIZED FREE ENERGY PREDICTED BY IDOCK:   -2.79 KCAL/MOL
REMARK 922        TOTAL FREE ENERGY PREDICTED BY IDOCK:   -3.34 KCAL/MOL
REMARK 923 INTER-LIGAND FREE ENERGY PREDICTED BY IDOCK:   -3.00 KCAL/MOL
REMARK 924 INTRA-LIGAND FREE ENERGY PREDICTED BY IDOCK:   -0.34 KCAL/MOL
REMARK 927      BINDING AFFINITY PREDICTED BY RF-SCORE:    0.00 PKD
ROOT
HETATM    1  C   UNL     1      -5.801  16.448  67.570  1.00  0.00    -0.155 C  
HETATM    2  O   UNL     1      -5.925  15.285  67.940  1.00  0.00    -0.133 OA 
HETATM    3  C   UNL     1      -6.750  17.549  67.971  1.00  0.00    -0.181 C  
HETATM    4  C   UNL     1      -7.529  18.138  66.785  1.00  0.00    -0.242 C  
HETATM    5  C   UNL     1      -6.597  18.827  65.783  1.00  0.00    -0.296 C  
HETATM    6  C   UNL     1      -8.421  17.111  66.058  1.00  0.00    -0.154 C  
ENDROOT
BRANCH   6   7
HETATM    7  C   UNL     1      -9.459  16.398  66.937  1.00  0.00    -0.249 C  
BRANCH   7   8
HETATM    8  C   UNL     1      -9.447  14.875  66.774  1.00  0.00    -0.269 C  
HETATM    9  C   UNL     1     -10.756  14.259  66.241  1.00  0.00    -0.297 C  
HETATM   10  O   UNL     1     -10.571  12.836  66.198  1.00  0.00    -0.260 OA 
HETATM   11  C   UNL     1     -11.953  14.545  67.147  1.00  0.00    -0.373 C  
HETATM   12  C   UNL     1     -11.051  14.699  64.807  1.00  0.00    -0.394 C  
HETATM   13  H   UNL     1     -11.377  12.457  65.869  1.00  0.00     0.000 HD 
ENDBRANCH   7   8
ENDBRANCH   6   7
TORSDOF 2
ENDMDL
MODEL      167
REMARK 921   NORMALIZED FREE ENERGY PREDICTED BY IDOCK:   -2.77 KCAL/MOL
REMARK 922        TOTAL FREE ENERGY PREDICTED BY IDOCK:   -3.32 KCAL/MOL
REMARK 923 INTER-LIGAND FREE ENERGY PREDICTED BY IDOCK:   -3.03 KCAL/MOL
REMARK 924 INTRA-LIGAND FREE ENERGY PREDICTED BY IDOCK:   -0.29 KCAL/MOL
REMARK 927      BINDING AFFINITY PREDICTED BY RF-SCORE:    0.00 PKD
ROOT
HETATM    1  C   UNL     1      -6.211  16.306  67.347  1.00  0.00    -0.172 C  
HETATM    2  O   UNL     1      -6.638  17.026  66.450  1.00  0.00    -0.225 OA 
HETATM    3  C   UNL     1      -6.602  14.857  67.501  1.00  0.00    -0.140 C  
HETATM    4  C   UNL     1      -7.384  14.576  68.793  1.00  0.00    -0.129 C  
HETATM    5  C   UNL     1      -6.534  14.844  70.039  1.00  0.00    -0.167 C  
HETATM    6  C   UNL     1      -8.719  15.343  68.888  1.00  0.00    -0.208 C  
ENDROOT
BRANCH   6   7
HETATM    7  C   UNL     1      -9.703  15.104  67.734  1.00  0.00    -0.211 C  
BRANCH   7   8
HETATM    8  C   UNL     1     -10.004  13.621  67.491  1.00  0.00    -0.230 C  
HETATM    9  C   UNL     1     -11.485  13.218  67.634  1.00  0.00    -0.321 C  
HETATM   10  O   UNL     1     -11.563  11.802  67.417  1.00  0.00    -0.445 OA 
HETATM   11  C   UNL     1     -12.042  13.507  69.028  1.00  0.00    -0.330 C  
HETATM   12  C   UNL     1     -12.359  13.868  66.561  1.00  0.00    -0.447 C  
HETATM   13  H   UNL     1     -12.476  11.553  67.504  1.00  0.00     0.000 HD 
ENDBRANCH   7   8
ENDBRANCH   6   7
TORSDOF 2
ENDMDL
MODEL      168
REMARK 921   NORMALIZED FREE ENERGY PREDICTED BY IDOCK:   -2.77 KCAL/MOL
REMARK 922        TOTAL FREE ENERGY PREDICTED BY IDOCK:   -3.31 KCAL/MOL
REMARK 923 INTER-LIGAND FREE ENERGY PREDICTED BY IDOCK:   -3.07 KCAL/MOL
REMARK 924 INTRA-LIGAND FREE ENERGY PREDICTED BY IDOCK:   -0.24 KCAL/MOL
REMARK 927      BINDING AFFINITY PREDICTED BY RF-SCORE:    0.00 PKD
ROOT
HETATM    1  C   UNL     1      -8.967   7.531  67.173  1.00  0.00    -0.126 C  
HETATM    2  O   UNL     1      -9.958   7.203  67.818  1.00  0.00    -0.143 OA 
HETATM    3  C   UNL     1      -8.228   8.827  67.396  1.00  0.00    -0.109 C  
HETATM    4  C   UNL     1      -8.292   9.776  66.190  1.00  0.00    -0.122 C  
HETATM    5  C   UNL     1      -7.593   9.180  64.964  1.00  0.00    -0.106 C  
HETATM    6  C   UNL     1      -9.724  10.214  65.821  1.00  0.00    -0.307 C  
ENDROOT
BRANCH   6   7
HETATM    7  C   UNL     1     -10.516  10.899  66.945  1.00  0.00    -0.299 C  
BRANCH   7   8
HETATM    8  C   UNL     1     -11.478  11.977  66.437  1.00  0.00    -0.417 C  
HETATM    9  C   UNL     1     -11.512  13.275  67.268  1.00  0.00    -0.338 C  
HETATM   10  O   UNL     1     -12.491  14.138  66.672  1.00  0.00    -0.541 OA 
HETATM   11  C   UNL     1     -11.926  13.033  68.720  1.00  0.00    -0.302 C  
HETATM   12  C   UNL     1     -10.181  14.025  67.208  1.00  0.00    -0.260 C  
HETATM   13  H   UNL     1     -12.511  14.937  67.184  1.00  0.00     0.000 HD 
ENDBRANCH   7   8
ENDBRANCH   6   7
TORSDOF 2
ENDMDL
MODEL      169
REMARK 921   NORMALIZED FREE ENERGY PREDICTED BY IDOCK:   -2.77 KCAL/MOL
REMARK 922        TOTAL FREE ENERGY PREDICTED BY IDOCK:   -3.31 KCAL/MOL
REMARK 923 INTER-LIGAND FREE ENERGY PREDICTED BY IDOCK:   -3.07 KCAL/MOL
REMARK 924 INTRA-LIGAND FREE ENERGY PREDICTED BY IDOCK:   -0.24 KCAL/MOL
REMARK 927      BINDING AFFINITY PREDICTED BY RF-SCORE:    0.00 PKD
ROOT
HETATM    1  C   UNL     1      -8.604  17.174  67.686  1.00  0.00    -0.212 C  
HETATM    2  O   UNL     1      -9.780  17.450  67.468  1.00  0.00    -0.256 OA 
HETATM    3  C   UNL     1      -7.834  16.152  66.888  1.00  0.00    -0.283 C  
HETATM    4  C   UNL     1      -7.401  14.936  67.720  1.00  0.00    -0.183 C  
HETATM    5  C   UNL     1      -6.417  15.329  68.827  1.00  0.00    -0.097 C  
HETATM    6  C   UNL     1      -8.580  14.142  68.319  1.00  0.00    -0.175 C  
ENDROOT
BRANCH   6   7
HETATM    7  C   UNL     1      -9.608  13.619  67.304  1.00  0.00    -0.238 C  
BRANCH   7   8
HETATM    8  C   UNL     1     -10.807  12.927  67.959  1.00  0.00    -0.261 C  
HETATM    9  C   UNL     1     -10.886  11.402  67.744  1.00  0.00    -0.231 C  
HETATM   10  O   UNL     1     -12.084  10.943  68.386  1.00  0.00    -0.776 OA 
HETATM   11  C   UNL     1     -10.972  11.020  66.266  1.00  0.00    -0.184 C  
HETATM   12  C   UNL     1      -9.726  10.670  68.421  1.00  0.00    -0.172 C  
HETATM   13  H   UNL     1     -12.132  10.003  68.253  1.00  0.00     0.000 HD 
ENDBRANCH   7   8
ENDBRANCH   6   7
TORSDOF 2
ENDMDL
MODEL      170
REMARK 921   NORMALIZED FREE ENERGY PREDICTED BY IDOCK:   -2.76 KCAL/MOL
REMARK 922        TOTAL FREE ENERGY PREDICTED BY IDOCK:   -3.30 KCAL/MOL
REMARK 923 INTER-LIGAND FREE ENERGY PREDICTED BY IDOCK:   -3.05 KCAL/MOL
REMARK 924 INTRA-LIGAND FREE ENERGY PREDICTED BY IDOCK:   -0.25 KCAL/MOL
REMARK 927      BINDING AFFINITY PREDICTED BY RF-SCORE:    0.00 PKD
ROOT
HETATM    1  C   UNL     1     -10.783   7.440  73.233  1.00  0.00    -0.391 C  
HETATM    2  O   UNL     1      -9.606   7.745  73.396  1.00  0.00    -0.263 OA 
HETATM    3  C   UNL     1     -11.223   6.249  72.417  1.00  0.00    -0.320 C  
HETATM    4  C   UNL     1     -12.022   6.636  71.164  1.00  0.00    -0.412 C  
HETATM    5  C   UNL     1     -13.344   7.321  71.525  1.00  0.00    -0.435 C  
HETATM    6  C   UNL     1     -11.230   7.509  70.169  1.00  0.00    -0.213 C  
ENDROOT
BRANCH   6   7
HETATM    7  C   UNL     1      -9.912   6.903  69.663  1.00  0.00    -0.179 C  
BRANCH   7   8
HETATM    8  C   UNL     1      -8.977   7.936  69.025  1.00  0.00    -0.145 C  
HETATM    9  C   UNL     1      -8.783   7.795  67.502  1.00  0.00    -0.125 C  
HETATM   10  O   UNL     1      -7.852   8.809  67.096  1.00  0.00    -0.095 OA 
HETATM   11  C   UNL     1      -8.197   6.440  67.106  1.00  0.00    -0.113 C  
HETATM   12  C   UNL     1     -10.077   8.065  66.734  1.00  0.00    -0.357 C  
HETATM   13  H   UNL     1      -7.732   8.722  66.158  1.00  0.00     0.000 HD 
ENDBRANCH   7   8
ENDBRANCH   6   7
TORSDOF 2
ENDMDL
MODEL      171
REMARK 921   NORMALIZED FREE ENERGY PREDICTED BY IDOCK:   -2.75 KCAL/MOL
REMARK 922        TOTAL FREE ENERGY PREDICTED BY IDOCK:   -3.29 KCAL/MOL
REMARK 923 INTER-LIGAND FREE ENERGY PREDICTED BY IDOCK:   -2.90 KCAL/MOL
REMARK 924 INTRA-LIGAND FREE ENERGY PREDICTED BY IDOCK:   -0.40 KCAL/MOL
REMARK 927      BINDING AFFINITY PREDICTED BY RF-SCORE:    0.00 PKD
ROOT
HETATM    1  C   UNL     1      -7.513   6.856  68.215  1.00  0.00    -0.099 C  
HETATM    2  O   UNL     1      -6.848   5.942  68.693  1.00  0.00    -0.061 OA 
HETATM    3  C   UNL     1      -8.410   7.745  69.040  1.00  0.00    -0.131 C  
HETATM    4  C   UNL     1      -9.897   7.601  68.684  1.00  0.00    -0.175 C  
HETATM    5  C   UNL     1     -10.182   8.051  67.248  1.00  0.00    -0.345 C  
HETATM    6  C   UNL     1     -10.454   6.180  68.913  1.00  0.00    -0.293 C  
ENDROOT
BRANCH   6   7
HETATM    7  C   UNL     1     -10.302   5.632  70.340  1.00  0.00    -0.330 C  
BRANCH   7   8
HETATM    8  C   UNL     1     -10.985   6.503  71.399  1.00  0.00    -0.303 C  
HETATM    9  C   UNL     1     -10.328   6.481  72.793  1.00  0.00    -0.202 C  
HETATM   10  O   UNL     1     -11.123   7.311  73.652  1.00  0.00    -0.560 OA 
HETATM   11  C   UNL     1     -10.290   5.080  73.404  1.00  0.00    -0.243 C  
HETATM   12  C   UNL     1      -8.928   7.096  72.774  1.00  0.00    -0.157 C  
HETATM   13  H   UNL     1     -10.718   7.297  74.511  1.00  0.00     0.000 HD 
ENDBRANCH   7   8
ENDBRANCH   6   7
TORSDOF 2
ENDMDL
MODEL      172
REMARK 921   NORMALIZED FREE ENERGY PREDICTED BY IDOCK:   -2.75 KCAL/MOL
REMARK 922        TOTAL FREE ENERGY PREDICTED BY IDOCK:   -3.29 KCAL/MOL
REMARK 923 INTER-LIGAND FREE ENERGY PREDICTED BY IDOCK:   -3.05 KCAL/MOL
REMARK 924 INTRA-LIGAND FREE ENERGY PREDICTED BY IDOCK:   -0.24 KCAL/MOL
REMARK 927      BINDING AFFINITY PREDICTED BY RF-SCORE:    0.00 PKD
ROOT
HETATM    1  C   UNL     1     -11.616  13.691  68.748  1.00  0.00    -0.324 C  
HETATM    2  O   UNL     1     -11.938  13.781  69.928  1.00  0.00    -0.307 OA 
HETATM    3  C   UNL     1     -11.918  12.481  67.899  1.00  0.00    -0.283 C  
HETATM    4  C   UNL     1     -10.657  11.740  67.430  1.00  0.00    -0.258 C  
HETATM    5  C   UNL     1      -9.800  12.612  66.506  1.00  0.00    -0.258 C  
HETATM    6  C   UNL     1      -9.797  11.190  68.585  1.00  0.00    -0.207 C  
ENDROOT
BRANCH   6   7
HETATM    7  C   UNL     1     -10.517  10.235  69.549  1.00  0.00    -0.268 C  
BRANCH   7   8
HETATM    8  C   UNL     1     -10.216   8.758  69.277  1.00  0.00    -0.215 C  
HETATM    9  C   UNL     1     -10.327   7.827  70.501  1.00  0.00    -0.205 C  
HETATM   10  O   UNL     1      -9.970   6.507  70.066  1.00  0.00    -0.167 OA 
HETATM   11  C   UNL     1      -9.371   8.220  71.628  1.00  0.00    -0.254 C  
HETATM   12  C   UNL     1     -11.762   7.738  71.022  1.00  0.00    -0.299 C  
HETATM   13  H   UNL     1     -10.039   5.934  70.821  1.00  0.00     0.000 HD 
ENDBRANCH   7   8
ENDBRANCH   6   7
TORSDOF 2
ENDMDL
MODEL      173
REMARK 921   NORMALIZED FREE ENERGY PREDICTED BY IDOCK:   -2.73 KCAL/MOL
REMARK 922        TOTAL FREE ENERGY PREDICTED BY IDOCK:   -3.27 KCAL/MOL
REMARK 923 INTER-LIGAND FREE ENERGY PREDICTED BY IDOCK:   -2.86 KCAL/MOL
REMARK 924 INTRA-LIGAND FREE ENERGY PREDICTED BY IDOCK:   -0.42 KCAL/MOL
REMARK 927      BINDING AFFINITY PREDICTED BY RF-SCORE:    0.00 PKD
ROOT
HETATM    1  C   UNL     1      -9.604   7.823  72.645  1.00  0.00    -0.202 C  
HETATM    2  O   UNL     1      -9.550   8.964  72.196  1.00  0.00    -0.301 OA 
HETATM    3  C   UNL     1      -9.163   6.608  71.868  1.00  0.00    -0.147 C  
HETATM    4  C   UNL     1     -10.313   5.639  71.555  1.00  0.00    -0.279 C  
HETATM    5  C   UNL     1     -10.913   5.041  72.831  1.00  0.00    -0.342 C  
HETATM    6  C   UNL     1     -11.428   6.261  70.689  1.00  0.00    -0.397 C  
ENDROOT
BRANCH   6   7
HETATM    7  C   UNL     1     -10.974   6.834  69.338  1.00  0.00    -0.321 C  
BRANCH   7   8
HETATM    8  C   UNL     1     -10.486   5.761  68.359  1.00  0.00    -0.283 C  
HETATM    9  C   UNL     1      -9.288   6.170  67.477  1.00  0.00    -0.113 C  
HETATM   10  O   UNL     1      -9.005   5.067  66.605  1.00  0.00    -0.114 OA 
HETATM   11  C   UNL     1      -9.589   7.389  66.605  1.00  0.00    -0.251 C  
HETATM   12  C   UNL     1      -8.024   6.402  68.305  1.00  0.00    -0.106 C  
HETATM   13  H   UNL     1      -8.268   5.319  66.062  1.00  0.00     0.000 HD 
ENDBRANCH   7   8
ENDBRANCH   6   7
TORSDOF 2
ENDMDL
MODEL      174
REMARK 921   NORMALIZED FREE ENERGY PREDICTED BY IDOCK:   -2.73 KCAL/MOL
REMARK 922        TOTAL FREE ENERGY PREDICTED BY IDOCK:   -3.27 KCAL/MOL
REMARK 923 INTER-LIGAND FREE ENERGY PREDICTED BY IDOCK:   -2.99 KCAL/MOL
REMARK 924 INTRA-LIGAND FREE ENERGY PREDICTED BY IDOCK:   -0.29 KCAL/MOL
REMARK 927      BINDING AFFINITY PREDICTED BY RF-SCORE:    0.00 PKD
ROOT
HETATM    1  C   UNL     1      -8.810  10.976  66.280  1.00  0.00    -0.180 C  
HETATM    2  O   UNL     1      -7.607  11.202  66.191  1.00  0.00    -0.124 OA 
HETATM    3  C   UNL     1      -9.869  11.985  65.912  1.00  0.00    -0.259 C  
HETATM    4  C   UNL     1     -10.718  12.436  67.110  1.00  0.00    -0.264 C  
HETATM    5  C   UNL     1     -11.529  11.275  67.697  1.00  0.00    -0.341 C  
HETATM    6  C   UNL     1      -9.903  13.127  68.222  1.00  0.00    -0.227 C  
ENDROOT
BRANCH   6   7
HETATM    7  C   UNL     1      -9.099  14.360  67.783  1.00  0.00    -0.192 C  
BRANCH   7   8
HETATM    8  C   UNL     1      -9.980  15.519  67.306  1.00  0.00    -0.238 C  
HETATM    9  C   UNL     1     -10.067  16.719  68.270  1.00  0.00    -0.274 C  
HETATM   10  O   UNL     1     -10.960  17.675  67.681  1.00  0.00    -0.296 OA 
HETATM   11  C   UNL     1     -10.631  16.336  69.638  1.00  0.00    -0.320 C  
HETATM   12  C   UNL     1      -8.719  17.425  68.426  1.00  0.00    -0.271 C  
HETATM   13  H   UNL     1     -11.013  18.415  68.275  1.00  0.00     0.000 HD 
ENDBRANCH   7   8
ENDBRANCH   6   7
TORSDOF 2
ENDMDL
MODEL      175
REMARK 921   NORMALIZED FREE ENERGY PREDICTED BY IDOCK:   -2.72 KCAL/MOL
REMARK 922        TOTAL FREE ENERGY PREDICTED BY IDOCK:   -3.25 KCAL/MOL
REMARK 923 INTER-LIGAND FREE ENERGY PREDICTED BY IDOCK:   -2.96 KCAL/MOL
REMARK 924 INTRA-LIGAND FREE ENERGY PREDICTED BY IDOCK:   -0.29 KCAL/MOL
REMARK 927      BINDING AFFINITY PREDICTED BY RF-SCORE:    0.00 PKD
ROOT
HETATM    1  C   UNL     1     -11.367   6.688  72.598  1.00  0.00    -0.225 C  
HETATM    2  O   UNL     1     -10.210   6.322  72.414  1.00  0.00    -0.184 OA 
HETATM    3  C   UNL     1     -12.323   7.000  71.474  1.00  0.00    -0.420 C  
HETATM    4  C   UNL     1     -12.750   8.475  71.435  1.00  0.00    -0.294 C  
HETATM    5  C   UNL     1     -13.541   8.869  72.687  1.00  0.00    -0.395 C  
HETATM    6  C   UNL     1     -11.578   9.455  71.221  1.00  0.00    -0.434 C  
ENDROOT
BRANCH   6   7
HETATM    7  C   UNL     1     -10.743   9.219  69.953  1.00  0.00    -0.253 C  
BRANCH   7   8
HETATM    8  C   UNL     1      -9.575  10.200  69.807  1.00  0.00    -0.213 C  
HETATM    9  C   UNL     1      -8.177   9.552  69.741  1.00  0.00    -0.151 C  
HETATM   10  O   UNL     1      -7.219  10.616  69.650  1.00  0.00    -0.129 OA 
HETATM   11  C   UNL     1      -7.847   8.734  70.989  1.00  0.00    -0.145 C  
HETATM   12  C   UNL     1      -8.001   8.703  68.481  1.00  0.00    -0.116 C  
HETATM   13  H   UNL     1      -6.358  10.217  69.609  1.00  0.00     0.000 HD 
ENDBRANCH   7   8
ENDBRANCH   6   7
TORSDOF 2
ENDMDL
MODEL      176
REMARK 921   NORMALIZED FREE ENERGY PREDICTED BY IDOCK:   -2.68 KCAL/MOL
REMARK 922        TOTAL FREE ENERGY PREDICTED BY IDOCK:   -3.21 KCAL/MOL
REMARK 923 INTER-LIGAND FREE ENERGY PREDICTED BY IDOCK:   -2.87 KCAL/MOL
REMARK 924 INTRA-LIGAND FREE ENERGY PREDICTED BY IDOCK:   -0.34 KCAL/MOL
REMARK 927      BINDING AFFINITY PREDICTED BY RF-SCORE:    0.00 PKD
ROOT
HETATM    1  C   UNL     1      -5.412  15.713  67.792  1.00  0.00    -0.123 C  
HETATM    2  O   UNL     1      -5.662  14.753  68.515  1.00  0.00    -0.088 OA 
HETATM    3  C   UNL     1      -5.777  17.132  68.149  1.00  0.00    -0.120 C  
HETATM    4  C   UNL     1      -6.807  17.751  67.193  1.00  0.00    -0.196 C  
HETATM    5  C   UNL     1      -6.254  17.878  65.770  1.00  0.00    -0.252 C  
HETATM    6  C   UNL     1      -8.157  17.005  67.170  1.00  0.00    -0.216 C  
ENDROOT
BRANCH   6   7
HETATM    7  C   UNL     1      -8.862  16.872  68.528  1.00  0.00    -0.251 C  
BRANCH   7   8
HETATM    8  C   UNL     1      -9.128  15.418  68.933  1.00  0.00    -0.218 C  
HETATM    9  C   UNL     1     -10.595  15.087  69.272  1.00  0.00    -0.247 C  
HETATM   10  O   UNL     1     -10.640  13.708  69.666  1.00  0.00    -0.426 OA 
HETATM   11  C   UNL     1     -11.133  15.922  70.435  1.00  0.00    -0.382 C  
HETATM   12  C   UNL     1     -11.507  15.218  68.051  1.00  0.00    -0.351 C  
HETATM   13  H   UNL     1     -11.544  13.504  69.875  1.00  0.00     0.000 HD 
ENDBRANCH   7   8
ENDBRANCH   6   7
TORSDOF 2
ENDMDL
MODEL      177
REMARK 921   NORMALIZED FREE ENERGY PREDICTED BY IDOCK:   -2.67 KCAL/MOL
REMARK 922        TOTAL FREE ENERGY PREDICTED BY IDOCK:   -3.20 KCAL/MOL
REMARK 923 INTER-LIGAND FREE ENERGY PREDICTED BY IDOCK:   -2.99 KCAL/MOL
REMARK 924 INTRA-LIGAND FREE ENERGY PREDICTED BY IDOCK:   -0.21 KCAL/MOL
REMARK 927      BINDING AFFINITY PREDICTED BY RF-SCORE:    0.00 PKD
ROOT
HETATM    1  C   UNL     1     -12.160  14.133  68.894  1.00  0.00    -0.304 C  
HETATM    2  O   UNL     1     -11.834  15.004  69.694  1.00  0.00    -0.290 OA 
HETATM    3  C   UNL     1     -11.341  12.891  68.647  1.00  0.00    -0.327 C  
HETATM    4  C   UNL     1     -10.777  12.811  67.221  1.00  0.00    -0.256 C  
HETATM    5  C   UNL     1     -11.893  12.708  66.176  1.00  0.00    -0.477 C  
HETATM    6  C   UNL     1      -9.825  13.972  66.865  1.00  0.00    -0.267 C  
ENDROOT
BRANCH   6   7
HETATM    7  C   UNL     1      -8.613  14.141  67.793  1.00  0.00    -0.184 C  
BRANCH   7   8
HETATM    8  C   UNL     1      -7.392  14.745  67.091  1.00  0.00    -0.020 C  
HETATM    9  C   UNL     1      -7.031  16.182  67.517  1.00  0.00    -0.168 C  
HETATM   10  O   UNL     1      -5.903  16.588  66.731  1.00  0.00    -0.319 OA 
HETATM   11  C   UNL     1      -8.164  17.175  67.256  1.00  0.00    -0.206 C  
HETATM   12  C   UNL     1      -6.586  16.248  68.979  1.00  0.00    -0.169 C  
HETATM   13  H   UNL     1      -5.680  17.474  66.993  1.00  0.00     0.000 HD 
ENDBRANCH   7   8
ENDBRANCH   6   7
TORSDOF 2
ENDMDL
MODEL      178
REMARK 921   NORMALIZED FREE ENERGY PREDICTED BY IDOCK:   -2.66 KCAL/MOL
REMARK 922        TOTAL FREE ENERGY PREDICTED BY IDOCK:   -3.19 KCAL/MOL
REMARK 923 INTER-LIGAND FREE ENERGY PREDICTED BY IDOCK:   -2.97 KCAL/MOL
REMARK 924 INTRA-LIGAND FREE ENERGY PREDICTED BY IDOCK:   -0.22 KCAL/MOL
REMARK 927      BINDING AFFINITY PREDICTED BY RF-SCORE:    0.00 PKD
ROOT
HETATM    1  C   UNL     1     -12.157  15.866  71.905  1.00  0.00    -0.498 C  
HETATM    2  O   UNL     1     -12.029  17.066  72.125  1.00  0.00     0.184 OA 
HETATM    3  C   UNL     1     -11.042  14.999  71.375  1.00  0.00    -0.161 C  
HETATM    4  C   UNL     1     -11.329  14.430  69.978  1.00  0.00    -0.253 C  
HETATM    5  C   UNL     1     -12.534  13.483  69.990  1.00  0.00    -0.231 C  
HETATM    6  C   UNL     1     -11.519  15.512  68.895  1.00  0.00    -0.362 C  
ENDROOT
BRANCH   6   7
HETATM    7  C   UNL     1     -10.345  16.488  68.723  1.00  0.00    -0.286 C  
BRANCH   7   8
HETATM    8  C   UNL     1     -10.709  17.736  67.912  1.00  0.00    -0.327 C  
HETATM    9  C   UNL     1      -9.716  18.909  68.028  1.00  0.00    -0.337 C  
HETATM   10  O   UNL     1     -10.240  19.991  67.244  1.00  0.00    -0.406 OA 
HETATM   11  C   UNL     1      -9.558  19.408  69.465  1.00  0.00    -0.032 C  
HETATM   12  C   UNL     1      -8.352  18.563  67.428  1.00  0.00    -0.264 C  
HETATM   13  H   UNL     1      -9.628  20.713  67.316  1.00  0.00     0.000 HD 
ENDBRANCH   7   8
ENDBRANCH   6   7
TORSDOF 2
ENDMDL
MODEL      179
REMARK 921   NORMALIZED FREE ENERGY PREDICTED BY IDOCK:   -2.66 KCAL/MOL
REMARK 922        TOTAL FREE ENERGY PREDICTED BY IDOCK:   -3.19 KCAL/MOL
REMARK 923 INTER-LIGAND FREE ENERGY PREDICTED BY IDOCK:   -2.85 KCAL/MOL
REMARK 924 INTRA-LIGAND FREE ENERGY PREDICTED BY IDOCK:   -0.34 KCAL/MOL
REMARK 927      BINDING AFFINITY PREDICTED BY RF-SCORE:    0.00 PKD
ROOT
HETATM    1  C   UNL     1     -10.093   7.308  72.843  1.00  0.00    -0.227 C  
HETATM    2  O   UNL     1      -8.931   6.968  72.646  1.00  0.00    -0.124 OA 
HETATM    3  C   UNL     1     -11.273   6.403  72.588  1.00  0.00    -0.290 C  
HETATM    4  C   UNL     1     -12.196   6.913  71.471  1.00  0.00    -0.415 C  
HETATM    5  C   UNL     1     -12.852   8.247  71.844  1.00  0.00    -0.371 C  
HETATM    6  C   UNL     1     -11.502   7.030  70.099  1.00  0.00    -0.302 C  
ENDROOT
BRANCH   6   7
HETATM    7  C   UNL     1     -10.865   5.737  69.568  1.00  0.00    -0.410 C  
BRANCH   7   8
HETATM    8  C   UNL     1      -9.385   5.897  69.203  1.00  0.00    -0.137 C  
HETATM    9  C   UNL     1      -8.988   5.360  67.814  1.00  0.00    -0.108 C  
HETATM   10  O   UNL     1      -7.574   5.555  67.670  1.00  0.00    -0.086 OA 
HETATM   11  C   UNL     1      -9.271   3.866  67.657  1.00  0.00    -0.203 C  
HETATM   12  C   UNL     1      -9.650   6.153  66.686  1.00  0.00    -0.181 C  
HETATM   13  H   UNL     1      -7.329   5.224  66.814  1.00  0.00     0.000 HD 
ENDBRANCH   7   8
ENDBRANCH   6   7
TORSDOF 2
ENDMDL
MODEL      180
REMARK 921   NORMALIZED FREE ENERGY PREDICTED BY IDOCK:   -2.65 KCAL/MOL
REMARK 922        TOTAL FREE ENERGY PREDICTED BY IDOCK:   -3.18 KCAL/MOL
REMARK 923 INTER-LIGAND FREE ENERGY PREDICTED BY IDOCK:   -2.82 KCAL/MOL
REMARK 924 INTRA-LIGAND FREE ENERGY PREDICTED BY IDOCK:   -0.36 KCAL/MOL
REMARK 927      BINDING AFFINITY PREDICTED BY RF-SCORE:    0.00 PKD
ROOT
HETATM    1  C   UNL     1     -12.083  12.600  66.108  1.00  0.00    -0.333 C  
HETATM    2  O   UNL     1     -12.196  12.539  64.888  1.00  0.00    -0.441 OA 
HETATM    3  C   UNL     1     -10.767  12.435  66.825  1.00  0.00    -0.263 C  
HETATM    4  C   UNL     1     -10.719  11.190  67.724  1.00  0.00    -0.267 C  
HETATM    5  C   UNL     1     -11.733  11.281  68.869  1.00  0.00    -0.409 C  
HETATM    6  C   UNL     1     -10.904   9.865  66.958  1.00  0.00    -0.186 C  
ENDROOT
BRANCH   6   7
HETATM    7  C   UNL     1      -9.898   9.611  65.825  1.00  0.00    -0.373 C  
BRANCH   7   8
HETATM    8  C   UNL     1      -8.692   8.773  66.263  1.00  0.00    -0.169 C  
HETATM    9  C   UNL     1      -7.335   9.220  65.684  1.00  0.00    -0.093 C  
HETATM   10  O   UNL     1      -6.343   8.301  66.165  1.00  0.00    -0.048 OA 
HETATM   11  C   UNL     1      -7.305   9.181  64.156  1.00  0.00    -0.104 C  
HETATM   12  C   UNL     1      -6.925  10.603  66.193  1.00  0.00    -0.135 C  
HETATM   13  H   UNL     1      -5.507   8.577  65.808  1.00  0.00     0.000 HD 
ENDBRANCH   7   8
ENDBRANCH   6   7
TORSDOF 2
ENDMDL
MODEL      181
REMARK 921   NORMALIZED FREE ENERGY PREDICTED BY IDOCK:   -2.60 KCAL/MOL
REMARK 922        TOTAL FREE ENERGY PREDICTED BY IDOCK:   -3.13 KCAL/MOL
REMARK 923 INTER-LIGAND FREE ENERGY PREDICTED BY IDOCK:   -2.69 KCAL/MOL
REMARK 924 INTRA-LIGAND FREE ENERGY PREDICTED BY IDOCK:   -0.44 KCAL/MOL
REMARK 927      BINDING AFFINITY PREDICTED BY RF-SCORE:    0.00 PKD
ROOT
HETATM    1  C   UNL     1     -11.771  12.680  68.596  1.00  0.00    -0.325 C  
HETATM    2  O   UNL     1     -11.573  12.665  69.806  1.00  0.00    -0.274 OA 
HETATM    3  C   UNL     1     -10.729  12.276  67.583  1.00  0.00    -0.250 C  
HETATM    4  C   UNL     1     -10.286  13.434  66.676  1.00  0.00    -0.274 C  
HETATM    5  C   UNL     1     -11.439  13.945  65.807  1.00  0.00    -0.324 C  
HETATM    6  C   UNL     1      -9.640  14.607  67.441  1.00  0.00    -0.215 C  
ENDROOT
BRANCH   6   7
HETATM    7  C   UNL     1      -8.417  14.245  68.297  1.00  0.00    -0.167 C  
BRANCH   7   8
HETATM    8  C   UNL     1      -7.122  14.133  67.486  1.00  0.00    -0.184 C  
HETATM    9  C   UNL     1      -6.335  12.821  67.680  1.00  0.00    -0.153 C  
HETATM   10  O   UNL     1      -5.145  12.916  66.884  1.00  0.00    -0.302 OA 
HETATM   11  C   UNL     1      -5.909  12.600  69.132  1.00  0.00    -0.080 C  
HETATM   12  C   UNL     1      -7.108  11.609  67.158  1.00  0.00    -0.143 C  
HETATM   13  H   UNL     1      -4.661  12.108  67.004  1.00  0.00     0.000 HD 
ENDBRANCH   7   8
ENDBRANCH   6   7
TORSDOF 2
ENDMDL
MODEL      182
REMARK 921   NORMALIZED FREE ENERGY PREDICTED BY IDOCK:   -2.60 KCAL/MOL
REMARK 922        TOTAL FREE ENERGY PREDICTED BY IDOCK:   -3.13 KCAL/MOL
REMARK 923 INTER-LIGAND FREE ENERGY PREDICTED BY IDOCK:   -2.77 KCAL/MOL
REMARK 924 INTRA-LIGAND FREE ENERGY PREDICTED BY IDOCK:   -0.35 KCAL/MOL
REMARK 927      BINDING AFFINITY PREDICTED BY RF-SCORE:    0.00 PKD
ROOT
HETATM    1  C   UNL     1     -11.973  10.559  70.022  1.00  0.00    -0.288 C  
HETATM    2  O   UNL     1     -12.368  10.864  68.900  1.00  0.00    -0.486 OA 
HETATM    3  C   UNL     1     -10.551  10.153  70.315  1.00  0.00    -0.324 C  
HETATM    4  C   UNL     1     -10.423   8.698  70.791  1.00  0.00    -0.249 C  
HETATM    5  C   UNL     1     -11.133   8.476  72.130  1.00  0.00    -0.436 C  
HETATM    6  C   UNL     1     -10.910   7.663  69.756  1.00  0.00    -0.222 C  
ENDROOT
BRANCH   6   7
HETATM    7  C   UNL     1     -10.221   7.724  68.385  1.00  0.00    -0.230 C  
BRANCH   7   8
HETATM    8  C   UNL     1      -8.691   7.711  68.475  1.00  0.00    -0.128 C  
HETATM    9  C   UNL     1      -7.957   8.390  67.301  1.00  0.00    -0.105 C  
HETATM   10  O   UNL     1      -6.550   8.242  67.535  1.00  0.00    -0.056 OA 
HETATM   11  C   UNL     1      -8.276   7.740  65.954  1.00  0.00    -0.128 C  
HETATM   12  C   UNL     1      -8.231   9.893  67.249  1.00  0.00    -0.121 C  
HETATM   13  H   UNL     1      -6.098   8.660  66.812  1.00  0.00     0.000 HD 
ENDBRANCH   7   8
ENDBRANCH   6   7
TORSDOF 2
ENDMDL
MODEL      183
REMARK 921   NORMALIZED FREE ENERGY PREDICTED BY IDOCK:   -2.59 KCAL/MOL
REMARK 922        TOTAL FREE ENERGY PREDICTED BY IDOCK:   -3.12 KCAL/MOL
REMARK 923 INTER-LIGAND FREE ENERGY PREDICTED BY IDOCK:   -2.79 KCAL/MOL
REMARK 924 INTRA-LIGAND FREE ENERGY PREDICTED BY IDOCK:   -0.33 KCAL/MOL
REMARK 927      BINDING AFFINITY PREDICTED BY RF-SCORE:    0.00 PKD
ROOT
HETATM    1  C   UNL     1      -7.698   4.619  69.139  1.00  0.00    -0.067 C  
HETATM    2  O   UNL     1      -7.397   5.806  69.058  1.00  0.00    -0.079 OA 
HETATM    3  C   UNL     1      -9.094   4.102  68.898  1.00  0.00    -0.186 C  
HETATM    4  C   UNL     1      -9.735   3.485  70.150  1.00  0.00    -0.155 C  
HETATM    5  C   UNL     1      -8.976   2.239  70.618  1.00  0.00    -0.151 C  
HETATM    6  C   UNL     1      -9.893   4.478  71.319  1.00  0.00    -0.260 C  
ENDROOT
BRANCH   6   7
HETATM    7  C   UNL     1     -10.704   5.744  71.006  1.00  0.00    -0.326 C  
BRANCH   7   8
HETATM    8  C   UNL     1      -9.906   7.038  71.195  1.00  0.00    -0.180 C  
HETATM    9  C   UNL     1     -10.336   7.908  72.393  1.00  0.00    -0.270 C  
HETATM   10  O   UNL     1      -9.514   9.083  72.383  1.00  0.00    -0.270 OA 
HETATM   11  C   UNL     1     -11.794   8.359  72.299  1.00  0.00    -0.456 C  
HETATM   12  C   UNL     1     -10.076   7.210  73.728  1.00  0.00    -0.391 C  
HETATM   13  H   UNL     1      -9.779   9.619  73.121  1.00  0.00     0.000 HD 
ENDBRANCH   7   8
ENDBRANCH   6   7
TORSDOF 2
ENDMDL
MODEL      184
REMARK 921   NORMALIZED FREE ENERGY PREDICTED BY IDOCK:   -2.59 KCAL/MOL
REMARK 922        TOTAL FREE ENERGY PREDICTED BY IDOCK:   -3.11 KCAL/MOL
REMARK 923 INTER-LIGAND FREE ENERGY PREDICTED BY IDOCK:   -2.74 KCAL/MOL
REMARK 924 INTRA-LIGAND FREE ENERGY PREDICTED BY IDOCK:   -0.38 KCAL/MOL
REMARK 927      BINDING AFFINITY PREDICTED BY RF-SCORE:    0.00 PKD
ROOT
HETATM    1  C   UNL     1     -11.874   6.551  71.001  1.00  0.00    -0.330 C  
HETATM    2  O   UNL     1     -11.823   7.008  72.139  1.00  0.00    -0.283 OA 
HETATM    3  C   UNL     1     -10.810   5.650  70.425  1.00  0.00    -0.326 C  
HETATM    4  C   UNL     1     -10.064   6.277  69.238  1.00  0.00    -0.213 C  
HETATM    5  C   UNL     1     -10.999   6.521  68.048  1.00  0.00    -0.368 C  
HETATM    6  C   UNL     1      -9.312   7.576  69.594  1.00  0.00    -0.153 C  
ENDROOT
BRANCH   6   7
HETATM    7  C   UNL     1      -8.282   7.453  70.727  1.00  0.00    -0.111 C  
BRANCH   7   8
HETATM    8  C   UNL     1      -8.729   8.130  72.027  1.00  0.00    -0.221 C  
HETATM    9  C   UNL     1      -8.222   7.465  73.322  1.00  0.00    -0.116 C  
HETATM   10  O   UNL     1      -8.772   8.203  74.423  1.00  0.00    -0.409 OA 
HETATM   11  C   UNL     1      -8.683   6.013  73.458  1.00  0.00    -0.125 C  
HETATM   12  C   UNL     1      -6.701   7.559  73.455  1.00  0.00    -0.079 C  
HETATM   13  H   UNL     1      -8.459   7.793  75.221  1.00  0.00     0.000 HD 
ENDBRANCH   7   8
ENDBRANCH   6   7
TORSDOF 2
ENDMDL
MODEL      185
REMARK 921   NORMALIZED FREE ENERGY PREDICTED BY IDOCK:   -2.59 KCAL/MOL
REMARK 922        TOTAL FREE ENERGY PREDICTED BY IDOCK:   -3.11 KCAL/MOL
REMARK 923 INTER-LIGAND FREE ENERGY PREDICTED BY IDOCK:   -2.66 KCAL/MOL
REMARK 924 INTRA-LIGAND FREE ENERGY PREDICTED BY IDOCK:   -0.45 KCAL/MOL
REMARK 927      BINDING AFFINITY PREDICTED BY RF-SCORE:    0.00 PKD
ROOT
HETATM    1  C   UNL     1     -10.778   5.779  67.717  1.00  0.00    -0.223 C  
HETATM    2  O   UNL     1     -10.706   6.537  66.754  1.00  0.00    -0.291 OA 
HETATM    3  C   UNL     1     -11.173   6.235  69.099  1.00  0.00    -0.439 C  
HETATM    4  C   UNL     1     -10.045   6.083  70.131  1.00  0.00    -0.249 C  
HETATM    5  C   UNL     1      -9.665   4.614  70.342  1.00  0.00    -0.292 C  
HETATM    6  C   UNL     1      -8.787   6.912  69.801  1.00  0.00    -0.141 C  
ENDROOT
BRANCH   6   7
HETATM    7  C   UNL     1      -9.014   8.422  69.638  1.00  0.00    -0.145 C  
BRANCH   7   8
HETATM    8  C   UNL     1      -8.724   8.930  68.222  1.00  0.00    -0.134 C  
HETATM    9  C   UNL     1      -9.509  10.187  67.799  1.00  0.00    -0.144 C  
HETATM   10  O   UNL     1      -9.142  10.483  66.444  1.00  0.00    -0.157 OA 
HETATM   11  C   UNL     1     -11.023   9.976  67.836  1.00  0.00    -0.311 C  
HETATM   12  C   UNL     1      -9.118  11.410  68.629  1.00  0.00    -0.138 C  
HETATM   13  H   UNL     1      -9.626  11.258  66.183  1.00  0.00     0.000 HD 
ENDBRANCH   7   8
ENDBRANCH   6   7
TORSDOF 2
ENDMDL
MODEL      186
REMARK 921   NORMALIZED FREE ENERGY PREDICTED BY IDOCK:   -2.58 KCAL/MOL
REMARK 922        TOTAL FREE ENERGY PREDICTED BY IDOCK:   -3.10 KCAL/MOL
REMARK 923 INTER-LIGAND FREE ENERGY PREDICTED BY IDOCK:   -3.05 KCAL/MOL
REMARK 924 INTRA-LIGAND FREE ENERGY PREDICTED BY IDOCK:   -0.05 KCAL/MOL
REMARK 927      BINDING AFFINITY PREDICTED BY RF-SCORE:    0.00 PKD
ROOT
HETATM    1  C   UNL     1      -9.295  10.151  68.890  1.00  0.00    -0.179 C  
HETATM    2  O   UNL     1      -9.067   9.593  69.959  1.00  0.00    -0.208 OA 
HETATM    3  C   UNL     1     -10.484   9.820  68.023  1.00  0.00    -0.271 C  
HETATM    4  C   UNL     1     -10.094   9.218  66.664  1.00  0.00    -0.341 C  
HETATM    5  C   UNL     1      -9.304  10.216  65.811  1.00  0.00    -0.239 C  
HETATM    6  C   UNL     1      -9.321   7.888  66.775  1.00  0.00    -0.232 C  
ENDROOT
BRANCH   6   7
HETATM    7  C   UNL     1     -10.037   6.770  67.546  1.00  0.00    -0.215 C  
BRANCH   7   8
HETATM    8  C   UNL     1     -10.876   5.856  66.647  1.00  0.00    -0.292 C  
HETATM    9  C   UNL     1     -10.120   4.659  66.036  1.00  0.00    -0.264 C  
HETATM   10  O   UNL     1     -11.046   3.951  65.199  1.00  0.00    -0.470 OA 
HETATM   11  C   UNL     1      -8.940   5.090  65.164  1.00  0.00    -0.143 C  
HETATM   12  C   UNL     1      -9.660   3.668  67.106  1.00  0.00    -0.194 C  
HETATM   13  H   UNL     1     -10.580   3.214  64.824  1.00  0.00     0.000 HD 
ENDBRANCH   7   8
ENDBRANCH   6   7
TORSDOF 2
ENDMDL
MODEL      187
REMARK 921   NORMALIZED FREE ENERGY PREDICTED BY IDOCK:   -2.55 KCAL/MOL
REMARK 922        TOTAL FREE ENERGY PREDICTED BY IDOCK:   -3.07 KCAL/MOL
REMARK 923 INTER-LIGAND FREE ENERGY PREDICTED BY IDOCK:   -2.73 KCAL/MOL
REMARK 924 INTRA-LIGAND FREE ENERGY PREDICTED BY IDOCK:   -0.35 KCAL/MOL
REMARK 927      BINDING AFFINITY PREDICTED BY RF-SCORE:    0.00 PKD
ROOT
HETATM    1  C   UNL     1      -8.915   7.989  66.566  1.00  0.00    -0.157 C  
HETATM    2  O   UNL     1      -8.991   8.716  65.580  1.00  0.00    -0.192 OA 
HETATM    3  C   UNL     1      -9.939   7.990  67.673  1.00  0.00    -0.234 C  
HETATM    4  C   UNL     1      -9.373   8.463  69.020  1.00  0.00    -0.147 C  
HETATM    5  C   UNL     1      -8.291   7.514  69.544  1.00  0.00    -0.131 C  
HETATM    6  C   UNL     1      -8.840   9.910  68.994  1.00  0.00    -0.156 C  
ENDROOT
BRANCH   6   7
HETATM    7  C   UNL     1      -9.852  10.980  68.558  1.00  0.00    -0.194 C  
BRANCH   7   8
HETATM    8  C   UNL     1      -9.301  11.937  67.496  1.00  0.00    -0.177 C  
HETATM    9  C   UNL     1     -10.361  12.767  66.744  1.00  0.00    -0.240 C  
HETATM   10  O   UNL     1      -9.669  13.562  65.772  1.00  0.00    -0.433 OA 
HETATM   11  C   UNL     1     -11.372  11.894  65.999  1.00  0.00    -0.375 C  
HETATM   12  C   UNL     1     -11.081  13.747  67.672  1.00  0.00    -0.292 C  
HETATM   13  H   UNL     1     -10.323  14.073  65.309  1.00  0.00     0.000 HD 
ENDBRANCH   7   8
ENDBRANCH   6   7
TORSDOF 2
ENDMDL
MODEL      188
REMARK 921   NORMALIZED FREE ENERGY PREDICTED BY IDOCK:   -2.54 KCAL/MOL
REMARK 922        TOTAL FREE ENERGY PREDICTED BY IDOCK:   -3.06 KCAL/MOL
REMARK 923 INTER-LIGAND FREE ENERGY PREDICTED BY IDOCK:   -2.81 KCAL/MOL
REMARK 924 INTRA-LIGAND FREE ENERGY PREDICTED BY IDOCK:   -0.25 KCAL/MOL
REMARK 927      BINDING AFFINITY PREDICTED BY RF-SCORE:    0.00 PKD
ROOT
HETATM    1  C   UNL     1      -7.282   9.583  67.688  1.00  0.00    -0.082 C  
HETATM    2  O   UNL     1      -7.783  10.556  68.242  1.00  0.00    -0.096 OA 
HETATM    3  C   UNL     1      -6.723   9.628  66.287  1.00  0.00    -0.076 C  
HETATM    4  C   UNL     1      -7.493   8.738  65.300  1.00  0.00    -0.086 C  
HETATM    5  C   UNL     1      -7.386   7.256  65.673  1.00  0.00    -0.075 C  
HETATM    6  C   UNL     1      -8.974   9.135  65.133  1.00  0.00    -0.238 C  
ENDROOT
BRANCH   6   7
HETATM    7  C   UNL     1      -9.223  10.583  64.684  1.00  0.00    -0.274 C  
BRANCH   7   8
HETATM    8  C   UNL     1     -10.702  10.893  64.431  1.00  0.00    -0.250 C  
HETATM    9  C   UNL     1     -11.224  12.189  65.082  1.00  0.00    -0.329 C  
HETATM   10  O   UNL     1     -12.622  12.287  64.775  1.00  0.00    -0.507 OA 
HETATM   11  C   UNL     1     -11.080  12.183  66.604  1.00  0.00    -0.353 C  
HETATM   12  C   UNL     1     -10.563  13.433  64.486  1.00  0.00    -0.441 C  
HETATM   13  H   UNL     1     -12.944  13.086  65.176  1.00  0.00     0.000 HD 
ENDBRANCH   7   8
ENDBRANCH   6   7
TORSDOF 2
ENDMDL
MODEL      189
REMARK 921   NORMALIZED FREE ENERGY PREDICTED BY IDOCK:   -2.52 KCAL/MOL
REMARK 922        TOTAL FREE ENERGY PREDICTED BY IDOCK:   -3.04 KCAL/MOL
REMARK 923 INTER-LIGAND FREE ENERGY PREDICTED BY IDOCK:   -2.65 KCAL/MOL
REMARK 924 INTRA-LIGAND FREE ENERGY PREDICTED BY IDOCK:   -0.38 KCAL/MOL
REMARK 927      BINDING AFFINITY PREDICTED BY RF-SCORE:    0.00 PKD
ROOT
HETATM    1  C   UNL     1      -6.405   5.997  72.535  1.00  0.00    -0.054 C  
HETATM    2  O   UNL     1      -5.908   5.624  71.477  1.00  0.00    -0.023 OA 
HETATM    3  C   UNL     1      -7.893   6.069  72.769  1.00  0.00    -0.107 C  
HETATM    4  C   UNL     1      -8.402   7.500  72.997  1.00  0.00    -0.166 C  
HETATM    5  C   UNL     1      -7.816   8.113  74.273  1.00  0.00    -0.291 C  
HETATM    6  C   UNL     1      -8.158   8.441  71.799  1.00  0.00    -0.192 C  
ENDROOT
BRANCH   6   7
HETATM    7  C   UNL     1      -8.763   7.982  70.464  1.00  0.00    -0.135 C  
BRANCH   7   8
HETATM    8  C   UNL     1     -10.281   7.784  70.522  1.00  0.00    -0.201 C  
HETATM    9  C   UNL     1     -10.822   6.597  69.702  1.00  0.00    -0.286 C  
HETATM   10  O   UNL     1     -12.250   6.598  69.842  1.00  0.00    -0.598 OA 
HETATM   11  C   UNL     1     -10.500   6.715  68.212  1.00  0.00    -0.249 C  
HETATM   12  C   UNL     1     -10.336   5.255  70.251  1.00  0.00    -0.350 C  
HETATM   13  H   UNL     1     -12.584   5.866  69.336  1.00  0.00     0.000 HD 
ENDBRANCH   7   8
ENDBRANCH   6   7
TORSDOF 2
ENDMDL
MODEL      190
REMARK 921   NORMALIZED FREE ENERGY PREDICTED BY IDOCK:   -2.52 KCAL/MOL
REMARK 922        TOTAL FREE ENERGY PREDICTED BY IDOCK:   -3.03 KCAL/MOL
REMARK 923 INTER-LIGAND FREE ENERGY PREDICTED BY IDOCK:   -2.82 KCAL/MOL
REMARK 924 INTRA-LIGAND FREE ENERGY PREDICTED BY IDOCK:   -0.21 KCAL/MOL
REMARK 927      BINDING AFFINITY PREDICTED BY RF-SCORE:    0.00 PKD
ROOT
HETATM    1  C   UNL     1      -7.695   6.051  66.282  1.00  0.00    -0.102 C  
HETATM    2  O   UNL     1      -8.174   5.540  67.289  1.00  0.00    -0.102 OA 
HETATM    3  C   UNL     1      -7.076   7.427  66.268  1.00  0.00    -0.070 C  
HETATM    4  C   UNL     1      -7.844   8.427  65.391  1.00  0.00    -0.108 C  
HETATM    5  C   UNL     1      -7.823   8.018  63.915  1.00  0.00    -0.142 C  
HETATM    6  C   UNL     1      -9.296   8.668  65.852  1.00  0.00    -0.262 C  
ENDROOT
BRANCH   6   7
HETATM    7  C   UNL     1      -9.457   9.158  67.299  1.00  0.00    -0.187 C  
BRANCH   7   8
HETATM    8  C   UNL     1     -10.888   9.592  67.635  1.00  0.00    -0.276 C  
HETATM    9  C   UNL     1     -11.019  10.563  68.825  1.00  0.00    -0.251 C  
HETATM   10  O   UNL     1     -12.417  10.819  69.015  1.00  0.00    -0.757 OA 
HETATM   11  C   UNL     1     -10.472   9.976  70.127  1.00  0.00    -0.338 C  
HETATM   12  C   UNL     1     -10.368  11.916  68.532  1.00  0.00    -0.228 C  
HETATM   13  H   UNL     1     -12.498  11.418  69.748  1.00  0.00     0.000 HD 
ENDBRANCH   7   8
ENDBRANCH   6   7
TORSDOF 2
ENDMDL
MODEL      191
REMARK 921   NORMALIZED FREE ENERGY PREDICTED BY IDOCK:   -2.51 KCAL/MOL
REMARK 922        TOTAL FREE ENERGY PREDICTED BY IDOCK:   -3.03 KCAL/MOL
REMARK 923 INTER-LIGAND FREE ENERGY PREDICTED BY IDOCK:   -2.74 KCAL/MOL
REMARK 924 INTRA-LIGAND FREE ENERGY PREDICTED BY IDOCK:   -0.29 KCAL/MOL
REMARK 927      BINDING AFFINITY PREDICTED BY RF-SCORE:    0.00 PKD
ROOT
HETATM    1  C   UNL     1     -12.126  11.663  70.251  1.00  0.00    -0.358 C  
HETATM    2  O   UNL     1     -12.732  11.122  71.170  1.00  0.00    -0.380 OA 
HETATM    3  C   UNL     1     -11.812  10.970  68.948  1.00  0.00    -0.378 C  
HETATM    4  C   UNL     1     -10.306  10.780  68.712  1.00  0.00    -0.209 C  
HETATM    5  C   UNL     1      -9.580  12.123  68.578  1.00  0.00    -0.137 C  
HETATM    6  C   UNL     1      -9.615   9.911  69.783  1.00  0.00    -0.261 C  
ENDROOT
BRANCH   6   7
HETATM    7  C   UNL     1     -10.198   8.502  69.966  1.00  0.00    -0.201 C  
BRANCH   7   8
HETATM    8  C   UNL     1      -9.956   7.584  68.764  1.00  0.00    -0.175 C  
HETATM    9  C   UNL     1      -9.570   6.133  69.110  1.00  0.00    -0.135 C  
HETATM   10  O   UNL     1      -9.343   5.445  67.872  1.00  0.00    -0.109 OA 
HETATM   11  C   UNL     1      -8.284   6.046  69.934  1.00  0.00    -0.118 C  
HETATM   12  C   UNL     1     -10.708   5.392  69.813  1.00  0.00    -0.280 C  
HETATM   13  H   UNL     1      -9.105   4.551  68.085  1.00  0.00     0.000 HD 
ENDBRANCH   7   8
ENDBRANCH   6   7
TORSDOF 2
ENDMDL
MODEL      192
REMARK 921   NORMALIZED FREE ENERGY PREDICTED BY IDOCK:   -2.51 KCAL/MOL
REMARK 922        TOTAL FREE ENERGY PREDICTED BY IDOCK:   -3.02 KCAL/MOL
REMARK 923 INTER-LIGAND FREE ENERGY PREDICTED BY IDOCK:   -2.81 KCAL/MOL
REMARK 924 INTRA-LIGAND FREE ENERGY PREDICTED BY IDOCK:   -0.21 KCAL/MOL
REMARK 927      BINDING AFFINITY PREDICTED BY RF-SCORE:    0.00 PKD
ROOT
HETATM    1  C   UNL     1      -9.568  12.798  66.909  1.00  0.00    -0.235 C  
HETATM    2  O   UNL     1     -10.731  12.804  67.302  1.00  0.00    -0.234 OA 
HETATM    3  C   UNL     1      -8.850  11.545  66.474  1.00  0.00    -0.190 C  
HETATM    4  C   UNL     1      -7.662  11.184  67.379  1.00  0.00    -0.120 C  
HETATM    5  C   UNL     1      -6.565  12.253  67.326  1.00  0.00    -0.146 C  
HETATM    6  C   UNL     1      -8.060  10.907  68.843  1.00  0.00    -0.144 C  
ENDROOT
BRANCH   6   7
HETATM    7  C   UNL     1      -9.102   9.798  69.046  1.00  0.00    -0.157 C  
BRANCH   7   8
HETATM    8  C   UNL     1      -9.290   9.404  70.515  1.00  0.00    -0.319 C  
HETATM    9  C   UNL     1     -10.735   9.058  70.925  1.00  0.00    -0.253 C  
HETATM   10  O   UNL     1     -10.721   8.761  72.328  1.00  0.00    -0.344 OA 
HETATM   11  C   UNL     1     -11.703  10.222  70.705  1.00  0.00    -0.453 C  
HETATM   12  C   UNL     1     -11.242   7.799  70.222  1.00  0.00    -0.215 C  
HETATM   13  H   UNL     1     -11.611   8.548  72.581  1.00  0.00     0.000 HD 
ENDBRANCH   7   8
ENDBRANCH   6   7
TORSDOF 2
ENDMDL
MODEL      193
REMARK 921   NORMALIZED FREE ENERGY PREDICTED BY IDOCK:   -2.50 KCAL/MOL
REMARK 922        TOTAL FREE ENERGY PREDICTED BY IDOCK:   -3.01 KCAL/MOL
REMARK 923 INTER-LIGAND FREE ENERGY PREDICTED BY IDOCK:   -2.68 KCAL/MOL
REMARK 924 INTRA-LIGAND FREE ENERGY PREDICTED BY IDOCK:   -0.33 KCAL/MOL
REMARK 927      BINDING AFFINITY PREDICTED BY RF-SCORE:    0.00 PKD
ROOT
HETATM    1  C   UNL     1     -12.265   8.103  71.346  1.00  0.00    -0.297 C  
HETATM    2  O   UNL     1     -12.261   8.649  72.445  1.00  0.00    -0.374 OA 
HETATM    3  C   UNL     1     -12.276   6.605  71.168  1.00  0.00    -0.357 C  
HETATM    4  C   UNL     1     -11.003   6.066  70.497  1.00  0.00    -0.388 C  
HETATM    5  C   UNL     1     -10.855   6.589  69.064  1.00  0.00    -0.357 C  
HETATM    6  C   UNL     1      -9.715   6.346  71.297  1.00  0.00    -0.189 C  
ENDROOT
BRANCH   6   7
HETATM    7  C   UNL     1      -9.699   5.805  72.734  1.00  0.00    -0.169 C  
BRANCH   7   8
HETATM    8  C   UNL     1      -8.489   4.915  73.033  1.00  0.00    -0.107 C  
HETATM    9  C   UNL     1      -8.805   3.420  73.238  1.00  0.00    -0.080 C  
HETATM   10  O   UNL     1      -7.569   2.761  73.548  1.00  0.00    -0.048 OA 
HETATM   11  C   UNL     1      -9.767   3.176  74.402  1.00  0.00    -0.141 C  
HETATM   12  C   UNL     1      -9.334   2.768  71.960  1.00  0.00    -0.176 C  
HETATM   13  H   UNL     1      -7.764   1.840  73.674  1.00  0.00     0.000 HD 
ENDBRANCH   7   8
ENDBRANCH   6   7
TORSDOF 2
ENDMDL
MODEL      194
REMARK 921   NORMALIZED FREE ENERGY PREDICTED BY IDOCK:   -2.49 KCAL/MOL
REMARK 922        TOTAL FREE ENERGY PREDICTED BY IDOCK:   -3.00 KCAL/MOL
REMARK 923 INTER-LIGAND FREE ENERGY PREDICTED BY IDOCK:   -3.00 KCAL/MOL
REMARK 924 INTRA-LIGAND FREE ENERGY PREDICTED BY IDOCK:   -0.01 KCAL/MOL
REMARK 927      BINDING AFFINITY PREDICTED BY RF-SCORE:    0.00 PKD
ROOT
HETATM    1  C   UNL     1      -7.710   5.893  69.052  1.00  0.00    -0.091 C  
HETATM    2  O   UNL     1      -7.380   6.043  70.225  1.00  0.00    -0.082 OA 
HETATM    3  C   UNL     1      -7.992   7.043  68.119  1.00  0.00    -0.119 C  
HETATM    4  C   UNL     1      -9.453   7.096  67.647  1.00  0.00    -0.141 C  
HETATM    5  C   UNL     1      -9.821   5.867  66.809  1.00  0.00    -0.191 C  
HETATM    6  C   UNL     1     -10.469   7.277  68.794  1.00  0.00    -0.214 C  
ENDROOT
BRANCH   6   7
HETATM    7  C   UNL     1     -10.260   8.521  69.671  1.00  0.00    -0.209 C  
BRANCH   7   8
HETATM    8  C   UNL     1     -10.480   8.253  71.163  1.00  0.00    -0.254 C  
HETATM    9  C   UNL     1     -11.951   8.263  71.624  1.00  0.00    -0.303 C  
HETATM   10  O   UNL     1     -11.955   8.041  73.042  1.00  0.00    -0.626 OA 
HETATM   11  C   UNL     1     -12.641   9.602  71.361  1.00  0.00    -0.463 C  
HETATM   12  C   UNL     1     -12.751   7.117  71.005  1.00  0.00    -0.303 C  
HETATM   13  H   UNL     1     -12.861   8.047  73.325  1.00  0.00     0.000 HD 
ENDBRANCH   7   8
ENDBRANCH   6   7
TORSDOF 2
ENDMDL
MODEL      195
REMARK 921   NORMALIZED FREE ENERGY PREDICTED BY IDOCK:   -2.47 KCAL/MOL
REMARK 922        TOTAL FREE ENERGY PREDICTED BY IDOCK:   -2.97 KCAL/MOL
REMARK 923 INTER-LIGAND FREE ENERGY PREDICTED BY IDOCK:   -2.58 KCAL/MOL
REMARK 924 INTRA-LIGAND FREE ENERGY PREDICTED BY IDOCK:   -0.40 KCAL/MOL
REMARK 927      BINDING AFFINITY PREDICTED BY RF-SCORE:    0.00 PKD
ROOT
HETATM    1  C   UNL     1     -10.268   6.041  69.684  1.00  0.00    -0.208 C  
HETATM    2  O   UNL     1     -10.650   6.846  70.527  1.00  0.00    -0.212 OA 
HETATM    3  C   UNL     1      -9.162   6.335  68.702  1.00  0.00    -0.124 C  
HETATM    4  C   UNL     1      -9.640   6.362  67.242  1.00  0.00    -0.143 C  
HETATM    5  C   UNL     1     -10.154   4.992  66.790  1.00  0.00    -0.270 C  
HETATM    6  C   UNL     1     -10.700   7.445  66.957  1.00  0.00    -0.389 C  
ENDROOT
BRANCH   6   7
HETATM    7  C   UNL     1     -10.283   8.884  67.295  1.00  0.00    -0.326 C  
BRANCH   7   8
HETATM    8  C   UNL     1      -9.289   9.478  66.292  1.00  0.00    -0.242 C  
HETATM    9  C   UNL     1      -8.229  10.421  66.894  1.00  0.00    -0.124 C  
HETATM   10  O   UNL     1      -7.426  10.908  65.809  1.00  0.00    -0.297 OA 
HETATM   11  C   UNL     1      -8.847  11.631  67.595  1.00  0.00    -0.159 C  
HETATM   12  C   UNL     1      -7.279   9.683  67.838  1.00  0.00    -0.081 C  
HETATM   13  H   UNL     1      -6.772  11.489  66.181  1.00  0.00     0.000 HD 
ENDBRANCH   7   8
ENDBRANCH   6   7
TORSDOF 2
ENDMDL
MODEL      196
REMARK 921   NORMALIZED FREE ENERGY PREDICTED BY IDOCK:   -2.46 KCAL/MOL
REMARK 922        TOTAL FREE ENERGY PREDICTED BY IDOCK:   -2.97 KCAL/MOL
REMARK 923 INTER-LIGAND FREE ENERGY PREDICTED BY IDOCK:   -2.59 KCAL/MOL
REMARK 924 INTRA-LIGAND FREE ENERGY PREDICTED BY IDOCK:   -0.38 KCAL/MOL
REMARK 927      BINDING AFFINITY PREDICTED BY RF-SCORE:    0.00 PKD
ROOT
HETATM    1  C   UNL     1      -8.523   5.012  73.262  1.00  0.00    -0.110 C  
HETATM    2  O   UNL     1      -8.737   6.115  73.754  1.00  0.00    -0.123 OA 
HETATM    3  C   UNL     1      -8.075   4.816  71.835  1.00  0.00    -0.109 C  
HETATM    4  C   UNL     1      -9.105   4.069  70.975  1.00  0.00    -0.179 C  
HETATM    5  C   UNL     1      -9.327   2.637  71.472  1.00  0.00    -0.199 C  
HETATM    6  C   UNL     1     -10.458   4.801  70.852  1.00  0.00    -0.107 C  
ENDROOT
BRANCH   6   7
HETATM    7  C   UNL     1     -10.388   6.229  70.290  1.00  0.00    -0.258 C  
BRANCH   7   8
HETATM    8  C   UNL     1     -11.254   7.228  71.065  1.00  0.00    -0.291 C  
HETATM    9  C   UNL     1     -10.731   8.678  71.081  1.00  0.00    -0.240 C  
HETATM   10  O   UNL     1     -11.639   9.449  71.882  1.00  0.00    -0.378 OA 
HETATM   11  C   UNL     1      -9.342   8.796  71.708  1.00  0.00    -0.350 C  
HETATM   12  C   UNL     1     -10.745   9.305  69.687  1.00  0.00    -0.244 C  
HETATM   13  H   UNL     1     -11.317  10.342  71.891  1.00  0.00     0.000 HD 
ENDBRANCH   7   8
ENDBRANCH   6   7
TORSDOF 2
ENDMDL
MODEL      197
REMARK 921   NORMALIZED FREE ENERGY PREDICTED BY IDOCK:   -2.44 KCAL/MOL
REMARK 922        TOTAL FREE ENERGY PREDICTED BY IDOCK:   -2.94 KCAL/MOL
REMARK 923 INTER-LIGAND FREE ENERGY PREDICTED BY IDOCK:   -3.74 KCAL/MOL
REMARK 924 INTRA-LIGAND FREE ENERGY PREDICTED BY IDOCK:    0.80 KCAL/MOL
REMARK 927      BINDING AFFINITY PREDICTED BY RF-SCORE:    0.00 PKD
ROOT
HETATM    1  C   UNL     1      -8.665  10.760  63.250  1.00  0.00    -0.143 C  
HETATM    2  O   UNL     1      -9.092  11.457  62.335  1.00  0.00    -0.296 OA 
HETATM    3  C   UNL     1      -9.561  10.012  64.206  1.00  0.00    -0.301 C  
HETATM    4  C   UNL     1      -9.451  10.510  65.655  1.00  0.00    -0.259 C  
HETATM    5  C   UNL     1      -8.051  10.274  66.229  1.00  0.00    -0.129 C  
HETATM    6  C   UNL     1      -9.854  11.988  65.834  1.00  0.00    -0.259 C  
ENDROOT
BRANCH   6   7
HETATM    7  C   UNL     1     -11.272  12.348  65.366  1.00  0.00    -0.358 C  
BRANCH   7   8
HETATM    8  C   UNL     1     -11.983  13.338  66.295  1.00  0.00    -0.471 C  
HETATM    9  C   UNL     1     -11.535  13.295  67.770  1.00  0.00    -0.317 C  
HETATM   10  O   UNL     1     -12.333  14.249  68.485  1.00  0.00    -0.572 OA 
HETATM   11  C   UNL     1     -11.757  11.926  68.413  1.00  0.00    -0.387 C  
HETATM   12  C   UNL     1     -10.080  13.737  67.937  1.00  0.00    -0.246 C  
HETATM   13  H   UNL     1     -12.056  14.222  69.393  1.00  0.00     0.000 HD 
ENDBRANCH   7   8
ENDBRANCH   6   7
TORSDOF 2
ENDMDL
MODEL      198
REMARK 921   NORMALIZED FREE ENERGY PREDICTED BY IDOCK:   -2.42 KCAL/MOL
REMARK 922        TOTAL FREE ENERGY PREDICTED BY IDOCK:   -2.93 KCAL/MOL
REMARK 923 INTER-LIGAND FREE ENERGY PREDICTED BY IDOCK:   -3.35 KCAL/MOL
REMARK 924 INTRA-LIGAND FREE ENERGY PREDICTED BY IDOCK:    0.43 KCAL/MOL
REMARK 927      BINDING AFFINITY PREDICTED BY RF-SCORE:    0.00 PKD
ROOT
HETATM    1  C   UNL     1      -8.275   3.881  69.571  1.00  0.00    -0.053 C  
HETATM    2  O   UNL     1      -8.203   4.497  68.512  1.00  0.00    -0.082 OA 
HETATM    3  C   UNL     1      -9.583   3.480  70.206  1.00  0.00    -0.232 C  
HETATM    4  C   UNL     1      -9.836   4.165  71.557  1.00  0.00    -0.255 C  
HETATM    5  C   UNL     1      -8.796   3.752  72.604  1.00  0.00    -0.106 C  
HETATM    6  C   UNL     1      -9.912   5.703  71.467  1.00  0.00    -0.230 C  
ENDROOT
BRANCH   6   7
HETATM    7  C   UNL     1     -10.972   6.257  70.504  1.00  0.00    -0.374 C  
BRANCH   7   8
HETATM    8  C   UNL     1     -12.215   6.800  71.218  1.00  0.00    -0.415 C  
HETATM    9  C   UNL     1     -11.948   7.918  72.246  1.00  0.00    -0.337 C  
HETATM   10  O   UNL     1     -13.209   8.264  72.836  1.00  0.00    -0.560 OA 
HETATM   11  C   UNL     1     -11.013   7.472  73.371  1.00  0.00    -0.259 C  
HETATM   12  C   UNL     1     -11.418   9.189  71.581  1.00  0.00    -0.451 C  
HETATM   13  H   UNL     1     -13.044   8.953  73.469  1.00  0.00     0.000 HD 
ENDBRANCH   7   8
ENDBRANCH   6   7
TORSDOF 2
ENDMDL
MODEL      199
REMARK 921   NORMALIZED FREE ENERGY PREDICTED BY IDOCK:   -2.42 KCAL/MOL
REMARK 922        TOTAL FREE ENERGY PREDICTED BY IDOCK:   -2.92 KCAL/MOL
REMARK 923 INTER-LIGAND FREE ENERGY PREDICTED BY IDOCK:   -2.81 KCAL/MOL
REMARK 924 INTRA-LIGAND FREE ENERGY PREDICTED BY IDOCK:   -0.11 KCAL/MOL
REMARK 927      BINDING AFFINITY PREDICTED BY RF-SCORE:    0.00 PKD
ROOT
HETATM    1  C   UNL     1     -12.154   6.392  71.538  1.00  0.00    -0.231 C  
HETATM    2  O   UNL     1     -13.197   6.844  71.076  1.00  0.00    -0.234 OA 
HETATM    3  C   UNL     1     -10.813   7.058  71.357  1.00  0.00    -0.253 C  
HETATM    4  C   UNL     1      -9.827   6.218  70.532  1.00  0.00    -0.207 C  
HETATM    5  C   UNL     1      -9.473   4.905  71.239  1.00  0.00    -0.214 C  
HETATM    6  C   UNL     1     -10.308   5.932  69.095  1.00  0.00    -0.303 C  
ENDROOT
BRANCH   6   7
HETATM    7  C   UNL     1     -10.625   7.171  68.245  1.00  0.00    -0.230 C  
BRANCH   7   8
HETATM    8  C   UNL     1      -9.666   8.339  68.495  1.00  0.00    -0.165 C  
HETATM    9  C   UNL     1      -9.929   9.601  67.649  1.00  0.00    -0.174 C  
HETATM   10  O   UNL     1      -8.916  10.559  67.985  1.00  0.00    -0.131 OA 
HETATM   11  C   UNL     1      -9.834   9.331  66.146  1.00  0.00    -0.363 C  
HETATM   12  C   UNL     1     -11.270  10.250  67.993  1.00  0.00    -0.303 C  
HETATM   13  H   UNL     1      -9.078  11.336  67.464  1.00  0.00     0.000 HD 
ENDBRANCH   7   8
ENDBRANCH   6   7
TORSDOF 2
ENDMDL
MODEL      200
REMARK 921   NORMALIZED FREE ENERGY PREDICTED BY IDOCK:   -2.41 KCAL/MOL
REMARK 922        TOTAL FREE ENERGY PREDICTED BY IDOCK:   -2.92 KCAL/MOL
REMARK 923 INTER-LIGAND FREE ENERGY PREDICTED BY IDOCK:   -2.55 KCAL/MOL
REMARK 924 INTRA-LIGAND FREE ENERGY PREDICTED BY IDOCK:   -0.37 KCAL/MOL
REMARK 927      BINDING AFFINITY PREDICTED BY RF-SCORE:    0.00 PKD
ROOT
HETATM    1  C   UNL     1     -10.134  15.325  65.737  1.00  0.00    -0.356 C  
HETATM    2  O   UNL     1      -9.991  14.222  66.256  1.00  0.00    -0.284 OA 
HETATM    3  C   UNL     1      -9.099  16.419  65.824  1.00  0.00    -0.078 C  
HETATM    4  C   UNL     1      -9.586  17.653  66.599  1.00  0.00    -0.301 C  
HETATM    5  C   UNL     1     -10.761  18.337  65.894  1.00  0.00    -0.168 C  
HETATM    6  C   UNL     1      -9.950  17.357  68.068  1.00  0.00    -0.302 C  
ENDROOT
BRANCH   6   7
HETATM    7  C   UNL     1      -8.830  16.736  68.915  1.00  0.00    -0.228 C  
BRANCH   7   8
HETATM    8  C   UNL     1      -7.595  17.635  69.039  1.00  0.00    -0.155 C  
HETATM    9  C   UNL     1      -6.239  16.911  68.922  1.00  0.00    -0.173 C  
HETATM   10  O   UNL     1      -5.213  17.896  69.105  1.00  0.00    -0.171 OA 
HETATM   11  C   UNL     1      -6.051  15.837  69.995  1.00  0.00    -0.143 C  
HETATM   12  C   UNL     1      -6.027  16.319  67.528  1.00  0.00    -0.188 C  
HETATM   13  H   UNL     1      -4.377  17.450  69.033  1.00  0.00     0.000 HD 
ENDBRANCH   7   8
ENDBRANCH   6   7
TORSDOF 2
ENDMDL
MODEL      201
REMARK 921   NORMALIZED FREE ENERGY PREDICTED BY IDOCK:   -2.41 KCAL/MOL
REMARK 922        TOTAL FREE ENERGY PREDICTED BY IDOCK:   -2.91 KCAL/MOL
REMARK 923 INTER-LIGAND FREE ENERGY PREDICTED BY IDOCK:   -3.06 KCAL/MOL
REMARK 924 INTRA-LIGAND FREE ENERGY PREDICTED BY IDOCK:    0.15 KCAL/MOL
REMARK 927      BINDING AFFINITY PREDICTED BY RF-SCORE:    0.00 PKD
ROOT
HETATM    1  C   UNL     1      -8.977  17.060  66.420  1.00  0.00    -0.275 C  
HETATM    2  O   UNL     1      -8.341  16.290  67.133  1.00  0.00    -0.169 OA 
HETATM    3  C   UNL     1      -8.473  18.425  66.025  1.00  0.00    -0.037 C  
HETATM    4  C   UNL     1      -9.328  19.572  66.585  1.00  0.00    -0.430 C  
HETATM    5  C   UNL     1     -10.751  19.545  66.017  1.00  0.00    -0.529 C  
HETATM    6  C   UNL     1      -9.374  19.614  68.126  1.00  0.00    -0.433 C  
ENDROOT
BRANCH   6   7
HETATM    7  C   UNL     1      -8.011  19.719  68.825  1.00  0.00    -0.242 C  
BRANCH   7   8
HETATM    8  C   UNL     1      -7.392  18.357  69.154  1.00  0.00    -0.155 C  
HETATM    9  C   UNL     1      -5.854  18.341  69.263  1.00  0.00    -0.234 C  
HETATM   10  O   UNL     1      -5.460  16.987  69.529  1.00  0.00    -0.152 OA 
HETATM   11  C   UNL     1      -5.168  18.780  67.969  1.00  0.00    -0.175 C  
HETATM   12  C   UNL     1      -5.357  19.176  70.444  1.00  0.00    -0.231 C  
HETATM   13  H   UNL     1      -4.513  16.978  69.597  1.00  0.00     0.000 HD 
ENDBRANCH   7   8
ENDBRANCH   6   7
TORSDOF 2
ENDMDL
MODEL      202
REMARK 921   NORMALIZED FREE ENERGY PREDICTED BY IDOCK:   -2.40 KCAL/MOL
REMARK 922        TOTAL FREE ENERGY PREDICTED BY IDOCK:   -2.90 KCAL/MOL
REMARK 923 INTER-LIGAND FREE ENERGY PREDICTED BY IDOCK:   -2.65 KCAL/MOL
REMARK 924 INTRA-LIGAND FREE ENERGY PREDICTED BY IDOCK:   -0.25 KCAL/MOL
REMARK 927      BINDING AFFINITY PREDICTED BY RF-SCORE:    0.00 PKD
ROOT
HETATM    1  C   UNL     1      -9.322   6.163  72.880  1.00  0.00    -0.143 C  
HETATM    2  O   UNL     1      -8.240   6.556  73.303  1.00  0.00    -0.116 OA 
HETATM    3  C   UNL     1      -9.728   6.260  71.431  1.00  0.00    -0.191 C  
HETATM    4  C   UNL     1     -10.925   7.194  71.198  1.00  0.00    -0.272 C  
HETATM    5  C   UNL     1     -12.192   6.669  71.882  1.00  0.00    -0.381 C  
HETATM    6  C   UNL     1     -10.663   8.654  71.619  1.00  0.00    -0.374 C  
ENDROOT
BRANCH   6   7
HETATM    7  C   UNL     1      -9.459   9.330  70.946  1.00  0.00    -0.330 C  
BRANCH   7   8
HETATM    8  C   UNL     1      -9.413   9.115  69.430  1.00  0.00    -0.161 C  
HETATM    9  C   UNL     1      -9.584  10.389  68.579  1.00  0.00    -0.158 C  
HETATM   10  O   UNL     1      -9.558   9.988  67.202  1.00  0.00    -0.158 OA 
HETATM   11  C   UNL     1     -10.916  11.093  68.834  1.00  0.00    -0.276 C  
HETATM   12  C   UNL     1      -8.419  11.361  68.768  1.00  0.00    -0.089 C  
HETATM   13  H   UNL     1      -9.663  10.773  66.677  1.00  0.00     0.000 HD 
ENDBRANCH   7   8
ENDBRANCH   6   7
TORSDOF 2
ENDMDL
MODEL      203
REMARK 921   NORMALIZED FREE ENERGY PREDICTED BY IDOCK:   -2.39 KCAL/MOL
REMARK 922        TOTAL FREE ENERGY PREDICTED BY IDOCK:   -2.89 KCAL/MOL
REMARK 923 INTER-LIGAND FREE ENERGY PREDICTED BY IDOCK:   -2.57 KCAL/MOL
REMARK 924 INTRA-LIGAND FREE ENERGY PREDICTED BY IDOCK:   -0.32 KCAL/MOL
REMARK 927      BINDING AFFINITY PREDICTED BY RF-SCORE:    0.00 PKD
ROOT
HETATM    1  C   UNL     1      -5.511  10.183  69.273  1.00  0.00    -0.038 C  
HETATM    2  O   UNL     1      -5.552  11.148  70.031  1.00  0.00    -0.065 OA 
HETATM    3  C   UNL     1      -6.572   9.899  68.240  1.00  0.00    -0.055 C  
HETATM    4  C   UNL     1      -7.339   8.594  68.504  1.00  0.00    -0.085 C  
HETATM    5  C   UNL     1      -6.422   7.370  68.411  1.00  0.00    -0.045 C  
HETATM    6  C   UNL     1      -8.101   8.584  69.845  1.00  0.00    -0.118 C  
ENDROOT
BRANCH   6   7
HETATM    7  C   UNL     1      -9.115   9.721  70.038  1.00  0.00    -0.258 C  
BRANCH   7   8
HETATM    8  C   UNL     1     -10.245   9.707  69.004  1.00  0.00    -0.209 C  
HETATM    9  C   UNL     1     -11.102  10.987  68.947  1.00  0.00    -0.239 C  
HETATM   10  O   UNL     1     -12.124  10.773  67.963  1.00  0.00    -0.778 OA 
HETATM   11  C   UNL     1     -11.793  11.291  70.277  1.00  0.00    -0.446 C  
HETATM   12  C   UNL     1     -10.293  12.195  68.475  1.00  0.00    -0.233 C  
HETATM   13  H   UNL     1     -12.652  11.561  67.928  1.00  0.00     0.000 HD 
ENDBRANCH   7   8
ENDBRANCH   6   7
TORSDOF 2
ENDMDL
MODEL      204
REMARK 921   NORMALIZED FREE ENERGY PREDICTED BY IDOCK:   -2.38 KCAL/MOL
REMARK 922        TOTAL FREE ENERGY PREDICTED BY IDOCK:   -2.88 KCAL/MOL
REMARK 923 INTER-LIGAND FREE ENERGY PREDICTED BY IDOCK:   -2.89 KCAL/MOL
REMARK 924 INTRA-LIGAND FREE ENERGY PREDICTED BY IDOCK:    0.01 KCAL/MOL
REMARK 927      BINDING AFFINITY PREDICTED BY RF-SCORE:    0.00 PKD
ROOT
HETATM    1  C   UNL     1     -11.621   9.255  70.521  1.00  0.00    -0.217 C  
HETATM    2  O   UNL     1     -11.332  10.165  71.291  1.00  0.00    -0.325 OA 
HETATM    3  C   UNL     1     -12.205   7.941  70.978  1.00  0.00    -0.214 C  
HETATM    4  C   UNL     1     -11.281   6.743  70.713  1.00  0.00    -0.352 C  
HETATM    5  C   UNL     1     -11.055   6.524  69.214  1.00  0.00    -0.393 C  
HETATM    6  C   UNL     1      -9.926   6.833  71.445  1.00  0.00    -0.191 C  
ENDROOT
BRANCH   6   7
HETATM    7  C   UNL     1     -10.008   6.978  72.972  1.00  0.00    -0.227 C  
BRANCH   7   8
HETATM    8  C   UNL     1      -9.163   8.134  73.516  1.00  0.00    -0.257 C  
HETATM    9  C   UNL     1      -7.652   7.850  73.628  1.00  0.00    -0.154 C  
HETATM   10  O   UNL     1      -7.039   9.018  74.191  1.00  0.00    -0.392 OA 
HETATM   11  C   UNL     1      -7.342   6.671  74.551  1.00  0.00    -0.102 C  
HETATM   12  C   UNL     1      -7.007   7.642  72.257  1.00  0.00    -0.066 C  
HETATM   13  H   UNL     1      -6.108   8.843  74.260  1.00  0.00     0.000 HD 
ENDBRANCH   7   8
ENDBRANCH   6   7
TORSDOF 2
ENDMDL
MODEL      205
REMARK 921   NORMALIZED FREE ENERGY PREDICTED BY IDOCK:   -2.35 KCAL/MOL
REMARK 922        TOTAL FREE ENERGY PREDICTED BY IDOCK:   -2.85 KCAL/MOL
REMARK 923 INTER-LIGAND FREE ENERGY PREDICTED BY IDOCK:   -2.56 KCAL/MOL
REMARK 924 INTRA-LIGAND FREE ENERGY PREDICTED BY IDOCK:   -0.29 KCAL/MOL
REMARK 927      BINDING AFFINITY PREDICTED BY RF-SCORE:    0.00 PKD
ROOT
HETATM    1  C   UNL     1     -10.442  11.334  65.059  1.00  0.00    -0.298 C  
HETATM    2  O   UNL     1      -9.856  10.273  64.869  1.00  0.00    -0.299 OA 
HETATM    3  C   UNL     1      -9.798  12.526  65.723  1.00  0.00    -0.244 C  
HETATM    4  C   UNL     1     -10.448  12.895  67.066  1.00  0.00    -0.244 C  
HETATM    5  C   UNL     1     -11.904  13.337  66.887  1.00  0.00    -0.446 C  
HETATM    6  C   UNL     1     -10.362  11.776  68.124  1.00  0.00    -0.213 C  
ENDROOT
BRANCH   6   7
HETATM    7  C   UNL     1      -8.944  11.289  68.457  1.00  0.00    -0.166 C  
BRANCH   7   8
HETATM    8  C   UNL     1      -8.914  10.203  69.537  1.00  0.00    -0.205 C  
HETATM    9  C   UNL     1      -8.326   8.849  69.094  1.00  0.00    -0.124 C  
HETATM   10  O   UNL     1      -8.421   7.956  70.213  1.00  0.00    -0.125 OA 
HETATM   11  C   UNL     1      -9.098   8.224  67.932  1.00  0.00    -0.137 C  
HETATM   12  C   UNL     1      -6.839   8.957  68.753  1.00  0.00    -0.062 C  
HETATM   13  H   UNL     1      -8.058   7.122  69.940  1.00  0.00     0.000 HD 
ENDBRANCH   7   8
ENDBRANCH   6   7
TORSDOF 2
ENDMDL
MODEL      206
REMARK 921   NORMALIZED FREE ENERGY PREDICTED BY IDOCK:   -2.34 KCAL/MOL
REMARK 922        TOTAL FREE ENERGY PREDICTED BY IDOCK:   -2.84 KCAL/MOL
REMARK 923 INTER-LIGAND FREE ENERGY PREDICTED BY IDOCK:   -2.60 KCAL/MOL
REMARK 924 INTRA-LIGAND FREE ENERGY PREDICTED BY IDOCK:   -0.23 KCAL/MOL
REMARK 927      BINDING AFFINITY PREDICTED BY RF-SCORE:    0.00 PKD
ROOT
HETATM    1  C   UNL     1      -6.326  11.403  68.217  1.00  0.00    -0.046 C  
HETATM    2  O   UNL     1      -6.646  12.480  68.711  1.00  0.00    -0.077 OA 
HETATM    3  C   UNL     1      -7.281  10.535  67.437  1.00  0.00    -0.092 C  
HETATM    4  C   UNL     1      -7.564   9.186  68.115  1.00  0.00    -0.084 C  
HETATM    5  C   UNL     1      -6.302   8.323  68.206  1.00  0.00    -0.051 C  
HETATM    6  C   UNL     1      -8.217   9.317  69.506  1.00  0.00    -0.121 C  
ENDROOT
BRANCH   6   7
HETATM    7  C   UNL     1      -9.539  10.098  69.545  1.00  0.00    -0.243 C  
BRANCH   7   8
HETATM    8  C   UNL     1     -10.775   9.195  69.608  1.00  0.00    -0.236 C  
HETATM    9  C   UNL     1     -11.496   9.160  70.970  1.00  0.00    -0.306 C  
HETATM   10  O   UNL     1     -12.589   8.239  70.850  1.00  0.00    -0.503 OA 
HETATM   11  C   UNL     1     -10.594   8.668  72.102  1.00  0.00    -0.411 C  
HETATM   12  C   UNL     1     -12.110  10.515  71.326  1.00  0.00    -0.432 C  
HETATM   13  H   UNL     1     -13.034   8.218  71.689  1.00  0.00     0.000 HD 
ENDBRANCH   7   8
ENDBRANCH   6   7
TORSDOF 2
ENDMDL
MODEL      207
REMARK 921   NORMALIZED FREE ENERGY PREDICTED BY IDOCK:   -2.32 KCAL/MOL
REMARK 922        TOTAL FREE ENERGY PREDICTED BY IDOCK:   -2.81 KCAL/MOL
REMARK 923 INTER-LIGAND FREE ENERGY PREDICTED BY IDOCK:   -2.40 KCAL/MOL
REMARK 924 INTRA-LIGAND FREE ENERGY PREDICTED BY IDOCK:   -0.42 KCAL/MOL
REMARK 927      BINDING AFFINITY PREDICTED BY RF-SCORE:    0.00 PKD
ROOT
HETATM    1  C   UNL     1      -8.866   3.027  68.076  1.00  0.00    -0.127 C  
HETATM    2  O   UNL     1      -9.437   2.886  69.153  1.00  0.00    -0.153 OA 
HETATM    3  C   UNL     1      -8.318   4.349  67.598  1.00  0.00    -0.099 C  
HETATM    4  C   UNL     1      -9.023   4.877  66.340  1.00  0.00    -0.117 C  
HETATM    5  C   UNL     1      -8.804   3.952  65.138  1.00  0.00    -0.126 C  
HETATM    6  C   UNL     1     -10.530   5.138  66.538  1.00  0.00    -0.346 C  
ENDROOT
BRANCH   6   7
HETATM    7  C   UNL     1     -10.889   6.114  67.668  1.00  0.00    -0.421 C  
BRANCH   7   8
HETATM    8  C   UNL     1     -10.454   7.555  67.385  1.00  0.00    -0.367 C  
HETATM    9  C   UNL     1      -9.897   8.325  68.599  1.00  0.00    -0.176 C  
HETATM   10  O   UNL     1      -9.587   9.654  68.155  1.00  0.00    -0.142 OA 
HETATM   11  C   UNL     1     -10.910   8.440  69.738  1.00  0.00    -0.184 C  
HETATM   12  C   UNL     1      -8.586   7.722  69.105  1.00  0.00    -0.138 C  
HETATM   13  H   UNL     1      -9.244  10.128  68.903  1.00  0.00     0.000 HD 
ENDBRANCH   7   8
ENDBRANCH   6   7
TORSDOF 2
ENDMDL
MODEL      208
REMARK 921   NORMALIZED FREE ENERGY PREDICTED BY IDOCK:   -2.30 KCAL/MOL
REMARK 922        TOTAL FREE ENERGY PREDICTED BY IDOCK:   -2.79 KCAL/MOL
REMARK 923 INTER-LIGAND FREE ENERGY PREDICTED BY IDOCK:   -2.50 KCAL/MOL
REMARK 924 INTRA-LIGAND FREE ENERGY PREDICTED BY IDOCK:   -0.28 KCAL/MOL
REMARK 927      BINDING AFFINITY PREDICTED BY RF-SCORE:    0.00 PKD
ROOT
HETATM    1  C   UNL     1     -11.835  10.942  70.920  1.00  0.00    -0.258 C  
HETATM    2  O   UNL     1     -11.503   9.877  71.430  1.00  0.00    -0.371 OA 
HETATM    3  C   UNL     1     -12.293  11.065  69.488  1.00  0.00    -0.266 C  
HETATM    4  C   UNL     1     -11.346  11.908  68.620  1.00  0.00    -0.331 C  
HETATM    5  C   UNL     1     -11.288  13.363  69.096  1.00  0.00    -0.333 C  
HETATM    6  C   UNL     1      -9.920  11.329  68.516  1.00  0.00    -0.206 C  
ENDROOT
BRANCH   6   7
HETATM    7  C   UNL     1      -9.827   9.894  67.977  1.00  0.00    -0.170 C  
BRANCH   7   8
HETATM    8  C   UNL     1      -8.801   9.032  68.720  1.00  0.00    -0.137 C  
HETATM    9  C   UNL     1      -8.180   7.889  67.894  1.00  0.00    -0.129 C  
HETATM   10  O   UNL     1      -7.287   7.174  68.760  1.00  0.00    -0.091 OA 
HETATM   11  C   UNL     1      -9.225   6.897  67.383  1.00  0.00    -0.130 C  
HETATM   12  C   UNL     1      -7.330   8.416  66.738  1.00  0.00    -0.083 C  
HETATM   13  H   UNL     1      -6.904   6.469  68.251  1.00  0.00     0.000 HD 
ENDBRANCH   7   8
ENDBRANCH   6   7
TORSDOF 2
ENDMDL
MODEL      209
REMARK 921   NORMALIZED FREE ENERGY PREDICTED BY IDOCK:   -2.30 KCAL/MOL
REMARK 922        TOTAL FREE ENERGY PREDICTED BY IDOCK:   -2.79 KCAL/MOL
REMARK 923 INTER-LIGAND FREE ENERGY PREDICTED BY IDOCK:   -2.49 KCAL/MOL
REMARK 924 INTRA-LIGAND FREE ENERGY PREDICTED BY IDOCK:   -0.30 KCAL/MOL
REMARK 927      BINDING AFFINITY PREDICTED BY RF-SCORE:    0.00 PKD
ROOT
HETATM    1  C   UNL     1     -12.013   8.941  71.754  1.00  0.00    -0.359 C  
HETATM    2  O   UNL     1     -12.377  10.085  71.501  1.00  0.00    -0.369 OA 
HETATM    3  C   UNL     1     -10.562   8.536  71.844  1.00  0.00    -0.392 C  
HETATM    4  C   UNL     1     -10.146   7.531  70.759  1.00  0.00    -0.192 C  
HETATM    5  C   UNL     1     -10.890   6.200  70.906  1.00  0.00    -0.342 C  
HETATM    6  C   UNL     1     -10.303   8.070  69.323  1.00  0.00    -0.224 C  
ENDROOT
BRANCH   6   7
HETATM    7  C   UNL     1      -9.541   9.367  69.016  1.00  0.00    -0.164 C  
BRANCH   7   8
HETATM    8  C   UNL     1      -8.132   9.126  68.463  1.00  0.00    -0.103 C  
HETATM    9  C   UNL     1      -7.153  10.306  68.619  1.00  0.00    -0.075 C  
HETATM   10  O   UNL     1      -5.914   9.914  68.011  1.00  0.00    -0.040 OA 
HETATM   11  C   UNL     1      -7.639  11.571  67.911  1.00  0.00    -0.113 C  
HETATM   12  C   UNL     1      -6.841  10.599  70.087  1.00  0.00    -0.119 C  
HETATM   13  H   UNL     1      -5.310  10.642  68.107  1.00  0.00     0.000 HD 
ENDBRANCH   7   8
ENDBRANCH   6   7
TORSDOF 2
ENDMDL
MODEL      210
REMARK 921   NORMALIZED FREE ENERGY PREDICTED BY IDOCK:   -2.28 KCAL/MOL
REMARK 922        TOTAL FREE ENERGY PREDICTED BY IDOCK:   -2.76 KCAL/MOL
REMARK 923 INTER-LIGAND FREE ENERGY PREDICTED BY IDOCK:   -2.52 KCAL/MOL
REMARK 924 INTRA-LIGAND FREE ENERGY PREDICTED BY IDOCK:   -0.24 KCAL/MOL
REMARK 927      BINDING AFFINITY PREDICTED BY RF-SCORE:    0.00 PKD
ROOT
HETATM    1  C   UNL     1     -10.773   5.464  68.229  1.00  0.00     0.003 C  
HETATM    2  O   UNL     1     -10.632   6.058  67.164  1.00  0.00    -0.231 OA 
HETATM    3  C   UNL     1     -11.239   6.139  69.495  1.00  0.00    -0.482 C  
HETATM    4  C   UNL     1     -10.176   6.144  70.604  1.00  0.00    -0.250 C  
HETATM    5  C   UNL     1      -9.835   4.724  71.068  1.00  0.00    -0.267 C  
HETATM    6  C   UNL     1      -8.886   6.899  70.222  1.00  0.00    -0.148 C  
ENDROOT
BRANCH   6   7
HETATM    7  C   UNL     1      -9.077   8.366  69.808  1.00  0.00    -0.153 C  
BRANCH   7   8
HETATM    8  C   UNL     1      -8.220   9.341  70.622  1.00  0.00    -0.224 C  
HETATM    9  C   UNL     1      -7.312  10.270  69.793  1.00  0.00    -0.165 C  
HETATM   10  O   UNL     1      -6.563  11.071  70.718  1.00  0.00    -0.467 OA 
HETATM   11  C   UNL     1      -6.313   9.499  68.929  1.00  0.00    -0.043 C  
HETATM   12  C   UNL     1      -8.122  11.244  68.936  1.00  0.00    -0.090 C  
HETATM   13  H   UNL     1      -6.004  11.643  70.206  1.00  0.00     0.000 HD 
ENDBRANCH   7   8
ENDBRANCH   6   7
TORSDOF 2
ENDMDL
MODEL      211
REMARK 921   NORMALIZED FREE ENERGY PREDICTED BY IDOCK:   -2.25 KCAL/MOL
REMARK 922        TOTAL FREE ENERGY PREDICTED BY IDOCK:   -2.73 KCAL/MOL
REMARK 923 INTER-LIGAND FREE ENERGY PREDICTED BY IDOCK:   -2.32 KCAL/MOL
REMARK 924 INTRA-LIGAND FREE ENERGY PREDICTED BY IDOCK:   -0.42 KCAL/MOL
REMARK 927      BINDING AFFINITY PREDICTED BY RF-SCORE:    0.00 PKD
ROOT
HETATM    1  C   UNL     1     -10.903   6.316  73.342  1.00  0.00    -0.214 C  
HETATM    2  O   UNL     1     -10.208   6.713  74.272  1.00  0.00    -0.349 OA 
HETATM    3  C   UNL     1     -10.350   5.996  71.976  1.00  0.00    -0.241 C  
HETATM    4  C   UNL     1     -10.884   6.924  70.874  1.00  0.00    -0.277 C  
HETATM    5  C   UNL     1     -12.396   6.766  70.686  1.00  0.00    -0.231 C  
HETATM    6  C   UNL     1     -10.530   8.410  71.090  1.00  0.00    -0.263 C  
ENDROOT
BRANCH   6   7
HETATM    7  C   UNL     1      -9.032   8.721  71.219  1.00  0.00    -0.295 C  
BRANCH   7   8
HETATM    8  C   UNL     1      -8.410   9.252  69.924  1.00  0.00    -0.161 C  
HETATM    9  C   UNL     1      -7.288   8.381  69.326  1.00  0.00    -0.071 C  
HETATM   10  O   UNL     1      -6.804   9.054  68.155  1.00  0.00    -0.067 OA 
HETATM   11  C   UNL     1      -6.108   8.204  70.282  1.00  0.00    -0.032 C  
HETATM   12  C   UNL     1      -7.808   7.021  68.859  1.00  0.00    -0.115 C  
HETATM   13  H   UNL     1      -6.112   8.517  67.787  1.00  0.00     0.000 HD 
ENDBRANCH   7   8
ENDBRANCH   6   7
TORSDOF 2
ENDMDL
MODEL      212
REMARK 921   NORMALIZED FREE ENERGY PREDICTED BY IDOCK:   -2.24 KCAL/MOL
REMARK 922        TOTAL FREE ENERGY PREDICTED BY IDOCK:   -2.72 KCAL/MOL
REMARK 923 INTER-LIGAND FREE ENERGY PREDICTED BY IDOCK:   -2.31 KCAL/MOL
REMARK 924 INTRA-LIGAND FREE ENERGY PREDICTED BY IDOCK:   -0.41 KCAL/MOL
REMARK 927      BINDING AFFINITY PREDICTED BY RF-SCORE:    0.00 PKD
ROOT
HETATM    1  C   UNL     1     -11.671  10.734  68.510  1.00  0.00    -0.189 C  
HETATM    2  O   UNL     1     -11.763  10.391  69.685  1.00  0.00    -0.248 OA 
HETATM    3  C   UNL     1     -11.034   9.876  67.446  1.00  0.00    -0.214 C  
HETATM    4  C   UNL     1      -9.760  10.495  66.852  1.00  0.00    -0.218 C  
HETATM    5  C   UNL     1     -10.058  11.805  66.115  1.00  0.00    -0.255 C  
HETATM    6  C   UNL     1      -8.637  10.715  67.887  1.00  0.00    -0.124 C  
ENDROOT
BRANCH   6   7
HETATM    7  C   UNL     1      -8.186   9.460  68.649  1.00  0.00    -0.112 C  
BRANCH   7   8
HETATM    8  C   UNL     1      -8.265   9.615  70.172  1.00  0.00    -0.206 C  
HETATM    9  C   UNL     1      -8.603   8.326  70.948  1.00  0.00    -0.137 C  
HETATM   10  O   UNL     1      -8.676   8.673  72.338  1.00  0.00    -0.336 OA 
HETATM   11  C   UNL     1      -9.954   7.734  70.544  1.00  0.00    -0.187 C  
HETATM   12  C   UNL     1      -7.498   7.277  70.821  1.00  0.00    -0.079 C  
HETATM   13  H   UNL     1      -8.885   7.879  72.816  1.00  0.00     0.000 HD 
ENDBRANCH   7   8
ENDBRANCH   6   7
TORSDOF 2
ENDMDL
MODEL      213
REMARK 921   NORMALIZED FREE ENERGY PREDICTED BY IDOCK:   -2.23 KCAL/MOL
REMARK 922        TOTAL FREE ENERGY PREDICTED BY IDOCK:   -2.71 KCAL/MOL
REMARK 923 INTER-LIGAND FREE ENERGY PREDICTED BY IDOCK:   -2.33 KCAL/MOL
REMARK 924 INTRA-LIGAND FREE ENERGY PREDICTED BY IDOCK:   -0.38 KCAL/MOL
REMARK 927      BINDING AFFINITY PREDICTED BY RF-SCORE:    0.00 PKD
ROOT
HETATM    1  C   UNL     1      -8.776   7.805  68.319  1.00  0.00    -0.127 C  
HETATM    2  O   UNL     1      -8.779   8.899  68.876  1.00  0.00    -0.133 OA 
HETATM    3  C   UNL     1      -9.585   6.629  68.805  1.00  0.00    -0.131 C  
HETATM    4  C   UNL     1      -8.718   5.451  69.276  1.00  0.00    -0.105 C  
HETATM    5  C   UNL     1      -7.895   4.860  68.127  1.00  0.00    -0.083 C  
HETATM    6  C   UNL     1      -7.796   5.797  70.464  1.00  0.00    -0.100 C  
ENDROOT
BRANCH   6   7
HETATM    7  C   UNL     1      -8.505   6.332  71.717  1.00  0.00    -0.129 C  
BRANCH   7   8
HETATM    8  C   UNL     1      -9.569   5.375  72.265  1.00  0.00    -0.179 C  
HETATM    9  C   UNL     1     -10.710   6.044  73.058  1.00  0.00    -0.252 C  
HETATM   10  O   UNL     1     -11.575   4.999  73.524  1.00  0.00    -0.462 OA 
HETATM   11  C   UNL     1     -10.206   6.812  74.280  1.00  0.00    -0.309 C  
HETATM   12  C   UNL     1     -11.566   6.950  72.171  1.00  0.00    -0.322 C  
HETATM   13  H   UNL     1     -12.278   5.412  74.012  1.00  0.00     0.000 HD 
ENDBRANCH   7   8
ENDBRANCH   6   7
TORSDOF 2
ENDMDL
MODEL      214
REMARK 921   NORMALIZED FREE ENERGY PREDICTED BY IDOCK:   -2.23 KCAL/MOL
REMARK 922        TOTAL FREE ENERGY PREDICTED BY IDOCK:   -2.71 KCAL/MOL
REMARK 923 INTER-LIGAND FREE ENERGY PREDICTED BY IDOCK:   -2.32 KCAL/MOL
REMARK 924 INTRA-LIGAND FREE ENERGY PREDICTED BY IDOCK:   -0.39 KCAL/MOL
REMARK 927      BINDING AFFINITY PREDICTED BY RF-SCORE:    0.00 PKD
ROOT
HETATM    1  C   UNL     1     -11.693  11.942  68.107  1.00  0.00    -0.320 C  
HETATM    2  O   UNL     1     -11.314  12.138  69.257  1.00  0.00    -0.256 OA 
HETATM    3  C   UNL     1     -11.232  10.774  67.272  1.00  0.00    -0.272 C  
HETATM    4  C   UNL     1     -10.418  11.195  66.039  1.00  0.00    -0.312 C  
HETATM    5  C   UNL     1     -11.261  12.015  65.058  1.00  0.00    -0.374 C  
HETATM    6  C   UNL     1      -9.120  11.953  66.383  1.00  0.00    -0.208 C  
ENDROOT
BRANCH   6   7
HETATM    7  C   UNL     1      -8.143  11.208  67.304  1.00  0.00    -0.137 C  
BRANCH   7   8
HETATM    8  C   UNL     1      -7.285  10.174  66.567  1.00  0.00    -0.104 C  
HETATM    9  C   UNL     1      -7.390   8.731  67.099  1.00  0.00    -0.080 C  
HETATM   10  O   UNL     1      -6.494   7.924  66.323  1.00  0.00    -0.045 OA 
HETATM   11  C   UNL     1      -6.973   8.613  68.566  1.00  0.00    -0.065 C  
HETATM   12  C   UNL     1      -8.788   8.147  66.891  1.00  0.00    -0.145 C  
HETATM   13  H   UNL     1      -6.559   7.035  66.651  1.00  0.00     0.000 HD 
ENDBRANCH   7   8
ENDBRANCH   6   7
TORSDOF 2
ENDMDL
MODEL      215
REMARK 921   NORMALIZED FREE ENERGY PREDICTED BY IDOCK:   -2.22 KCAL/MOL
REMARK 922        TOTAL FREE ENERGY PREDICTED BY IDOCK:   -2.69 KCAL/MOL
REMARK 923 INTER-LIGAND FREE ENERGY PREDICTED BY IDOCK:   -2.45 KCAL/MOL
REMARK 924 INTRA-LIGAND FREE ENERGY PREDICTED BY IDOCK:   -0.25 KCAL/MOL
REMARK 927      BINDING AFFINITY PREDICTED BY RF-SCORE:    0.00 PKD
ROOT
HETATM    1  C   UNL     1      -8.934   5.520  66.021  1.00  0.00    -0.152 C  
HETATM    2  O   UNL     1     -10.140   5.330  66.147  1.00  0.00    -0.183 OA 
HETATM    3  C   UNL     1      -8.174   6.553  66.815  1.00  0.00    -0.110 C  
HETATM    4  C   UNL     1      -7.590   7.675  65.944  1.00  0.00    -0.091 C  
HETATM    5  C   UNL     1      -6.539   7.142  64.965  1.00  0.00    -0.047 C  
HETATM    6  C   UNL     1      -8.657   8.488  65.182  1.00  0.00    -0.179 C  
ENDROOT
BRANCH   6   7
HETATM    7  C   UNL     1      -9.735   9.146  66.057  1.00  0.00    -0.358 C  
BRANCH   7   8
HETATM    8  C   UNL     1     -10.104  10.561  65.601  1.00  0.00    -0.333 C  
HETATM    9  C   UNL     1     -10.317  11.583  66.736  1.00  0.00    -0.226 C  
HETATM   10  O   UNL     1     -10.694  12.826  66.125  1.00  0.00    -0.269 OA 
HETATM   11  C   UNL     1     -11.438  11.176  67.692  1.00  0.00    -0.328 C  
HETATM   12  C   UNL     1      -9.025  11.856  67.509  1.00  0.00    -0.171 C  
HETATM   13  H   UNL     1     -10.825  13.455  66.824  1.00  0.00     0.000 HD 
ENDBRANCH   7   8
ENDBRANCH   6   7
TORSDOF 2
ENDMDL
MODEL      216
REMARK 921   NORMALIZED FREE ENERGY PREDICTED BY IDOCK:   -2.18 KCAL/MOL
REMARK 922        TOTAL FREE ENERGY PREDICTED BY IDOCK:   -2.66 KCAL/MOL
REMARK 923 INTER-LIGAND FREE ENERGY PREDICTED BY IDOCK:   -2.41 KCAL/MOL
REMARK 924 INTRA-LIGAND FREE ENERGY PREDICTED BY IDOCK:   -0.25 KCAL/MOL
REMARK 927      BINDING AFFINITY PREDICTED BY RF-SCORE:    0.00 PKD
ROOT
HETATM    1  C   UNL     1      -8.450   5.481  72.337  1.00  0.00    -0.118 C  
HETATM    2  O   UNL     1      -7.808   6.275  71.657  1.00  0.00    -0.099 OA 
HETATM    3  C   UNL     1      -9.815   4.972  71.945  1.00  0.00    -0.236 C  
HETATM    4  C   UNL     1     -10.924   5.407  72.915  1.00  0.00    -0.338 C  
HETATM    5  C   UNL     1     -10.717   4.814  74.313  1.00  0.00    -0.268 C  
HETATM    6  C   UNL     1     -11.100   6.936  73.010  1.00  0.00    -0.267 C  
ENDROOT
BRANCH   6   7
HETATM    7  C   UNL     1     -11.391   7.652  71.683  1.00  0.00    -0.286 C  
BRANCH   7   8
HETATM    8  C   UNL     1     -11.502   9.173  71.826  1.00  0.00    -0.452 C  
HETATM    9  C   UNL     1     -12.913   9.754  71.605  1.00  0.00    -0.419 C  
HETATM   10  O   UNL     1     -12.812  11.179  71.736  1.00  0.00    -0.422 OA 
HETATM   11  C   UNL     1     -13.462   9.452  70.210  1.00  0.00     0.873 C  
HETATM   12  C   UNL     1     -13.896   9.290  72.680  1.00  0.00    -0.379 C  
HETATM   13  H   UNL     1     -13.681  11.537  71.599  1.00  0.00     0.000 HD 
ENDBRANCH   7   8
ENDBRANCH   6   7
TORSDOF 2
ENDMDL
MODEL      217
REMARK 921   NORMALIZED FREE ENERGY PREDICTED BY IDOCK:   -2.15 KCAL/MOL
REMARK 922        TOTAL FREE ENERGY PREDICTED BY IDOCK:   -2.62 KCAL/MOL
REMARK 923 INTER-LIGAND FREE ENERGY PREDICTED BY IDOCK:   -2.34 KCAL/MOL
REMARK 924 INTRA-LIGAND FREE ENERGY PREDICTED BY IDOCK:   -0.28 KCAL/MOL
REMARK 927      BINDING AFFINITY PREDICTED BY RF-SCORE:    0.00 PKD
ROOT
HETATM    1  C   UNL     1      -8.061   6.042  66.515  1.00  0.00    -0.109 C  
HETATM    2  O   UNL     1      -8.349   5.262  67.418  1.00  0.00    -0.107 OA 
HETATM    3  C   UNL     1      -7.493   7.417  66.763  1.00  0.00    -0.096 C  
HETATM    4  C   UNL     1      -8.426   8.548  66.304  1.00  0.00    -0.130 C  
HETATM    5  C   UNL     1      -8.640   8.525  64.787  1.00  0.00    -0.106 C  
HETATM    6  C   UNL     1      -9.786   8.562  67.030  1.00  0.00    -0.289 C  
ENDROOT
BRANCH   6   7
HETATM    7  C   UNL     1      -9.718   8.661  68.562  1.00  0.00    -0.174 C  
BRANCH   7   8
HETATM    8  C   UNL     1     -10.685   7.709  69.274  1.00  0.00    -0.169 C  
HETATM    9  C   UNL     1     -11.008   8.073  70.737  1.00  0.00    -0.248 C  
HETATM   10  O   UNL     1     -11.883   7.056  71.245  1.00  0.00    -0.293 OA 
HETATM   11  C   UNL     1      -9.763   8.103  71.625  1.00  0.00    -0.238 C  
HETATM   12  C   UNL     1     -11.773   9.393  70.841  1.00  0.00    -0.378 C  
HETATM   13  H   UNL     1     -12.082   7.281  72.147  1.00  0.00     0.000 HD 
ENDBRANCH   7   8
ENDBRANCH   6   7
TORSDOF 2
ENDMDL
MODEL      218
REMARK 921   NORMALIZED FREE ENERGY PREDICTED BY IDOCK:   -2.14 KCAL/MOL
REMARK 922        TOTAL FREE ENERGY PREDICTED BY IDOCK:   -2.61 KCAL/MOL
REMARK 923 INTER-LIGAND FREE ENERGY PREDICTED BY IDOCK:   -2.40 KCAL/MOL
REMARK 924 INTRA-LIGAND FREE ENERGY PREDICTED BY IDOCK:   -0.21 KCAL/MOL
REMARK 927      BINDING AFFINITY PREDICTED BY RF-SCORE:    0.00 PKD
ROOT
HETATM    1  C   UNL     1     -12.475   7.008  71.773  1.00  0.00    -0.356 C  
HETATM    2  O   UNL     1     -12.745   7.125  70.582  1.00  0.00    -0.187 OA 
HETATM    3  C   UNL     1     -11.800   8.092  72.577  1.00  0.00    -0.419 C  
HETATM    4  C   UNL     1     -10.407   7.691  73.084  1.00  0.00    -0.411 C  
HETATM    5  C   UNL     1     -10.478   6.518  74.067  1.00  0.00    -0.306 C  
HETATM    6  C   UNL     1      -9.404   7.375  71.955  1.00  0.00    -0.157 C  
ENDROOT
BRANCH   6   7
HETATM    7  C   UNL     1      -9.179   8.502  70.936  1.00  0.00    -0.213 C  
BRANCH   7   8
HETATM    8  C   UNL     1      -7.753   9.061  70.957  1.00  0.00    -0.153 C  
HETATM    9  C   UNL     1      -6.862   8.637  69.772  1.00  0.00    -0.042 C  
HETATM   10  O   UNL     1      -5.567   9.215  69.984  1.00  0.00    -0.028 OA 
HETATM   11  C   UNL     1      -6.687   7.121  69.680  1.00  0.00    -0.049 C  
HETATM   12  C   UNL     1      -7.373   9.200  68.444  1.00  0.00    -0.078 C  
HETATM   13  H   UNL     1      -5.018   8.954  69.254  1.00  0.00     0.000 HD 
ENDBRANCH   7   8
ENDBRANCH   6   7
TORSDOF 2
ENDMDL
MODEL      219
REMARK 921   NORMALIZED FREE ENERGY PREDICTED BY IDOCK:   -2.13 KCAL/MOL
REMARK 922        TOTAL FREE ENERGY PREDICTED BY IDOCK:   -2.60 KCAL/MOL
REMARK 923 INTER-LIGAND FREE ENERGY PREDICTED BY IDOCK:   -2.31 KCAL/MOL
REMARK 924 INTRA-LIGAND FREE ENERGY PREDICTED BY IDOCK:   -0.30 KCAL/MOL
REMARK 927      BINDING AFFINITY PREDICTED BY RF-SCORE:    0.00 PKD
ROOT
HETATM    1  C   UNL     1      -8.947  12.866  66.868  1.00  0.00    -0.210 C  
HETATM    2  O   UNL     1      -8.063  12.318  66.215  1.00  0.00     0.179 OA 
HETATM    3  C   UNL     1      -9.297  12.469  68.280  1.00  0.00    -0.193 C  
HETATM    4  C   UNL     1     -10.716  11.897  68.414  1.00  0.00    -0.248 C  
HETATM    5  C   UNL     1     -11.782  12.942  68.069  1.00  0.00    -0.401 C  
HETATM    6  C   UNL     1     -10.947  10.614  67.590  1.00  0.00    -0.370 C  
ENDROOT
BRANCH   6   7
HETATM    7  C   UNL     1      -9.989   9.452  67.893  1.00  0.00    -0.220 C  
BRANCH   7   8
HETATM    8  C   UNL     1      -9.608   8.641  66.650  1.00  0.00    -0.285 C  
HETATM    9  C   UNL     1      -9.883   7.127  66.741  1.00  0.00    -0.205 C  
HETATM   10  O   UNL     1      -9.427   6.536  65.516  1.00  0.00    -0.361 OA 
HETATM   11  C   UNL     1      -9.127   6.460  67.891  1.00  0.00    -0.112 C  
HETATM   12  C   UNL     1     -11.379   6.824  66.836  1.00  0.00     0.119 C  
HETATM   13  H   UNL     1      -9.597   5.603  65.573  1.00  0.00     0.000 HD 
ENDBRANCH   7   8
ENDBRANCH   6   7
TORSDOF 2
ENDMDL
MODEL      220
REMARK 921   NORMALIZED FREE ENERGY PREDICTED BY IDOCK:   -2.13 KCAL/MOL
REMARK 922        TOTAL FREE ENERGY PREDICTED BY IDOCK:   -2.59 KCAL/MOL
REMARK 923 INTER-LIGAND FREE ENERGY PREDICTED BY IDOCK:   -2.42 KCAL/MOL
REMARK 924 INTRA-LIGAND FREE ENERGY PREDICTED BY IDOCK:   -0.17 KCAL/MOL
REMARK 927      BINDING AFFINITY PREDICTED BY RF-SCORE:    0.00 PKD
ROOT
HETATM    1  C   UNL     1      -8.574  11.366  68.136  1.00  0.00    -0.153 C  
HETATM    2  O   UNL     1      -7.831  11.105  67.195  1.00  0.00    -0.126 OA 
HETATM    3  C   UNL     1      -8.633  10.539  69.395  1.00  0.00    -0.100 C  
HETATM    4  C   UNL     1      -9.992   9.852  69.605  1.00  0.00    -0.255 C  
HETATM    5  C   UNL     1     -11.117  10.873  69.802  1.00  0.00    -0.328 C  
HETATM    6  C   UNL     1     -10.366   8.864  68.481  1.00  0.00    -0.229 C  
ENDROOT
BRANCH   6   7
HETATM    7  C   UNL     1      -9.354   7.737  68.228  1.00  0.00    -0.143 C  
BRANCH   7   8
HETATM    8  C   UNL     1      -8.920   7.014  69.508  1.00  0.00    -0.143 C  
HETATM    9  C   UNL     1      -9.702   5.726  69.834  1.00  0.00    -0.164 C  
HETATM   10  O   UNL     1      -9.190   5.220  71.075  1.00  0.00    -0.142 OA 
HETATM   11  C   UNL     1     -11.199   5.977  70.016  1.00  0.00    -0.425 C  
HETATM   12  C   UNL     1      -9.463   4.634  68.791  1.00  0.00    -0.214 C  
HETATM   13  H   UNL     1      -9.672   4.427  71.276  1.00  0.00     0.000 HD 
ENDBRANCH   7   8
ENDBRANCH   6   7
TORSDOF 2
ENDMDL
MODEL      221
REMARK 921   NORMALIZED FREE ENERGY PREDICTED BY IDOCK:   -2.12 KCAL/MOL
REMARK 922        TOTAL FREE ENERGY PREDICTED BY IDOCK:   -2.59 KCAL/MOL
REMARK 923 INTER-LIGAND FREE ENERGY PREDICTED BY IDOCK:   -2.18 KCAL/MOL
REMARK 924 INTRA-LIGAND FREE ENERGY PREDICTED BY IDOCK:   -0.41 KCAL/MOL
REMARK 927      BINDING AFFINITY PREDICTED BY RF-SCORE:    0.00 PKD
ROOT
HETATM    1  C   UNL     1      -8.961   6.039  68.832  1.00  0.00    -0.123 C  
HETATM    2  O   UNL     1      -9.002   6.967  69.634  1.00  0.00    -0.143 OA 
HETATM    3  C   UNL     1      -9.851   4.826  68.926  1.00  0.00    -0.230 C  
HETATM    4  C   UNL     1      -9.077   3.525  69.188  1.00  0.00    -0.203 C  
HETATM    5  C   UNL     1      -8.138   3.182  68.027  1.00  0.00    -0.083 C  
HETATM    6  C   UNL     1      -8.294   3.528  70.518  1.00  0.00    -0.087 C  
ENDROOT
BRANCH   6   7
HETATM    7  C   UNL     1      -9.133   3.785  71.778  1.00  0.00    -0.164 C  
BRANCH   7   8
HETATM    8  C   UNL     1      -8.854   5.146  72.425  1.00  0.00    -0.131 C  
HETATM    9  C   UNL     1     -10.054   5.793  73.144  1.00  0.00    -0.183 C  
HETATM   10  O   UNL     1      -9.617   7.065  73.642  1.00  0.00    -0.180 OA 
HETATM   11  C   UNL     1     -11.237   6.040  72.208  1.00  0.00    -0.341 C  
HETATM   12  C   UNL     1     -10.495   4.980  74.362  1.00  0.00    -0.313 C  
HETATM   13  H   UNL     1     -10.357   7.463  74.085  1.00  0.00     0.000 HD 
ENDBRANCH   7   8
ENDBRANCH   6   7
TORSDOF 2
ENDMDL
MODEL      222
REMARK 921   NORMALIZED FREE ENERGY PREDICTED BY IDOCK:   -2.12 KCAL/MOL
REMARK 922        TOTAL FREE ENERGY PREDICTED BY IDOCK:   -2.59 KCAL/MOL
REMARK 923 INTER-LIGAND FREE ENERGY PREDICTED BY IDOCK:   -2.38 KCAL/MOL
REMARK 924 INTRA-LIGAND FREE ENERGY PREDICTED BY IDOCK:   -0.21 KCAL/MOL
REMARK 927      BINDING AFFINITY PREDICTED BY RF-SCORE:    0.00 PKD
ROOT
HETATM    1  C   UNL     1      -9.979   5.455  66.455  1.00  0.00    -0.196 C  
HETATM    2  O   UNL     1     -11.145   5.569  66.089  1.00  0.00    -0.072 OA 
HETATM    3  C   UNL     1      -9.474   5.975  67.778  1.00  0.00    -0.112 C  
HETATM    4  C   UNL     1      -8.437   7.098  67.630  1.00  0.00    -0.120 C  
HETATM    5  C   UNL     1      -7.162   6.603  66.939  1.00  0.00    -0.077 C  
HETATM    6  C   UNL     1      -8.977   8.350  66.910  1.00  0.00    -0.168 C  
ENDROOT
BRANCH   6   7
HETATM    7  C   UNL     1     -10.216   8.997  67.547  1.00  0.00    -0.302 C  
BRANCH   7   8
HETATM    8  C   UNL     1      -9.875  10.135  68.514  1.00  0.00    -0.165 C  
HETATM    9  C   UNL     1     -10.086  11.557  67.957  1.00  0.00    -0.186 C  
HETATM   10  O   UNL     1      -9.678  12.480  68.977  1.00  0.00    -0.403 OA 
HETATM   11  C   UNL     1      -9.240  11.834  66.713  1.00  0.00    -0.196 C  
HETATM   12  C   UNL     1     -11.561  11.848  67.677  1.00  0.00    -0.382 C  
HETATM   13  H   UNL     1      -9.808  13.356  68.634  1.00  0.00     0.000 HD 
ENDBRANCH   7   8
ENDBRANCH   6   7
TORSDOF 2
ENDMDL
MODEL      223
REMARK 921   NORMALIZED FREE ENERGY PREDICTED BY IDOCK:   -2.10 KCAL/MOL
REMARK 922        TOTAL FREE ENERGY PREDICTED BY IDOCK:   -2.57 KCAL/MOL
REMARK 923 INTER-LIGAND FREE ENERGY PREDICTED BY IDOCK:   -2.29 KCAL/MOL
REMARK 924 INTRA-LIGAND FREE ENERGY PREDICTED BY IDOCK:   -0.27 KCAL/MOL
REMARK 927      BINDING AFFINITY PREDICTED BY RF-SCORE:    0.00 PKD
ROOT
HETATM    1  C   UNL     1      -6.913   9.552  67.984  1.00  0.00    -0.079 C  
HETATM    2  O   UNL     1      -6.907   9.680  69.205  1.00  0.00    -0.049 OA 
HETATM    3  C   UNL     1      -6.746  10.710  67.032  1.00  0.00    -0.086 C  
HETATM    4  C   UNL     1      -7.990  10.969  66.169  1.00  0.00    -0.129 C  
HETATM    5  C   UNL     1      -8.288   9.790  65.238  1.00  0.00    -0.146 C  
HETATM    6  C   UNL     1      -9.247  11.328  66.988  1.00  0.00    -0.173 C  
ENDROOT
BRANCH   6   7
HETATM    7  C   UNL     1      -9.109  12.546  67.912  1.00  0.00    -0.199 C  
BRANCH   7   8
HETATM    8  C   UNL     1      -9.460  13.870  67.226  1.00  0.00    -0.239 C  
HETATM    9  C   UNL     1     -10.414  14.788  68.015  1.00  0.00    -0.246 C  
HETATM   10  O   UNL     1     -10.660  15.946  67.204  1.00  0.00    -0.310 OA 
HETATM   11  C   UNL     1     -11.763  14.127  68.302  1.00  0.00    -0.383 C  
HETATM   12  C   UNL     1      -9.778  15.295  69.310  1.00  0.00    -0.254 C  
HETATM   13  H   UNL     1     -11.248  16.512  67.690  1.00  0.00     0.000 HD 
ENDBRANCH   7   8
ENDBRANCH   6   7
TORSDOF 2
ENDMDL
MODEL      224
REMARK 921   NORMALIZED FREE ENERGY PREDICTED BY IDOCK:   -2.08 KCAL/MOL
REMARK 922        TOTAL FREE ENERGY PREDICTED BY IDOCK:   -2.54 KCAL/MOL
REMARK 923 INTER-LIGAND FREE ENERGY PREDICTED BY IDOCK:   -2.28 KCAL/MOL
REMARK 924 INTRA-LIGAND FREE ENERGY PREDICTED BY IDOCK:   -0.26 KCAL/MOL
REMARK 927      BINDING AFFINITY PREDICTED BY RF-SCORE:    0.00 PKD
ROOT
HETATM    1  C   UNL     1     -11.410   6.261  71.153  1.00  0.00    -0.303 C  
HETATM    2  O   UNL     1     -12.032   6.617  70.157  1.00  0.00    -0.367 OA 
HETATM    3  C   UNL     1     -10.334   7.098  71.798  1.00  0.00    -0.216 C  
HETATM    4  C   UNL     1      -8.942   6.452  71.729  1.00  0.00    -0.139 C  
HETATM    5  C   UNL     1      -8.887   5.141  72.520  1.00  0.00    -0.129 C  
HETATM    6  C   UNL     1      -8.436   6.223  70.290  1.00  0.00    -0.134 C  
ENDROOT
BRANCH   6   7
HETATM    7  C   UNL     1      -8.367   7.477  69.407  1.00  0.00    -0.132 C  
BRANCH   7   8
HETATM    8  C   UNL     1      -9.353   7.447  68.234  1.00  0.00    -0.140 C  
HETATM    9  C   UNL     1      -8.725   7.181  66.852  1.00  0.00    -0.126 C  
HETATM   10  O   UNL     1      -9.784   7.232  65.885  1.00  0.00    -0.400 OA 
HETATM   11  C   UNL     1      -7.689   8.236  66.464  1.00  0.00    -0.092 C  
HETATM   12  C   UNL     1      -8.123   5.778  66.759  1.00  0.00    -0.102 C  
HETATM   13  H   UNL     1      -9.397   7.068  65.034  1.00  0.00     0.000 HD 
ENDBRANCH   7   8
ENDBRANCH   6   7
TORSDOF 2
ENDMDL
MODEL      225
REMARK 921   NORMALIZED FREE ENERGY PREDICTED BY IDOCK:   -2.07 KCAL/MOL
REMARK 922        TOTAL FREE ENERGY PREDICTED BY IDOCK:   -2.54 KCAL/MOL
REMARK 923 INTER-LIGAND FREE ENERGY PREDICTED BY IDOCK:   -2.29 KCAL/MOL
REMARK 924 INTRA-LIGAND FREE ENERGY PREDICTED BY IDOCK:   -0.25 KCAL/MOL
REMARK 927      BINDING AFFINITY PREDICTED BY RF-SCORE:    0.00 PKD
ROOT
HETATM    1  C   UNL     1      -5.654   6.559  69.453  1.00  0.00    -0.014 C  
HETATM    2  O   UNL     1      -5.859   7.632  68.893  1.00  0.00    -0.026 OA 
HETATM    3  C   UNL     1      -6.696   5.474  69.564  1.00  0.00    -0.059 C  
HETATM    4  C   UNL     1      -7.123   5.191  71.012  1.00  0.00    -0.059 C  
HETATM    5  C   UNL     1      -5.960   4.648  71.849  1.00  0.00    -0.016 C  
HETATM    6  C   UNL     1      -7.761   6.405  71.718  1.00  0.00    -0.096 C  
ENDROOT
BRANCH   6   7
HETATM    7  C   UNL     1      -8.991   7.005  71.021  1.00  0.00    -0.151 C  
BRANCH   7   8
HETATM    8  C   UNL     1      -9.906   7.785  71.970  1.00  0.00    -0.226 C  
HETATM    9  C   UNL     1     -11.264   7.121  72.271  1.00  0.00    -0.261 C  
HETATM   10  O   UNL     1     -11.991   8.008  73.132  1.00  0.00    -0.646 OA 
HETATM   11  C   UNL     1     -12.103   6.901  71.012  1.00  0.00    -0.429 C  
HETATM   12  C   UNL     1     -11.100   5.810  73.041  1.00  0.00    -0.305 C  
HETATM   13  H   UNL     1     -12.828   7.599  73.317  1.00  0.00     0.000 HD 
ENDBRANCH   7   8
ENDBRANCH   6   7
TORSDOF 2
ENDMDL
MODEL      226
REMARK 921   NORMALIZED FREE ENERGY PREDICTED BY IDOCK:   -2.07 KCAL/MOL
REMARK 922        TOTAL FREE ENERGY PREDICTED BY IDOCK:   -2.53 KCAL/MOL
REMARK 923 INTER-LIGAND FREE ENERGY PREDICTED BY IDOCK:   -2.22 KCAL/MOL
REMARK 924 INTRA-LIGAND FREE ENERGY PREDICTED BY IDOCK:   -0.31 KCAL/MOL
REMARK 927      BINDING AFFINITY PREDICTED BY RF-SCORE:    0.00 PKD
ROOT
HETATM    1  C   UNL     1     -11.536  12.093  69.228  1.00  0.00    -0.302 C  
HETATM    2  O   UNL     1     -11.369  10.902  69.472  1.00  0.00    -0.236 OA 
HETATM    3  C   UNL     1     -11.379  12.683  67.848  1.00  0.00    -0.337 C  
HETATM    4  C   UNL     1     -10.221  13.687  67.747  1.00  0.00    -0.242 C  
HETATM    5  C   UNL     1     -10.460  14.917  68.629  1.00  0.00    -0.242 C  
HETATM    6  C   UNL     1      -8.841  13.073  68.058  1.00  0.00    -0.191 C  
ENDROOT
BRANCH   6   7
HETATM    7  C   UNL     1      -8.440  11.873  67.188  1.00  0.00    -0.173 C  
BRANCH   7   8
HETATM    8  C   UNL     1      -8.168  10.602  67.999  1.00  0.00    -0.113 C  
HETATM    9  C   UNL     1      -7.589   9.419  67.197  1.00  0.00    -0.091 C  
HETATM   10  O   UNL     1      -7.444   8.318  68.104  1.00  0.00    -0.093 OA 
HETATM   11  C   UNL     1      -8.512   8.970  66.063  1.00  0.00    -0.138 C  
HETATM   12  C   UNL     1      -6.190   9.724  66.659  1.00  0.00    -0.064 C  
HETATM   13  H   UNL     1      -7.087   7.590  67.609  1.00  0.00     0.000 HD 
ENDBRANCH   7   8
ENDBRANCH   6   7
TORSDOF 2
ENDMDL
MODEL      227
REMARK 921   NORMALIZED FREE ENERGY PREDICTED BY IDOCK:   -2.07 KCAL/MOL
REMARK 922        TOTAL FREE ENERGY PREDICTED BY IDOCK:   -2.53 KCAL/MOL
REMARK 923 INTER-LIGAND FREE ENERGY PREDICTED BY IDOCK:   -2.30 KCAL/MOL
REMARK 924 INTRA-LIGAND FREE ENERGY PREDICTED BY IDOCK:   -0.23 KCAL/MOL
REMARK 927      BINDING AFFINITY PREDICTED BY RF-SCORE:    0.00 PKD
ROOT
HETATM    1  C   UNL     1     -11.301   6.137  71.366  1.00  0.00    -0.275 C  
HETATM    2  O   UNL     1     -12.009   6.759  70.579  1.00  0.00    -0.386 OA 
HETATM    3  C   UNL     1      -9.794   6.148  71.308  1.00  0.00    -0.204 C  
HETATM    4  C   UNL     1      -9.192   4.772  70.985  1.00  0.00    -0.194 C  
HETATM    5  C   UNL     1      -9.493   3.751  72.087  1.00  0.00    -0.194 C  
HETATM    6  C   UNL     1      -9.623   4.213  69.614  1.00  0.00    -0.277 C  
ENDROOT
BRANCH   6   7
HETATM    7  C   UNL     1      -9.308   5.109  68.407  1.00  0.00    -0.155 C  
BRANCH   7   8
HETATM    8  C   UNL     1      -8.224   4.532  67.490  1.00  0.00    -0.100 C  
HETATM    9  C   UNL     1      -8.352   4.909  66.001  1.00  0.00    -0.113 C  
HETATM   10  O   UNL     1      -7.287   4.249  65.301  1.00  0.00    -0.070 OA 
HETATM   11  C   UNL     1      -9.672   4.442  65.387  1.00  0.00    -0.203 C  
HETATM   12  C   UNL     1      -8.155   6.408  65.773  1.00  0.00    -0.127 C  
HETATM   13  H   UNL     1      -7.366   4.482  64.384  1.00  0.00     0.000 HD 
ENDBRANCH   7   8
ENDBRANCH   6   7
TORSDOF 2
ENDMDL
MODEL      228
REMARK 921   NORMALIZED FREE ENERGY PREDICTED BY IDOCK:   -2.07 KCAL/MOL
REMARK 922        TOTAL FREE ENERGY PREDICTED BY IDOCK:   -2.53 KCAL/MOL
REMARK 923 INTER-LIGAND FREE ENERGY PREDICTED BY IDOCK:   -2.33 KCAL/MOL
REMARK 924 INTRA-LIGAND FREE ENERGY PREDICTED BY IDOCK:   -0.20 KCAL/MOL
REMARK 927      BINDING AFFINITY PREDICTED BY RF-SCORE:    0.00 PKD
ROOT
HETATM    1  C   UNL     1      -6.933   4.200  71.245  1.00  0.00    -0.035 C  
HETATM    2  O   UNL     1      -6.170   4.934  70.626  1.00  0.00    -0.018 OA 
HETATM    3  C   UNL     1      -8.148   3.559  70.623  1.00  0.00    -0.062 C  
HETATM    4  C   UNL     1      -9.470   4.048  71.233  1.00  0.00    -0.233 C  
HETATM    5  C   UNL     1      -9.588   3.662  72.711  1.00  0.00    -0.180 C  
HETATM    6  C   UNL     1      -9.708   5.563  71.062  1.00  0.00    -0.229 C  
ENDROOT
BRANCH   6   7
HETATM    7  C   UNL     1      -9.692   6.074  69.614  1.00  0.00    -0.188 C  
BRANCH   7   8
HETATM    8  C   UNL     1     -10.586   7.299  69.395  1.00  0.00    -0.238 C  
HETATM    9  C   UNL     1     -10.383   8.032  68.053  1.00  0.00    -0.206 C  
HETATM   10  O   UNL     1     -11.265   9.163  68.047  1.00  0.00    -0.492 OA 
HETATM   11  C   UNL     1      -8.956   8.552  67.877  1.00  0.00    -0.139 C  
HETATM   12  C   UNL     1     -10.788   7.162  66.862  1.00  0.00    -0.307 C  
HETATM   13  H   UNL     1     -11.139   9.614  67.221  1.00  0.00     0.000 HD 
ENDBRANCH   7   8
ENDBRANCH   6   7
TORSDOF 2
ENDMDL
MODEL      229
REMARK 921   NORMALIZED FREE ENERGY PREDICTED BY IDOCK:   -2.05 KCAL/MOL
REMARK 922        TOTAL FREE ENERGY PREDICTED BY IDOCK:   -2.51 KCAL/MOL
REMARK 923 INTER-LIGAND FREE ENERGY PREDICTED BY IDOCK:   -2.31 KCAL/MOL
REMARK 924 INTRA-LIGAND FREE ENERGY PREDICTED BY IDOCK:   -0.20 KCAL/MOL
REMARK 927      BINDING AFFINITY PREDICTED BY RF-SCORE:    0.00 PKD
ROOT
HETATM    1  C   UNL     1     -10.277   5.725  67.235  1.00  0.00    -0.205 C  
HETATM    2  O   UNL     1     -10.091   5.092  66.200  1.00  0.00    -0.190 OA 
HETATM    3  C   UNL     1     -10.993   7.052  67.275  1.00  0.00    -0.372 C  
HETATM    4  C   UNL     1     -10.092   8.213  67.720  1.00  0.00    -0.260 C  
HETATM    5  C   UNL     1      -9.607   8.033  69.162  1.00  0.00    -0.156 C  
HETATM    6  C   UNL     1      -8.889   8.457  66.785  1.00  0.00    -0.156 C  
ENDROOT
BRANCH   6   7
HETATM    7  C   UNL     1      -9.239   8.729  65.315  1.00  0.00    -0.099 C  
BRANCH   7   8
HETATM    8  C   UNL     1      -8.184   9.567  64.585  1.00  0.00    -0.146 C  
HETATM    9  C   UNL     1      -8.325   9.614  63.051  1.00  0.00    -0.168 C  
HETATM   10  O   UNL     1      -7.236  10.400  62.547  1.00  0.00    -0.139 OA 
HETATM   11  C   UNL     1      -8.238   8.230  62.409  1.00  0.00    -0.171 C  
HETATM   12  C   UNL     1      -9.608  10.326  62.619  1.00  0.00    -0.251 C  
HETATM   13  H   UNL     1      -7.324  10.429  61.601  1.00  0.00     0.000 HD 
ENDBRANCH   7   8
ENDBRANCH   6   7
TORSDOF 2
ENDMDL
MODEL      230
REMARK 921   NORMALIZED FREE ENERGY PREDICTED BY IDOCK:   -2.05 KCAL/MOL
REMARK 922        TOTAL FREE ENERGY PREDICTED BY IDOCK:   -2.51 KCAL/MOL
REMARK 923 INTER-LIGAND FREE ENERGY PREDICTED BY IDOCK:   -2.23 KCAL/MOL
REMARK 924 INTRA-LIGAND FREE ENERGY PREDICTED BY IDOCK:   -0.27 KCAL/MOL
REMARK 927      BINDING AFFINITY PREDICTED BY RF-SCORE:    0.00 PKD
ROOT
HETATM    1  C   UNL     1     -11.907   6.775  70.374  1.00  0.00    -0.338 C  
HETATM    2  O   UNL     1     -11.944   7.412  71.422  1.00  0.00    -0.284 OA 
HETATM    3  C   UNL     1     -10.762   5.867  69.999  1.00  0.00    -0.396 C  
HETATM    4  C   UNL     1      -9.993   6.342  68.757  1.00  0.00    -0.165 C  
HETATM    5  C   UNL     1     -10.876   6.328  67.506  1.00  0.00    -0.436 C  
HETATM    6  C   UNL     1      -9.340   7.729  68.927  1.00  0.00    -0.146 C  
ENDROOT
BRANCH   6   7
HETATM    7  C   UNL     1      -8.365   7.861  70.107  1.00  0.00    -0.127 C  
BRANCH   7   8
HETATM    8  C   UNL     1      -7.462   6.636  70.286  1.00  0.00    -0.094 C  
HETATM    9  C   UNL     1      -6.991   6.371  71.730  1.00  0.00    -0.076 C  
HETATM   10  O   UNL     1      -6.130   5.224  71.694  1.00  0.00    -0.027 OA 
HETATM   11  C   UNL     1      -6.189   7.537  72.311  1.00  0.00    -0.039 C  
HETATM   12  C   UNL     1      -8.155   6.009  72.653  1.00  0.00    -0.104 C  
HETATM   13  H   UNL     1      -5.839   5.061  72.583  1.00  0.00     0.000 HD 
ENDBRANCH   7   8
ENDBRANCH   6   7
TORSDOF 2
ENDMDL
MODEL      231
REMARK 921   NORMALIZED FREE ENERGY PREDICTED BY IDOCK:   -2.02 KCAL/MOL
REMARK 922        TOTAL FREE ENERGY PREDICTED BY IDOCK:   -2.48 KCAL/MOL
REMARK 923 INTER-LIGAND FREE ENERGY PREDICTED BY IDOCK:   -2.22 KCAL/MOL
REMARK 924 INTRA-LIGAND FREE ENERGY PREDICTED BY IDOCK:   -0.26 KCAL/MOL
REMARK 927      BINDING AFFINITY PREDICTED BY RF-SCORE:    0.00 PKD
ROOT
HETATM    1  C   UNL     1     -11.813   6.945  71.731  1.00  0.00    -0.316 C  
HETATM    2  O   UNL     1     -12.348   6.939  70.626  1.00  0.00    -0.348 OA 
HETATM    3  C   UNL     1     -10.317   6.966  71.923  1.00  0.00    -0.210 C  
HETATM    4  C   UNL     1      -9.776   5.696  72.598  1.00  0.00    -0.171 C  
HETATM    5  C   UNL     1     -10.311   5.544  74.026  1.00  0.00    -0.297 C  
HETATM    6  C   UNL     1     -10.040   4.407  71.794  1.00  0.00    -0.238 C  
ENDROOT
BRANCH   6   7
HETATM    7  C   UNL     1      -9.486   4.395  70.362  1.00  0.00    -0.245 C  
BRANCH   7   8
HETATM    8  C   UNL     1      -8.162   3.635  70.231  1.00  0.00    -0.074 C  
HETATM    9  C   UNL     1      -8.085   2.648  69.049  1.00  0.00    -0.051 C  
HETATM   10  O   UNL     1      -6.804   2.005  69.114  1.00  0.00    -0.033 OA 
HETATM   11  C   UNL     1      -9.156   1.560  69.119  1.00  0.00    -0.156 C  
HETATM   12  C   UNL     1      -8.139   3.367  67.700  1.00  0.00    -0.080 C  
HETATM   13  H   UNL     1      -6.756   1.397  68.385  1.00  0.00     0.000 HD 
ENDBRANCH   7   8
ENDBRANCH   6   7
TORSDOF 2
ENDMDL
MODEL      232
REMARK 921   NORMALIZED FREE ENERGY PREDICTED BY IDOCK:   -1.92 KCAL/MOL
REMARK 922        TOTAL FREE ENERGY PREDICTED BY IDOCK:   -2.37 KCAL/MOL
REMARK 923 INTER-LIGAND FREE ENERGY PREDICTED BY IDOCK:   -2.41 KCAL/MOL
REMARK 924 INTRA-LIGAND FREE ENERGY PREDICTED BY IDOCK:    0.04 KCAL/MOL
REMARK 927      BINDING AFFINITY PREDICTED BY RF-SCORE:    0.00 PKD
ROOT
HETATM    1  C   UNL     1      -9.646   4.775  66.279  1.00  0.00    -0.178 C  
HETATM    2  O   UNL     1     -10.602   4.727  65.511  1.00  0.00    -0.218 OA 
HETATM    3  C   UNL     1      -9.567   5.734  67.440  1.00  0.00    -0.119 C  
HETATM    4  C   UNL     1      -8.433   6.761  67.301  1.00  0.00    -0.120 C  
HETATM    5  C   UNL     1      -7.057   6.088  67.308  1.00  0.00    -0.070 C  
HETATM    6  C   UNL     1      -8.570   7.672  66.064  1.00  0.00    -0.165 C  
ENDROOT
BRANCH   6   7
HETATM    7  C   UNL     1      -9.880   8.469  65.971  1.00  0.00    -0.135 C  
BRANCH   7   8
HETATM    8  C   UNL     1      -9.717   9.947  66.341  1.00  0.00    -0.270 C  
HETATM    9  C   UNL     1      -9.201  10.856  65.207  1.00  0.00    -0.210 C  
HETATM   10  O   UNL     1      -9.072  12.179  65.747  1.00  0.00    -0.425 OA 
HETATM   11  C   UNL     1      -7.828  10.428  64.688  1.00  0.00    -0.077 C  
HETATM   12  C   UNL     1     -10.203  10.955  64.055  1.00  0.00    -0.422 C  
HETATM   13  H   UNL     1      -8.755  12.738  65.048  1.00  0.00     0.000 HD 
ENDBRANCH   7   8
ENDBRANCH   6   7
TORSDOF 2
ENDMDL
MODEL      233
REMARK 921   NORMALIZED FREE ENERGY PREDICTED BY IDOCK:   -1.91 KCAL/MOL
REMARK 922        TOTAL FREE ENERGY PREDICTED BY IDOCK:   -2.35 KCAL/MOL
REMARK 923 INTER-LIGAND FREE ENERGY PREDICTED BY IDOCK:   -2.10 KCAL/MOL
REMARK 924 INTRA-LIGAND FREE ENERGY PREDICTED BY IDOCK:   -0.26 KCAL/MOL
REMARK 927      BINDING AFFINITY PREDICTED BY RF-SCORE:    0.00 PKD
ROOT
HETATM    1  C   UNL     1      -9.030   9.700  68.938  1.00  0.00    -0.144 C  
HETATM    2  O   UNL     1      -8.406   9.243  69.892  1.00  0.00    -0.125 OA 
HETATM    3  C   UNL     1     -10.329   9.113  68.444  1.00  0.00    -0.242 C  
HETATM    4  C   UNL     1     -10.230   8.534  67.025  1.00  0.00    -0.371 C  
HETATM    5  C   UNL     1      -9.920   9.621  65.990  1.00  0.00    -0.344 C  
HETATM    6  C   UNL     1      -9.217   7.378  66.897  1.00  0.00    -0.183 C  
ENDROOT
BRANCH   6   7
HETATM    7  C   UNL     1      -9.458   6.182  67.829  1.00  0.00    -0.115 C  
BRANCH   7   8
HETATM    8  C   UNL     1      -8.231   5.278  67.985  1.00  0.00    -0.098 C  
HETATM    9  C   UNL     1      -8.365   3.872  67.368  1.00  0.00    -0.098 C  
HETATM   10  O   UNL     1      -7.149   3.165  67.649  1.00  0.00    -0.049 OA 
HETATM   11  C   UNL     1      -9.519   3.072  67.973  1.00  0.00    -0.217 C  
HETATM   12  C   UNL     1      -8.491   3.927  65.845  1.00  0.00    -0.110 C  
HETATM   13  H   UNL     1      -7.232   2.299  67.268  1.00  0.00     0.000 HD 
ENDBRANCH   7   8
ENDBRANCH   6   7
TORSDOF 2
ENDMDL
MODEL      234
REMARK 921   NORMALIZED FREE ENERGY PREDICTED BY IDOCK:   -1.83 KCAL/MOL
REMARK 922        TOTAL FREE ENERGY PREDICTED BY IDOCK:   -2.26 KCAL/MOL
REMARK 923 INTER-LIGAND FREE ENERGY PREDICTED BY IDOCK:   -1.95 KCAL/MOL
REMARK 924 INTRA-LIGAND FREE ENERGY PREDICTED BY IDOCK:   -0.31 KCAL/MOL
REMARK 927      BINDING AFFINITY PREDICTED BY RF-SCORE:    0.00 PKD
ROOT
HETATM    1  C   UNL     1      -8.550   1.474  68.290  1.00  0.00    -0.065 C  
HETATM    2  O   UNL     1      -9.690   1.752  68.648  1.00  0.00    -0.145 OA 
HETATM    3  C   UNL     1      -7.341   2.286  68.680  1.00  0.00    -0.044 C  
HETATM    4  C   UNL     1      -6.652   2.960  67.483  1.00  0.00    -0.037 C  
HETATM    5  C   UNL     1      -6.081   1.927  66.505  1.00  0.00    -0.023 C  
HETATM    6  C   UNL     1      -7.555   3.958  66.730  1.00  0.00    -0.084 C  
ENDROOT
BRANCH   6   7
HETATM    7  C   UNL     1      -8.136   5.096  67.581  1.00  0.00    -0.099 C  
BRANCH   7   8
HETATM    8  C   UNL     1      -9.657   5.234  67.451  1.00  0.00    -0.146 C  
HETATM    9  C   UNL     1     -10.210   6.655  67.676  1.00  0.00    -0.177 C  
HETATM   10  O   UNL     1     -11.638   6.580  67.558  1.00  0.00    -0.693 OA 
HETATM   11  C   UNL     1      -9.886   7.199  69.068  1.00  0.00    -0.156 C  
HETATM   12  C   UNL     1      -9.738   7.630  66.597  1.00  0.00    -0.283 C  
HETATM   13  H   UNL     1     -11.979   7.456  67.697  1.00  0.00     0.000 HD 
ENDBRANCH   7   8
ENDBRANCH   6   7
TORSDOF 2
ENDMDL
MODEL      235
REMARK 921   NORMALIZED FREE ENERGY PREDICTED BY IDOCK:   -1.81 KCAL/MOL
REMARK 922        TOTAL FREE ENERGY PREDICTED BY IDOCK:   -2.25 KCAL/MOL
REMARK 923 INTER-LIGAND FREE ENERGY PREDICTED BY IDOCK:   -1.81 KCAL/MOL
REMARK 924 INTRA-LIGAND FREE ENERGY PREDICTED BY IDOCK:   -0.43 KCAL/MOL
REMARK 927      BINDING AFFINITY PREDICTED BY RF-SCORE:    0.00 PKD
ROOT
HETATM    1  C   UNL     1      -8.521  11.776  68.259  1.00  0.00    -0.161 C  
HETATM    2  O   UNL     1      -9.372  11.021  67.801  1.00  0.00    -0.154 OA 
HETATM    3  C   UNL     1      -7.623  12.628  67.398  1.00  0.00    -0.150 C  
HETATM    4  C   UNL     1      -6.139  12.248  67.508  1.00  0.00    -0.140 C  
HETATM    5  C   UNL     1      -5.598  12.486  68.922  1.00  0.00    -0.063 C  
HETATM    6  C   UNL     1      -5.835  10.803  67.062  1.00  0.00    -0.058 C  
ENDROOT
BRANCH   6   7
HETATM    7  C   UNL     1      -6.259  10.450  65.629  1.00  0.00    -0.126 C  
BRANCH   7   8
HETATM    8  C   UNL     1      -7.134   9.195  65.548  1.00  0.00    -0.082 C  
HETATM    9  C   UNL     1      -8.099   9.141  64.347  1.00  0.00    -0.145 C  
HETATM   10  O   UNL     1      -8.856   7.928  64.462  1.00  0.00    -0.362 OA 
HETATM   11  C   UNL     1      -9.088  10.308  64.334  1.00  0.00    -0.275 C  
HETATM   12  C   UNL     1      -7.351   9.058  63.016  1.00  0.00    -0.095 C  
HETATM   13  H   UNL     1      -9.451   7.896  63.723  1.00  0.00     0.000 HD 
ENDBRANCH   7   8
ENDBRANCH   6   7
TORSDOF 2
ENDMDL
MODEL      236
REMARK 921   NORMALIZED FREE ENERGY PREDICTED BY IDOCK:   -1.81 KCAL/MOL
REMARK 922        TOTAL FREE ENERGY PREDICTED BY IDOCK:   -2.24 KCAL/MOL
REMARK 923 INTER-LIGAND FREE ENERGY PREDICTED BY IDOCK:   -1.79 KCAL/MOL
REMARK 924 INTRA-LIGAND FREE ENERGY PREDICTED BY IDOCK:   -0.45 KCAL/MOL
REMARK 927      BINDING AFFINITY PREDICTED BY RF-SCORE:    0.00 PKD
ROOT
HETATM    1  C   UNL     1      -8.015   3.964  73.157  1.00  0.00    -0.087 C  
HETATM    2  O   UNL     1      -7.055   4.576  72.699  1.00  0.00    -0.066 OA 
HETATM    3  C   UNL     1      -9.033   3.260  72.296  1.00  0.00    -0.131 C  
HETATM    4  C   UNL     1     -10.440   3.868  72.402  1.00  0.00    -0.141 C  
HETATM    5  C   UNL     1     -11.015   3.721  73.815  1.00  0.00    -0.312 C  
HETATM    6  C   UNL     1     -10.514   5.341  71.952  1.00  0.00    -0.282 C  
ENDROOT
BRANCH   6   7
HETATM    7  C   UNL     1     -10.037   5.619  70.519  1.00  0.00    -0.280 C  
BRANCH   7   8
HETATM    8  C   UNL     1      -8.915   6.661  70.445  1.00  0.00    -0.152 C  
HETATM    9  C   UNL     1      -7.969   6.524  69.236  1.00  0.00    -0.111 C  
HETATM   10  O   UNL     1      -6.970   7.547  69.359  1.00  0.00    -0.054 OA 
HETATM   11  C   UNL     1      -7.252   5.174  69.199  1.00  0.00    -0.057 C  
HETATM   12  C   UNL     1      -8.691   6.784  67.913  1.00  0.00    -0.120 C  
HETATM   13  H   UNL     1      -6.387   7.462  68.614  1.00  0.00     0.000 HD 
ENDBRANCH   7   8
ENDBRANCH   6   7
TORSDOF 2
ENDMDL
MODEL      237
REMARK 921   NORMALIZED FREE ENERGY PREDICTED BY IDOCK:   -1.80 KCAL/MOL
REMARK 922        TOTAL FREE ENERGY PREDICTED BY IDOCK:   -2.23 KCAL/MOL
REMARK 923 INTER-LIGAND FREE ENERGY PREDICTED BY IDOCK:   -1.96 KCAL/MOL
REMARK 924 INTRA-LIGAND FREE ENERGY PREDICTED BY IDOCK:   -0.27 KCAL/MOL
REMARK 927      BINDING AFFINITY PREDICTED BY RF-SCORE:    0.00 PKD
ROOT
HETATM    1  C   UNL     1      -8.853  10.015  69.139  1.00  0.00    -0.168 C  
HETATM    2  O   UNL     1      -8.037  10.012  70.056  1.00  0.00    -0.180 OA 
HETATM    3  C   UNL     1      -9.954   8.992  69.009  1.00  0.00    -0.191 C  
HETATM    4  C   UNL     1      -9.814   8.107  67.762  1.00  0.00    -0.209 C  
HETATM    5  C   UNL     1      -9.940   8.924  66.471  1.00  0.00    -0.358 C  
HETATM    6  C   UNL     1      -8.516   7.275  67.735  1.00  0.00    -0.121 C  
ENDROOT
BRANCH   6   7
HETATM    7  C   UNL     1      -8.300   6.348  68.941  1.00  0.00    -0.121 C  
BRANCH   7   8
HETATM    8  C   UNL     1      -8.760   4.909  68.689  1.00  0.00    -0.103 C  
HETATM    9  C   UNL     1      -8.887   4.028  69.948  1.00  0.00    -0.084 C  
HETATM   10  O   UNL     1      -9.282   2.718  69.514  1.00  0.00    -0.115 OA 
HETATM   11  C   UNL     1      -7.566   3.889  70.705  1.00  0.00    -0.044 C  
HETATM   12  C   UNL     1      -9.992   4.524  70.882  1.00  0.00    -0.263 C  
HETATM   13  H   UNL     1      -9.360   2.176  70.289  1.00  0.00     0.000 HD 
ENDBRANCH   7   8
ENDBRANCH   6   7
TORSDOF 2
ENDMDL
MODEL      238
REMARK 921   NORMALIZED FREE ENERGY PREDICTED BY IDOCK:   -1.77 KCAL/MOL
REMARK 922        TOTAL FREE ENERGY PREDICTED BY IDOCK:   -2.19 KCAL/MOL
REMARK 923 INTER-LIGAND FREE ENERGY PREDICTED BY IDOCK:   -1.90 KCAL/MOL
REMARK 924 INTRA-LIGAND FREE ENERGY PREDICTED BY IDOCK:   -0.29 KCAL/MOL
REMARK 927      BINDING AFFINITY PREDICTED BY RF-SCORE:    0.00 PKD
ROOT
HETATM    1  C   UNL     1      -9.658  12.278  67.749  1.00  0.00    -0.200 C  
HETATM    2  O   UNL     1     -10.755  11.816  68.046  1.00  0.00    -0.194 OA 
HETATM    3  C   UNL     1      -8.759  11.666  66.703  1.00  0.00    -0.187 C  
HETATM    4  C   UNL     1      -7.440  11.128  67.278  1.00  0.00    -0.118 C  
HETATM    5  C   UNL     1      -6.580  12.251  67.866  1.00  0.00    -0.087 C  
HETATM    6  C   UNL     1      -7.630  10.007  68.320  1.00  0.00    -0.084 C  
ENDROOT
BRANCH   6   7
HETATM    7  C   UNL     1      -8.415   8.780  67.835  1.00  0.00    -0.126 C  
BRANCH   7   8
HETATM    8  C   UNL     1      -9.455   8.287  68.846  1.00  0.00    -0.151 C  
HETATM    9  C   UNL     1      -9.793   6.785  68.765  1.00  0.00    -0.143 C  
HETATM   10  O   UNL     1     -10.805   6.522  69.748  1.00  0.00    -0.239 OA 
HETATM   11  C   UNL     1     -10.352   6.380  67.401  1.00  0.00    -0.257 C  
HETATM   12  C   UNL     1      -8.594   5.910  69.135  1.00  0.00    -0.115 C  
HETATM   13  H   UNL     1     -11.012   5.596  69.698  1.00  0.00     0.000 HD 
ENDBRANCH   7   8
ENDBRANCH   6   7
TORSDOF 2
ENDMDL
MODEL      239
REMARK 921   NORMALIZED FREE ENERGY PREDICTED BY IDOCK:   -1.75 KCAL/MOL
REMARK 922        TOTAL FREE ENERGY PREDICTED BY IDOCK:   -2.17 KCAL/MOL
REMARK 923 INTER-LIGAND FREE ENERGY PREDICTED BY IDOCK:   -1.88 KCAL/MOL
REMARK 924 INTRA-LIGAND FREE ENERGY PREDICTED BY IDOCK:   -0.29 KCAL/MOL
REMARK 927      BINDING AFFINITY PREDICTED BY RF-SCORE:    0.00 PKD
ROOT
HETATM    1  C   UNL     1      -8.535   1.534  68.385  1.00  0.00    -0.059 C  
HETATM    2  O   UNL     1      -8.899   1.633  69.553  1.00  0.00    -0.059 OA 
HETATM    3  C   UNL     1      -7.638   2.543  67.711  1.00  0.00    -0.056 C  
HETATM    4  C   UNL     1      -8.324   3.286  66.555  1.00  0.00    -0.103 C  
HETATM    5  C   UNL     1      -8.700   2.334  65.415  1.00  0.00    -0.119 C  
HETATM    6  C   UNL     1      -9.558   4.103  66.989  1.00  0.00    -0.228 C  
ENDROOT
BRANCH   6   7
HETATM    7  C   UNL     1      -9.305   5.154  68.080  1.00  0.00    -0.144 C  
BRANCH   7   8
HETATM    8  C   UNL     1     -10.326   5.103  69.221  1.00  0.00    -0.248 C  
HETATM    9  C   UNL     1     -10.216   6.240  70.256  1.00  0.00    -0.196 C  
HETATM   10  O   UNL     1     -11.213   6.001  71.259  1.00  0.00    -0.287 OA 
HETATM   11  C   UNL     1      -8.854   6.272  70.951  1.00  0.00    -0.136 C  
HETATM   12  C   UNL     1     -10.537   7.603  69.642  1.00  0.00    -0.243 C  
HETATM   13  H   UNL     1     -11.145   6.702  71.897  1.00  0.00     0.000 HD 
ENDBRANCH   7   8
ENDBRANCH   6   7
TORSDOF 2
ENDMDL
MODEL      240
REMARK 921   NORMALIZED FREE ENERGY PREDICTED BY IDOCK:   -1.71 KCAL/MOL
REMARK 922        TOTAL FREE ENERGY PREDICTED BY IDOCK:   -2.13 KCAL/MOL
REMARK 923 INTER-LIGAND FREE ENERGY PREDICTED BY IDOCK:   -1.81 KCAL/MOL
REMARK 924 INTRA-LIGAND FREE ENERGY PREDICTED BY IDOCK:   -0.31 KCAL/MOL
REMARK 927      BINDING AFFINITY PREDICTED BY RF-SCORE:    0.00 PKD
ROOT
HETATM    1  C   UNL     1      -8.745   9.608  64.947  1.00  0.00    -0.181 C  
HETATM    2  O   UNL     1      -8.511  10.753  65.319  1.00  0.00    -0.171 OA 
HETATM    3  C   UNL     1      -9.399   8.571  65.826  1.00  0.00    -0.187 C  
HETATM    4  C   UNL     1      -8.479   7.383  66.148  1.00  0.00    -0.147 C  
HETATM    5  C   UNL     1      -8.114   6.593  64.887  1.00  0.00    -0.115 C  
HETATM    6  C   UNL     1      -7.200   7.779  66.912  1.00  0.00    -0.089 C  
ENDROOT
BRANCH   6   7
HETATM    7  C   UNL     1      -7.425   8.514  68.242  1.00  0.00    -0.096 C  
BRANCH   7   8
HETATM    8  C   UNL     1      -8.248   7.706  69.250  1.00  0.00    -0.133 C  
HETATM    9  C   UNL     1      -8.733   8.491  70.485  1.00  0.00    -0.152 C  
HETATM   10  O   UNL     1      -9.440   7.568  71.326  1.00  0.00    -0.151 OA 
HETATM   11  C   UNL     1      -7.579   9.074  71.301  1.00  0.00    -0.104 C  
HETATM   12  C   UNL     1      -9.732   9.586  70.109  1.00  0.00    -0.289 C  
HETATM   13  H   UNL     1      -9.738   8.052  72.086  1.00  0.00     0.000 HD 
ENDBRANCH   7   8
ENDBRANCH   6   7
TORSDOF 2
ENDMDL
MODEL      241
REMARK 921   NORMALIZED FREE ENERGY PREDICTED BY IDOCK:   -1.68 KCAL/MOL
REMARK 922        TOTAL FREE ENERGY PREDICTED BY IDOCK:   -2.10 KCAL/MOL
REMARK 923 INTER-LIGAND FREE ENERGY PREDICTED BY IDOCK:   -1.78 KCAL/MOL
REMARK 924 INTRA-LIGAND FREE ENERGY PREDICTED BY IDOCK:   -0.32 KCAL/MOL
REMARK 927      BINDING AFFINITY PREDICTED BY RF-SCORE:    0.00 PKD
ROOT
HETATM    1  C   UNL     1      -7.686   6.122  68.777  1.00  0.00    -0.096 C  
HETATM    2  O   UNL     1      -7.788   7.207  69.342  1.00  0.00    -0.108 OA 
HETATM    3  C   UNL     1      -7.187   5.972  67.362  1.00  0.00    -0.076 C  
HETATM    4  C   UNL     1      -8.252   5.427  66.399  1.00  0.00    -0.109 C  
HETATM    5  C   UNL     1      -8.678   4.003  66.774  1.00  0.00    -0.116 C  
HETATM    6  C   UNL     1      -9.493   6.333  66.271  1.00  0.00    -0.135 C  
ENDROOT
BRANCH   6   7
HETATM    7  C   UNL     1      -9.214   7.776  65.824  1.00  0.00    -0.004 C  
BRANCH   7   8
HETATM    8  C   UNL     1      -9.691   8.825  66.834  1.00  0.00    -0.273 C  
HETATM    9  C   UNL     1      -9.414  10.290  66.442  1.00  0.00    -0.174 C  
HETATM   10  O   UNL     1      -9.886  11.116  67.516  1.00  0.00    -0.174 OA 
HETATM   11  C   UNL     1      -7.924  10.577  66.254  1.00  0.00    -0.144 C  
HETATM   12  C   UNL     1     -10.201  10.707  65.199  1.00  0.00    -0.368 C  
HETATM   13  H   UNL     1      -9.715  12.018  67.274  1.00  0.00     0.000 HD 
ENDBRANCH   7   8
ENDBRANCH   6   7
TORSDOF 2
ENDMDL
MODEL      242
REMARK 921   NORMALIZED FREE ENERGY PREDICTED BY IDOCK:   -1.67 KCAL/MOL
REMARK 922        TOTAL FREE ENERGY PREDICTED BY IDOCK:   -2.09 KCAL/MOL
REMARK 923 INTER-LIGAND FREE ENERGY PREDICTED BY IDOCK:   -2.25 KCAL/MOL
REMARK 924 INTRA-LIGAND FREE ENERGY PREDICTED BY IDOCK:    0.16 KCAL/MOL
REMARK 927      BINDING AFFINITY PREDICTED BY RF-SCORE:    0.00 PKD
ROOT
HETATM    1  C   UNL     1     -10.367   5.594  68.322  1.00  0.00    -0.194 C  
HETATM    2  O   UNL     1     -10.097   6.486  67.523  1.00  0.00    -0.133 OA 
HETATM    3  C   UNL     1     -11.008   5.853  69.663  1.00  0.00    -0.447 C  
HETATM    4  C   UNL     1     -10.102   5.489  70.848  1.00  0.00    -0.276 C  
HETATM    5  C   UNL     1      -9.798   3.988  70.889  1.00  0.00    -0.229 C  
HETATM    6  C   UNL     1      -8.788   6.295  70.893  1.00  0.00    -0.136 C  
ENDROOT
BRANCH   6   7
HETATM    7  C   UNL     1      -8.950   7.822  70.934  1.00  0.00    -0.148 C  
BRANCH   7   8
HETATM    8  C   UNL     1      -8.288   8.469  72.155  1.00  0.00    -0.197 C  
HETATM    9  C   UNL     1      -6.754   8.601  72.080  1.00  0.00    -0.060 C  
HETATM   10  O   UNL     1      -6.315   9.182  73.317  1.00  0.00    -0.319 OA 
HETATM   11  C   UNL     1      -6.054   7.250  71.926  1.00  0.00    -0.037 C  
HETATM   12  C   UNL     1      -6.317   9.561  70.973  1.00  0.00    -0.077 C  
HETATM   13  H   UNL     1      -5.370   9.263  73.270  1.00  0.00     0.000 HD 
ENDBRANCH   7   8
ENDBRANCH   6   7
TORSDOF 2
ENDMDL
MODEL      243
REMARK 921   NORMALIZED FREE ENERGY PREDICTED BY IDOCK:   -1.67 KCAL/MOL
REMARK 922        TOTAL FREE ENERGY PREDICTED BY IDOCK:   -2.09 KCAL/MOL
REMARK 923 INTER-LIGAND FREE ENERGY PREDICTED BY IDOCK:   -1.85 KCAL/MOL
REMARK 924 INTRA-LIGAND FREE ENERGY PREDICTED BY IDOCK:   -0.24 KCAL/MOL
REMARK 927      BINDING AFFINITY PREDICTED BY RF-SCORE:    0.00 PKD
ROOT
HETATM    1  C   UNL     1     -10.819  11.109  68.971  1.00  0.00    -0.231 C  
HETATM    2  O   UNL     1     -10.660  10.562  70.058  1.00  0.00    -0.256 OA 
HETATM    3  C   UNL     1     -11.030  10.347  67.686  1.00  0.00    -0.374 C  
HETATM    4  C   UNL     1      -9.892  10.543  66.673  1.00  0.00    -0.246 C  
HETATM    5  C   UNL     1      -9.795  11.999  66.206  1.00  0.00    -0.250 C  
HETATM    6  C   UNL     1      -8.519  10.058  67.182  1.00  0.00    -0.125 C  
ENDROOT
BRANCH   6   7
HETATM    7  C   UNL     1      -8.456   8.586  67.614  1.00  0.00    -0.129 C  
BRANCH   7   8
HETATM    8  C   UNL     1      -7.513   7.741  66.750  1.00  0.00    -0.090 C  
HETATM    9  C   UNL     1      -6.233   7.254  67.457  1.00  0.00    -0.046 C  
HETATM   10  O   UNL     1      -5.463   6.526  66.489  1.00  0.00    -0.013 OA 
HETATM   11  C   UNL     1      -5.368   8.406  67.968  1.00  0.00    -0.034 C  
HETATM   12  C   UNL     1      -6.544   6.273  68.588  1.00  0.00    -0.055 C  
HETATM   13  H   UNL     1      -4.675   6.225  66.925  1.00  0.00     0.000 HD 
ENDBRANCH   7   8
ENDBRANCH   6   7
TORSDOF 2
ENDMDL
MODEL      244
REMARK 921   NORMALIZED FREE ENERGY PREDICTED BY IDOCK:   -1.64 KCAL/MOL
REMARK 922        TOTAL FREE ENERGY PREDICTED BY IDOCK:   -2.05 KCAL/MOL
REMARK 923 INTER-LIGAND FREE ENERGY PREDICTED BY IDOCK:   -1.81 KCAL/MOL
REMARK 924 INTRA-LIGAND FREE ENERGY PREDICTED BY IDOCK:   -0.24 KCAL/MOL
REMARK 927      BINDING AFFINITY PREDICTED BY RF-SCORE:    0.00 PKD
ROOT
HETATM    1  C   UNL     1      -7.433   8.810  68.073  1.00  0.00    -0.093 C  
HETATM    2  O   UNL     1      -6.425   8.293  68.543  1.00  0.00    -0.052 OA 
HETATM    3  C   UNL     1      -8.441   9.562  68.906  1.00  0.00    -0.123 C  
HETATM    4  C   UNL     1      -9.821   8.887  68.941  1.00  0.00    -0.182 C  
HETATM    5  C   UNL     1     -10.469   8.854  67.553  1.00  0.00    -0.337 C  
HETATM    6  C   UNL     1      -9.803   7.471  69.550  1.00  0.00    -0.169 C  
ENDROOT
BRANCH   6   7
HETATM    7  C   UNL     1      -9.246   7.372  70.977  1.00  0.00    -0.153 C  
BRANCH   7   8
HETATM    8  C   UNL     1      -8.268   6.207  71.167  1.00  0.00    -0.123 C  
HETATM    9  C   UNL     1      -8.865   4.947  71.825  1.00  0.00    -0.128 C  
HETATM   10  O   UNL     1      -7.803   3.992  71.958  1.00  0.00    -0.075 OA 
HETATM   11  C   UNL     1      -9.423   5.221  73.222  1.00  0.00    -0.148 C  
HETATM   12  C   UNL     1      -9.928   4.292  70.943  1.00  0.00    -0.225 C  
HETATM   13  H   UNL     1      -8.171   3.216  72.363  1.00  0.00     0.000 HD 
ENDBRANCH   7   8
ENDBRANCH   6   7
TORSDOF 2
ENDMDL
MODEL      245
REMARK 921   NORMALIZED FREE ENERGY PREDICTED BY IDOCK:   -1.62 KCAL/MOL
REMARK 922        TOTAL FREE ENERGY PREDICTED BY IDOCK:   -2.03 KCAL/MOL
REMARK 923 INTER-LIGAND FREE ENERGY PREDICTED BY IDOCK:   -1.78 KCAL/MOL
REMARK 924 INTRA-LIGAND FREE ENERGY PREDICTED BY IDOCK:   -0.26 KCAL/MOL
REMARK 927      BINDING AFFINITY PREDICTED BY RF-SCORE:    0.00 PKD
ROOT
HETATM    1  C   UNL     1      -7.052   6.125  68.856  1.00  0.00    -0.081 C  
HETATM    2  O   UNL     1      -6.400   5.996  67.824  1.00  0.00    -0.034 OA 
HETATM    3  C   UNL     1      -7.904   5.024  69.437  1.00  0.00    -0.075 C  
HETATM    4  C   UNL     1      -9.403   5.359  69.443  1.00  0.00    -0.164 C  
HETATM    5  C   UNL     1      -9.712   6.556  70.348  1.00  0.00    -0.186 C  
HETATM    6  C   UNL     1      -9.991   5.594  68.037  1.00  0.00    -0.178 C  
ENDROOT
BRANCH   6   7
HETATM    7  C   UNL     1      -9.818   4.434  67.046  1.00  0.00    -0.227 C  
BRANCH   7   8
HETATM    8  C   UNL     1     -10.461   4.702  65.681  1.00  0.00    -0.260 C  
HETATM    9  C   UNL     1      -9.575   4.380  64.461  1.00  0.00    -0.105 C  
HETATM   10  O   UNL     1     -10.321   4.733  63.287  1.00  0.00    -0.206 OA 
HETATM   11  C   UNL     1      -8.276   5.187  64.447  1.00  0.00    -0.130 C  
HETATM   12  C   UNL     1      -9.278   2.884  64.351  1.00  0.00    -0.128 C  
HETATM   13  H   UNL     1      -9.775   4.534  62.536  1.00  0.00     0.000 HD 
ENDBRANCH   7   8
ENDBRANCH   6   7
TORSDOF 2
ENDMDL
MODEL      246
REMARK 921   NORMALIZED FREE ENERGY PREDICTED BY IDOCK:   -1.58 KCAL/MOL
REMARK 922        TOTAL FREE ENERGY PREDICTED BY IDOCK:   -1.98 KCAL/MOL
REMARK 923 INTER-LIGAND FREE ENERGY PREDICTED BY IDOCK:   -1.57 KCAL/MOL
REMARK 924 INTRA-LIGAND FREE ENERGY PREDICTED BY IDOCK:   -0.41 KCAL/MOL
REMARK 927      BINDING AFFINITY PREDICTED BY RF-SCORE:    0.00 PKD
ROOT
HETATM    1  C   UNL     1      -8.569   1.560  68.262  1.00  0.00    -0.065 C  
HETATM    2  O   UNL     1      -9.786   1.480  68.125  1.00  0.00    -0.172 OA 
HETATM    3  C   UNL     1      -7.911   2.397  69.330  1.00  0.00    -0.053 C  
HETATM    4  C   UNL     1      -7.079   3.557  68.763  1.00  0.00    -0.050 C  
HETATM    5  C   UNL     1      -5.894   3.050  67.935  1.00  0.00    -0.023 C  
HETATM    6  C   UNL     1      -7.905   4.568  67.940  1.00  0.00    -0.081 C  
ENDROOT
BRANCH   6   7
HETATM    7  C   UNL     1      -9.086   5.213  68.680  1.00  0.00    -0.135 C  
BRANCH   7   8
HETATM    8  C   UNL     1      -8.654   6.102  69.851  1.00  0.00    -0.132 C  
HETATM    9  C   UNL     1      -9.613   6.112  71.058  1.00  0.00    -0.175 C  
HETATM   10  O   UNL     1      -9.072   7.023  72.025  1.00  0.00    -0.133 OA 
HETATM   11  C   UNL     1     -11.015   6.601  70.692  1.00  0.00    -0.329 C  
HETATM   12  C   UNL     1      -9.684   4.747  71.743  1.00  0.00    -0.225 C  
HETATM   13  H   UNL     1      -9.663   7.029  72.769  1.00  0.00     0.000 HD 
ENDBRANCH   7   8
ENDBRANCH   6   7
TORSDOF 2
ENDMDL
MODEL      247
REMARK 921   NORMALIZED FREE ENERGY PREDICTED BY IDOCK:   -1.58 KCAL/MOL
REMARK 922        TOTAL FREE ENERGY PREDICTED BY IDOCK:   -1.98 KCAL/MOL
REMARK 923 INTER-LIGAND FREE ENERGY PREDICTED BY IDOCK:   -2.00 KCAL/MOL
REMARK 924 INTRA-LIGAND FREE ENERGY PREDICTED BY IDOCK:    0.02 KCAL/MOL
REMARK 927      BINDING AFFINITY PREDICTED BY RF-SCORE:    0.00 PKD
ROOT
HETATM    1  C   UNL     1      -7.627   3.331  69.279  1.00  0.00    -0.048 C  
HETATM    2  O   UNL     1      -7.840   3.398  68.073  1.00  0.00    -0.067 OA 
HETATM    3  C   UNL     1      -8.700   3.531  70.320  1.00  0.00    -0.120 C  
HETATM    4  C   UNL     1      -8.467   4.770  71.199  1.00  0.00    -0.112 C  
HETATM    5  C   UNL     1      -7.189   4.639  72.034  1.00  0.00    -0.067 C  
HETATM    6  C   UNL     1      -8.450   6.095  70.410  1.00  0.00    -0.133 C  
ENDROOT
BRANCH   6   7
HETATM    7  C   UNL     1      -9.711   6.389  69.584  1.00  0.00    -0.170 C  
BRANCH   7   8
HETATM    8  C   UNL     1     -10.707   7.304  70.306  1.00  0.00    -0.252 C  
HETATM    9  C   UNL     1     -10.420   8.814  70.187  1.00  0.00    -0.213 C  
HETATM   10  O   UNL     1     -11.421   9.499  70.953  1.00  0.00    -0.283 OA 
HETATM   11  C   UNL     1      -9.053   9.199  70.754  1.00  0.00    -0.313 C  
HETATM   12  C   UNL     1     -10.563   9.310  68.748  1.00  0.00    -0.220 C  
HETATM   13  H   UNL     1     -11.243  10.429  70.880  1.00  0.00     0.000 HD 
ENDBRANCH   7   8
ENDBRANCH   6   7
TORSDOF 2
ENDMDL
MODEL      248
REMARK 921   NORMALIZED FREE ENERGY PREDICTED BY IDOCK:   -1.56 KCAL/MOL
REMARK 922        TOTAL FREE ENERGY PREDICTED BY IDOCK:   -1.96 KCAL/MOL
REMARK 923 INTER-LIGAND FREE ENERGY PREDICTED BY IDOCK:   -1.74 KCAL/MOL
REMARK 924 INTRA-LIGAND FREE ENERGY PREDICTED BY IDOCK:   -0.23 KCAL/MOL
REMARK 927      BINDING AFFINITY PREDICTED BY RF-SCORE:    0.00 PKD
ROOT
HETATM    1  C   UNL     1     -12.492  11.234  71.158  1.00  0.00    -0.373 C  
HETATM    2  O   UNL     1     -12.294  10.717  72.254  1.00  0.00     0.305 OA 
HETATM    3  C   UNL     1     -12.799  10.439  69.914  1.00  0.00     0.136 C  
HETATM    4  C   UNL     1     -11.712  10.557  68.836  1.00  0.00    -0.217 C  
HETATM    5  C   UNL     1     -11.586  11.991  68.313  1.00  0.00    -0.394 C  
HETATM    6  C   UNL     1     -10.332  10.037  69.289  1.00  0.00    -0.237 C  
ENDROOT
BRANCH   6   7
HETATM    7  C   UNL     1     -10.300   8.578  69.768  1.00  0.00    -0.212 C  
BRANCH   7   8
HETATM    8  C   UNL     1      -8.889   7.981  69.800  1.00  0.00    -0.144 C  
HETATM    9  C   UNL     1      -8.492   7.300  71.125  1.00  0.00    -0.116 C  
HETATM   10  O   UNL     1      -7.138   6.846  70.981  1.00  0.00    -0.068 OA 
HETATM   11  C   UNL     1      -8.539   8.257  72.316  1.00  0.00    -0.257 C  
HETATM   12  C   UNL     1      -9.337   6.056  71.402  1.00  0.00    -0.159 C  
HETATM   13  H   UNL     1      -6.894   6.426  71.798  1.00  0.00     0.000 HD 
ENDBRANCH   7   8
ENDBRANCH   6   7
TORSDOF 2
ENDMDL
MODEL      249
REMARK 921   NORMALIZED FREE ENERGY PREDICTED BY IDOCK:   -1.55 KCAL/MOL
REMARK 922        TOTAL FREE ENERGY PREDICTED BY IDOCK:   -1.95 KCAL/MOL
REMARK 923 INTER-LIGAND FREE ENERGY PREDICTED BY IDOCK:   -1.67 KCAL/MOL
REMARK 924 INTRA-LIGAND FREE ENERGY PREDICTED BY IDOCK:   -0.28 KCAL/MOL
REMARK 927      BINDING AFFINITY PREDICTED BY RF-SCORE:    0.00 PKD
ROOT
HETATM    1  C   UNL     1      -9.880  10.125  68.296  1.00  0.00    -0.145 C  
HETATM    2  O   UNL     1      -9.870  11.210  68.869  1.00  0.00    -0.200 OA 
HETATM    3  C   UNL     1     -10.154   8.821  69.001  1.00  0.00    -0.206 C  
HETATM    4  C   UNL     1      -8.951   7.866  68.997  1.00  0.00    -0.145 C  
HETATM    5  C   UNL     1      -8.583   7.426  67.576  1.00  0.00    -0.122 C  
HETATM    6  C   UNL     1      -7.708   8.433  69.713  1.00  0.00    -0.093 C  
ENDROOT
BRANCH   6   7
HETATM    7  C   UNL     1      -7.919   8.845  71.178  1.00  0.00    -0.181 C  
BRANCH   7   8
HETATM    8  C   UNL     1      -6.989   8.115  72.152  1.00  0.00    -0.090 C  
HETATM    9  C   UNL     1      -7.610   6.900  72.871  1.00  0.00    -0.085 C  
HETATM   10  O   UNL     1      -6.616   6.379  73.764  1.00  0.00    -0.069 OA 
HETATM   11  C   UNL     1      -8.836   7.274  73.705  1.00  0.00    -0.223 C  
HETATM   12  C   UNL     1      -7.949   5.772  71.895  1.00  0.00    -0.107 C  
HETATM   13  H   UNL     1      -6.999   5.631  74.206  1.00  0.00     0.000 HD 
ENDBRANCH   7   8
ENDBRANCH   6   7
TORSDOF 2
ENDMDL
MODEL      250
REMARK 921   NORMALIZED FREE ENERGY PREDICTED BY IDOCK:   -1.52 KCAL/MOL
REMARK 922        TOTAL FREE ENERGY PREDICTED BY IDOCK:   -1.92 KCAL/MOL
REMARK 923 INTER-LIGAND FREE ENERGY PREDICTED BY IDOCK:   -1.64 KCAL/MOL
REMARK 924 INTRA-LIGAND FREE ENERGY PREDICTED BY IDOCK:   -0.28 KCAL/MOL
REMARK 927      BINDING AFFINITY PREDICTED BY RF-SCORE:    0.00 PKD
ROOT
HETATM    1  C   UNL     1      -8.277  11.472  68.107  1.00  0.00    -0.149 C  
HETATM    2  O   UNL     1      -7.059  11.619  68.071  1.00  0.00    -0.073 OA 
HETATM    3  C   UNL     1      -8.952  10.133  67.947  1.00  0.00    -0.128 C  
HETATM    4  C   UNL     1      -9.822  10.040  66.685  1.00  0.00    -0.259 C  
HETATM    5  C   UNL     1     -10.997  11.022  66.734  1.00  0.00    -0.279 C  
HETATM    6  C   UNL     1      -9.032  10.227  65.373  1.00  0.00    -0.205 C  
ENDROOT
BRANCH   6   7
HETATM    7  C   UNL     1      -7.866   9.251  65.159  1.00  0.00    -0.110 C  
BRANCH   7   8
HETATM    8  C   UNL     1      -8.318   7.799  64.974  1.00  0.00    -0.094 C  
HETATM    9  C   UNL     1      -7.444   6.953  64.026  1.00  0.00    -0.098 C  
HETATM   10  O   UNL     1      -8.041   5.651  63.944  1.00  0.00    -0.119 OA 
HETATM   11  C   UNL     1      -7.385   7.528  62.611  1.00  0.00    -0.094 C  
HETATM   12  C   UNL     1      -6.034   6.748  64.581  1.00  0.00    -0.035 C  
HETATM   13  H   UNL     1      -7.503   5.130  63.361  1.00  0.00     0.000 HD 
ENDBRANCH   7   8
ENDBRANCH   6   7
TORSDOF 2
ENDMDL
MODEL      251
REMARK 921   NORMALIZED FREE ENERGY PREDICTED BY IDOCK:   -1.39 KCAL/MOL
REMARK 922        TOTAL FREE ENERGY PREDICTED BY IDOCK:   -1.78 KCAL/MOL
REMARK 923 INTER-LIGAND FREE ENERGY PREDICTED BY IDOCK:   -1.55 KCAL/MOL
REMARK 924 INTRA-LIGAND FREE ENERGY PREDICTED BY IDOCK:   -0.23 KCAL/MOL
REMARK 927      BINDING AFFINITY PREDICTED BY RF-SCORE:    0.00 PKD
ROOT
HETATM    1  C   UNL     1      -8.715  10.008  68.973  1.00  0.00    -0.158 C  
HETATM    2  O   UNL     1      -7.854  10.669  69.546  1.00  0.00    -0.144 OA 
HETATM    3  C   UNL     1      -9.625   9.040  69.688  1.00  0.00    -0.175 C  
HETATM    4  C   UNL     1      -9.412   7.580  69.259  1.00  0.00    -0.154 C  
HETATM    5  C   UNL     1      -9.764   7.367  67.783  1.00  0.00    -0.171 C  
HETATM    6  C   UNL     1      -7.992   7.051  69.546  1.00  0.00    -0.125 C  
ENDROOT
BRANCH   6   7
HETATM    7  C   UNL     1      -7.539   7.135  71.011  1.00  0.00    -0.085 C  
BRANCH   7   8
HETATM    8  C   UNL     1      -8.613   6.678  72.004  1.00  0.00    -0.123 C  
HETATM    9  C   UNL     1      -8.239   5.451  72.860  1.00  0.00    -0.109 C  
HETATM   10  O   UNL     1      -9.371   5.149  73.688  1.00  0.00    -0.132 OA 
HETATM   11  C   UNL     1      -7.938   4.214  72.014  1.00  0.00    -0.085 C  
HETATM   12  C   UNL     1      -7.077   5.749  73.808  1.00  0.00    -0.086 C  
HETATM   13  H   UNL     1      -9.141   4.393  74.215  1.00  0.00     0.000 HD 
ENDBRANCH   7   8
ENDBRANCH   6   7
TORSDOF 2
ENDMDL
MODEL      252
REMARK 921   NORMALIZED FREE ENERGY PREDICTED BY IDOCK:   -1.39 KCAL/MOL
REMARK 922        TOTAL FREE ENERGY PREDICTED BY IDOCK:   -1.77 KCAL/MOL
REMARK 923 INTER-LIGAND FREE ENERGY PREDICTED BY IDOCK:   -1.54 KCAL/MOL
REMARK 924 INTRA-LIGAND FREE ENERGY PREDICTED BY IDOCK:   -0.23 KCAL/MOL
REMARK 927      BINDING AFFINITY PREDICTED BY RF-SCORE:    0.00 PKD
ROOT
HETATM    1  C   UNL     1      -7.040   8.047  67.233  1.00  0.00    -0.083 C  
HETATM    2  O   UNL     1      -6.124   7.255  67.432  1.00  0.00    -0.041 OA 
HETATM    3  C   UNL     1      -8.090   8.373  68.266  1.00  0.00    -0.120 C  
HETATM    4  C   UNL     1      -9.502   7.932  67.854  1.00  0.00    -0.160 C  
HETATM    5  C   UNL     1      -9.989   8.684  66.611  1.00  0.00    -0.357 C  
HETATM    6  C   UNL     1      -9.639   6.411  67.639  1.00  0.00    -0.126 C  
ENDROOT
BRANCH   6   7
HETATM    7  C   UNL     1      -9.254   5.536  68.841  1.00  0.00    -0.141 C  
BRANCH   7   8
HETATM    8  C   UNL     1      -9.839   4.122  68.773  1.00  0.00    -0.087 C  
HETATM    9  C   UNL     1      -8.804   2.986  68.648  1.00  0.00    -0.119 C  
HETATM   10  O   UNL     1      -9.532   1.754  68.554  1.00  0.00    -0.175 OA 
HETATM   11  C   UNL     1      -7.940   3.113  67.392  1.00  0.00    -0.077 C  
HETATM   12  C   UNL     1      -7.925   2.875  69.894  1.00  0.00    -0.052 C  
HETATM   13  H   UNL     1      -8.894   1.054  68.477  1.00  0.00     0.000 HD 
ENDBRANCH   7   8
ENDBRANCH   6   7
TORSDOF 2
ENDMDL
MODEL      253
REMARK 921   NORMALIZED FREE ENERGY PREDICTED BY IDOCK:   -1.20 KCAL/MOL
REMARK 922        TOTAL FREE ENERGY PREDICTED BY IDOCK:   -1.56 KCAL/MOL
REMARK 923 INTER-LIGAND FREE ENERGY PREDICTED BY IDOCK:   -1.79 KCAL/MOL
REMARK 924 INTRA-LIGAND FREE ENERGY PREDICTED BY IDOCK:    0.23 KCAL/MOL
REMARK 927      BINDING AFFINITY PREDICTED BY RF-SCORE:    0.00 PKD
ROOT
HETATM    1  C   UNL     1      -7.408   7.054  68.519  1.00  0.00    -0.100 C  
HETATM    2  O   UNL     1      -7.303   7.039  67.297  1.00  0.00    -0.086 OA 
HETATM    3  C   UNL     1      -6.807   5.997  69.412  1.00  0.00    -0.062 C  
HETATM    4  C   UNL     1      -7.860   5.176  70.172  1.00  0.00    -0.078 C  
HETATM    5  C   UNL     1      -8.659   6.046  71.148  1.00  0.00    -0.129 C  
HETATM    6  C   UNL     1      -8.819   4.395  69.251  1.00  0.00    -0.133 C  
ENDROOT
BRANCH   6   7
HETATM    7  C   UNL     1      -8.149   3.423  68.269  1.00  0.00    -0.080 C  
BRANCH   7   8
HETATM    8  C   UNL     1      -9.060   3.010  67.109  1.00  0.00    -0.200 C  
HETATM    9  C   UNL     1      -9.390   4.128  66.100  1.00  0.00    -0.166 C  
HETATM   10  O   UNL     1     -10.279   3.571  65.121  1.00  0.00    -0.391 OA 
HETATM   11  C   UNL     1     -10.100   5.316  66.751  1.00  0.00    -0.255 C  
HETATM   12  C   UNL     1      -8.149   4.596  65.340  1.00  0.00    -0.107 C  
HETATM   13  H   UNL     1     -10.482   4.260  64.500  1.00  0.00     0.000 HD 
ENDBRANCH   7   8
ENDBRANCH   6   7
TORSDOF 2
ENDMDL
MODEL      254
REMARK 921   NORMALIZED FREE ENERGY PREDICTED BY IDOCK:   -1.13 KCAL/MOL
REMARK 922        TOTAL FREE ENERGY PREDICTED BY IDOCK:   -1.49 KCAL/MOL
REMARK 923 INTER-LIGAND FREE ENERGY PREDICTED BY IDOCK:   -1.19 KCAL/MOL
REMARK 924 INTRA-LIGAND FREE ENERGY PREDICTED BY IDOCK:   -0.29 KCAL/MOL
REMARK 927      BINDING AFFINITY PREDICTED BY RF-SCORE:    0.00 PKD
ROOT
HETATM    1  C   UNL     1      -5.836   7.753  68.072  1.00  0.00    -0.040 C  
HETATM    2  O   UNL     1      -5.835   6.665  68.639  1.00  0.00    -0.019 OA 
HETATM    3  C   UNL     1      -7.078   8.591  67.895  1.00  0.00    -0.086 C  
HETATM    4  C   UNL     1      -7.484   8.768  66.424  1.00  0.00    -0.087 C  
HETATM    5  C   UNL     1      -6.424   9.541  65.634  1.00  0.00    -0.071 C  
HETATM    6  C   UNL     1      -7.814   7.442  65.709  1.00  0.00    -0.108 C  
ENDROOT
BRANCH   6   7
HETATM    7  C   UNL     1      -8.922   6.599  66.358  1.00  0.00    -0.161 C  
BRANCH   7   8
HETATM    8  C   UNL     1      -9.196   5.286  65.618  1.00  0.00    -0.145 C  
HETATM    9  C   UNL     1      -8.868   4.003  66.408  1.00  0.00    -0.121 C  
HETATM   10  O   UNL     1      -9.145   2.890  65.547  1.00  0.00    -0.145 OA 
HETATM   11  C   UNL     1      -7.397   3.923  66.816  1.00  0.00    -0.072 C  
HETATM   12  C   UNL     1      -9.773   3.840  67.631  1.00  0.00    -0.136 C  
HETATM   13  H   UNL     1      -8.943   2.100  66.035  1.00  0.00     0.000 HD 
ENDBRANCH   7   8
ENDBRANCH   6   7
TORSDOF 2
ENDMDL
MODEL      255
REMARK 921   NORMALIZED FREE ENERGY PREDICTED BY IDOCK:   -0.95 KCAL/MOL
REMARK 922        TOTAL FREE ENERGY PREDICTED BY IDOCK:   -1.28 KCAL/MOL
REMARK 923 INTER-LIGAND FREE ENERGY PREDICTED BY IDOCK:   -0.96 KCAL/MOL
REMARK 924 INTRA-LIGAND FREE ENERGY PREDICTED BY IDOCK:   -0.32 KCAL/MOL
REMARK 927      BINDING AFFINITY PREDICTED BY RF-SCORE:    0.00 PKD
ROOT
HETATM    1  C   UNL     1      -6.975   6.918  68.679  1.00  0.00    -0.076 C  
HETATM    2  O   UNL     1      -6.518   7.139  67.561  1.00  0.00    -0.050 OA 
HETATM    3  C   UNL     1      -6.652   5.676  69.472  1.00  0.00    -0.050 C  
HETATM    4  C   UNL     1      -7.874   4.777  69.714  1.00  0.00    -0.066 C  
HETATM    5  C   UNL     1      -8.930   5.478  70.575  1.00  0.00    -0.153 C  
HETATM    6  C   UNL     1      -8.517   4.245  68.417  1.00  0.00    -0.103 C  
ENDROOT
BRANCH   6   7
HETATM    7  C   UNL     1      -7.582   3.451  67.493  1.00  0.00    -0.069 C  
BRANCH   7   8
HETATM    8  C   UNL     1      -7.668   3.887  66.026  1.00  0.00    -0.089 C  
HETATM    9  C   UNL     1      -7.798   2.739  65.005  1.00  0.00    -0.081 C  
HETATM   10  O   UNL     1      -7.820   3.331  63.699  1.00  0.00    -0.077 OA 
HETATM   11  C   UNL     1      -6.617   1.769  65.057  1.00  0.00    -0.027 C  
HETATM   12  C   UNL     1      -9.119   1.984  65.160  1.00  0.00    -0.116 C  
HETATM   13  H   UNL     1      -7.900   2.624  63.070  1.00  0.00     0.000 HD 
ENDBRANCH   7   8
ENDBRANCH   6   7
TORSDOF 2
ENDMDL
MODEL      256
REMARK 921   NORMALIZED FREE ENERGY PREDICTED BY IDOCK:   -0.42 KCAL/MOL
REMARK 922        TOTAL FREE ENERGY PREDICTED BY IDOCK:   -0.69 KCAL/MOL
REMARK 923 INTER-LIGAND FREE ENERGY PREDICTED BY IDOCK:   -2.18 KCAL/MOL
REMARK 924 INTRA-LIGAND FREE ENERGY PREDICTED BY IDOCK:    1.48 KCAL/MOL
REMARK 927      BINDING AFFINITY PREDICTED BY RF-SCORE:    0.00 PKD
ROOT
HETATM    1  C   UNL     1     -11.816  14.123  67.065  1.00  0.00    -0.429 C  
HETATM    2  O   UNL     1     -12.014  13.265  67.920  1.00  0.00    -0.345 OA 
HETATM    3  C   UNL     1     -10.451  14.688  66.762  1.00  0.00    -0.277 C  
HETATM    4  C   UNL     1     -10.328  16.184  67.089  1.00  0.00    -0.291 C  
HETATM    5  C   UNL     1     -11.260  17.032  66.217  1.00  0.00     0.613 C  
HETATM    6  C   UNL     1     -10.554  16.512  68.579  1.00  0.00    -0.318 C  
ENDROOT
BRANCH   6   7
HETATM    7  C   UNL     1      -9.628  15.783  69.564  1.00  0.00    -0.262 C  
BRANCH   7   8
HETATM    8  C   UNL     1     -10.307  14.610  70.279  1.00  0.00     0.359 C  
HETATM    9  C   UNL     1     -11.691  14.920  70.884  1.00  0.00    -0.323 C  
HETATM   10  O   UNL     1     -12.144  13.728  71.541  1.00  0.00    -0.325 OA 
HETATM   11  C   UNL     1     -11.641  16.037  71.926  1.00  0.00    -0.524 C  
HETATM   12  C   UNL     1     -12.726  15.239  69.805  1.00  0.00    -0.055 C  
HETATM   13  H   UNL     1     -12.997  13.919  71.914  1.00  0.00     0.000 HD 
ENDBRANCH   7   8
ENDBRANCH   6   7
TORSDOF 2
ENDMDL
