MODEL        1
REMARK 921   NORMALIZED FREE ENERGY PREDICTED BY IDOCK:   -7.61 KCAL/MOL
REMARK 922        TOTAL FREE ENERGY PREDICTED BY IDOCK:   -9.90 KCAL/MOL
REMARK 923 INTER-LIGAND FREE ENERGY PREDICTED BY IDOCK:   -9.39 KCAL/MOL
REMARK 924 INTRA-LIGAND FREE ENERGY PREDICTED BY IDOCK:   -0.50 KCAL/MOL
REMARK 927      BINDING AFFINITY PREDICTED BY RF-SCORE:    0.00 PKD
ROOT
HETATM    1  N   UNL     1     -11.503  16.220  64.068  1.00  0.00    -1.521 NA 
HETATM    2  H2  UNL     1     -11.757  16.709  63.210  1.00  0.00     0.000 HD 
HETATM    3  H1  UNL     1     -10.986  16.711  64.798  1.00  0.00     0.000 HD 
HETATM    4  C   UNL     1     -11.856  14.909  64.235  1.00  0.00    -0.297 C  
HETATM    5  H2  UNL     1     -12.764  14.777  62.453  1.00  0.00     0.000 HD 
HETATM    6  N   UNL     1     -12.510  14.288  63.312  1.00  0.00    -1.068 NA 
HETATM    7  H1  UNL     1     -12.774  13.310  63.437  1.00  0.00     0.000 HD 
ENDROOT
BRANCH   4   8
HETATM    8  C   UNL     1     -11.439  14.183  65.466  1.00  0.00    -0.324 A  
HETATM    9  C   UNL     1     -10.461  13.187  65.395  1.00  0.00    -0.307 A  
HETATM   10  C   UNL     1     -10.175  12.408  66.519  1.00  0.00    -0.244 A  
HETATM   11  C   UNL     1     -10.854  12.615  67.728  1.00  0.00    -0.248 A  
HETATM   12  C   UNL     1     -12.073  14.445  66.681  1.00  0.00    -0.392 A  
HETATM   13  C   UNL     1     -11.789  13.659  67.805  1.00  0.00    -0.403 A  
BRANCH  11  14
HETATM   14  C   UNL     1     -10.639  11.653  68.819  1.00  0.00    -0.241 C  
HETATM   15  C   UNL     1     -11.578  10.850  69.339  1.00  0.00    -0.387 C  
BRANCH  15  16
HETATM   16  C   UNL     1     -11.258   9.864  70.378  1.00  0.00    -0.379 A  
HETATM   17  C   UNL     1     -12.244   9.308  71.205  1.00  0.00    -0.301 A  
HETATM   18  C   UNL     1     -11.912   8.447  72.250  1.00  0.00    -0.455 A  
HETATM   19  O   UNL     1     -13.577   9.581  71.047  1.00  0.00    -0.556 OA 
HETATM   20  H   UNL     1     -14.245   9.205  71.607  1.00  0.00     0.000 HD 
HETATM   21  C   UNL     1     -10.575   8.104  72.464  1.00  0.00    -0.411 A  
HETATM   22  C   UNL     1      -9.585   8.610  71.613  1.00  0.00    -0.344 A  
HETATM   23  C   UNL     1      -9.925   9.487  70.577  1.00  0.00    -0.335 A  
BRANCH  21  24
HETATM   24  C   UNL     1     -10.185   7.238  73.613  1.00  0.00    -0.346 C  
HETATM   25  N   UNL     1      -9.129   7.586  74.405  1.00  0.00    -0.431 NA 
HETATM   26  N   UNL     1     -10.810   6.150  73.932  1.00  0.00    -0.405 NA 
HETATM   27  H1  UNL     1      -8.862   6.994  75.191  1.00  0.00     0.000 HD 
HETATM   28  H2  UNL     1      -8.606   8.441  74.211  1.00  0.00     0.000 HD 
HETATM   29  H1  UNL     1     -10.543   5.557  74.718  1.00  0.00     0.000 HD 
HETATM   30  H2  UNL     1     -11.612   5.870  73.369  1.00  0.00     0.000 HD 
ENDBRANCH  21  24
ENDBRANCH  15  16
ENDBRANCH  11  14
ENDBRANCH   4   8
TORSDOF 4
ENDMDL
MODEL        2
REMARK 921   NORMALIZED FREE ENERGY PREDICTED BY IDOCK:   -7.51 KCAL/MOL
REMARK 922        TOTAL FREE ENERGY PREDICTED BY IDOCK:   -9.77 KCAL/MOL
REMARK 923 INTER-LIGAND FREE ENERGY PREDICTED BY IDOCK:   -9.28 KCAL/MOL
REMARK 924 INTRA-LIGAND FREE ENERGY PREDICTED BY IDOCK:   -0.49 KCAL/MOL
REMARK 927      BINDING AFFINITY PREDICTED BY RF-SCORE:    0.00 PKD
ROOT
HETATM    1  N   UNL     1     -11.544   5.700  73.371  1.00  0.00    -0.410 NA 
HETATM    2  H2  UNL     1     -11.507   4.929  74.038  1.00  0.00     0.000 HD 
HETATM    3  H1  UNL     1     -12.187   5.656  72.581  1.00  0.00     0.000 HD 
HETATM    4  C   UNL     1     -10.730   6.786  73.540  1.00  0.00    -0.292 C  
HETATM    5  H2  UNL     1      -9.879   6.072  75.207  1.00  0.00     0.000 HD 
HETATM    6  N   UNL     1      -9.916   6.842  74.539  1.00  0.00    -0.483 NA 
HETATM    7  H1  UNL     1      -9.310   7.653  74.665  1.00  0.00     0.000 HD 
ENDROOT
BRANCH   4   8
HETATM    8  C   UNL     1     -10.749   7.885  72.536  1.00  0.00    -0.391 A  
HETATM    9  C   UNL     1     -11.964   8.449  72.134  1.00  0.00    -0.438 A  
HETATM   10  C   UNL     1     -11.992   9.375  71.089  1.00  0.00    -0.413 A  
HETATM   11  C   UNL     1     -10.812   9.756  70.435  1.00  0.00    -0.370 A  
HETATM   12  C   UNL     1      -9.559   8.307  71.939  1.00  0.00    -0.288 A  
HETATM   13  C   UNL     1      -9.592   9.232  70.887  1.00  0.00    -0.339 A  
BRANCH  11  14
HETATM   14  C   UNL     1     -10.925  10.595  69.232  1.00  0.00    -0.294 C  
HETATM   15  C   UNL     1     -11.654  11.716  69.136  1.00  0.00    -0.378 C  
BRANCH  15  16
HETATM   16  C   UNL     1     -11.651  12.534  67.918  1.00  0.00    -0.403 A  
HETATM   17  C   UNL     1     -12.033  13.883  67.927  1.00  0.00    -0.358 A  
HETATM   18  C   UNL     1     -12.117  14.620  66.746  1.00  0.00    -0.223 A  
HETATM   19  O   UNL     1     -12.353  14.549  69.079  1.00  0.00    -0.554 OA 
HETATM   20  H   UNL     1     -12.612  15.463  69.086  1.00  0.00     0.000 HD 
HETATM   21  C   UNL     1     -11.788  14.017  65.530  1.00  0.00    -0.370 A  
HETATM   22  C   UNL     1     -11.354  12.685  65.512  1.00  0.00    -0.356 A  
HETATM   23  C   UNL     1     -11.288  11.948  66.700  1.00  0.00    -0.400 A  
BRANCH  21  24
HETATM   24  C   UNL     1     -11.931  14.760  64.247  1.00  0.00    -0.368 C  
HETATM   25  N   UNL     1     -12.435  14.132  63.144  1.00  0.00    -1.037 NA 
HETATM   26  N   UNL     1     -11.617  16.008  64.104  1.00  0.00    -1.110 NA 
HETATM   27  H1  UNL     1     -12.532  14.640  62.265  1.00  0.00     0.000 HD 
HETATM   28  H2  UNL     1     -12.713  13.152  63.198  1.00  0.00     0.000 HD 
HETATM   29  H1  UNL     1     -11.714  16.517  63.226  1.00  0.00     0.000 HD 
HETATM   30  H2  UNL     1     -11.251  16.509  64.913  1.00  0.00     0.000 HD 
ENDBRANCH  21  24
ENDBRANCH  15  16
ENDBRANCH  11  14
ENDBRANCH   4   8
TORSDOF 4
ENDMDL
MODEL        3
REMARK 921   NORMALIZED FREE ENERGY PREDICTED BY IDOCK:   -7.38 KCAL/MOL
REMARK 922        TOTAL FREE ENERGY PREDICTED BY IDOCK:   -9.61 KCAL/MOL
REMARK 923 INTER-LIGAND FREE ENERGY PREDICTED BY IDOCK:   -9.10 KCAL/MOL
REMARK 924 INTRA-LIGAND FREE ENERGY PREDICTED BY IDOCK:   -0.51 KCAL/MOL
REMARK 927      BINDING AFFINITY PREDICTED BY RF-SCORE:    0.00 PKD
ROOT
HETATM    1  N   UNL     1      -7.996  19.209  65.854  1.00  0.00    -0.458 NA 
HETATM    2  H2  UNL     1      -7.517  20.022  65.466  1.00  0.00     0.000 HD 
HETATM    3  H1  UNL     1      -7.606  18.277  65.716  1.00  0.00     0.000 HD 
HETATM    4  C   UNL     1      -9.158  19.375  66.557  1.00  0.00    -0.356 C  
HETATM    5  H2  UNL     1      -9.173  21.367  66.344  1.00  0.00     0.000 HD 
HETATM    6  N   UNL     1      -9.651  20.554  66.732  1.00  0.00    -0.637 NA 
HETATM    7  H1  UNL     1     -10.518  20.677  67.257  1.00  0.00     0.000 HD 
ENDROOT
BRANCH   4   8
HETATM    8  C   UNL     1      -9.882  18.182  67.077  1.00  0.00    -0.324 A  
HETATM    9  C   UNL     1     -10.153  18.067  68.444  1.00  0.00    -0.392 A  
HETATM   10  C   UNL     1     -10.701  16.885  68.949  1.00  0.00    -0.321 A  
HETATM   11  C   UNL     1     -10.989  15.807  68.101  1.00  0.00    -0.330 A  
HETATM   12  C   UNL     1     -10.228  17.143  66.212  1.00  0.00    -0.340 A  
HETATM   13  C   UNL     1     -10.771  15.957  66.723  1.00  0.00    -0.281 A  
BRANCH  11  14
HETATM   14  C   UNL     1     -11.395  14.532  68.712  1.00  0.00    -0.298 C  
HETATM   15  C   UNL     1     -11.803  14.377  69.979  1.00  0.00    -0.377 C  
BRANCH  15  16
HETATM   16  C   UNL     1     -12.263  13.079  70.487  1.00  0.00    -0.392 A  
HETATM   17  C   UNL     1     -13.039  12.967  71.649  1.00  0.00    -0.347 A  
HETATM   18  C   UNL     1     -13.385  11.722  72.171  1.00  0.00    -0.334 A  
HETATM   19  O   UNL     1     -13.490  14.059  72.340  1.00  0.00    -0.449 OA 
HETATM   20  H   UNL     1     -14.017  13.984  73.128  1.00  0.00     0.000 HD 
HETATM   21  C   UNL     1     -12.979  10.559  71.513  1.00  0.00    -0.565 A  
HETATM   22  C   UNL     1     -12.247  10.656  70.323  1.00  0.00    -0.417 A  
HETATM   23  C   UNL     1     -11.890  11.910  69.814  1.00  0.00    -0.411 A  
BRANCH  21  24
HETATM   24  C   UNL     1     -13.278   9.215  72.084  1.00  0.00    -0.458 C  
HETATM   25  N   UNL     1     -12.934   8.087  71.396  1.00  0.00    -0.454 NA 
HETATM   26  N   UNL     1     -13.847   9.038  73.233  1.00  0.00    -1.163 NA 
HETATM   27  H1  UNL     1     -13.140   7.167  71.787  1.00  0.00     0.000 HD 
HETATM   28  H2  UNL     1     -12.471   8.163  70.491  1.00  0.00     0.000 HD 
HETATM   29  H1  UNL     1     -14.053   8.118  73.624  1.00  0.00     0.000 HD 
HETATM   30  H2  UNL     1     -14.104   9.861  73.778  1.00  0.00     0.000 HD 
ENDBRANCH  21  24
ENDBRANCH  15  16
ENDBRANCH  11  14
ENDBRANCH   4   8
TORSDOF 4
ENDMDL
MODEL        4
REMARK 921   NORMALIZED FREE ENERGY PREDICTED BY IDOCK:   -7.33 KCAL/MOL
REMARK 922        TOTAL FREE ENERGY PREDICTED BY IDOCK:   -9.55 KCAL/MOL
REMARK 923 INTER-LIGAND FREE ENERGY PREDICTED BY IDOCK:   -9.05 KCAL/MOL
REMARK 924 INTRA-LIGAND FREE ENERGY PREDICTED BY IDOCK:   -0.50 KCAL/MOL
REMARK 927      BINDING AFFINITY PREDICTED BY RF-SCORE:    0.00 PKD
ROOT
HETATM    1  N   UNL     1     -14.209   8.855  73.158  1.00  0.00    -1.200 NA 
HETATM    2  H2  UNL     1     -14.397   8.006  73.692  1.00  0.00     0.000 HD 
HETATM    3  H1  UNL     1     -14.891   9.614  73.156  1.00  0.00     0.000 HD 
HETATM    4  C   UNL     1     -13.045   8.970  72.450  1.00  0.00    -0.423 C  
HETATM    5  H2  UNL     1     -12.371   7.161  72.987  1.00  0.00     0.000 HD 
HETATM    6  N   UNL     1     -12.183   8.010  72.453  1.00  0.00    -0.503 NA 
HETATM    7  H1  UNL     1     -11.314   8.096  71.924  1.00  0.00     0.000 HD 
ENDROOT
BRANCH   4   8
HETATM    8  C   UNL     1     -12.797  10.188  71.630  1.00  0.00    -0.559 A  
HETATM    9  C   UNL     1     -11.957  10.124  70.515  1.00  0.00    -0.400 A  
HETATM   10  C   UNL     1     -11.611  11.295  69.834  1.00  0.00    -0.413 A  
HETATM   11  C   UNL     1     -12.100  12.540  70.252  1.00  0.00    -0.373 A  
HETATM   12  C   UNL     1     -13.347  11.413  72.014  1.00  0.00    -0.388 A  
HETATM   13  C   UNL     1     -12.993  12.585  71.334  1.00  0.00    -0.347 A  
BRANCH  11  14
HETATM   14  C   UNL     1     -11.562  13.748  69.609  1.00  0.00    -0.343 C  
HETATM   15  C   UNL     1     -11.665  14.043  68.306  1.00  0.00    -0.392 C  
BRANCH  15  16
HETATM   16  C   UNL     1     -11.163  15.309  67.760  1.00  0.00    -0.327 A  
HETATM   17  C   UNL     1     -10.773  15.439  66.420  1.00  0.00    -0.311 A  
HETATM   18  C   UNL     1     -10.208  16.621  65.942  1.00  0.00    -0.358 A  
HETATM   19  O   UNL     1     -10.911  14.424  65.511  1.00  0.00    -0.305 OA 
HETATM   20  H   UNL     1     -10.647  14.512  64.603  1.00  0.00     0.000 HD 
HETATM   21  C   UNL     1     -10.051  17.710  66.802  1.00  0.00    -0.334 A  
HETATM   22  C   UNL     1     -10.484  17.611  68.130  1.00  0.00    -0.386 A  
HETATM   23  C   UNL     1     -11.036  16.417  68.607  1.00  0.00    -0.345 A  
BRANCH  21  24
HETATM   24  C   UNL     1      -9.391  18.961  66.335  1.00  0.00    -0.328 C  
HETATM   25  N   UNL     1      -8.089  18.937  65.925  1.00  0.00    -0.469 NA 
HETATM   26  N   UNL     1      -9.992  20.107  66.274  1.00  0.00    -0.549 NA 
HETATM   27  H1  UNL     1      -7.637  19.794  65.607  1.00  0.00     0.000 HD 
HETATM   28  H2  UNL     1      -7.567  18.061  65.938  1.00  0.00     0.000 HD 
HETATM   29  H1  UNL     1      -9.540  20.964  65.956  1.00  0.00     0.000 HD 
HETATM   30  H2  UNL     1     -10.970  20.155  66.561  1.00  0.00     0.000 HD 
ENDBRANCH  21  24
ENDBRANCH  15  16
ENDBRANCH  11  14
ENDBRANCH   4   8
TORSDOF 4
ENDMDL
MODEL        5
REMARK 921   NORMALIZED FREE ENERGY PREDICTED BY IDOCK:   -7.23 KCAL/MOL
REMARK 922        TOTAL FREE ENERGY PREDICTED BY IDOCK:   -9.43 KCAL/MOL
REMARK 923 INTER-LIGAND FREE ENERGY PREDICTED BY IDOCK:   -8.92 KCAL/MOL
REMARK 924 INTRA-LIGAND FREE ENERGY PREDICTED BY IDOCK:   -0.51 KCAL/MOL
REMARK 927      BINDING AFFINITY PREDICTED BY RF-SCORE:    0.00 PKD
ROOT
HETATM    1  N   UNL     1     -10.894  20.100  65.423  1.00  0.00    -0.151 NA 
HETATM    2  H2  UNL     1     -10.858  21.030  65.006  1.00  0.00     0.000 HD 
HETATM    3  H1  UNL     1     -11.571  19.417  65.084  1.00  0.00     0.000 HD 
HETATM    4  C   UNL     1     -10.033  19.774  66.435  1.00  0.00    -0.470 C  
HETATM    5  H2  UNL     1      -9.140  21.568  66.448  1.00  0.00     0.000 HD 
HETATM    6  N   UNL     1      -9.176  20.638  66.865  1.00  0.00    -0.622 NA 
HETATM    7  H1  UNL     1      -8.534  20.394  67.620  1.00  0.00     0.000 HD 
ENDROOT
BRANCH   4   8
HETATM    8  C   UNL     1     -10.123  18.434  67.078  1.00  0.00    -0.382 A  
HETATM    9  C   UNL     1     -10.285  17.289  66.292  1.00  0.00    -0.347 A  
HETATM   10  C   UNL     1     -10.515  16.052  66.901  1.00  0.00    -0.306 A  
HETATM   11  C   UNL     1     -10.580  15.940  68.297  1.00  0.00    -0.276 A  
HETATM   12  C   UNL     1     -10.117  18.324  68.469  1.00  0.00    -0.419 A  
HETATM   13  C   UNL     1     -10.353  17.084  69.076  1.00  0.00    -0.330 A  
BRANCH  11  14
HETATM   14  C   UNL     1     -10.999  14.652  68.870  1.00  0.00    -0.264 C  
HETATM   15  C   UNL     1     -11.800  14.503  69.935  1.00  0.00    -0.373 C  
BRANCH  15  16
HETATM   16  C   UNL     1     -12.230  13.178  70.397  1.00  0.00    -0.389 A  
HETATM   17  C   UNL     1     -12.954  13.003  71.583  1.00  0.00    -0.321 A  
HETATM   18  C   UNL     1     -13.271  11.730  72.057  1.00  0.00    -0.460 A  
HETATM   19  O   UNL     1     -13.382  14.055  72.347  1.00  0.00    -0.433 OA 
HETATM   20  H   UNL     1     -13.874  13.936  73.151  1.00  0.00     0.000 HD 
HETATM   21  C   UNL     1     -12.886  10.604  71.325  1.00  0.00    -0.535 A  
HETATM   22  C   UNL     1     -12.207  10.766  70.111  1.00  0.00    -0.425 A  
HETATM   23  C   UNL     1     -11.879  12.046  69.650  1.00  0.00    -0.401 A  
BRANCH  21  24
HETATM   24  C   UNL     1     -13.153   9.232  71.840  1.00  0.00    -0.415 C  
HETATM   25  N   UNL     1     -13.665   9.057  73.093  1.00  0.00    -1.092 NA 
HETATM   26  N   UNL     1     -12.940   8.156  71.151  1.00  0.00    -0.510 NA 
HETATM   27  H1  UNL     1     -13.847   8.118  73.446  1.00  0.00     0.000 HD 
HETATM   28  H2  UNL     1     -13.866   9.868  73.678  1.00  0.00     0.000 HD 
HETATM   29  H1  UNL     1     -13.122   7.217  71.503  1.00  0.00     0.000 HD 
HETATM   30  H2  UNL     1     -12.571   8.253  70.205  1.00  0.00     0.000 HD 
ENDBRANCH  21  24
ENDBRANCH  15  16
ENDBRANCH  11  14
ENDBRANCH   4   8
TORSDOF 4
ENDMDL
MODEL        6
REMARK 921   NORMALIZED FREE ENERGY PREDICTED BY IDOCK:   -7.22 KCAL/MOL
REMARK 922        TOTAL FREE ENERGY PREDICTED BY IDOCK:   -9.41 KCAL/MOL
REMARK 923 INTER-LIGAND FREE ENERGY PREDICTED BY IDOCK:   -8.92 KCAL/MOL
REMARK 924 INTRA-LIGAND FREE ENERGY PREDICTED BY IDOCK:   -0.49 KCAL/MOL
REMARK 927      BINDING AFFINITY PREDICTED BY RF-SCORE:    0.00 PKD
ROOT
HETATM    1  N   UNL     1     -11.766   5.682  72.806  1.00  0.00    -0.498 NA 
HETATM    2  H2  UNL     1     -11.652   4.956  73.515  1.00  0.00     0.000 HD 
HETATM    3  H1  UNL     1     -12.254   5.469  71.937  1.00  0.00     0.000 HD 
HETATM    4  C   UNL     1     -11.263   6.934  73.028  1.00  0.00    -0.184 C  
HETATM    5  H2  UNL     1     -10.531   6.478  74.836  1.00  0.00     0.000 HD 
HETATM    6  N   UNL     1     -10.645   7.203  74.128  1.00  0.00    -0.564 NA 
HETATM    7  H1  UNL     1     -10.270   8.138  74.293  1.00  0.00     0.000 HD 
ENDROOT
BRANCH   4   8
HETATM    8  C   UNL     1     -11.385   7.976  71.970  1.00  0.00    -0.359 A  
HETATM    9  C   UNL     1     -10.413   8.077  70.970  1.00  0.00    -0.229 A  
HETATM   10  C   UNL     1     -10.451   9.143  70.067  1.00  0.00    -0.244 A  
HETATM   11  C   UNL     1     -11.457  10.116  70.145  1.00  0.00    -0.368 A  
HETATM   12  C   UNL     1     -12.431   8.899  72.017  1.00  0.00    -0.461 A  
HETATM   13  C   UNL     1     -12.462   9.969  71.114  1.00  0.00    -0.480 A  
BRANCH  11  14
HETATM   14  C   UNL     1     -11.342  11.303  69.285  1.00  0.00    -0.354 C  
HETATM   15  C   UNL     1     -11.527  11.318  67.957  1.00  0.00    -0.369 C  
BRANCH  15  16
HETATM   16  C   UNL     1     -11.466  12.564  67.185  1.00  0.00    -0.414 A  
HETATM   17  C   UNL     1     -11.178  12.576  65.813  1.00  0.00    -0.320 A  
HETATM   18  C   UNL     1     -11.029  13.774  65.115  1.00  0.00    -0.337 A  
HETATM   19  O   UNL     1     -11.016  11.428  65.085  1.00  0.00    -0.267 OA 
HETATM   20  H   UNL     1     -10.821  11.436  64.156  1.00  0.00     0.000 HD 
HETATM   21  C   UNL     1     -11.198  14.988  65.783  1.00  0.00    -0.318 A  
HETATM   22  C   UNL     1     -11.538  14.991  67.142  1.00  0.00    -0.271 A  
HETATM   23  C   UNL     1     -11.669  13.785  67.839  1.00  0.00    -0.395 A  
BRANCH  21  24
HETATM   24  C   UNL     1     -10.980  16.283  65.078  1.00  0.00    -0.298 C  
HETATM   25  N   UNL     1     -11.656  16.557  63.923  1.00  0.00    -1.578 NA 
HETATM   26  N   UNL     1     -10.179  17.206  65.508  1.00  0.00    -0.615 NA 
HETATM   27  H1  UNL     1     -11.507  17.443  63.441  1.00  0.00     0.000 HD 
HETATM   28  H2  UNL     1     -12.312  15.874  63.543  1.00  0.00     0.000 HD 
HETATM   29  H1  UNL     1     -10.030  18.091  65.025  1.00  0.00     0.000 HD 
HETATM   30  H2  UNL     1      -9.670  17.037  66.375  1.00  0.00     0.000 HD 
ENDBRANCH  21  24
ENDBRANCH  15  16
ENDBRANCH  11  14
ENDBRANCH   4   8
TORSDOF 4
ENDMDL
MODEL        7
REMARK 921   NORMALIZED FREE ENERGY PREDICTED BY IDOCK:   -7.20 KCAL/MOL
REMARK 922        TOTAL FREE ENERGY PREDICTED BY IDOCK:   -9.38 KCAL/MOL
REMARK 923 INTER-LIGAND FREE ENERGY PREDICTED BY IDOCK:   -8.91 KCAL/MOL
REMARK 924 INTRA-LIGAND FREE ENERGY PREDICTED BY IDOCK:   -0.47 KCAL/MOL
REMARK 927      BINDING AFFINITY PREDICTED BY RF-SCORE:    0.00 PKD
ROOT
HETATM    1  N   UNL     1     -12.211   7.883  72.531  1.00  0.00    -0.561 NA 
HETATM    2  H2  UNL     1     -12.428   7.107  73.157  1.00  0.00     0.000 HD 
HETATM    3  H1  UNL     1     -11.352   7.869  71.982  1.00  0.00     0.000 HD 
HETATM    4  C   UNL     1     -13.075   8.939  72.434  1.00  0.00    -0.418 C  
HETATM    5  H2  UNL     1     -14.378   8.182  73.754  1.00  0.00     0.000 HD 
HETATM    6  N   UNL     1     -14.162   8.959  73.129  1.00  0.00    -1.200 NA 
HETATM    7  H1  UNL     1     -14.806   9.746  73.056  1.00  0.00     0.000 HD 
ENDROOT
BRANCH   4   8
HETATM    8  C   UNL     1     -12.732  10.095  71.561  1.00  0.00    -0.541 A  
HETATM    9  C   UNL     1     -11.889   9.917  70.460  1.00  0.00    -0.350 A  
HETATM   10  C   UNL     1     -11.452  11.025  69.730  1.00  0.00    -0.387 A  
HETATM   11  C   UNL     1     -11.852  12.322  70.082  1.00  0.00    -0.352 A  
HETATM   12  C   UNL     1     -13.193  11.374  71.881  1.00  0.00    -0.485 A  
HETATM   13  C   UNL     1     -12.748  12.483  71.150  1.00  0.00    -0.340 A  
BRANCH  11  14
HETATM   14  C   UNL     1     -11.221  13.456  69.390  1.00  0.00    -0.235 C  
HETATM   15  C   UNL     1     -11.869  14.527  68.911  1.00  0.00    -0.359 C  
BRANCH  15  16
HETATM   16  C   UNL     1     -11.150  15.651  68.298  1.00  0.00    -0.336 A  
HETATM   17  C   UNL     1     -10.860  16.824  69.009  1.00  0.00    -0.291 A  
HETATM   18  C   UNL     1     -10.263  17.919  68.385  1.00  0.00    -0.398 A  
HETATM   19  O   UNL     1     -11.148  16.969  70.339  1.00  0.00    -0.343 OA 
HETATM   20  H   UNL     1     -10.951  17.764  70.821  1.00  0.00     0.000 HD 
HETATM   21  C   UNL     1      -9.920  17.842  67.034  1.00  0.00    -0.324 A  
HETATM   22  C   UNL     1     -10.157  16.658  66.324  1.00  0.00    -0.342 A  
HETATM   23  C   UNL     1     -10.771  15.569  66.953  1.00  0.00    -0.317 A  
BRANCH  21  24
HETATM   24  C   UNL     1      -9.342  19.019  66.326  1.00  0.00    -0.298 C  
HETATM   25  N   UNL     1      -8.055  18.981  65.869  1.00  0.00    -0.462 NA 
HETATM   26  N   UNL     1     -10.003  20.108  66.091  1.00  0.00    -0.575 NA 
HETATM   27  H1  UNL     1      -7.660  19.786  65.385  1.00  0.00     0.000 HD 
HETATM   28  H2  UNL     1      -7.489  18.144  66.012  1.00  0.00     0.000 HD 
HETATM   29  H1  UNL     1      -9.607  20.913  65.607  1.00  0.00     0.000 HD 
HETATM   30  H2  UNL     1     -10.971  20.163  66.407  1.00  0.00     0.000 HD 
ENDBRANCH  21  24
ENDBRANCH  15  16
ENDBRANCH  11  14
ENDBRANCH   4   8
TORSDOF 4
ENDMDL
MODEL        8
REMARK 921   NORMALIZED FREE ENERGY PREDICTED BY IDOCK:   -7.10 KCAL/MOL
REMARK 922        TOTAL FREE ENERGY PREDICTED BY IDOCK:   -9.27 KCAL/MOL
REMARK 923 INTER-LIGAND FREE ENERGY PREDICTED BY IDOCK:   -8.78 KCAL/MOL
REMARK 924 INTRA-LIGAND FREE ENERGY PREDICTED BY IDOCK:   -0.49 KCAL/MOL
REMARK 927      BINDING AFFINITY PREDICTED BY RF-SCORE:    0.00 PKD
ROOT
HETATM    1  N   UNL     1      -9.912  20.221  66.230  1.00  0.00    -0.592 NA 
HETATM    2  H2  UNL     1      -9.423  20.981  65.757  1.00  0.00     0.000 HD 
HETATM    3  H1  UNL     1     -10.864  20.363  66.567  1.00  0.00     0.000 HD 
HETATM    4  C   UNL     1      -9.287  19.018  66.409  1.00  0.00    -0.336 C  
HETATM    5  H2  UNL     1      -7.594  19.598  65.510  1.00  0.00     0.000 HD 
HETATM    6  N   UNL     1      -8.083  18.838  65.983  1.00  0.00    -0.474 NA 
HETATM    7  H1  UNL     1      -7.617  17.940  66.116  1.00  0.00     0.000 HD 
ENDROOT
BRANCH   4   8
HETATM    8  C   UNL     1      -9.984  17.928  67.146  1.00  0.00    -0.327 A  
HETATM    9  C   UNL     1     -10.192  18.034  68.524  1.00  0.00    -0.392 A  
HETATM   10  C   UNL     1     -10.713  16.951  69.237  1.00  0.00    -0.288 A  
HETATM   11  C   UNL     1     -11.038  15.752  68.587  1.00  0.00    -0.327 A  
HETATM   12  C   UNL     1     -10.367  16.765  66.475  1.00  0.00    -0.301 A  
HETATM   13  C   UNL     1     -10.884  15.679  67.194  1.00  0.00    -0.297 A  
BRANCH  11  14
HETATM   14  C   UNL     1     -11.413  14.594  69.412  1.00  0.00    -0.330 C  
HETATM   15  C   UNL     1     -11.492  13.328  68.978  1.00  0.00    -0.350 C  
BRANCH  15  16
HETATM   16  C   UNL     1     -11.802  12.220  69.888  1.00  0.00    -0.383 A  
HETATM   17  C   UNL     1     -11.303  10.926  69.682  1.00  0.00    -0.292 A  
HETATM   18  C   UNL     1     -11.684   9.864  70.502  1.00  0.00    -0.373 A  
HETATM   19  O   UNL     1     -10.429  10.627  68.672  1.00  0.00    -0.171 OA 
HETATM   20  H   UNL     1     -10.091   9.750  68.532  1.00  0.00     0.000 HD 
HETATM   21  C   UNL     1     -12.557  10.092  71.567  1.00  0.00    -0.537 A  
HETATM   22  C   UNL     1     -13.023  11.390  71.817  1.00  0.00    -0.519 A  
HETATM   23  C   UNL     1     -12.648  12.447  70.980  1.00  0.00    -0.349 A  
BRANCH  21  24
HETATM   24  C   UNL     1     -13.033   8.965  72.418  1.00  0.00    -0.404 C  
HETATM   25  N   UNL     1     -12.391   7.760  72.382  1.00  0.00    -0.527 NA 
HETATM   26  N   UNL     1     -14.037   9.057  73.230  1.00  0.00    -1.211 NA 
HETATM   27  H1  UNL     1     -12.717   6.989  72.963  1.00  0.00     0.000 HD 
HETATM   28  H2  UNL     1     -11.584   7.632  71.771  1.00  0.00     0.000 HD 
HETATM   29  H1  UNL     1     -14.364   8.286  73.812  1.00  0.00     0.000 HD 
HETATM   30  H2  UNL     1     -14.530   9.948  73.291  1.00  0.00     0.000 HD 
ENDBRANCH  21  24
ENDBRANCH  15  16
ENDBRANCH  11  14
ENDBRANCH   4   8
TORSDOF 4
ENDMDL
MODEL        9
REMARK 921   NORMALIZED FREE ENERGY PREDICTED BY IDOCK:   -7.04 KCAL/MOL
REMARK 922        TOTAL FREE ENERGY PREDICTED BY IDOCK:   -9.20 KCAL/MOL
REMARK 923 INTER-LIGAND FREE ENERGY PREDICTED BY IDOCK:   -8.73 KCAL/MOL
REMARK 924 INTRA-LIGAND FREE ENERGY PREDICTED BY IDOCK:   -0.47 KCAL/MOL
REMARK 927      BINDING AFFINITY PREDICTED BY RF-SCORE:    0.00 PKD
ROOT
HETATM    1  N   UNL     1     -13.723   8.131  71.064  1.00  0.00    -0.553 NA 
HETATM    2  H2  UNL     1     -14.099   7.247  71.408  1.00  0.00     0.000 HD 
HETATM    3  H1  UNL     1     -13.466   8.225  70.082  1.00  0.00     0.000 HD 
HETATM    4  C   UNL     1     -13.566   9.184  71.923  1.00  0.00    -0.432 C  
HETATM    5  H2  UNL     1     -14.267   8.181  73.510  1.00  0.00     0.000 HD 
HETATM    6  N   UNL     1     -13.891   9.065  73.166  1.00  0.00    -1.177 NA 
HETATM    7  H1  UNL     1     -13.774   9.851  73.806  1.00  0.00     0.000 HD 
ENDROOT
BRANCH   4   8
HETATM    8  C   UNL     1     -12.969  10.455  71.430  1.00  0.00    -0.545 A  
HETATM    9  C   UNL     1     -13.299  11.669  72.040  1.00  0.00    -0.405 A  
HETATM   10  C   UNL     1     -12.854  12.872  71.486  1.00  0.00    -0.380 A  
HETATM   11  C   UNL     1     -12.071  12.882  70.323  1.00  0.00    -0.377 A  
HETATM   12  C   UNL     1     -12.133  10.447  70.311  1.00  0.00    -0.370 A  
HETATM   13  C   UNL     1     -11.694  11.655  69.756  1.00  0.00    -0.425 A  
BRANCH  11  14
HETATM   14  C   UNL     1     -11.784  14.178  69.691  1.00  0.00    -0.372 C  
HETATM   15  C   UNL     1     -10.632  14.506  69.088  1.00  0.00    -0.242 C  
BRANCH  15  16
HETATM   16  C   UNL     1     -10.456  15.798  68.415  1.00  0.00    -0.245 A  
HETATM   17  C   UNL     1     -10.308  15.899  67.025  1.00  0.00    -0.297 A  
HETATM   18  C   UNL     1     -10.045  17.124  66.412  1.00  0.00    -0.326 A  
HETATM   19  O   UNL     1     -10.400  14.815  66.194  1.00  0.00    -0.281 OA 
HETATM   20  H   UNL     1     -10.300  14.883  65.252  1.00  0.00     0.000 HD 
HETATM   21  C   UNL     1      -9.955  18.280  67.189  1.00  0.00    -0.345 A  
HETATM   22  C   UNL     1     -10.153  18.203  68.573  1.00  0.00    -0.413 A  
HETATM   23  C   UNL     1     -10.400  16.968  69.183  1.00  0.00    -0.313 A  
BRANCH  21  24
HETATM   24  C   UNL     1      -9.610  19.591  66.569  1.00  0.00    -0.378 C  
HETATM   25  N   UNL     1      -8.395  20.165  66.811  1.00  0.00    -0.387 NA 
HETATM   26  N   UNL     1     -10.404  20.237  65.775  1.00  0.00    -0.461 NA 
HETATM   27  H1  UNL     1      -8.160  21.062  66.387  1.00  0.00     0.000 HD 
HETATM   28  H2  UNL     1      -7.723  19.697  67.418  1.00  0.00     0.000 HD 
HETATM   29  H1  UNL     1     -10.168  21.134  65.351  1.00  0.00     0.000 HD 
HETATM   30  H2  UNL     1     -11.313  19.827  65.562  1.00  0.00     0.000 HD 
ENDBRANCH  21  24
ENDBRANCH  15  16
ENDBRANCH  11  14
ENDBRANCH   4   8
TORSDOF 4
ENDMDL
MODEL       10
REMARK 921   NORMALIZED FREE ENERGY PREDICTED BY IDOCK:   -7.01 KCAL/MOL
REMARK 922        TOTAL FREE ENERGY PREDICTED BY IDOCK:   -9.15 KCAL/MOL
REMARK 923 INTER-LIGAND FREE ENERGY PREDICTED BY IDOCK:   -8.78 KCAL/MOL
REMARK 924 INTRA-LIGAND FREE ENERGY PREDICTED BY IDOCK:   -0.37 KCAL/MOL
REMARK 927      BINDING AFFINITY PREDICTED BY RF-SCORE:    0.00 PKD
ROOT
HETATM    1  N   UNL     1     -10.318   6.642  74.034  1.00  0.00    -0.359 NA 
HETATM    2  H2  UNL     1     -10.428   5.810  74.614  1.00  0.00     0.000 HD 
HETATM    3  H1  UNL     1      -9.628   7.349  74.286  1.00  0.00     0.000 HD 
HETATM    4  C   UNL     1     -11.097   6.804  72.921  1.00  0.00    -0.243 C  
HETATM    5  H2  UNL     1     -12.081   5.078  73.182  1.00  0.00     0.000 HD 
HETATM    6  N   UNL     1     -11.971   5.909  72.602  1.00  0.00    -0.532 NA 
HETATM    7  H1  UNL     1     -12.552   6.030  71.772  1.00  0.00     0.000 HD 
ENDROOT
BRANCH   4   8
HETATM    8  C   UNL     1     -10.971   8.043  72.106  1.00  0.00    -0.357 A  
HETATM    9  C   UNL     1     -12.084   8.864  71.901  1.00  0.00    -0.443 A  
HETATM   10  C   UNL     1     -12.000   9.945  71.019  1.00  0.00    -0.456 A  
HETATM   11  C   UNL     1     -10.809  10.224  70.335  1.00  0.00    -0.320 A  
HETATM   12  C   UNL     1      -9.759   8.350  71.485  1.00  0.00    -0.276 A  
HETATM   13  C   UNL     1      -9.681   9.431  70.596  1.00  0.00    -0.336 A  
BRANCH  11  14
HETATM   14  C   UNL     1     -10.833  11.260  69.292  1.00  0.00    -0.259 C  
HETATM   15  C   UNL     1     -11.706  12.275  69.230  1.00  0.00    -0.388 C  
BRANCH  15  16
HETATM   16  C   UNL     1     -11.612  13.310  68.194  1.00  0.00    -0.373 A  
HETATM   17  C   UNL     1     -11.796  13.020  66.835  1.00  0.00    -0.380 A  
HETATM   18  C   UNL     1     -11.608  13.994  65.855  1.00  0.00    -0.350 A  
HETATM   19  O   UNL     1     -12.156  11.777  66.389  1.00  0.00    -0.467 OA 
HETATM   20  H   UNL     1     -12.281  11.580  65.468  1.00  0.00     0.000 HD 
HETATM   21  C   UNL     1     -11.258  15.293  66.230  1.00  0.00    -0.223 A  
HETATM   22  C   UNL     1     -11.122  15.610  67.587  1.00  0.00    -0.305 A  
HETATM   23  C   UNL     1     -11.297  14.623  68.564  1.00  0.00    -0.305 A  
BRANCH  21  24
HETATM   24  C   UNL     1     -10.987  16.337  65.201  1.00  0.00    -0.274 C  
HETATM   25  N   UNL     1     -10.184  17.401  65.500  1.00  0.00    -0.618 NA 
HETATM   26  N   UNL     1     -11.462  16.295  63.997  1.00  0.00    -1.521 NA 
HETATM   27  H1  UNL     1     -10.000  18.116  64.796  1.00  0.00     0.000 HD 
HETATM   28  H2  UNL     1      -9.770  17.482  66.428  1.00  0.00     0.000 HD 
HETATM   29  H1  UNL     1     -11.277  17.009  63.294  1.00  0.00     0.000 HD 
HETATM   30  H2  UNL     1     -12.053  15.505  63.739  1.00  0.00     0.000 HD 
ENDBRANCH  21  24
ENDBRANCH  15  16
ENDBRANCH  11  14
ENDBRANCH   4   8
TORSDOF 4
ENDMDL
MODEL       11
REMARK 921   NORMALIZED FREE ENERGY PREDICTED BY IDOCK:   -6.96 KCAL/MOL
REMARK 922        TOTAL FREE ENERGY PREDICTED BY IDOCK:   -9.10 KCAL/MOL
REMARK 923 INTER-LIGAND FREE ENERGY PREDICTED BY IDOCK:   -8.60 KCAL/MOL
REMARK 924 INTRA-LIGAND FREE ENERGY PREDICTED BY IDOCK:   -0.50 KCAL/MOL
REMARK 927      BINDING AFFINITY PREDICTED BY RF-SCORE:    0.00 PKD
ROOT
HETATM    1  N   UNL     1     -12.377  14.191  63.206  1.00  0.00    -1.133 NA 
HETATM    2  H2  UNL     1     -12.589  14.670  62.330  1.00  0.00     0.000 HD 
HETATM    3  H1  UNL     1     -12.629  13.210  63.322  1.00  0.00     0.000 HD 
HETATM    4  C   UNL     1     -11.755  14.869  64.218  1.00  0.00    -0.247 C  
HETATM    5  H2  UNL     1     -11.648  16.589  63.196  1.00  0.00     0.000 HD 
HETATM    6  N   UNL     1     -11.435  16.111  64.072  1.00  0.00    -1.425 NA 
HETATM    7  H1  UNL     1     -10.971  16.616  64.827  1.00  0.00     0.000 HD 
ENDROOT
BRANCH   4   8
HETATM    8  C   UNL     1     -11.493  14.183  65.514  1.00  0.00    -0.324 A  
HETATM    9  C   UNL     1     -10.606  13.105  65.570  1.00  0.00    -0.299 A  
HETATM   10  C   UNL     1     -10.473  12.372  66.752  1.00  0.00    -0.242 A  
HETATM   11  C   UNL     1     -11.216  12.707  67.893  1.00  0.00    -0.310 A  
HETATM   12  C   UNL     1     -12.188  14.570  66.662  1.00  0.00    -0.250 A  
HETATM   13  C   UNL     1     -12.057  13.829  67.843  1.00  0.00    -0.322 A  
BRANCH  11  14
HETATM   14  C   UNL     1     -11.166  11.795  69.046  1.00  0.00    -0.324 C  
HETATM   15  C   UNL     1     -10.819  10.502  68.995  1.00  0.00    -0.272 C  
BRANCH  15  16
HETATM   16  C   UNL     1     -10.724   9.682  70.208  1.00  0.00    -0.335 A  
HETATM   17  C   UNL     1      -9.501   9.443  70.851  1.00  0.00    -0.209 A  
HETATM   18  C   UNL     1      -9.414   8.584  71.946  1.00  0.00    -0.350 A  
HETATM   19  O   UNL     1      -8.330  10.023  70.443  1.00  0.00    -0.349 OA 
HETATM   20  H   UNL     1      -7.501   9.862  70.879  1.00  0.00     0.000 HD 
HETATM   21  C   UNL     1     -10.568   7.968  72.434  1.00  0.00    -0.373 A  
HETATM   22  C   UNL     1     -11.805   8.237  71.834  1.00  0.00    -0.380 A  
HETATM   23  C   UNL     1     -11.881   9.088  70.726  1.00  0.00    -0.251 A  
BRANCH  21  24
HETATM   24  C   UNL     1     -10.494   6.994  73.560  1.00  0.00    -0.375 C  
HETATM   25  N   UNL     1     -11.291   5.885  73.561  1.00  0.00    -0.394 NA 
HETATM   26  N   UNL     1      -9.687   7.123  74.565  1.00  0.00    -0.433 NA 
HETATM   27  H1  UNL     1     -11.241   5.220  74.332  1.00  0.00     0.000 HD 
HETATM   28  H2  UNL     1     -11.938   5.723  72.789  1.00  0.00     0.000 HD 
HETATM   29  H1  UNL     1      -9.637   6.457  75.336  1.00  0.00     0.000 HD 
HETATM   30  H2  UNL     1      -9.068   7.933  74.587  1.00  0.00     0.000 HD 
ENDBRANCH  21  24
ENDBRANCH  15  16
ENDBRANCH  11  14
ENDBRANCH   4   8
TORSDOF 4
ENDMDL
MODEL       12
REMARK 921   NORMALIZED FREE ENERGY PREDICTED BY IDOCK:   -6.90 KCAL/MOL
REMARK 922        TOTAL FREE ENERGY PREDICTED BY IDOCK:   -9.02 KCAL/MOL
REMARK 923 INTER-LIGAND FREE ENERGY PREDICTED BY IDOCK:   -8.51 KCAL/MOL
REMARK 924 INTRA-LIGAND FREE ENERGY PREDICTED BY IDOCK:   -0.51 KCAL/MOL
REMARK 927      BINDING AFFINITY PREDICTED BY RF-SCORE:    0.00 PKD
ROOT
HETATM    1  N   UNL     1     -11.728  15.724  64.199  1.00  0.00    -0.887 NA 
HETATM    2  H2  UNL     1     -11.918  16.307  63.383  1.00  0.00     0.000 HD 
HETATM    3  H1  UNL     1     -11.335  16.142  65.042  1.00  0.00     0.000 HD 
HETATM    4  C   UNL     1     -12.001  14.384  64.156  1.00  0.00    -0.346 C  
HETATM    5  H2  UNL     1     -12.687  14.437  62.274  1.00  0.00     0.000 HD 
HETATM    6  N   UNL     1     -12.497  13.854  63.089  1.00  0.00    -1.079 NA 
HETATM    7  H1  UNL     1     -12.701  12.854  63.058  1.00  0.00     0.000 HD 
ENDROOT
BRANCH   4   8
HETATM    8  C   UNL     1     -11.673  13.526  65.328  1.00  0.00    -0.341 A  
HETATM    9  C   UNL     1     -11.220  12.218  65.136  1.00  0.00    -0.369 A  
HETATM   10  C   UNL     1     -11.054  11.369  66.233  1.00  0.00    -0.281 A  
HETATM   11  C   UNL     1     -11.330  11.813  67.534  1.00  0.00    -0.377 A  
HETATM   12  C   UNL     1     -11.886  14.003  66.623  1.00  0.00    -0.443 A  
HETATM   13  C   UNL     1     -11.724  13.147  67.720  1.00  0.00    -0.401 A  
BRANCH  11  14
HETATM   14  C   UNL     1     -11.307  10.827  68.624  1.00  0.00    -0.356 C  
HETATM   15  C   UNL     1     -10.528   9.736  68.664  1.00  0.00    -0.233 C  
BRANCH  15  16
HETATM   16  C   UNL     1     -10.514   8.842  69.828  1.00  0.00    -0.217 A  
HETATM   17  C   UNL     1     -10.837   7.482  69.725  1.00  0.00    -0.225 A  
HETATM   18  C   UNL     1     -10.913   6.668  70.855  1.00  0.00    -0.315 A  
HETATM   19  O   UNL     1     -11.103   6.877  68.526  1.00  0.00    -0.449 OA 
HETATM   20  H   UNL     1     -11.322   5.956  68.455  1.00  0.00     0.000 HD 
HETATM   21  C   UNL     1     -10.636   7.206  72.113  1.00  0.00    -0.238 A  
HETATM   22  C   UNL     1     -10.262   8.551  72.226  1.00  0.00    -0.395 A  
HETATM   23  C   UNL     1     -10.203   9.365  71.089  1.00  0.00    -0.361 A  
BRANCH  21  24
HETATM   24  C   UNL     1     -10.774   6.376  73.344  1.00  0.00    -0.262 C  
HETATM   25  N   UNL     1     -11.511   5.227  73.317  1.00  0.00    -0.508 NA 
HETATM   26  N   UNL     1     -10.209   6.672  74.471  1.00  0.00    -0.425 NA 
HETATM   27  H1  UNL     1     -11.606   4.661  74.159  1.00  0.00     0.000 HD 
HETATM   28  H2  UNL     1     -11.968   4.936  72.453  1.00  0.00     0.000 HD 
HETATM   29  H1  UNL     1     -10.304   6.105  75.314  1.00  0.00     0.000 HD 
HETATM   30  H2  UNL     1      -9.640   7.516  74.520  1.00  0.00     0.000 HD 
ENDBRANCH  21  24
ENDBRANCH  15  16
ENDBRANCH  11  14
ENDBRANCH   4   8
TORSDOF 4
ENDMDL
MODEL       13
REMARK 921   NORMALIZED FREE ENERGY PREDICTED BY IDOCK:   -6.82 KCAL/MOL
REMARK 922        TOTAL FREE ENERGY PREDICTED BY IDOCK:   -8.91 KCAL/MOL
REMARK 923 INTER-LIGAND FREE ENERGY PREDICTED BY IDOCK:   -8.44 KCAL/MOL
REMARK 924 INTRA-LIGAND FREE ENERGY PREDICTED BY IDOCK:   -0.47 KCAL/MOL
REMARK 927      BINDING AFFINITY PREDICTED BY RF-SCORE:    0.00 PKD
ROOT
HETATM    1  N   UNL     1     -10.189   7.227  74.016  1.00  0.00    -0.420 NA 
HETATM    2  H2  UNL     1     -10.099   6.571  74.793  1.00  0.00     0.000 HD 
HETATM    3  H1  UNL     1      -9.691   8.116  74.043  1.00  0.00     0.000 HD 
HETATM    4  C   UNL     1     -10.978   6.909  72.945  1.00  0.00    -0.281 C  
HETATM    5  H2  UNL     1     -11.519   5.129  73.688  1.00  0.00     0.000 HD 
HETATM    6  N   UNL     1     -11.609   5.784  72.911  1.00  0.00    -0.506 NA 
HETATM    7  H1  UNL     1     -12.198   5.548  72.112  1.00  0.00     0.000 HD 
ENDROOT
BRANCH   4   8
HETATM    8  C   UNL     1     -11.150   7.890  71.839  1.00  0.00    -0.317 A  
HETATM    9  C   UNL     1     -10.502   7.690  70.617  1.00  0.00    -0.217 A  
HETATM   10  C   UNL     1     -10.546   8.681  69.633  1.00  0.00    -0.219 A  
HETATM   11  C   UNL     1     -11.239   9.880  69.851  1.00  0.00    -0.298 A  
HETATM   12  C   UNL     1     -11.901   9.050  72.043  1.00  0.00    -0.426 A  
HETATM   13  C   UNL     1     -11.938  10.044  71.057  1.00  0.00    -0.469 A  
BRANCH  11  14
HETATM   14  C   UNL     1     -11.101  10.953  68.854  1.00  0.00    -0.307 C  
HETATM   15  C   UNL     1     -11.802  12.096  68.846  1.00  0.00    -0.358 C  
BRANCH  15  16
HETATM   16  C   UNL     1     -11.548  13.148  67.855  1.00  0.00    -0.375 A  
HETATM   17  C   UNL     1     -10.635  14.185  68.089  1.00  0.00    -0.246 A  
HETATM   18  C   UNL     1     -10.476  15.230  67.179  1.00  0.00    -0.280 A  
HETATM   19  O   UNL     1      -9.859  14.243  69.216  1.00  0.00    -0.417 OA 
HETATM   20  H   UNL     1      -9.240  14.946  69.375  1.00  0.00     0.000 HD 
HETATM   21  C   UNL     1     -11.218  15.233  65.995  1.00  0.00    -0.231 A  
HETATM   22  C   UNL     1     -12.096  14.176  65.724  1.00  0.00    -0.433 A  
HETATM   23  C   UNL     1     -12.261  13.140  66.650  1.00  0.00    -0.331 A  
BRANCH  21  24
HETATM   24  C   UNL     1     -11.117  16.369  65.036  1.00  0.00    -0.208 C  
HETATM   25  N   UNL     1     -11.660  16.261  63.787  1.00  0.00    -1.482 NA 
HETATM   26  N   UNL     1     -10.546  17.496  65.319  1.00  0.00    -0.618 NA 
HETATM   27  H1  UNL     1     -11.591  17.038  63.131  1.00  0.00     0.000 HD 
HETATM   28  H2  UNL     1     -12.136  15.402  63.511  1.00  0.00     0.000 HD 
HETATM   29  H1  UNL     1     -10.476  18.273  64.663  1.00  0.00     0.000 HD 
HETATM   30  H2  UNL     1     -10.143  17.612  66.249  1.00  0.00     0.000 HD 
ENDBRANCH  21  24
ENDBRANCH  15  16
ENDBRANCH  11  14
ENDBRANCH   4   8
TORSDOF 4
ENDMDL
MODEL       14
REMARK 921   NORMALIZED FREE ENERGY PREDICTED BY IDOCK:   -6.76 KCAL/MOL
REMARK 922        TOTAL FREE ENERGY PREDICTED BY IDOCK:   -8.85 KCAL/MOL
REMARK 923 INTER-LIGAND FREE ENERGY PREDICTED BY IDOCK:   -8.33 KCAL/MOL
REMARK 924 INTRA-LIGAND FREE ENERGY PREDICTED BY IDOCK:   -0.52 KCAL/MOL
REMARK 927      BINDING AFFINITY PREDICTED BY RF-SCORE:    0.00 PKD
ROOT
HETATM    1  N   UNL     1     -14.140   9.294  72.708  1.00  0.00    -0.950 NA 
HETATM    2  H2  UNL     1     -14.282   8.398  73.173  1.00  0.00     0.000 HD 
HETATM    3  H1  UNL     1     -14.906   9.964  72.650  1.00  0.00     0.000 HD 
HETATM    4  C   UNL     1     -12.921   9.591  72.163  1.00  0.00    -0.412 C  
HETATM    5  H2  UNL     1     -12.093   7.848  72.701  1.00  0.00     0.000 HD 
HETATM    6  N   UNL     1     -11.950   8.744  72.235  1.00  0.00    -0.364 NA 
HETATM    7  H1  UNL     1     -11.041   8.967  71.829  1.00  0.00     0.000 HD 
ENDROOT
BRANCH   4   8
HETATM    8  C   UNL     1     -12.731  10.878  71.438  1.00  0.00    -0.539 A  
HETATM    9  C   UNL     1     -12.012  10.909  70.240  1.00  0.00    -0.448 A  
HETATM   10  C   UNL     1     -11.710  12.134  69.639  1.00  0.00    -0.396 A  
HETATM   11  C   UNL     1     -12.125  13.341  70.219  1.00  0.00    -0.405 A  
HETATM   12  C   UNL     1     -13.208  12.068  71.990  1.00  0.00    -0.481 A  
HETATM   13  C   UNL     1     -12.899  13.294  71.388  1.00  0.00    -0.411 A  
BRANCH  11  14
HETATM   14  C   UNL     1     -11.627  14.597  69.638  1.00  0.00    -0.349 C  
HETATM   15  C   UNL     1     -10.343  14.979  69.604  1.00  0.00    -0.201 C  
BRANCH  15  16
HETATM   16  C   UNL     1      -9.924  16.217  68.937  1.00  0.00    -0.233 A  
HETATM   17  C   UNL     1      -8.587  16.637  68.919  1.00  0.00    -0.235 A  
HETATM   18  C   UNL     1      -8.221  17.863  68.365  1.00  0.00    -0.303 A  
HETATM   19  O   UNL     1      -7.572  15.885  69.446  1.00  0.00    -0.226 OA 
HETATM   20  H   UNL     1      -6.666  16.169  69.434  1.00  0.00     0.000 HD 
HETATM   21  C   UNL     1      -9.196  18.680  67.790  1.00  0.00    -0.306 A  
HETATM   22  C   UNL     1     -10.529  18.250  67.754  1.00  0.00    -0.430 A  
HETATM   23  C   UNL     1     -10.891  17.026  68.327  1.00  0.00    -0.341 A  
BRANCH  21  24
HETATM   24  C   UNL     1      -8.844  20.024  67.250  1.00  0.00    -0.344 C  
HETATM   25  N   UNL     1      -9.784  20.768  66.595  1.00  0.00    -0.624 NA 
HETATM   26  N   UNL     1      -7.673  20.561  67.378  1.00  0.00    -0.330 NA 
HETATM   27  H1  UNL     1      -9.542  21.686  66.225  1.00  0.00     0.000 HD 
HETATM   28  H2  UNL     1     -10.729  20.403  66.475  1.00  0.00     0.000 HD 
HETATM   29  H1  UNL     1      -7.431  21.480  67.008  1.00  0.00     0.000 HD 
HETATM   30  H2  UNL     1      -6.952  20.037  67.875  1.00  0.00     0.000 HD 
ENDBRANCH  21  24
ENDBRANCH  15  16
ENDBRANCH  11  14
ENDBRANCH   4   8
TORSDOF 4
ENDMDL
MODEL       15
REMARK 921   NORMALIZED FREE ENERGY PREDICTED BY IDOCK:   -6.76 KCAL/MOL
REMARK 922        TOTAL FREE ENERGY PREDICTED BY IDOCK:   -8.84 KCAL/MOL
REMARK 923 INTER-LIGAND FREE ENERGY PREDICTED BY IDOCK:   -8.35 KCAL/MOL
REMARK 924 INTRA-LIGAND FREE ENERGY PREDICTED BY IDOCK:   -0.49 KCAL/MOL
REMARK 927      BINDING AFFINITY PREDICTED BY RF-SCORE:    0.00 PKD
ROOT
HETATM    1  N   UNL     1     -12.062  15.427  74.519  1.00  0.00    -0.666 NA 
HETATM    2  H2  UNL     1     -12.297  15.716  75.469  1.00  0.00     0.000 HD 
HETATM    3  H1  UNL     1     -11.213  14.887  74.349  1.00  0.00     0.000 HD 
HETATM    4  C   UNL     1     -12.884  15.767  73.480  1.00  0.00    -0.584 C  
HETATM    5  H2  UNL     1     -14.193  16.739  74.645  1.00  0.00     0.000 HD 
HETATM    6  N   UNL     1     -13.958  16.450  73.695  1.00  0.00    -0.555 NA 
HETATM    7  H1  UNL     1     -14.571  16.702  72.920  1.00  0.00     0.000 HD 
ENDROOT
BRANCH   4   8
HETATM    8  C   UNL     1     -12.511  15.389  72.089  1.00  0.00    -0.452 A  
HETATM    9  C   UNL     1     -13.022  14.220  71.518  1.00  0.00    -0.411 A  
HETATM   10  C   UNL     1     -12.558  13.792  70.272  1.00  0.00    -0.288 A  
HETATM   11  C   UNL     1     -11.586  14.524  69.577  1.00  0.00    -0.350 A  
HETATM   12  C   UNL     1     -11.593  16.164  71.378  1.00  0.00    -0.495 A  
HETATM   13  C   UNL     1     -11.126  15.729  70.131  1.00  0.00    -0.360 A  
BRANCH  11  14
HETATM   14  C   UNL     1     -11.011  13.934  68.359  1.00  0.00    -0.272 C  
HETATM   15  C   UNL     1     -11.426  12.799  67.779  1.00  0.00    -0.376 C  
BRANCH  15  16
HETATM   16  C   UNL     1     -10.844  12.319  66.520  1.00  0.00    -0.297 A  
HETATM   17  C   UNL     1     -11.600  12.207  65.345  1.00  0.00    -0.330 A  
HETATM   18  C   UNL     1     -11.057  11.659  64.184  1.00  0.00    -0.435 A  
HETATM   19  O   UNL     1     -12.905  12.614  65.269  1.00  0.00    -0.656 OA 
HETATM   20  H   UNL     1     -13.418  12.538  64.473  1.00  0.00     0.000 HD 
HETATM   21  C   UNL     1      -9.725  11.238  64.176  1.00  0.00    -0.298 A  
HETATM   22  C   UNL     1      -8.942  11.392  65.327  1.00  0.00    -0.017 A  
HETATM   23  C   UNL     1      -9.499  11.928  66.493  1.00  0.00    -0.226 A  
BRANCH  21  24
HETATM   24  C   UNL     1      -9.138  10.589  62.969  1.00  0.00    -0.275 C  
HETATM   25  N   UNL     1      -8.045  11.135  62.361  1.00  0.00    -0.460 NA 
HETATM   26  N   UNL     1      -9.599   9.495  62.451  1.00  0.00    -0.551 NA 
HETATM   27  H1  UNL     1      -7.644  10.691  61.535  1.00  0.00     0.000 HD 
HETATM   28  H2  UNL     1      -7.629  11.989  62.732  1.00  0.00     0.000 HD 
HETATM   29  H1  UNL     1      -9.198   9.051  61.625  1.00  0.00     0.000 HD 
HETATM   30  H2  UNL     1     -10.407   9.055  62.891  1.00  0.00     0.000 HD 
ENDBRANCH  21  24
ENDBRANCH  15  16
ENDBRANCH  11  14
ENDBRANCH   4   8
TORSDOF 4
ENDMDL
MODEL       16
REMARK 921   NORMALIZED FREE ENERGY PREDICTED BY IDOCK:   -6.66 KCAL/MOL
REMARK 922        TOTAL FREE ENERGY PREDICTED BY IDOCK:   -8.72 KCAL/MOL
REMARK 923 INTER-LIGAND FREE ENERGY PREDICTED BY IDOCK:   -8.23 KCAL/MOL
REMARK 924 INTRA-LIGAND FREE ENERGY PREDICTED BY IDOCK:   -0.49 KCAL/MOL
REMARK 927      BINDING AFFINITY PREDICTED BY RF-SCORE:    0.00 PKD
ROOT
HETATM    1  N   UNL     1      -9.054   3.015  67.457  1.00  0.00    -0.164 NA 
HETATM    2  H2  UNL     1      -9.068   1.997  67.390  1.00  0.00     0.000 HD 
HETATM    3  H1  UNL     1      -8.714   3.463  68.308  1.00  0.00     0.000 HD 
HETATM    4  C   UNL     1      -9.492   3.773  66.406  1.00  0.00    -0.183 C  
HETATM    5  H2  UNL     1      -9.936   2.189  65.262  1.00  0.00     0.000 HD 
HETATM    6  N   UNL     1      -9.922   3.207  65.329  1.00  0.00    -0.380 NA 
HETATM    7  H1  UNL     1     -10.248   3.772  64.545  1.00  0.00     0.000 HD 
ENDROOT
BRANCH   4   8
HETATM    8  C   UNL     1      -9.520   5.256  66.526  1.00  0.00    -0.155 A  
HETATM    9  C   UNL     1     -10.639   5.896  67.067  1.00  0.00    -0.376 A  
HETATM   10  C   UNL     1     -10.724   7.290  67.046  1.00  0.00    -0.406 A  
HETATM   11  C   UNL     1      -9.695   8.065  66.492  1.00  0.00    -0.297 A  
HETATM   12  C   UNL     1      -8.458   6.017  66.034  1.00  0.00    -0.139 A  
HETATM   13  C   UNL     1      -8.549   7.415  66.009  1.00  0.00    -0.162 A  
BRANCH  11  14
HETATM   14  C   UNL     1      -9.920   9.510  66.337  1.00  0.00    -0.339 C  
HETATM   15  C   UNL     1     -10.020  10.157  65.167  1.00  0.00    -0.379 C  
BRANCH  15  16
HETATM   16  C   UNL     1     -10.320  11.592  65.104  1.00  0.00    -0.329 A  
HETATM   17  C   UNL     1     -11.013  12.160  64.026  1.00  0.00    -0.380 A  
HETATM   18  C   UNL     1     -11.205  13.538  63.934  1.00  0.00    -0.152 A  
HETATM   19  O   UNL     1     -11.528  11.408  63.004  1.00  0.00    -0.853 OA 
HETATM   20  H   UNL     1     -11.997  11.793  62.273  1.00  0.00     0.000 HD 
HETATM   21  C   UNL     1     -10.726  14.371  64.947  1.00  0.00    -0.444 A  
HETATM   22  C   UNL     1     -10.078  13.813  66.056  1.00  0.00    -0.320 A  
HETATM   23  C   UNL     1      -9.875  12.430  66.133  1.00  0.00    -0.263 A  
BRANCH  21  24
HETATM   24  C   UNL     1     -10.860  15.852  64.843  1.00  0.00    -0.400 C  
HETATM   25  N   UNL     1     -10.113  16.665  65.647  1.00  0.00    -0.561 NA 
HETATM   26  N   UNL     1     -11.649  16.441  64.003  1.00  0.00    -1.542 NA 
HETATM   27  H1  UNL     1     -10.205  17.678  65.577  1.00  0.00     0.000 HD 
HETATM   28  H2  UNL     1      -9.463  16.259  66.320  1.00  0.00     0.000 HD 
HETATM   29  H1  UNL     1     -11.741  17.454  63.932  1.00  0.00     0.000 HD 
HETATM   30  H2  UNL     1     -12.210  15.862  63.379  1.00  0.00     0.000 HD 
ENDBRANCH  21  24
ENDBRANCH  15  16
ENDBRANCH  11  14
ENDBRANCH   4   8
TORSDOF 4
ENDMDL
MODEL       17
REMARK 921   NORMALIZED FREE ENERGY PREDICTED BY IDOCK:   -6.64 KCAL/MOL
REMARK 922        TOTAL FREE ENERGY PREDICTED BY IDOCK:   -8.70 KCAL/MOL
REMARK 923 INTER-LIGAND FREE ENERGY PREDICTED BY IDOCK:   -8.22 KCAL/MOL
REMARK 924 INTRA-LIGAND FREE ENERGY PREDICTED BY IDOCK:   -0.48 KCAL/MOL
REMARK 927      BINDING AFFINITY PREDICTED BY RF-SCORE:    0.00 PKD
ROOT
HETATM    1  N   UNL     1     -13.339   7.061  72.116  1.00  0.00    -0.540 NA 
HETATM    2  H2  UNL     1     -13.431   6.238  72.711  1.00  0.00     0.000 HD 
HETATM    3  H1  UNL     1     -14.022   7.234  71.379  1.00  0.00     0.000 HD 
HETATM    4  C   UNL     1     -12.299   7.928  72.311  1.00  0.00    -0.256 C  
HETATM    5  H2  UNL     1     -11.527   6.887  73.839  1.00  0.00     0.000 HD 
HETATM    6  N   UNL     1     -11.434   7.710  73.244  1.00  0.00    -0.638 NA 
HETATM    7  H1  UNL     1     -10.659   8.358  73.389  1.00  0.00     0.000 HD 
ENDROOT
BRANCH   4   8
HETATM    8  C   UNL     1     -12.137   9.101  71.407  1.00  0.00    -0.409 A  
HETATM    9  C   UNL     1     -11.168   9.081  70.400  1.00  0.00    -0.275 A  
HETATM   10  C   UNL     1     -10.919  10.233  69.650  1.00  0.00    -0.314 A  
HETATM   11  C   UNL     1     -11.633  11.416  69.889  1.00  0.00    -0.402 A  
HETATM   12  C   UNL     1     -12.903  10.250  71.610  1.00  0.00    -0.568 A  
HETATM   13  C   UNL     1     -12.646  11.405  70.860  1.00  0.00    -0.453 A  
BRANCH  11  14
HETATM   14  C   UNL     1     -11.205  12.638  69.193  1.00  0.00    -0.300 C  
HETATM   15  C   UNL     1     -12.017  13.477  68.533  1.00  0.00    -0.379 C  
BRANCH  15  16
HETATM   16  C   UNL     1     -11.516  14.717  67.928  1.00  0.00    -0.350 A  
HETATM   17  C   UNL     1     -11.077  14.772  66.598  1.00  0.00    -0.333 A  
HETATM   18  C   UNL     1     -10.514  15.933  66.069  1.00  0.00    -0.357 A  
HETATM   19  O   UNL     1     -11.161  13.701  65.750  1.00  0.00    -0.295 OA 
HETATM   20  H   UNL     1     -10.864  13.738  64.849  1.00  0.00     0.000 HD 
HETATM   21  C   UNL     1     -10.410  17.076  66.866  1.00  0.00    -0.303 A  
HETATM   22  C   UNL     1     -10.893  17.051  68.181  1.00  0.00    -0.338 A  
HETATM   23  C   UNL     1     -11.441  15.877  68.709  1.00  0.00    -0.393 A  
BRANCH  21  24
HETATM   24  C   UNL     1      -9.754  18.309  66.348  1.00  0.00    -0.334 C  
HETATM   25  N   UNL     1      -8.439  18.284  65.981  1.00  0.00    -0.511 NA 
HETATM   26  N   UNL     1     -10.370  19.439  66.200  1.00  0.00    -0.472 NA 
HETATM   27  H1  UNL     1      -7.990  19.128  65.627  1.00  0.00     0.000 HD 
HETATM   28  H2  UNL     1      -7.904  17.418  66.061  1.00  0.00     0.000 HD 
HETATM   29  H1  UNL     1      -9.921  20.283  65.847  1.00  0.00     0.000 HD 
HETATM   30  H2  UNL     1     -11.357  19.487  66.452  1.00  0.00     0.000 HD 
ENDBRANCH  21  24
ENDBRANCH  15  16
ENDBRANCH  11  14
ENDBRANCH   4   8
TORSDOF 4
ENDMDL
MODEL       18
REMARK 921   NORMALIZED FREE ENERGY PREDICTED BY IDOCK:   -6.51 KCAL/MOL
REMARK 922        TOTAL FREE ENERGY PREDICTED BY IDOCK:   -8.54 KCAL/MOL
REMARK 923 INTER-LIGAND FREE ENERGY PREDICTED BY IDOCK:   -8.02 KCAL/MOL
REMARK 924 INTRA-LIGAND FREE ENERGY PREDICTED BY IDOCK:   -0.51 KCAL/MOL
REMARK 927      BINDING AFFINITY PREDICTED BY RF-SCORE:    0.00 PKD
ROOT
HETATM    1  N   UNL     1     -13.930   7.385  71.265  1.00  0.00    -0.595 NA 
HETATM    2  H2  UNL     1     -14.453   6.613  71.678  1.00  0.00     0.000 HD 
HETATM    3  H1  UNL     1     -13.478   7.265  70.359  1.00  0.00     0.000 HD 
HETATM    4  C   UNL     1     -13.838   8.577  71.929  1.00  0.00    -0.424 C  
HETATM    5  H2  UNL     1     -14.932   7.958  73.489  1.00  0.00     0.000 HD 
HETATM    6  N   UNL     1     -14.409   8.730  73.076  1.00  0.00    -1.133 NA 
HETATM    7  H1  UNL     1     -14.341   9.620  73.571  1.00  0.00     0.000 HD 
ENDROOT
BRANCH   4   8
HETATM    8  C   UNL     1     -13.031   9.685  71.348  1.00  0.00    -0.474 A  
HETATM    9  C   UNL     1     -13.244  11.002  71.765  1.00  0.00    -0.505 A  
HETATM   10  C   UNL     1     -12.591  12.054  71.117  1.00  0.00    -0.372 A  
HETATM   11  C   UNL     1     -11.714  11.807  70.051  1.00  0.00    -0.386 A  
HETATM   12  C   UNL     1     -12.108   9.420  70.334  1.00  0.00    -0.011 A  
HETATM   13  C   UNL     1     -11.460  10.477  69.682  1.00  0.00    -0.349 A  
BRANCH  11  14
HETATM   14  C   UNL     1     -11.197  12.958  69.296  1.00  0.00    -0.251 C  
HETATM   15  C   UNL     1     -11.455  14.244  69.574  1.00  0.00    -0.336 C  
BRANCH  15  16
HETATM   16  C   UNL     1     -10.836  15.336  68.813  1.00  0.00    -0.254 A  
HETATM   17  C   UNL     1     -10.830  16.658  69.280  1.00  0.00    -0.310 A  
HETATM   18  C   UNL     1     -10.323  17.698  68.501  1.00  0.00    -0.370 A  
HETATM   19  O   UNL     1     -11.324  17.007  70.507  1.00  0.00    -0.303 OA 
HETATM   20  H   UNL     1     -11.320  17.903  70.824  1.00  0.00     0.000 HD 
HETATM   21  C   UNL     1      -9.784  17.420  67.243  1.00  0.00    -0.267 A  
HETATM   22  C   UNL     1      -9.736  16.097  66.786  1.00  0.00    -0.255 A  
HETATM   23  C   UNL     1     -10.261  15.061  67.567  1.00  0.00    -0.234 A  
BRANCH  21  24
HETATM   24  C   UNL     1      -9.296  18.519  66.363  1.00  0.00    -0.282 C  
HETATM   25  N   UNL     1     -10.061  19.633  66.170  1.00  0.00    -0.454 NA 
HETATM   26  N   UNL     1      -8.149  18.498  65.762  1.00  0.00    -0.456 NA 
HETATM   27  H1  UNL     1      -9.728  20.385  65.567  1.00  0.00     0.000 HD 
HETATM   28  H2  UNL     1     -10.969  19.713  66.628  1.00  0.00     0.000 HD 
HETATM   29  H1  UNL     1      -7.815  19.249  65.159  1.00  0.00     0.000 HD 
HETATM   30  H2  UNL     1      -7.547  17.686  65.897  1.00  0.00     0.000 HD 
ENDBRANCH  21  24
ENDBRANCH  15  16
ENDBRANCH  11  14
ENDBRANCH   4   8
TORSDOF 4
ENDMDL
MODEL       19
REMARK 921   NORMALIZED FREE ENERGY PREDICTED BY IDOCK:   -6.48 KCAL/MOL
REMARK 922        TOTAL FREE ENERGY PREDICTED BY IDOCK:   -8.50 KCAL/MOL
REMARK 923 INTER-LIGAND FREE ENERGY PREDICTED BY IDOCK:   -8.02 KCAL/MOL
REMARK 924 INTRA-LIGAND FREE ENERGY PREDICTED BY IDOCK:   -0.48 KCAL/MOL
REMARK 927      BINDING AFFINITY PREDICTED BY RF-SCORE:    0.00 PKD
ROOT
HETATM    1  N   UNL     1     -11.134  15.999  64.286  1.00  0.00    -1.044 NA 
HETATM    2  H2  UNL     1     -11.344  16.648  63.527  1.00  0.00     0.000 HD 
HETATM    3  H1  UNL     1     -10.454  16.259  65.001  1.00  0.00     0.000 HD 
HETATM    4  C   UNL     1     -11.764  14.787  64.339  1.00  0.00    -0.336 C  
HETATM    5  H2  UNL     1     -12.833  15.107  62.675  1.00  0.00     0.000 HD 
HETATM    6  N   UNL     1     -12.623  14.458  63.434  1.00  0.00    -0.970 NA 
HETATM    7  H1  UNL     1     -13.093  13.554  63.475  1.00  0.00     0.000 HD 
ENDROOT
BRANCH   4   8
HETATM    8  C   UNL     1     -11.417  13.821  65.418  1.00  0.00    -0.318 A  
HETATM    9  C   UNL     1     -10.483  12.809  65.181  1.00  0.00    -0.320 A  
HETATM   10  C   UNL     1     -10.266  11.819  66.143  1.00  0.00    -0.255 A  
HETATM   11  C   UNL     1     -10.972  11.828  67.354  1.00  0.00    -0.314 A  
HETATM   12  C   UNL     1     -12.076  13.881  66.648  1.00  0.00    -0.485 A  
HETATM   13  C   UNL     1     -11.861  12.884  67.608  1.00  0.00    -0.400 A  
BRANCH  11  14
HETATM   14  C   UNL     1     -10.833  10.668  68.247  1.00  0.00    -0.287 C  
HETATM   15  C   UNL     1     -11.247  10.618  69.521  1.00  0.00    -0.331 C  
BRANCH  15  16
HETATM   16  C   UNL     1     -11.136   9.392  70.320  1.00  0.00    -0.299 A  
HETATM   17  C   UNL     1     -11.943   9.160  71.442  1.00  0.00    -0.339 A  
HETATM   18  C   UNL     1     -11.759   8.035  72.246  1.00  0.00    -0.428 A  
HETATM   19  O   UNL     1     -12.942  10.016  71.820  1.00  0.00    -0.392 OA 
HETATM   20  H   UNL     1     -13.489   9.859  72.581  1.00  0.00     0.000 HD 
HETATM   21  C   UNL     1     -10.773   7.104  71.916  1.00  0.00    -0.243 A  
HETATM   22  C   UNL     1      -9.993   7.296  70.768  1.00  0.00    -0.187 A  
HETATM   23  C   UNL     1     -10.173   8.436  69.975  1.00  0.00    -0.202 A  
BRANCH  21  24
HETATM   24  C   UNL     1     -10.510   5.928  72.793  1.00  0.00    -0.209 C  
HETATM   25  N   UNL     1     -11.550   5.181  73.268  1.00  0.00    -0.516 NA 
HETATM   26  N   UNL     1      -9.322   5.541  73.133  1.00  0.00    -0.139 NA 
HETATM   27  H1  UNL     1     -11.370   4.377  73.868  1.00  0.00     0.000 HD 
HETATM   28  H2  UNL     1     -12.509   5.429  73.022  1.00  0.00     0.000 HD 
HETATM   29  H1  UNL     1      -9.142   4.737  73.734  1.00  0.00     0.000 HD 
HETATM   30  H2  UNL     1      -8.523   6.069  72.783  1.00  0.00     0.000 HD 
ENDBRANCH  21  24
ENDBRANCH  15  16
ENDBRANCH  11  14
ENDBRANCH   4   8
TORSDOF 4
ENDMDL
MODEL       20
REMARK 921   NORMALIZED FREE ENERGY PREDICTED BY IDOCK:   -6.46 KCAL/MOL
REMARK 922        TOTAL FREE ENERGY PREDICTED BY IDOCK:   -8.48 KCAL/MOL
REMARK 923 INTER-LIGAND FREE ENERGY PREDICTED BY IDOCK:   -7.98 KCAL/MOL
REMARK 924 INTRA-LIGAND FREE ENERGY PREDICTED BY IDOCK:   -0.50 KCAL/MOL
REMARK 927      BINDING AFFINITY PREDICTED BY RF-SCORE:    0.00 PKD
ROOT
HETATM    1  N   UNL     1     -11.145   4.621  65.387  1.00  0.00    -0.958 NA 
HETATM    2  H2  UNL     1     -11.132   3.730  64.889  1.00  0.00     0.000 HD 
HETATM    3  H1  UNL     1     -11.678   5.404  65.012  1.00  0.00     0.000 HD 
HETATM    4  C   UNL     1     -10.445   4.757  66.554  1.00  0.00    -0.204 C  
HETATM    5  H2  UNL     1      -9.757   2.876  66.531  1.00  0.00     0.000 HD 
HETATM    6  N   UNL     1      -9.769   3.766  67.029  1.00  0.00    -0.318 NA 
HETATM    7  H1  UNL     1      -9.247   3.869  67.900  1.00  0.00     0.000 HD 
ENDROOT
BRANCH   4   8
HETATM    8  C   UNL     1     -10.422   6.073  67.251  1.00  0.00    -0.319 A  
HETATM    9  C   UNL     1     -10.920   6.187  68.552  1.00  0.00    -0.404 A  
HETATM   10  C   UNL     1     -11.031   7.446  69.148  1.00  0.00    -0.057 A  
HETATM   11  C   UNL     1     -10.644   8.604  68.460  1.00  0.00    -0.162 A  
HETATM   12  C   UNL     1      -9.969   7.211  66.580  1.00  0.00    -0.234 A  
HETATM   13  C   UNL     1     -10.088   8.472  67.179  1.00  0.00    -0.331 A  
BRANCH  11  14
HETATM   14  C   UNL     1     -10.950   9.908  69.068  1.00  0.00    -0.223 C  
HETATM   15  C   UNL     1     -12.079  10.209  69.725  1.00  0.00    -0.047 C  
BRANCH  15  16
HETATM   16  C   UNL     1     -12.271  11.515  70.367  1.00  0.00    -0.442 A  
HETATM   17  C   UNL     1     -12.938  11.650  71.592  1.00  0.00    -0.378 A  
HETATM   18  C   UNL     1     -13.197  12.906  72.141  1.00  0.00    -0.552 A  
HETATM   19  O   UNL     1     -13.380  10.573  72.313  1.00  0.00    -0.601 OA 
HETATM   20  H   UNL     1     -13.832  10.664  73.143  1.00  0.00     0.000 HD 
HETATM   21  C   UNL     1     -12.761  14.054  71.476  1.00  0.00    -0.443 A  
HETATM   22  C   UNL     1     -12.048  13.932  70.276  1.00  0.00    -0.423 A  
HETATM   23  C   UNL     1     -11.806  12.669  69.724  1.00  0.00    -0.379 A  
BRANCH  21  24
HETATM   24  C   UNL     1     -13.081  15.410  72.005  1.00  0.00    -0.413 C  
HETATM   25  N   UNL     1     -12.100  16.354  72.108  1.00  0.00    -0.619 NA 
HETATM   26  N   UNL     1     -14.269  15.772  72.371  1.00  0.00    -0.473 NA 
HETATM   27  H1  UNL     1     -12.319  17.282  72.471  1.00  0.00     0.000 HD 
HETATM   28  H2  UNL     1     -11.147  16.131  71.823  1.00  0.00     0.000 HD 
HETATM   29  H1  UNL     1     -14.489  16.699  72.734  1.00  0.00     0.000 HD 
HETATM   30  H2  UNL     1     -15.027  15.094  72.292  1.00  0.00     0.000 HD 
ENDBRANCH  21  24
ENDBRANCH  15  16
ENDBRANCH  11  14
ENDBRANCH   4   8
TORSDOF 4
ENDMDL
MODEL       21
REMARK 921   NORMALIZED FREE ENERGY PREDICTED BY IDOCK:   -6.40 KCAL/MOL
REMARK 922        TOTAL FREE ENERGY PREDICTED BY IDOCK:   -8.41 KCAL/MOL
REMARK 923 INTER-LIGAND FREE ENERGY PREDICTED BY IDOCK:   -7.89 KCAL/MOL
REMARK 924 INTRA-LIGAND FREE ENERGY PREDICTED BY IDOCK:   -0.52 KCAL/MOL
REMARK 927      BINDING AFFINITY PREDICTED BY RF-SCORE:    0.00 PKD
ROOT
HETATM    1  N   UNL     1      -8.560   8.626  63.348  1.00  0.00    -0.417 NA 
HETATM    2  H2  UNL     1      -8.159   8.271  62.479  1.00  0.00     0.000 HD 
HETATM    3  H1  UNL     1      -8.606   8.022  64.168  1.00  0.00     0.000 HD 
HETATM    4  C   UNL     1      -9.033   9.907  63.405  1.00  0.00    -0.256 C  
HETATM    5  H2  UNL     1      -8.575  10.317  61.498  1.00  0.00     0.000 HD 
HETATM    6  N   UNL     1      -8.976  10.671  62.367  1.00  0.00    -0.266 NA 
HETATM    7  H1  UNL     1      -9.329  11.627  62.410  1.00  0.00     0.000 HD 
ENDROOT
BRANCH   4   8
HETATM    8  C   UNL     1      -9.665  10.405  64.658  1.00  0.00    -0.392 A  
HETATM    9  C   UNL     1     -10.484  11.537  64.630  1.00  0.00    -0.356 A  
HETATM   10  C   UNL     1     -10.957  12.087  65.824  1.00  0.00    -0.351 A  
HETATM   11  C   UNL     1     -10.625  11.513  67.060  1.00  0.00    -0.277 A  
HETATM   12  C   UNL     1      -9.384   9.784  65.877  1.00  0.00    -0.260 A  
HETATM   13  C   UNL     1      -9.855  10.341  67.073  1.00  0.00    -0.238 A  
BRANCH  11  14
HETATM   14  C   UNL     1     -11.003  12.235  68.284  1.00  0.00    -0.268 C  
HETATM   15  C   UNL     1     -11.862  13.263  68.342  1.00  0.00    -0.395 C  
BRANCH  15  16
HETATM   16  C   UNL     1     -12.240  13.879  69.620  1.00  0.00    -0.374 A  
HETATM   17  C   UNL     1     -12.283  15.270  69.791  1.00  0.00    -0.294 A  
HETATM   18  C   UNL     1     -12.550  15.838  71.036  1.00  0.00    -0.470 A  
HETATM   19  O   UNL     1     -12.059  16.145  68.763  1.00  0.00    -0.366 OA 
HETATM   20  H   UNL     1     -12.088  17.088  68.879  1.00  0.00     0.000 HD 
HETATM   21  C   UNL     1     -12.809  15.011  72.132  1.00  0.00    -0.414 A  
HETATM   22  C   UNL     1     -12.821  13.620  71.964  1.00  0.00    -0.367 A  
HETATM   23  C   UNL     1     -12.536  13.058  70.714  1.00  0.00    -0.384 A  
BRANCH  21  24
HETATM   24  C   UNL     1     -13.032  15.589  73.487  1.00  0.00    -0.542 C  
HETATM   25  N   UNL     1     -12.281  15.164  74.546  1.00  0.00    -0.723 NA 
HETATM   26  N   UNL     1     -13.908  16.510  73.736  1.00  0.00    -0.478 NA 
HETATM   27  H1  UNL     1     -12.435  15.559  75.473  1.00  0.00     0.000 HD 
HETATM   28  H2  UNL     1     -11.566  14.450  74.408  1.00  0.00     0.000 HD 
HETATM   29  H1  UNL     1     -14.062  16.905  74.664  1.00  0.00     0.000 HD 
HETATM   30  H2  UNL     1     -14.476  16.858  72.964  1.00  0.00     0.000 HD 
ENDBRANCH  21  24
ENDBRANCH  15  16
ENDBRANCH  11  14
ENDBRANCH   4   8
TORSDOF 4
ENDMDL
MODEL       22
REMARK 921   NORMALIZED FREE ENERGY PREDICTED BY IDOCK:   -6.30 KCAL/MOL
REMARK 922        TOTAL FREE ENERGY PREDICTED BY IDOCK:   -8.28 KCAL/MOL
REMARK 923 INTER-LIGAND FREE ENERGY PREDICTED BY IDOCK:   -7.77 KCAL/MOL
REMARK 924 INTRA-LIGAND FREE ENERGY PREDICTED BY IDOCK:   -0.51 KCAL/MOL
REMARK 927      BINDING AFFINITY PREDICTED BY RF-SCORE:    0.00 PKD
ROOT
HETATM    1  N   UNL     1     -12.090  16.068  71.419  1.00  0.00    -0.542 NA 
HETATM    2  H2  UNL     1     -12.255  17.067  71.549  1.00  0.00     0.000 HD 
HETATM    3  H1  UNL     1     -11.135  15.710  71.404  1.00  0.00     0.000 HD 
HETATM    4  C   UNL     1     -13.150  15.217  71.264  1.00  0.00    -0.468 C  
HETATM    5  H2  UNL     1     -14.523  16.669  71.412  1.00  0.00     0.000 HD 
HETATM    6  N   UNL     1     -14.357  15.670  71.282  1.00  0.00    -0.678 NA 
HETATM    7  H1  UNL     1     -15.148  15.035  71.167  1.00  0.00     0.000 HD 
ENDROOT
BRANCH   4   8
HETATM    8  C   UNL     1     -12.903  13.769  71.021  1.00  0.00    -0.376 A  
HETATM    9  C   UNL     1     -13.370  12.816  71.931  1.00  0.00    -0.510 A  
HETATM   10  C   UNL     1     -13.014  11.473  71.779  1.00  0.00    -0.500 A  
HETATM   11  C   UNL     1     -12.194  11.063  70.718  1.00  0.00    -0.480 A  
HETATM   12  C   UNL     1     -12.144  13.364  69.922  1.00  0.00    -0.389 A  
HETATM   13  C   UNL     1     -11.784  12.018  69.776  1.00  0.00    -0.390 A  
BRANCH  11  14
HETATM   14  C   UNL     1     -11.710   9.674  70.712  1.00  0.00    -0.390 C  
HETATM   15  C   UNL     1     -11.412   8.954  71.803  1.00  0.00    -0.423 C  
BRANCH  15  16
HETATM   16  C   UNL     1     -11.006   7.547  71.709  1.00  0.00    -0.268 A  
HETATM   17  C   UNL     1     -10.640   6.802  72.838  1.00  0.00    -0.250 A  
HETATM   18  C   UNL     1     -10.164   5.496  72.721  1.00  0.00    -0.216 A  
HETATM   19  O   UNL     1     -10.715   7.305  74.109  1.00  0.00    -0.565 OA 
HETATM   20  H   UNL     1     -10.467   6.800  74.874  1.00  0.00     0.000 HD 
HETATM   21  C   UNL     1     -10.075   4.904  71.460  1.00  0.00    -0.266 A  
HETATM   22  C   UNL     1     -10.487   5.618  70.327  1.00  0.00    -0.363 A  
HETATM   23  C   UNL     1     -10.948   6.934  70.452  1.00  0.00    -0.315 A  
BRANCH  21  24
HETATM   24  C   UNL     1      -9.509   3.535  71.298  1.00  0.00    -0.159 C  
HETATM   25  N   UNL     1      -8.487   3.315  70.419  1.00  0.00    -0.055 NA 
HETATM   26  N   UNL     1      -9.922   2.507  71.969  1.00  0.00    -0.163 NA 
HETATM   27  H1  UNL     1      -8.100   2.378  70.309  1.00  0.00     0.000 HD 
HETATM   28  H2  UNL     1      -8.110   4.089  69.873  1.00  0.00     0.000 HD 
HETATM   29  H1  UNL     1      -9.535   1.570  71.858  1.00  0.00     0.000 HD 
HETATM   30  H2  UNL     1     -10.675   2.641  72.644  1.00  0.00     0.000 HD 
ENDBRANCH  21  24
ENDBRANCH  15  16
ENDBRANCH  11  14
ENDBRANCH   4   8
TORSDOF 4
ENDMDL
MODEL       23
REMARK 921   NORMALIZED FREE ENERGY PREDICTED BY IDOCK:   -6.30 KCAL/MOL
REMARK 922        TOTAL FREE ENERGY PREDICTED BY IDOCK:   -8.27 KCAL/MOL
REMARK 923 INTER-LIGAND FREE ENERGY PREDICTED BY IDOCK:   -7.76 KCAL/MOL
REMARK 924 INTRA-LIGAND FREE ENERGY PREDICTED BY IDOCK:   -0.51 KCAL/MOL
REMARK 927      BINDING AFFINITY PREDICTED BY RF-SCORE:    0.00 PKD
ROOT
HETATM    1  N   UNL     1     -11.814  16.787  72.382  1.00  0.00    -0.488 NA 
HETATM    2  H2  UNL     1     -11.844  17.637  72.946  1.00  0.00     0.000 HD 
HETATM    3  H1  UNL     1     -11.119  16.693  71.642  1.00  0.00     0.000 HD 
HETATM    4  C   UNL     1     -12.708  15.779  72.622  1.00  0.00    -0.451 C  
HETATM    5  H2  UNL     1     -13.617  16.747  74.122  1.00  0.00     0.000 HD 
HETATM    6  N   UNL     1     -13.588  15.898  73.558  1.00  0.00    -0.761 NA 
HETATM    7  H1  UNL     1     -14.254  15.146  73.737  1.00  0.00     0.000 HD 
ENDROOT
BRANCH   4   8
HETATM    8  C   UNL     1     -12.696  14.563  71.764  1.00  0.00    -0.415 A  
HETATM    9  C   UNL     1     -13.162  13.345  72.266  1.00  0.00    -0.570 A  
HETATM   10  C   UNL     1     -13.016  12.178  71.512  1.00  0.00    -0.398 A  
HETATM   11  C   UNL     1     -12.410  12.210  70.248  1.00  0.00    -0.269 A  
HETATM   12  C   UNL     1     -12.153  14.620  70.478  1.00  0.00    -0.388 A  
HETATM   13  C   UNL     1     -12.003  13.447  69.728  1.00  0.00    -0.396 A  
BRANCH  11  14
HETATM   14  C   UNL     1     -12.125  10.930  69.583  1.00  0.00    -0.400 C  
HETATM   15  C   UNL     1     -10.919  10.533  69.152  1.00  0.00    -0.286 C  
BRANCH  15  16
HETATM   16  C   UNL     1     -10.709   9.205  68.564  1.00  0.00    -0.160 A  
HETATM   17  C   UNL     1     -10.435   9.030  67.201  1.00  0.00    -0.263 A  
HETATM   18  C   UNL     1     -10.335   7.757  66.640  1.00  0.00    -0.262 A  
HETATM   19  O   UNL     1     -10.261  10.083  66.344  1.00  0.00    -0.236 OA 
HETATM   20  H   UNL     1     -10.075   9.965  65.420  1.00  0.00     0.000 HD 
HETATM   21  C   UNL     1     -10.480   6.630  67.453  1.00  0.00    -0.325 A  
HETATM   22  C   UNL     1     -10.703   6.790  68.826  1.00  0.00    -0.280 A  
HETATM   23  C   UNL     1     -10.819   8.071  69.378  1.00  0.00    -0.104 A  
BRANCH  21  24
HETATM   24  C   UNL     1     -10.443   5.259  66.869  1.00  0.00    -0.254 C  
HETATM   25  N   UNL     1      -9.730   4.271  67.486  1.00  0.00    -0.171 NA 
HETATM   26  N   UNL     1     -11.076   4.924  65.790  1.00  0.00    -0.885 NA 
HETATM   27  H1  UNL     1      -9.704   3.334  67.086  1.00  0.00     0.000 HD 
HETATM   28  H2  UNL     1      -9.222   4.472  68.347  1.00  0.00     0.000 HD 
HETATM   29  H1  UNL     1     -11.051   3.987  65.391  1.00  0.00     0.000 HD 
HETATM   30  H2  UNL     1     -11.630   5.636  65.314  1.00  0.00     0.000 HD 
ENDBRANCH  21  24
ENDBRANCH  15  16
ENDBRANCH  11  14
ENDBRANCH   4   8
TORSDOF 4
ENDMDL
MODEL       24
REMARK 921   NORMALIZED FREE ENERGY PREDICTED BY IDOCK:   -6.24 KCAL/MOL
REMARK 922        TOTAL FREE ENERGY PREDICTED BY IDOCK:   -8.20 KCAL/MOL
REMARK 923 INTER-LIGAND FREE ENERGY PREDICTED BY IDOCK:   -7.69 KCAL/MOL
REMARK 924 INTRA-LIGAND FREE ENERGY PREDICTED BY IDOCK:   -0.51 KCAL/MOL
REMARK 927      BINDING AFFINITY PREDICTED BY RF-SCORE:    0.00 PKD
ROOT
HETATM    1  N   UNL     1      -8.694  18.993  65.891  1.00  0.00    -0.414 NA 
HETATM    2  H2  UNL     1      -8.376  19.916  65.597  1.00  0.00     0.000 HD 
HETATM    3  H1  UNL     1      -8.474  18.175  65.323  1.00  0.00     0.000 HD 
HETATM    4  C   UNL     1      -9.414  18.857  67.046  1.00  0.00    -0.310 C  
HETATM    5  H2  UNL     1      -9.375  20.815  67.472  1.00  0.00     0.000 HD 
HETATM    6  N   UNL     1      -9.693  19.891  67.766  1.00  0.00    -0.373 NA 
HETATM    7  H1  UNL     1     -10.229  19.789  68.628  1.00  0.00     0.000 HD 
ENDROOT
BRANCH   4   8
HETATM    8  C   UNL     1      -9.922  17.516  67.446  1.00  0.00    -0.315 A  
HETATM    9  C   UNL     1     -10.780  17.388  68.542  1.00  0.00    -0.279 A  
HETATM   10  C   UNL     1     -11.138  16.119  69.004  1.00  0.00    -0.336 A  
HETATM   11  C   UNL     1     -10.651  14.963  68.378  1.00  0.00    -0.244 A  
HETATM   12  C   UNL     1      -9.485  16.374  66.772  1.00  0.00    -0.265 A  
HETATM   13  C   UNL     1      -9.841  15.103  67.241  1.00  0.00    -0.228 A  
BRANCH  11  14
HETATM   14  C   UNL     1     -10.918  13.664  69.014  1.00  0.00    -0.271 C  
HETATM   15  C   UNL     1     -11.815  13.449  69.987  1.00  0.00    -0.364 C  
BRANCH  15  16
HETATM   16  C   UNL     1     -12.070  12.104  70.515  1.00  0.00    -0.383 A  
HETATM   17  C   UNL     1     -12.886  11.887  71.634  1.00  0.00    -0.312 A  
HETATM   18  C   UNL     1     -13.041  10.613  72.181  1.00  0.00    -0.382 A  
HETATM   19  O   UNL     1     -13.565  12.899  72.258  1.00  0.00    -0.560 OA 
HETATM   20  H   UNL     1     -14.118  12.752  73.016  1.00  0.00     0.000 HD 
HETATM   21  C   UNL     1     -12.397   9.524  71.590  1.00  0.00    -0.480 A  
HETATM   22  C   UNL     1     -11.620   9.718  70.441  1.00  0.00    -0.327 A  
HETATM   23  C   UNL     1     -11.457  11.002  69.908  1.00  0.00    -0.400 A  
BRANCH  21  24
HETATM   24  C   UNL     1     -12.491   8.164  72.191  1.00  0.00    -0.322 C  
HETATM   25  N   UNL     1     -11.644   7.799  73.199  1.00  0.00    -0.634 NA 
HETATM   26  N   UNL     1     -13.362   7.279  71.823  1.00  0.00    -0.491 NA 
HETATM   27  H1  UNL     1     -11.709   6.868  73.609  1.00  0.00     0.000 HD 
HETATM   28  H2  UNL     1     -10.946   8.460  73.540  1.00  0.00     0.000 HD 
HETATM   29  H1  UNL     1     -13.426   6.348  72.234  1.00  0.00     0.000 HD 
HETATM   30  H2  UNL     1     -14.018   7.525  71.083  1.00  0.00     0.000 HD 
ENDBRANCH  21  24
ENDBRANCH  15  16
ENDBRANCH  11  14
ENDBRANCH   4   8
TORSDOF 4
ENDMDL
MODEL       25
REMARK 921   NORMALIZED FREE ENERGY PREDICTED BY IDOCK:   -6.24 KCAL/MOL
REMARK 922        TOTAL FREE ENERGY PREDICTED BY IDOCK:   -8.20 KCAL/MOL
REMARK 923 INTER-LIGAND FREE ENERGY PREDICTED BY IDOCK:   -7.71 KCAL/MOL
REMARK 924 INTRA-LIGAND FREE ENERGY PREDICTED BY IDOCK:   -0.49 KCAL/MOL
REMARK 927      BINDING AFFINITY PREDICTED BY RF-SCORE:    0.00 PKD
ROOT
HETATM    1  N   UNL     1     -10.499  16.784  65.118  1.00  0.00    -0.678 NA 
HETATM    2  H2  UNL     1     -10.366  17.625  64.556  1.00  0.00     0.000 HD 
HETATM    3  H1  UNL     1      -9.905  16.617  65.930  1.00  0.00     0.000 HD 
HETATM    4  C   UNL     1     -11.474  15.887  64.779  1.00  0.00    -0.234 C  
HETATM    5  H2  UNL     1     -12.092  16.938  63.190  1.00  0.00     0.000 HD 
HETATM    6  N   UNL     1     -12.226  16.097  63.752  1.00  0.00    -1.074 NA 
HETATM    7  H1  UNL     1     -12.953  15.428  63.500  1.00  0.00     0.000 HD 
ENDROOT
BRANCH   4   8
HETATM    8  C   UNL     1     -11.632  14.635  65.570  1.00  0.00    -0.335 A  
HETATM    9  C   UNL     1     -11.787  14.697  66.958  1.00  0.00    -0.358 A  
HETATM   10  C   UNL     1     -11.788  13.521  67.713  1.00  0.00    -0.398 A  
HETATM   11  C   UNL     1     -11.641  12.271  67.096  1.00  0.00    -0.423 A  
HETATM   12  C   UNL     1     -11.553  13.394  64.937  1.00  0.00    -0.354 A  
HETATM   13  C   UNL     1     -11.549  12.217  65.697  1.00  0.00    -0.433 A  
BRANCH  11  14
HETATM   14  C   UNL     1     -11.472  11.089  67.955  1.00  0.00    -0.358 C  
HETATM   15  C   UNL     1     -10.832  11.073  69.133  1.00  0.00    -0.283 C  
BRANCH  15  16
HETATM   16  C   UNL     1     -10.775   9.864  69.962  1.00  0.00    -0.338 A  
HETATM   17  C   UNL     1      -9.886   8.816  69.688  1.00  0.00    -0.183 A  
HETATM   18  C   UNL     1      -9.912   7.633  70.428  1.00  0.00    -0.188 A  
HETATM   19  O   UNL     1      -8.957   8.881  68.685  1.00  0.00    -0.137 OA 
HETATM   20  H   UNL     1      -8.354   8.171  68.500  1.00  0.00     0.000 HD 
HETATM   21  C   UNL     1     -10.818   7.496  71.481  1.00  0.00    -0.253 A  
HETATM   22  C   UNL     1     -11.677   8.556  71.799  1.00  0.00    -0.392 A  
HETATM   23  C   UNL     1     -11.657   9.733  71.042  1.00  0.00    -0.455 A  
BRANCH  21  24
HETATM   24  C   UNL     1     -10.912   6.220  72.244  1.00  0.00    -0.259 C  
HETATM   25  N   UNL     1     -10.330   5.085  71.757  1.00  0.00    -0.209 NA 
HETATM   26  N   UNL     1     -11.514   6.113  73.386  1.00  0.00    -0.366 NA 
HETATM   27  H1  UNL     1     -10.396   4.212  72.280  1.00  0.00     0.000 HD 
HETATM   28  H2  UNL     1      -9.830   5.110  70.869  1.00  0.00     0.000 HD 
HETATM   29  H1  UNL     1     -11.580   5.240  73.909  1.00  0.00     0.000 HD 
HETATM   30  H2  UNL     1     -11.947   6.946  73.784  1.00  0.00     0.000 HD 
ENDBRANCH  21  24
ENDBRANCH  15  16
ENDBRANCH  11  14
ENDBRANCH   4   8
TORSDOF 4
ENDMDL
MODEL       26
REMARK 921   NORMALIZED FREE ENERGY PREDICTED BY IDOCK:   -6.20 KCAL/MOL
REMARK 922        TOTAL FREE ENERGY PREDICTED BY IDOCK:   -8.15 KCAL/MOL
REMARK 923 INTER-LIGAND FREE ENERGY PREDICTED BY IDOCK:   -7.63 KCAL/MOL
REMARK 924 INTRA-LIGAND FREE ENERGY PREDICTED BY IDOCK:   -0.52 KCAL/MOL
REMARK 927      BINDING AFFINITY PREDICTED BY RF-SCORE:    0.00 PKD
ROOT
HETATM    1  N   UNL     1     -11.534   6.788  67.423  1.00  0.00    -0.716 NA 
HETATM    2  H2  UNL     1     -11.793   5.806  67.324  1.00  0.00     0.000 HD 
HETATM    3  H1  UNL     1     -12.086   7.400  68.024  1.00  0.00     0.000 HD 
HETATM    4  C   UNL     1     -10.450   7.278  66.748  1.00  0.00    -0.241 C  
HETATM    5  H2  UNL     1     -10.010   5.523  65.888  1.00  0.00     0.000 HD 
HETATM    6  N   UNL     1      -9.752   6.505  65.987  1.00  0.00    -0.395 NA 
HETATM    7  H1  UNL     1      -8.943   6.871  65.484  1.00  0.00     0.000 HD 
ENDROOT
BRANCH   4   8
HETATM    8  C   UNL     1     -10.107   8.723  66.853  1.00  0.00    -0.348 A  
HETATM    9  C   UNL     1     -10.297   9.404  68.060  1.00  0.00    -0.267 A  
HETATM   10  C   UNL     1     -10.113  10.788  68.116  1.00  0.00    -0.183 A  
HETATM   11  C   UNL     1      -9.733  11.510  66.976  1.00  0.00    -0.202 A  
HETATM   12  C   UNL     1      -9.662   9.420  65.728  1.00  0.00    -0.354 A  
HETATM   13  C   UNL     1      -9.485  10.808  65.787  1.00  0.00    -0.244 A  
BRANCH  11  14
HETATM   14  C   UNL     1      -9.729  12.978  67.054  1.00  0.00    -0.235 C  
HETATM   15  C   UNL     1     -10.679  13.782  66.556  1.00  0.00    -0.284 C  
BRANCH  15  16
HETATM   16  C   UNL     1     -10.633  15.237  66.744  1.00  0.00    -0.304 A  
HETATM   17  C   UNL     1     -10.588  16.126  65.661  1.00  0.00    -0.363 A  
HETATM   18  C   UNL     1     -10.447  17.499  65.857  1.00  0.00    -0.251 A  
HETATM   19  O   UNL     1     -10.668  15.706  64.360  1.00  0.00    -0.724 OA 
HETATM   20  H   UNL     1     -10.638  16.309  63.626  1.00  0.00     0.000 HD 
HETATM   21  C   UNL     1     -10.378  18.008  67.156  1.00  0.00    -0.382 A  
HETATM   22  C   UNL     1     -10.474  17.137  68.248  1.00  0.00    -0.373 A  
HETATM   23  C   UNL     1     -10.599  15.758  68.043  1.00  0.00    -0.279 A  
BRANCH  21  24
HETATM   24  C   UNL     1     -10.162  19.463  67.394  1.00  0.00    -0.420 C  
HETATM   25  N   UNL     1     -10.189  19.961  68.665  1.00  0.00    -0.493 NA 
HETATM   26  N   UNL     1      -9.925  20.315  66.448  1.00  0.00    -0.572 NA 
HETATM   27  H1  UNL     1     -10.041  20.957  68.828  1.00  0.00     0.000 HD 
HETATM   28  H2  UNL     1     -10.357  19.336  69.453  1.00  0.00     0.000 HD 
HETATM   29  H1  UNL     1      -9.778  21.311  66.610  1.00  0.00     0.000 HD 
HETATM   30  H2  UNL     1      -9.885  19.972  65.488  1.00  0.00     0.000 HD 
ENDBRANCH  21  24
ENDBRANCH  15  16
ENDBRANCH  11  14
ENDBRANCH   4   8
TORSDOF 4
ENDMDL
MODEL       27
REMARK 921   NORMALIZED FREE ENERGY PREDICTED BY IDOCK:   -6.07 KCAL/MOL
REMARK 922        TOTAL FREE ENERGY PREDICTED BY IDOCK:   -8.00 KCAL/MOL
REMARK 923 INTER-LIGAND FREE ENERGY PREDICTED BY IDOCK:   -7.50 KCAL/MOL
REMARK 924 INTRA-LIGAND FREE ENERGY PREDICTED BY IDOCK:   -0.50 KCAL/MOL
REMARK 927      BINDING AFFINITY PREDICTED BY RF-SCORE:    0.00 PKD
ROOT
HETATM    1  N   UNL     1     -11.151   6.519  66.506  1.00  0.00    -0.620 NA 
HETATM    2  H2  UNL     1     -10.977   5.519  66.409  1.00  0.00     0.000 HD 
HETATM    3  H1  UNL     1     -12.108   6.871  66.496  1.00  0.00     0.000 HD 
HETATM    4  C   UNL     1     -10.099   7.382  66.649  1.00  0.00    -0.183 C  
HETATM    5  H2  UNL     1      -8.714   5.936  66.565  1.00  0.00     0.000 HD 
HETATM    6  N   UNL     1      -8.888   6.937  66.662  1.00  0.00    -0.129 NA 
HETATM    7  H1  UNL     1      -8.104   7.581  66.769  1.00  0.00     0.000 HD 
ENDROOT
BRANCH   4   8
HETATM    8  C   UNL     1     -10.353   8.846  66.737  1.00  0.00    -0.317 A  
HETATM    9  C   UNL     1      -9.860   9.705  65.750  1.00  0.00    -0.373 A  
HETATM   10  C   UNL     1      -9.973  11.088  65.909  1.00  0.00    -0.289 A  
HETATM   11  C   UNL     1     -10.581  11.634  67.049  1.00  0.00    -0.272 A  
HETATM   12  C   UNL     1     -11.021   9.374  67.844  1.00  0.00    -0.122 A  
HETATM   13  C   UNL     1     -11.127  10.762  68.003  1.00  0.00    -0.359 A  
BRANCH  11  14
HETATM   14  C   UNL     1     -10.511  13.090  67.243  1.00  0.00    -0.238 C  
HETATM   15  C   UNL     1     -10.589  14.005  66.267  1.00  0.00    -0.281 C  
BRANCH  15  16
HETATM   16  C   UNL     1     -10.585  15.444  66.559  1.00  0.00    -0.306 A  
HETATM   17  C   UNL     1     -10.703  16.408  65.548  1.00  0.00    -0.287 A  
HETATM   18  C   UNL     1     -10.601  17.769  65.831  1.00  0.00    -0.205 A  
HETATM   19  O   UNL     1     -10.912  16.077  64.236  1.00  0.00    -0.922 OA 
HETATM   20  H   UNL     1     -10.992  16.730  63.551  1.00  0.00     0.000 HD 
HETATM   21  C   UNL     1     -10.407  18.189  67.148  1.00  0.00    -0.391 A  
HETATM   22  C   UNL     1     -10.339  17.239  68.176  1.00  0.00    -0.357 A  
HETATM   23  C   UNL     1     -10.427  15.874  67.882  1.00  0.00    -0.288 A  
BRANCH  21  24
HETATM   24  C   UNL     1     -10.228  19.633  67.471  1.00  0.00    -0.432 C  
HETATM   25  N   UNL     1     -10.447  20.084  68.741  1.00  0.00    -0.507 NA 
HETATM   26  N   UNL     1      -9.851  20.517  66.603  1.00  0.00    -0.619 NA 
HETATM   27  H1  UNL     1     -10.326  21.072  68.961  1.00  0.00     0.000 HD 
HETATM   28  H2  UNL     1     -10.733  19.431  69.471  1.00  0.00     0.000 HD 
HETATM   29  H1  UNL     1      -9.730  21.506  66.823  1.00  0.00     0.000 HD 
HETATM   30  H2  UNL     1      -9.666  20.210  65.649  1.00  0.00     0.000 HD 
ENDBRANCH  21  24
ENDBRANCH  15  16
ENDBRANCH  11  14
ENDBRANCH   4   8
TORSDOF 4
ENDMDL
MODEL       28
REMARK 921   NORMALIZED FREE ENERGY PREDICTED BY IDOCK:   -6.02 KCAL/MOL
REMARK 922        TOTAL FREE ENERGY PREDICTED BY IDOCK:   -7.94 KCAL/MOL
REMARK 923 INTER-LIGAND FREE ENERGY PREDICTED BY IDOCK:   -7.43 KCAL/MOL
REMARK 924 INTRA-LIGAND FREE ENERGY PREDICTED BY IDOCK:   -0.51 KCAL/MOL
REMARK 927      BINDING AFFINITY PREDICTED BY RF-SCORE:    0.00 PKD
ROOT
HETATM    1  N   UNL     1     -12.762  16.045  70.424  1.00  0.00    -0.594 NA 
HETATM    2  H2  UNL     1     -12.926  17.048  70.519  1.00  0.00     0.000 HD 
HETATM    3  H1  UNL     1     -12.257  15.688  69.613  1.00  0.00     0.000 HD 
HETATM    4  C   UNL     1     -13.221  15.187  71.385  1.00  0.00    -0.449 C  
HETATM    5  H2  UNL     1     -14.024  16.640  72.506  1.00  0.00     0.000 HD 
HETATM    6  N   UNL     1     -13.860  15.638  72.411  1.00  0.00    -0.538 NA 
HETATM    7  H1  UNL     1     -14.202  14.997  73.127  1.00  0.00     0.000 HD 
ENDROOT
BRANCH   4   8
HETATM    8  C   UNL     1     -13.026  13.720  71.217  1.00  0.00    -0.409 A  
HETATM    9  C   UNL     1     -13.557  12.830  72.155  1.00  0.00    -0.547 A  
HETATM   10  C   UNL     1     -13.251  11.469  72.077  1.00  0.00    -0.443 A  
HETATM   11  C   UNL     1     -12.419  10.977  71.061  1.00  0.00    -0.512 A  
HETATM   12  C   UNL     1     -12.253  13.234  70.161  1.00  0.00    -0.376 A  
HETATM   13  C   UNL     1     -11.943  11.870  70.089  1.00  0.00    -0.413 A  
BRANCH  11  14
HETATM   14  C   UNL     1     -11.991   9.572  71.134  1.00  0.00    -0.429 C  
HETATM   15  C   UNL     1     -11.243   8.942  70.217  1.00  0.00    -0.219 C  
BRANCH  15  16
HETATM   16  C   UNL     1     -10.798   7.557  70.405  1.00  0.00    -0.255 A  
HETATM   17  C   UNL     1     -10.879   6.603  69.381  1.00  0.00    -0.292 A  
HETATM   18  C   UNL     1     -10.542   5.269  69.606  1.00  0.00    -0.261 A  
HETATM   19  O   UNL     1     -11.297   6.916  68.116  1.00  0.00    -0.533 OA 
HETATM   20  H   UNL     1     -11.352   6.270  67.421  1.00  0.00     0.000 HD 
HETATM   21  C   UNL     1     -10.087   4.874  70.865  1.00  0.00    -0.292 A  
HETATM   22  C   UNL     1      -9.952   5.826  71.884  1.00  0.00    -0.214 A  
HETATM   23  C   UNL     1     -10.307   7.160  71.655  1.00  0.00    -0.215 A  
BRANCH  21  24
HETATM   24  C   UNL     1      -9.783   3.443  71.152  1.00  0.00    -0.152 C  
HETATM   25  N   UNL     1     -10.113   2.901  72.361  1.00  0.00    -0.164 NA 
HETATM   26  N   UNL     1      -9.223   2.646  70.298  1.00  0.00    -0.120 NA 
HETATM   27  H1  UNL     1      -9.904   1.923  72.557  1.00  0.00     0.000 HD 
HETATM   28  H2  UNL     1     -10.569   3.476  73.069  1.00  0.00     0.000 HD 
HETATM   29  H1  UNL     1      -9.014   1.668  70.494  1.00  0.00     0.000 HD 
HETATM   30  H2  UNL     1      -8.977   3.017  69.381  1.00  0.00     0.000 HD 
ENDBRANCH  21  24
ENDBRANCH  15  16
ENDBRANCH  11  14
ENDBRANCH   4   8
TORSDOF 4
ENDMDL
MODEL       29
REMARK 921   NORMALIZED FREE ENERGY PREDICTED BY IDOCK:   -5.90 KCAL/MOL
REMARK 922        TOTAL FREE ENERGY PREDICTED BY IDOCK:   -7.78 KCAL/MOL
REMARK 923 INTER-LIGAND FREE ENERGY PREDICTED BY IDOCK:   -7.26 KCAL/MOL
REMARK 924 INTRA-LIGAND FREE ENERGY PREDICTED BY IDOCK:   -0.52 KCAL/MOL
REMARK 927      BINDING AFFINITY PREDICTED BY RF-SCORE:    0.00 PKD
ROOT
HETATM    1  N   UNL     1     -10.893  19.177  65.230  1.00  0.00    -0.424 NA 
HETATM    2  H2  UNL     1     -10.937  20.116  64.835  1.00  0.00     0.000 HD 
HETATM    3  H1  UNL     1     -11.560  18.467  64.927  1.00  0.00     0.000 HD 
HETATM    4  C   UNL     1      -9.940  18.874  66.163  1.00  0.00    -0.356 C  
HETATM    5  H2  UNL     1      -9.140  20.711  66.152  1.00  0.00     0.000 HD 
HETATM    6  N   UNL     1      -9.096  19.772  66.547  1.00  0.00    -0.359 NA 
HETATM    7  H1  UNL     1      -8.385  19.546  67.243  1.00  0.00     0.000 HD 
ENDROOT
BRANCH   4   8
HETATM    8  C   UNL     1      -9.911  17.518  66.776  1.00  0.00    -0.313 A  
HETATM    9  C   UNL     1     -10.373  16.413  66.055  1.00  0.00    -0.365 A  
HETATM   10  C   UNL     1     -10.481  15.168  66.681  1.00  0.00    -0.287 A  
HETATM   11  C   UNL     1     -10.126  15.007  68.027  1.00  0.00    -0.223 A  
HETATM   12  C   UNL     1      -9.489  17.356  68.097  1.00  0.00    -0.288 A  
HETATM   13  C   UNL     1      -9.605  16.108  68.722  1.00  0.00    -0.235 A  
BRANCH  11  14
HETATM   14  C   UNL     1     -10.428  13.722  68.676  1.00  0.00    -0.245 C  
HETATM   15  C   UNL     1     -11.618  13.374  69.187  1.00  0.00    -0.365 C  
BRANCH  15  16
HETATM   16  C   UNL     1     -11.853  12.040  69.751  1.00  0.00    -0.401 A  
HETATM   17  C   UNL     1     -12.521  11.855  70.970  1.00  0.00    -0.290 A  
HETATM   18  C   UNL     1     -12.652  10.588  71.539  1.00  0.00    -0.529 A  
HETATM   19  O   UNL     1     -13.071  12.893  71.673  1.00  0.00    -0.394 OA 
HETATM   20  H   UNL     1     -13.524  12.768  72.499  1.00  0.00     0.000 HD 
HETATM   21  C   UNL     1     -12.134   9.475  70.873  1.00  0.00    -0.357 A  
HETATM   22  C   UNL     1     -11.510   9.639  69.630  1.00  0.00    -0.045 A  
HETATM   23  C   UNL     1     -11.369  10.915  69.073  1.00  0.00    -0.348 A  
BRANCH  21  24
HETATM   24  C   UNL     1     -12.201   8.120  71.489  1.00  0.00    -0.301 C  
HETATM   25  N   UNL     1     -12.153   7.006  70.700  1.00  0.00    -0.546 NA 
HETATM   26  N   UNL     1     -12.287   7.918  72.765  1.00  0.00    -0.591 NA 
HETATM   27  H1  UNL     1     -12.200   6.078  71.121  1.00  0.00     0.000 HD 
HETATM   28  H2  UNL     1     -12.072   7.102  69.688  1.00  0.00     0.000 HD 
HETATM   29  H1  UNL     1     -12.333   6.990  73.186  1.00  0.00     0.000 HD 
HETATM   30  H2  UNL     1     -12.310   8.729  73.382  1.00  0.00     0.000 HD 
ENDBRANCH  21  24
ENDBRANCH  15  16
ENDBRANCH  11  14
ENDBRANCH   4   8
TORSDOF 4
ENDMDL
MODEL       30
REMARK 921   NORMALIZED FREE ENERGY PREDICTED BY IDOCK:   -5.89 KCAL/MOL
REMARK 922        TOTAL FREE ENERGY PREDICTED BY IDOCK:   -7.77 KCAL/MOL
REMARK 923 INTER-LIGAND FREE ENERGY PREDICTED BY IDOCK:   -7.24 KCAL/MOL
REMARK 924 INTRA-LIGAND FREE ENERGY PREDICTED BY IDOCK:   -0.52 KCAL/MOL
REMARK 927      BINDING AFFINITY PREDICTED BY RF-SCORE:    0.00 PKD
ROOT
HETATM    1  N   UNL     1     -10.129  20.087  68.313  1.00  0.00    -0.428 NA 
HETATM    2  H2  UNL     1      -9.851  21.065  68.388  1.00  0.00     0.000 HD 
HETATM    3  H1  UNL     1     -10.468  19.591  69.137  1.00  0.00     0.000 HD 
HETATM    4  C   UNL     1     -10.045  19.446  67.107  1.00  0.00    -0.384 C  
HETATM    5  H2  UNL     1      -9.338  21.052  66.140  1.00  0.00     0.000 HD 
HETATM    6  N   UNL     1      -9.616  20.073  66.064  1.00  0.00    -0.538 NA 
HETATM    7  H1  UNL     1      -9.553  19.595  65.165  1.00  0.00     0.000 HD 
ENDROOT
BRANCH   4   8
HETATM    8  C   UNL     1     -10.401  18.003  67.012  1.00  0.00    -0.377 A  
HETATM    9  C   UNL     1     -10.670  17.269  68.170  1.00  0.00    -0.363 A  
HETATM   10  C   UNL     1     -10.860  15.887  68.091  1.00  0.00    -0.317 A  
HETATM   11  C   UNL     1     -10.790  15.221  66.860  1.00  0.00    -0.317 A  
HETATM   12  C   UNL     1     -10.396  17.363  65.771  1.00  0.00    -0.226 A  
HETATM   13  C   UNL     1     -10.581  15.977  65.697  1.00  0.00    -0.392 A  
BRANCH  11  14
HETATM   14  C   UNL     1     -10.821  13.751  66.863  1.00  0.00    -0.286 C  
HETATM   15  C   UNL     1      -9.814  12.954  66.477  1.00  0.00    -0.254 C  
BRANCH  15  16
HETATM   16  C   UNL     1      -9.903  11.494  66.583  1.00  0.00    -0.228 A  
HETATM   17  C   UNL     1      -9.447  10.644  65.566  1.00  0.00    -0.214 A  
HETATM   18  C   UNL     1      -9.627   9.263  65.640  1.00  0.00    -0.324 A  
HETATM   19  O   UNL     1      -8.814  11.112  64.445  1.00  0.00    -0.369 OA 
HETATM   20  H   UNL     1      -8.505  10.536  63.756  1.00  0.00     0.000 HD 
HETATM   21  C   UNL     1     -10.246   8.707  66.761  1.00  0.00    -0.361 A  
HETATM   22  C   UNL     1     -10.661   9.538  67.809  1.00  0.00    -0.318 A  
HETATM   23  C   UNL     1     -10.491  10.925  67.719  1.00  0.00    -0.238 A  
BRANCH  21  24
HETATM   24  C   UNL     1     -10.511   7.242  66.838  1.00  0.00    -0.299 C  
HETATM   25  N   UNL     1     -11.336   6.744  67.805  1.00  0.00    -0.622 NA 
HETATM   26  N   UNL     1     -10.008   6.381  66.011  1.00  0.00    -0.391 NA 
HETATM   27  H1  UNL     1     -11.516   5.742  67.858  1.00  0.00     0.000 HD 
HETATM   28  H2  UNL     1     -11.772   7.376  68.476  1.00  0.00     0.000 HD 
HETATM   29  H1  UNL     1     -10.188   5.379  66.064  1.00  0.00     0.000 HD 
HETATM   30  H2  UNL     1      -9.398   6.723  65.268  1.00  0.00     0.000 HD 
ENDBRANCH  21  24
ENDBRANCH  15  16
ENDBRANCH  11  14
ENDBRANCH   4   8
TORSDOF 4
ENDMDL
MODEL       31
REMARK 921   NORMALIZED FREE ENERGY PREDICTED BY IDOCK:   -5.87 KCAL/MOL
REMARK 922        TOTAL FREE ENERGY PREDICTED BY IDOCK:   -7.74 KCAL/MOL
REMARK 923 INTER-LIGAND FREE ENERGY PREDICTED BY IDOCK:   -7.28 KCAL/MOL
REMARK 924 INTRA-LIGAND FREE ENERGY PREDICTED BY IDOCK:   -0.46 KCAL/MOL
REMARK 927      BINDING AFFINITY PREDICTED BY RF-SCORE:    0.00 PKD
ROOT
HETATM    1  N   UNL     1     -14.019  15.506  71.043  1.00  0.00    -0.833 NA 
HETATM    2  H2  UNL     1     -14.496  16.270  71.522  1.00  0.00     0.000 HD 
HETATM    3  H1  UNL     1     -14.002  15.478  70.024  1.00  0.00     0.000 HD 
HETATM    4  C   UNL     1     -13.405  14.525  71.771  1.00  0.00    -0.363 C  
HETATM    5  H2  UNL     1     -13.903  15.324  73.539  1.00  0.00     0.000 HD 
HETATM    6  N   UNL     1     -13.425  14.560  73.061  1.00  0.00    -0.609 NA 
HETATM    7  H1  UNL     1     -12.967  13.827  73.603  1.00  0.00     0.000 HD 
ENDROOT
BRANCH   4   8
HETATM    8  C   UNL     1     -12.755  13.383  71.070  1.00  0.00    -0.387 A  
HETATM    9  C   UNL     1     -12.054  13.598  69.880  1.00  0.00    -0.406 A  
HETATM   10  C   UNL     1     -11.570  12.510  69.149  1.00  0.00    -0.375 A  
HETATM   11  C   UNL     1     -11.773  11.197  69.595  1.00  0.00    -0.410 A  
HETATM   12  C   UNL     1     -12.904  12.085  71.561  1.00  0.00    -0.403 A  
HETATM   13  C   UNL     1     -12.423  10.996  70.823  1.00  0.00    -0.491 A  
BRANCH  11  14
HETATM   14  C   UNL     1     -11.399  10.093  68.699  1.00  0.00    -0.172 C  
HETATM   15  C   UNL     1     -10.480   9.155  68.968  1.00  0.00    -0.238 C  
BRANCH  15  16
HETATM   16  C   UNL     1     -10.222   8.043  68.046  1.00  0.00    -0.260 A  
HETATM   17  C   UNL     1     -10.787   6.774  68.234  1.00  0.00    -0.226 A  
HETATM   18  C   UNL     1     -10.455   5.703  67.404  1.00  0.00    -0.306 A  
HETATM   19  O   UNL     1     -11.680   6.508  69.236  1.00  0.00    -0.644 OA 
HETATM   20  H   UNL     1     -12.064   5.648  69.364  1.00  0.00     0.000 HD 
HETATM   21  C   UNL     1      -9.565   5.899  66.346  1.00  0.00    -0.173 A  
HETATM   22  C   UNL     1      -9.033   7.174  66.115  1.00  0.00    -0.168 A  
HETATM   23  C   UNL     1      -9.359   8.239  66.961  1.00  0.00    -0.203 A  
BRANCH  21  24
HETATM   24  C   UNL     1      -9.142   4.759  65.485  1.00  0.00    -0.152 C  
HETATM   25  N   UNL     1      -8.301   3.802  65.978  1.00  0.00    -0.108 NA 
HETATM   26  N   UNL     1      -9.544   4.597  64.264  1.00  0.00    -0.353 NA 
HETATM   27  H1  UNL     1      -8.011   3.023  65.388  1.00  0.00     0.000 HD 
HETATM   28  H2  UNL     1      -7.962   3.869  66.937  1.00  0.00     0.000 HD 
HETATM   29  H1  UNL     1      -9.254   3.818  63.675  1.00  0.00     0.000 HD 
HETATM   30  H2  UNL     1     -10.184   5.287  63.871  1.00  0.00     0.000 HD 
ENDBRANCH  21  24
ENDBRANCH  15  16
ENDBRANCH  11  14
ENDBRANCH   4   8
TORSDOF 4
ENDMDL
MODEL       32
REMARK 921   NORMALIZED FREE ENERGY PREDICTED BY IDOCK:   -5.80 KCAL/MOL
REMARK 922        TOTAL FREE ENERGY PREDICTED BY IDOCK:   -7.66 KCAL/MOL
REMARK 923 INTER-LIGAND FREE ENERGY PREDICTED BY IDOCK:   -7.16 KCAL/MOL
REMARK 924 INTRA-LIGAND FREE ENERGY PREDICTED BY IDOCK:   -0.50 KCAL/MOL
REMARK 927      BINDING AFFINITY PREDICTED BY RF-SCORE:    0.00 PKD
ROOT
HETATM    1  N   UNL     1      -7.798  20.592  66.057  1.00  0.00    -0.523 NA 
HETATM    2  H2  UNL     1      -7.806  21.611  66.097  1.00  0.00     0.000 HD 
HETATM    3  H1  UNL     1      -6.942  20.101  65.798  1.00  0.00     0.000 HD 
HETATM    4  C   UNL     1      -8.934  19.889  66.351  1.00  0.00    -0.363 C  
HETATM    5  H2  UNL     1     -10.026  21.529  66.718  1.00  0.00     0.000 HD 
HETATM    6  N   UNL     1     -10.017  20.509  66.679  1.00  0.00    -0.576 NA 
HETATM    7  H1  UNL     1     -10.865  19.985  66.898  1.00  0.00     0.000 HD 
ENDROOT
BRANCH   4   8
HETATM    8  C   UNL     1      -8.933  18.405  66.241  1.00  0.00    -0.205 A  
HETATM    9  C   UNL     1     -10.131  17.716  66.030  1.00  0.00    -0.263 A  
HETATM   10  C   UNL     1     -10.149  16.319  66.073  1.00  0.00    -0.377 A  
HETATM   11  C   UNL     1      -8.977  15.592  66.320  1.00  0.00    -0.377 A  
HETATM   12  C   UNL     1      -7.746  17.692  66.419  1.00  0.00    -0.325 A  
HETATM   13  C   UNL     1      -7.769  16.292  66.467  1.00  0.00    -0.260 A  
BRANCH  11  14
HETATM   14  C   UNL     1      -9.090  14.141  66.529  1.00  0.00    -0.198 C  
HETATM   15  C   UNL     1     -10.059  13.361  66.029  1.00  0.00    -0.308 C  
BRANCH  15  16
HETATM   16  C   UNL     1     -10.055  11.907  66.225  1.00  0.00    -0.249 A  
HETATM   17  C   UNL     1      -9.532  11.028  65.266  1.00  0.00    -0.223 A  
HETATM   18  C   UNL     1      -9.623   9.646  65.424  1.00  0.00    -0.361 A  
HETATM   19  O   UNL     1      -8.916  11.466  64.125  1.00  0.00    -0.396 OA 
HETATM   20  H   UNL     1      -8.561  10.871  63.475  1.00  0.00     0.000 HD 
HETATM   21  C   UNL     1     -10.221   9.119  66.572  1.00  0.00    -0.322 A  
HETATM   22  C   UNL     1     -10.702   9.985  67.562  1.00  0.00    -0.339 A  
HETATM   23  C   UNL     1     -10.620  11.371  67.389  1.00  0.00    -0.257 A  
BRANCH  21  24
HETATM   24  C   UNL     1     -10.391   7.648  66.736  1.00  0.00    -0.273 C  
HETATM   25  N   UNL     1      -9.639   6.784  65.993  1.00  0.00    -0.396 NA 
HETATM   26  N   UNL     1     -11.219   7.114  67.577  1.00  0.00    -0.565 NA 
HETATM   27  H1  UNL     1      -9.756   5.777  66.105  1.00  0.00     0.000 HD 
HETATM   28  H2  UNL     1      -8.960   7.146  65.324  1.00  0.00     0.000 HD 
HETATM   29  H1  UNL     1     -11.336   6.107  67.689  1.00  0.00     0.000 HD 
HETATM   30  H2  UNL     1     -11.785   7.733  68.157  1.00  0.00     0.000 HD 
ENDBRANCH  21  24
ENDBRANCH  15  16
ENDBRANCH  11  14
ENDBRANCH   4   8
TORSDOF 4
ENDMDL
MODEL       33
REMARK 921   NORMALIZED FREE ENERGY PREDICTED BY IDOCK:   -5.79 KCAL/MOL
REMARK 922        TOTAL FREE ENERGY PREDICTED BY IDOCK:   -7.65 KCAL/MOL
REMARK 923 INTER-LIGAND FREE ENERGY PREDICTED BY IDOCK:   -7.13 KCAL/MOL
REMARK 924 INTRA-LIGAND FREE ENERGY PREDICTED BY IDOCK:   -0.52 KCAL/MOL
REMARK 927      BINDING AFFINITY PREDICTED BY RF-SCORE:    0.00 PKD
ROOT
HETATM    1  N   UNL     1      -9.564   6.936  66.173  1.00  0.00    -0.396 NA 
HETATM    2  H2  UNL     1      -9.474   5.932  66.326  1.00  0.00     0.000 HD 
HETATM    3  H1  UNL     1      -9.000   7.393  65.457  1.00  0.00     0.000 HD 
HETATM    4  C   UNL     1     -10.441   7.664  66.929  1.00  0.00    -0.318 C  
HETATM    5  H2  UNL     1     -11.065   6.083  67.989  1.00  0.00     0.000 HD 
HETATM    6  N   UNL     1     -11.156   7.087  67.836  1.00  0.00    -0.527 NA 
HETATM    7  H1  UNL     1     -11.810   7.631  68.399  1.00  0.00     0.000 HD 
ENDROOT
BRANCH   4   8
HETATM    8  C   UNL     1     -10.533   9.138  66.739  1.00  0.00    -0.266 A  
HETATM    9  C   UNL     1      -9.946   9.739  65.622  1.00  0.00    -0.352 A  
HETATM   10  C   UNL     1      -9.906  11.132  65.519  1.00  0.00    -0.281 A  
HETATM   11  C   UNL     1     -10.453  11.943  66.524  1.00  0.00    -0.256 A  
HETATM   12  C   UNL     1     -11.142   9.932  67.713  1.00  0.00    -0.196 A  
HETATM   13  C   UNL     1     -11.095  11.328  67.610  1.00  0.00    -0.336 A  
BRANCH  11  14
HETATM   14  C   UNL     1     -10.224  13.393  66.447  1.00  0.00    -0.293 C  
HETATM   15  C   UNL     1      -9.779  14.160  67.452  1.00  0.00    -0.232 C  
BRANCH  15  16
HETATM   16  C   UNL     1      -9.506  15.590  67.267  1.00  0.00    -0.218 A  
HETATM   17  C   UNL     1     -10.357  16.582  67.776  1.00  0.00    -0.291 A  
HETATM   18  C   UNL     1     -10.135  17.933  67.508  1.00  0.00    -0.343 A  
HETATM   19  O   UNL     1     -11.449  16.290  68.547  1.00  0.00    -0.371 OA 
HETATM   20  H   UNL     1     -12.025  16.961  68.892  1.00  0.00     0.000 HD 
HETATM   21  C   UNL     1      -9.030  18.314  66.744  1.00  0.00    -0.289 A  
HETATM   22  C   UNL     1      -8.143  17.338  66.273  1.00  0.00    -0.315 A  
HETATM   23  C   UNL     1      -8.381  15.983  66.532  1.00  0.00    -0.348 A  
BRANCH  21  24
HETATM   24  C   UNL     1      -8.806  19.743  66.388  1.00  0.00    -0.377 C  
HETATM   25  N   UNL     1      -7.876  20.077  65.445  1.00  0.00    -0.451 NA 
HETATM   26  N   UNL     1      -9.466  20.724  66.917  1.00  0.00    -0.675 NA 
HETATM   27  H1  UNL     1      -7.722  21.055  65.202  1.00  0.00     0.000 HD 
HETATM   28  H2  UNL     1      -7.334  19.346  64.983  1.00  0.00     0.000 HD 
HETATM   29  H1  UNL     1      -9.312  21.702  66.674  1.00  0.00     0.000 HD 
HETATM   30  H2  UNL     1     -10.178  20.507  67.615  1.00  0.00     0.000 HD 
ENDBRANCH  21  24
ENDBRANCH  15  16
ENDBRANCH  11  14
ENDBRANCH   4   8
TORSDOF 4
ENDMDL
MODEL       34
REMARK 921   NORMALIZED FREE ENERGY PREDICTED BY IDOCK:   -5.79 KCAL/MOL
REMARK 922        TOTAL FREE ENERGY PREDICTED BY IDOCK:   -7.65 KCAL/MOL
REMARK 923 INTER-LIGAND FREE ENERGY PREDICTED BY IDOCK:   -7.14 KCAL/MOL
REMARK 924 INTRA-LIGAND FREE ENERGY PREDICTED BY IDOCK:   -0.50 KCAL/MOL
REMARK 927      BINDING AFFINITY PREDICTED BY RF-SCORE:    0.00 PKD
ROOT
HETATM    1  N   UNL     1     -11.074   4.514  65.522  1.00  0.00    -0.888 NA 
HETATM    2  H2  UNL     1     -11.185   3.510  65.379  1.00  0.00     0.000 HD 
HETATM    3  H1  UNL     1     -11.759   5.161  65.131  1.00  0.00     0.000 HD 
HETATM    4  C   UNL     1     -10.007   4.986  66.236  1.00  0.00    -0.224 C  
HETATM    5  H2  UNL     1      -9.252   3.164  66.587  1.00  0.00     0.000 HD 
HETATM    6  N   UNL     1      -9.140   4.168  66.730  1.00  0.00    -0.127 NA 
HETATM    7  H1  UNL     1      -8.345   4.521  67.263  1.00  0.00     0.000 HD 
ENDROOT
BRANCH   4   8
HETATM    8  C   UNL     1      -9.819   6.454  66.397  1.00  0.00    -0.120 A  
HETATM    9  C   UNL     1     -10.697   7.190  67.198  1.00  0.00    -0.422 A  
HETATM   10  C   UNL     1     -10.608   8.584  67.232  1.00  0.00    -0.315 A  
HETATM   11  C   UNL     1      -9.641   9.262  66.476  1.00  0.00    -0.285 A  
HETATM   12  C   UNL     1      -8.808   7.111  65.693  1.00  0.00    -0.043 A  
HETATM   13  C   UNL     1      -8.725   8.509  65.725  1.00  0.00    -0.210 A  
BRANCH  11  14
HETATM   14  C   UNL     1      -9.711  10.729  66.414  1.00  0.00    -0.241 C  
HETATM   15  C   UNL     1     -10.825  11.443  66.201  1.00  0.00    -0.310 C  
BRANCH  15  16
HETATM   16  C   UNL     1     -10.817  12.910  66.230  1.00  0.00    -0.295 A  
HETATM   17  C   UNL     1     -10.443  13.674  65.116  1.00  0.00    -0.374 A  
HETATM   18  C   UNL     1     -10.348  15.064  65.190  1.00  0.00    -0.422 A  
HETATM   19  O   UNL     1     -10.141  13.111  63.906  1.00  0.00    -0.733 OA 
HETATM   20  H   UNL     1      -9.887  13.629  63.150  1.00  0.00     0.000 HD 
HETATM   21  C   UNL     1     -10.659  15.715  66.386  1.00  0.00    -0.308 A  
HETATM   22  C   UNL     1     -11.084  14.968  67.492  1.00  0.00    -0.317 A  
HETATM   23  C   UNL     1     -11.161  13.573  67.414  1.00  0.00    -0.317 A  
BRANCH  21  24
HETATM   24  C   UNL     1     -10.503  17.192  66.513  1.00  0.00    -0.255 C  
HETATM   25  N   UNL     1     -10.545  17.983  65.401  1.00  0.00    -0.580 NA 
HETATM   26  N   UNL     1     -10.341  17.799  67.645  1.00  0.00    -0.358 NA 
HETATM   27  H1  UNL     1     -10.438  18.994  65.488  1.00  0.00     0.000 HD 
HETATM   28  H2  UNL     1     -10.684  17.563  64.482  1.00  0.00     0.000 HD 
HETATM   29  H1  UNL     1     -10.233  18.809  67.732  1.00  0.00     0.000 HD 
HETATM   30  H2  UNL     1     -10.319  17.237  68.496  1.00  0.00     0.000 HD 
ENDBRANCH  21  24
ENDBRANCH  15  16
ENDBRANCH  11  14
ENDBRANCH   4   8
TORSDOF 4
ENDMDL
MODEL       35
REMARK 921   NORMALIZED FREE ENERGY PREDICTED BY IDOCK:   -5.67 KCAL/MOL
REMARK 922        TOTAL FREE ENERGY PREDICTED BY IDOCK:   -7.50 KCAL/MOL
REMARK 923 INTER-LIGAND FREE ENERGY PREDICTED BY IDOCK:   -6.99 KCAL/MOL
REMARK 924 INTRA-LIGAND FREE ENERGY PREDICTED BY IDOCK:   -0.51 KCAL/MOL
REMARK 927      BINDING AFFINITY PREDICTED BY RF-SCORE:    0.00 PKD
ROOT
HETATM    1  N   UNL     1      -7.590   3.515  69.286  1.00  0.00    -0.052 NA 
HETATM    2  H2  UNL     1      -7.039   2.714  68.977  1.00  0.00     0.000 HD 
HETATM    3  H1  UNL     1      -7.133   4.292  69.763  1.00  0.00     0.000 HD 
HETATM    4  C   UNL     1      -8.939   3.541  69.061  1.00  0.00    -0.124 C  
HETATM    5  H2  UNL     1      -8.967   1.757  68.148  1.00  0.00     0.000 HD 
HETATM    6  N   UNL     1      -9.518   2.558  68.458  1.00  0.00    -0.189 NA 
HETATM    7  H1  UNL     1     -10.524   2.578  68.289  1.00  0.00     0.000 HD 
ENDROOT
BRANCH   4   8
HETATM    8  C   UNL     1      -9.749   4.686  69.560  1.00  0.00    -0.278 A  
HETATM    9  C   UNL     1     -10.608   5.368  68.694  1.00  0.00    -0.167 A  
HETATM   10  C   UNL     1     -11.255   6.529  69.125  1.00  0.00    -0.367 A  
HETATM   11  C   UNL     1     -11.059   7.022  70.422  1.00  0.00    -0.323 A  
HETATM   12  C   UNL     1      -9.598   5.127  70.876  1.00  0.00    -0.235 A  
HETATM   13  C   UNL     1     -10.243   6.295  71.302  1.00  0.00    -0.238 A  
BRANCH  11  14
HETATM   14  C   UNL     1     -11.623   8.338  70.758  1.00  0.00    -0.250 C  
HETATM   15  C   UNL     1     -11.218   9.508  70.244  1.00  0.00    -0.307 C  
BRANCH  15  16
HETATM   16  C   UNL     1     -11.888  10.770  70.578  1.00  0.00    -0.453 A  
HETATM   17  C   UNL     1     -11.668  11.945  69.847  1.00  0.00    -0.308 A  
HETATM   18  C   UNL     1     -12.237  13.157  70.237  1.00  0.00    -0.376 A  
HETATM   19  O   UNL     1     -10.884  11.979  68.726  1.00  0.00    -0.219 OA 
HETATM   20  H   UNL     1     -10.735  12.775  68.230  1.00  0.00     0.000 HD 
HETATM   21  C   UNL     1     -13.066  13.202  71.360  1.00  0.00    -0.352 A  
HETATM   22  C   UNL     1     -13.336  12.025  72.070  1.00  0.00    -0.447 A  
HETATM   23  C   UNL     1     -12.748  10.816  71.682  1.00  0.00    -0.520 A  
BRANCH  21  24
HETATM   24  C   UNL     1     -13.634  14.495  71.837  1.00  0.00    -0.396 C  
HETATM   25  N   UNL     1     -13.554  14.833  73.158  1.00  0.00    -0.546 NA 
HETATM   26  N   UNL     1     -14.204  15.357  71.056  1.00  0.00    -0.846 NA 
HETATM   27  H1  UNL     1     -13.944  15.716  73.484  1.00  0.00     0.000 HD 
HETATM   28  H2  UNL     1     -13.104  14.199  73.819  1.00  0.00     0.000 HD 
HETATM   29  H1  UNL     1     -14.593  16.241  71.383  1.00  0.00     0.000 HD 
HETATM   30  H2  UNL     1     -14.267  15.141  70.062  1.00  0.00     0.000 HD 
ENDBRANCH  21  24
ENDBRANCH  15  16
ENDBRANCH  11  14
ENDBRANCH   4   8
TORSDOF 4
ENDMDL
MODEL       36
REMARK 921   NORMALIZED FREE ENERGY PREDICTED BY IDOCK:   -5.63 KCAL/MOL
REMARK 922        TOTAL FREE ENERGY PREDICTED BY IDOCK:   -7.45 KCAL/MOL
REMARK 923 INTER-LIGAND FREE ENERGY PREDICTED BY IDOCK:   -6.93 KCAL/MOL
REMARK 924 INTRA-LIGAND FREE ENERGY PREDICTED BY IDOCK:   -0.52 KCAL/MOL
REMARK 927      BINDING AFFINITY PREDICTED BY RF-SCORE:    0.00 PKD
ROOT
HETATM    1  N   UNL     1     -11.364   6.388  68.930  1.00  0.00    -0.579 NA 
HETATM    2  H2  UNL     1     -11.704   5.430  69.014  1.00  0.00     0.000 HD 
HETATM    3  H1  UNL     1     -11.263   6.965  69.765  1.00  0.00     0.000 HD 
HETATM    4  C   UNL     1     -11.045   6.892  67.700  1.00  0.00    -0.178 C  
HETATM    5  H2  UNL     1     -11.513   5.204  66.727  1.00  0.00     0.000 HD 
HETATM    6  N   UNL     1     -11.172   6.162  66.643  1.00  0.00    -0.758 NA 
HETATM    7  H1  UNL     1     -10.934   6.538  65.725  1.00  0.00     0.000 HD 
ENDROOT
BRANCH   4   8
HETATM    8  C   UNL     1     -10.598   8.307  67.575  1.00  0.00    -0.291 A  
HETATM    9  C   UNL     1     -10.688   9.170  68.670  1.00  0.00    -0.156 A  
HETATM   10  C   UNL     1     -10.406  10.529  68.512  1.00  0.00    -0.199 A  
HETATM   11  C   UNL     1     -10.028  11.044  67.265  1.00  0.00    -0.210 A  
HETATM   12  C   UNL     1     -10.156   8.794  66.343  1.00  0.00    -0.313 A  
HETATM   13  C   UNL     1      -9.881  10.158  66.187  1.00  0.00    -0.297 A  
BRANCH  11  14
HETATM   14  C   UNL     1      -9.918  12.504  67.120  1.00  0.00    -0.217 C  
HETATM   15  C   UNL     1     -10.791  13.397  67.608  1.00  0.00    -0.273 C  
BRANCH  15  16
HETATM   16  C   UNL     1     -10.565  14.842  67.483  1.00  0.00    -0.259 A  
HETATM   17  C   UNL     1     -11.292  15.776  68.233  1.00  0.00    -0.354 A  
HETATM   18  C   UNL     1     -11.134  17.147  68.032  1.00  0.00    -0.113 A  
HETATM   19  O   UNL     1     -12.199  15.407  69.190  1.00  0.00    -0.558 OA 
HETATM   20  H   UNL     1     -12.692  16.040  69.698  1.00  0.00     0.000 HD 
HETATM   21  C   UNL     1     -10.214  17.605  67.086  1.00  0.00    -0.342 A  
HETATM   22  C   UNL     1      -9.443  16.684  66.366  1.00  0.00    -0.305 A  
HETATM   23  C   UNL     1      -9.619  15.309  66.563  1.00  0.00    -0.294 A  
BRANCH  21  24
HETATM   24  C   UNL     1     -10.071  19.061  66.804  1.00  0.00    -0.379 C  
HETATM   25  N   UNL     1     -10.520  19.578  65.622  1.00  0.00    -0.501 NA 
HETATM   26  N   UNL     1      -9.548  19.903  67.637  1.00  0.00    -0.354 NA 
HETATM   27  H1  UNL     1     -10.422  20.574  65.429  1.00  0.00     0.000 HD 
HETATM   28  H2  UNL     1     -10.954  18.965  64.931  1.00  0.00     0.000 HD 
HETATM   29  H1  UNL     1      -9.450  20.900  67.444  1.00  0.00     0.000 HD 
HETATM   30  H2  UNL     1      -9.216  19.551  68.535  1.00  0.00     0.000 HD 
ENDBRANCH  21  24
ENDBRANCH  15  16
ENDBRANCH  11  14
ENDBRANCH   4   8
TORSDOF 4
ENDMDL
MODEL       37
REMARK 921   NORMALIZED FREE ENERGY PREDICTED BY IDOCK:   -5.63 KCAL/MOL
REMARK 922        TOTAL FREE ENERGY PREDICTED BY IDOCK:   -7.45 KCAL/MOL
REMARK 923 INTER-LIGAND FREE ENERGY PREDICTED BY IDOCK:   -6.93 KCAL/MOL
REMARK 924 INTRA-LIGAND FREE ENERGY PREDICTED BY IDOCK:   -0.52 KCAL/MOL
REMARK 927      BINDING AFFINITY PREDICTED BY RF-SCORE:    0.00 PKD
ROOT
HETATM    1  N   UNL     1     -11.313   6.917  66.943  1.00  0.00    -0.713 NA 
HETATM    2  H2  UNL     1     -11.209   5.902  66.975  1.00  0.00     0.000 HD 
HETATM    3  H1  UNL     1     -12.244   7.332  66.980  1.00  0.00     0.000 HD 
HETATM    4  C   UNL     1     -10.205   7.713  66.852  1.00  0.00    -0.294 C  
HETATM    5  H2  UNL     1      -8.923   6.174  66.837  1.00  0.00     0.000 HD 
HETATM    6  N   UNL     1      -9.027   7.188  66.806  1.00  0.00    -0.131 NA 
HETATM    7  H1  UNL     1      -8.201   7.782  66.738  1.00  0.00     0.000 HD 
ENDROOT
BRANCH   4   8
HETATM    8  C   UNL     1     -10.364   9.190  66.752  1.00  0.00    -0.308 A  
HETATM    9  C   UNL     1      -9.887   9.873  65.630  1.00  0.00    -0.368 A  
HETATM   10  C   UNL     1      -9.905  11.270  65.604  1.00  0.00    -0.277 A  
HETATM   11  C   UNL     1     -10.403  12.003  66.691  1.00  0.00    -0.237 A  
HETATM   12  C   UNL     1     -10.926   9.905  67.812  1.00  0.00    -0.278 A  
HETATM   13  C   UNL     1     -10.937  11.306  67.785  1.00  0.00    -0.305 A  
BRANCH  11  14
HETATM   14  C   UNL     1     -10.233  13.464  66.679  1.00  0.00    -0.274 C  
HETATM   15  C   UNL     1      -9.057  14.106  66.651  1.00  0.00    -0.238 C  
BRANCH  15  16
HETATM   16  C   UNL     1      -8.980  15.569  66.566  1.00  0.00    -0.348 A  
HETATM   17  C   UNL     1      -7.767  16.259  66.702  1.00  0.00    -0.251 A  
HETATM   18  C   UNL     1      -7.725  17.653  66.714  1.00  0.00    -0.259 A  
HETATM   19  O   UNL     1      -6.566  15.616  66.839  1.00  0.00    -0.258 OA 
HETATM   20  H   UNL     1      -5.744  16.084  66.931  1.00  0.00     0.000 HD 
HETATM   21  C   UNL     1      -8.906  18.381  66.560  1.00  0.00    -0.289 A  
HETATM   22  C   UNL     1     -10.118  17.705  66.371  1.00  0.00    -0.356 A  
HETATM   23  C   UNL     1     -10.154  16.306  66.376  1.00  0.00    -0.318 A  
BRANCH  21  24
HETATM   24  C   UNL     1      -8.900  19.869  66.636  1.00  0.00    -0.358 C  
HETATM   25  N   UNL     1      -7.716  20.550  66.648  1.00  0.00    -0.493 NA 
HETATM   26  N   UNL     1      -9.976  20.588  66.675  1.00  0.00    -0.576 NA 
HETATM   27  H1  UNL     1      -7.712  21.568  66.701  1.00  0.00     0.000 HD 
HETATM   28  H2  UNL     1      -6.834  20.039  66.605  1.00  0.00     0.000 HD 
HETATM   29  H1  UNL     1      -9.972  21.606  66.728  1.00  0.00     0.000 HD 
HETATM   30  H2  UNL     1     -10.877  20.110  66.653  1.00  0.00     0.000 HD 
ENDBRANCH  21  24
ENDBRANCH  15  16
ENDBRANCH  11  14
ENDBRANCH   4   8
TORSDOF 4
ENDMDL
MODEL       38
REMARK 921   NORMALIZED FREE ENERGY PREDICTED BY IDOCK:   -5.61 KCAL/MOL
REMARK 922        TOTAL FREE ENERGY PREDICTED BY IDOCK:   -7.43 KCAL/MOL
REMARK 923 INTER-LIGAND FREE ENERGY PREDICTED BY IDOCK:   -6.92 KCAL/MOL
REMARK 924 INTRA-LIGAND FREE ENERGY PREDICTED BY IDOCK:   -0.51 KCAL/MOL
REMARK 927      BINDING AFFINITY PREDICTED BY RF-SCORE:    0.00 PKD
ROOT
HETATM    1  N   UNL     1      -9.970  20.669  66.562  1.00  0.00    -0.553 NA 
HETATM    2  H2  UNL     1      -9.909  21.663  66.344  1.00  0.00     0.000 HD 
HETATM    3  H1  UNL     1     -10.801  20.301  67.024  1.00  0.00     0.000 HD 
HETATM    4  C   UNL     1      -8.936  19.835  66.233  1.00  0.00    -0.376 C  
HETATM    5  H2  UNL     1      -7.823  21.295  65.430  1.00  0.00     0.000 HD 
HETATM    6  N   UNL     1      -7.884  20.300  65.648  1.00  0.00    -0.510 NA 
HETATM    7  H1  UNL     1      -7.114  19.678  65.403  1.00  0.00     0.000 HD 
ENDROOT
BRANCH   4   8
HETATM    8  C   UNL     1      -9.006  18.394  66.600  1.00  0.00    -0.295 A  
HETATM    9  C   UNL     1      -7.981  17.523  66.220  1.00  0.00    -0.303 A  
HETATM   10  C   UNL     1      -8.116  16.149  66.437  1.00  0.00    -0.305 A  
HETATM   11  C   UNL     1      -9.270  15.627  67.038  1.00  0.00    -0.239 A  
HETATM   12  C   UNL     1     -10.129  17.895  67.262  1.00  0.00    -0.344 A  
HETATM   13  C   UNL     1     -10.264  16.516  67.472  1.00  0.00    -0.283 A  
BRANCH  11  14
HETATM   14  C   UNL     1      -9.431  14.166  67.078  1.00  0.00    -0.256 C  
HETATM   15  C   UNL     1     -10.390  13.511  67.748  1.00  0.00    -0.241 C  
BRANCH  15  16
HETATM   16  C   UNL     1     -10.524  12.052  67.672  1.00  0.00    -0.226 A  
HETATM   17  C   UNL     1     -10.912  11.282  68.777  1.00  0.00    -0.220 A  
HETATM   18  C   UNL     1     -10.940   9.889  68.715  1.00  0.00    -0.217 A  
HETATM   19  O   UNL     1     -11.274  11.841  69.973  1.00  0.00    -0.489 OA 
HETATM   20  H   UNL     1     -11.537  11.319  70.722  1.00  0.00     0.000 HD 
HETATM   21  C   UNL     1     -10.604   9.243  67.523  1.00  0.00    -0.329 A  
HETATM   22  C   UNL     1     -10.264  10.001  66.396  1.00  0.00    -0.290 A  
HETATM   23  C   UNL     1     -10.223  11.398  66.471  1.00  0.00    -0.259 A  
BRANCH  21  24
HETATM   24  C   UNL     1     -10.562   7.755  67.448  1.00  0.00    -0.275 C  
HETATM   25  N   UNL     1      -9.891   7.139  66.430  1.00  0.00    -0.414 NA 
HETATM   26  N   UNL     1     -11.123   6.979  68.320  1.00  0.00    -0.494 NA 
HETATM   27  H1  UNL     1      -9.863   6.122  66.378  1.00  0.00     0.000 HD 
HETATM   28  H2  UNL     1      -9.418   7.699  65.721  1.00  0.00     0.000 HD 
HETATM   29  H1  UNL     1     -11.095   5.961  68.268  1.00  0.00     0.000 HD 
HETATM   30  H2  UNL     1     -11.620   7.408  69.100  1.00  0.00     0.000 HD 
ENDBRANCH  21  24
ENDBRANCH  15  16
ENDBRANCH  11  14
ENDBRANCH   4   8
TORSDOF 4
ENDMDL
MODEL       39
REMARK 921   NORMALIZED FREE ENERGY PREDICTED BY IDOCK:   -5.58 KCAL/MOL
REMARK 922        TOTAL FREE ENERGY PREDICTED BY IDOCK:   -7.39 KCAL/MOL
REMARK 923 INTER-LIGAND FREE ENERGY PREDICTED BY IDOCK:   -7.55 KCAL/MOL
REMARK 924 INTRA-LIGAND FREE ENERGY PREDICTED BY IDOCK:    0.16 KCAL/MOL
REMARK 927      BINDING AFFINITY PREDICTED BY RF-SCORE:    0.00 PKD
ROOT
HETATM    1  N   UNL     1      -9.376   4.957  71.157  1.00  0.00    -0.144 NA 
HETATM    2  H2  UNL     1      -9.135   4.072  71.604  1.00  0.00     0.000 HD 
HETATM    3  H1  UNL     1      -9.371   5.819  71.702  1.00  0.00     0.000 HD 
HETATM    4  C   UNL     1      -9.707   4.981  69.830  1.00  0.00    -0.196 C  
HETATM    5  H2  UNL     1      -9.472   3.006  69.587  1.00  0.00     0.000 HD 
HETATM    6  N   UNL     1      -9.714   3.891  69.140  1.00  0.00    -0.142 NA 
HETATM    7  H1  UNL     1      -9.960   3.909  68.150  1.00  0.00     0.000 HD 
ENDROOT
BRANCH   4   8
HETATM    8  C   UNL     1     -10.110   6.265  69.193  1.00  0.00    -0.204 A  
HETATM    9  C   UNL     1     -10.226   6.353  67.803  1.00  0.00    -0.196 A  
HETATM   10  C   UNL     1     -10.462   7.591  67.200  1.00  0.00    -0.407 A  
HETATM   11  C   UNL     1     -10.589   8.754  67.972  1.00  0.00    -0.218 A  
HETATM   12  C   UNL     1     -10.304   7.403  69.978  1.00  0.00    -0.224 A  
HETATM   13  C   UNL     1     -10.533   8.644  69.370  1.00  0.00    -0.224 A  
BRANCH  11  14
HETATM   14  C   UNL     1     -10.658  10.047  67.274  1.00  0.00    -0.319 C  
HETATM   15  C   UNL     1     -11.309  11.132  67.717  1.00  0.00    -0.364 C  
BRANCH  15  16
HETATM   16  C   UNL     1     -11.263  12.407  66.992  1.00  0.00    -0.358 A  
HETATM   17  C   UNL     1     -10.922  12.479  65.634  1.00  0.00    -0.288 A  
HETATM   18  C   UNL     1     -10.789  13.706  64.985  1.00  0.00    -0.358 A  
HETATM   19  O   UNL     1     -10.692  11.364  64.873  1.00  0.00    -0.295 OA 
HETATM   20  H   UNL     1     -10.461  11.413  63.953  1.00  0.00     0.000 HD 
HETATM   21  C   UNL     1     -11.027  14.889  65.688  1.00  0.00    -0.347 A  
HETATM   22  C   UNL     1     -11.419  14.830  67.031  1.00  0.00    -0.362 A  
HETATM   23  C   UNL     1     -11.534  13.595  67.680  1.00  0.00    -0.357 A  
BRANCH  21  24
HETATM   24  C   UNL     1     -10.828  16.215  65.038  1.00  0.00    -0.363 C  
HETATM   25  N   UNL     1     -11.492  16.519  63.884  1.00  0.00    -1.599 NA 
HETATM   26  N   UNL     1     -10.056  17.138  65.518  1.00  0.00    -0.587 NA 
HETATM   27  H1  UNL     1     -11.355  17.426  63.439  1.00  0.00     0.000 HD 
HETATM   28  H2  UNL     1     -12.125  15.837  63.466  1.00  0.00     0.000 HD 
HETATM   29  H1  UNL     1      -9.920  18.045  65.073  1.00  0.00     0.000 HD 
HETATM   30  H2  UNL     1      -9.558  16.947  66.387  1.00  0.00     0.000 HD 
ENDBRANCH  21  24
ENDBRANCH  15  16
ENDBRANCH  11  14
ENDBRANCH   4   8
TORSDOF 4
ENDMDL
MODEL       40
REMARK 921   NORMALIZED FREE ENERGY PREDICTED BY IDOCK:   -5.55 KCAL/MOL
REMARK 922        TOTAL FREE ENERGY PREDICTED BY IDOCK:   -7.35 KCAL/MOL
REMARK 923 INTER-LIGAND FREE ENERGY PREDICTED BY IDOCK:   -6.87 KCAL/MOL
REMARK 924 INTRA-LIGAND FREE ENERGY PREDICTED BY IDOCK:   -0.49 KCAL/MOL
REMARK 927      BINDING AFFINITY PREDICTED BY RF-SCORE:    0.00 PKD
ROOT
HETATM    1  N   UNL     1      -8.022   3.311  72.795  1.00  0.00    -0.067 NA 
HETATM    2  H2  UNL     1      -7.597   2.401  72.975  1.00  0.00     0.000 HD 
HETATM    3  H1  UNL     1      -7.546   4.162  73.095  1.00  0.00     0.000 HD 
HETATM    4  C   UNL     1      -9.228   3.385  72.153  1.00  0.00    -0.111 C  
HETATM    5  H2  UNL     1      -9.406   1.399  71.953  1.00  0.00     0.000 HD 
HETATM    6  N   UNL     1      -9.830   2.309  71.773  1.00  0.00    -0.149 NA 
HETATM    7  H1  UNL     1     -10.729   2.364  71.294  1.00  0.00     0.000 HD 
ENDROOT
BRANCH   4   8
HETATM    8  C   UNL     1      -9.870   4.711  71.938  1.00  0.00    -0.241 A  
HETATM    9  C   UNL     1      -9.287   5.640  71.072  1.00  0.00    -0.181 A  
HETATM   10  C   UNL     1      -9.809   6.933  70.983  1.00  0.00    -0.185 A  
HETATM   11  C   UNL     1     -10.919   7.315  71.750  1.00  0.00    -0.256 A  
HETATM   12  C   UNL     1     -11.016   5.056  72.656  1.00  0.00    -0.280 A  
HETATM   13  C   UNL     1     -11.533   6.355  72.569  1.00  0.00    -0.283 A  
BRANCH  11  14
HETATM   14  C   UNL     1     -11.311   8.732  71.748  1.00  0.00    -0.409 C  
HETATM   15  C   UNL     1     -11.830   9.389  70.701  1.00  0.00    -0.268 C  
BRANCH  15  16
HETATM   16  C   UNL     1     -12.264  10.787  70.808  1.00  0.00    -0.480 A  
HETATM   17  C   UNL     1     -11.784  11.783  69.946  1.00  0.00    -0.323 A  
HETATM   18  C   UNL     1     -12.132  13.122  70.122  1.00  0.00    -0.392 A  
HETATM   19  O   UNL     1     -10.947  11.508  68.898  1.00  0.00    -0.205 OA 
HETATM   20  H   UNL     1     -10.622  12.183  68.314  1.00  0.00     0.000 HD 
HETATM   21  C   UNL     1     -12.997  13.481  71.157  1.00  0.00    -0.338 A  
HETATM   22  C   UNL     1     -13.526  12.490  71.994  1.00  0.00    -0.486 A  
HETATM   23  C   UNL     1     -13.159  11.151  71.821  1.00  0.00    -0.536 A  
BRANCH  21  24
HETATM   24  C   UNL     1     -13.333  14.911  71.409  1.00  0.00    -0.413 C  
HETATM   25  N   UNL     1     -13.776  15.305  72.639  1.00  0.00    -0.494 NA 
HETATM   26  N   UNL     1     -13.214  15.841  70.516  1.00  0.00    -0.767 NA 
HETATM   27  H1  UNL     1     -14.007  16.283  72.811  1.00  0.00     0.000 HD 
HETATM   28  H2  UNL     1     -13.877  14.619  73.387  1.00  0.00     0.000 HD 
HETATM   29  H1  UNL     1     -13.445  16.819  70.687  1.00  0.00     0.000 HD 
HETATM   30  H2  UNL     1     -12.872  15.582  69.590  1.00  0.00     0.000 HD 
ENDBRANCH  21  24
ENDBRANCH  15  16
ENDBRANCH  11  14
ENDBRANCH   4   8
TORSDOF 4
ENDMDL
MODEL       41
REMARK 921   NORMALIZED FREE ENERGY PREDICTED BY IDOCK:   -5.52 KCAL/MOL
REMARK 922        TOTAL FREE ENERGY PREDICTED BY IDOCK:   -7.31 KCAL/MOL
REMARK 923 INTER-LIGAND FREE ENERGY PREDICTED BY IDOCK:   -6.80 KCAL/MOL
REMARK 924 INTRA-LIGAND FREE ENERGY PREDICTED BY IDOCK:   -0.51 KCAL/MOL
REMARK 927      BINDING AFFINITY PREDICTED BY RF-SCORE:    0.00 PKD
ROOT
HETATM    1  N   UNL     1      -9.515   3.374  72.628  1.00  0.00    -0.109 NA 
HETATM    2  H2  UNL     1      -9.137   2.629  73.213  1.00  0.00     0.000 HD 
HETATM    3  H1  UNL     1      -9.474   3.292  71.612  1.00  0.00     0.000 HD 
HETATM    4  C   UNL     1     -10.073   4.479  73.209  1.00  0.00    -0.160 C  
HETATM    5  H2  UNL     1      -9.747   3.838  75.079  1.00  0.00     0.000 HD 
HETATM    6  N   UNL     1     -10.125   4.583  74.494  1.00  0.00    -0.199 NA 
HETATM    7  H1  UNL     1     -10.543   5.407  74.928  1.00  0.00     0.000 HD 
ENDROOT
BRANCH   4   8
HETATM    8  C   UNL     1     -10.576   5.588  72.353  1.00  0.00    -0.272 A  
HETATM    9  C   UNL     1     -10.764   5.388  70.983  1.00  0.00    -0.239 A  
HETATM   10  C   UNL     1     -11.095   6.467  70.159  1.00  0.00    -0.428 A  
HETATM   11  C   UNL     1     -11.249   7.755  70.689  1.00  0.00    -0.278 A  
HETATM   12  C   UNL     1     -10.794   6.852  72.905  1.00  0.00    -0.318 A  
HETATM   13  C   UNL     1     -11.121   7.933  72.075  1.00  0.00    -0.332 A  
BRANCH  11  14
HETATM   14  C   UNL     1     -11.422   8.875  69.752  1.00  0.00     0.180 C  
HETATM   15  C   UNL     1     -11.244  10.170  70.052  1.00  0.00    -0.361 C  
BRANCH  15  16
HETATM   16  C   UNL     1     -11.364  11.220  69.035  1.00  0.00    -0.344 A  
HETATM   17  C   UNL     1     -11.685  12.544  69.366  1.00  0.00    -0.322 A  
HETATM   18  C   UNL     1     -11.891  13.508  68.380  1.00  0.00    -0.408 A  
HETATM   19  O   UNL     1     -11.825  12.965  70.661  1.00  0.00    -0.522 OA 
HETATM   20  H   UNL     1     -12.042  13.862  70.886  1.00  0.00     0.000 HD 
HETATM   21  C   UNL     1     -11.748  13.161  67.034  1.00  0.00    -0.431 A  
HETATM   22  C   UNL     1     -11.377  11.855  66.690  1.00  0.00    -0.400 A  
HETATM   23  C   UNL     1     -11.188  10.890  67.686  1.00  0.00    -0.379 A  
BRANCH  21  24
HETATM   24  C   UNL     1     -12.025  14.154  65.958  1.00  0.00    -0.413 C  
HETATM   25  N   UNL     1     -11.112  15.128  65.671  1.00  0.00    -0.341 NA 
HETATM   26  N   UNL     1     -13.102  14.145  65.239  1.00  0.00    -0.729 NA 
HETATM   27  H1  UNL     1     -11.303  15.807  64.935  1.00  0.00     0.000 HD 
HETATM   28  H2  UNL     1     -10.239  15.177  66.195  1.00  0.00     0.000 HD 
HETATM   29  H1  UNL     1     -13.293  14.824  64.502  1.00  0.00     0.000 HD 
HETATM   30  H2  UNL     1     -13.798  13.421  65.418  1.00  0.00     0.000 HD 
ENDBRANCH  21  24
ENDBRANCH  15  16
ENDBRANCH  11  14
ENDBRANCH   4   8
TORSDOF 4
ENDMDL
MODEL       42
REMARK 921   NORMALIZED FREE ENERGY PREDICTED BY IDOCK:   -5.50 KCAL/MOL
REMARK 922        TOTAL FREE ENERGY PREDICTED BY IDOCK:   -7.29 KCAL/MOL
REMARK 923 INTER-LIGAND FREE ENERGY PREDICTED BY IDOCK:   -6.84 KCAL/MOL
REMARK 924 INTRA-LIGAND FREE ENERGY PREDICTED BY IDOCK:   -0.45 KCAL/MOL
REMARK 927      BINDING AFFINITY PREDICTED BY RF-SCORE:    0.00 PKD
ROOT
HETATM    1  N   UNL     1      -9.582   6.227  65.942  1.00  0.00    -0.381 NA 
HETATM    2  H2  UNL     1      -9.723   5.225  65.813  1.00  0.00     0.000 HD 
HETATM    3  H1  UNL     1      -8.819   6.698  65.456  1.00  0.00     0.000 HD 
HETATM    4  C   UNL     1     -10.417   6.932  66.764  1.00  0.00    -0.230 C  
HETATM    5  H2  UNL     1     -11.523   5.333  67.250  1.00  0.00     0.000 HD 
HETATM    6  N   UNL     1     -11.382   6.336  67.379  1.00  0.00    -0.653 NA 
HETATM    7  H1  UNL     1     -12.005   6.862  67.992  1.00  0.00     0.000 HD 
ENDROOT
BRANCH   4   8
HETATM    8  C   UNL     1     -10.176   8.383  66.991  1.00  0.00    -0.377 A  
HETATM    9  C   UNL     1     -10.450   8.954  68.238  1.00  0.00    -0.243 A  
HETATM   10  C   UNL     1     -10.363  10.338  68.406  1.00  0.00    -0.202 A  
HETATM   11  C   UNL     1      -9.998  11.170  67.338  1.00  0.00    -0.204 A  
HETATM   12  C   UNL     1      -9.745   9.193  65.938  1.00  0.00    -0.336 A  
HETATM   13  C   UNL     1      -9.665  10.581  66.109  1.00  0.00    -0.259 A  
BRANCH  11  14
HETATM   14  C   UNL     1     -10.096  12.625  67.527  1.00  0.00    -0.212 C  
HETATM   15  C   UNL     1      -9.159  13.516  67.172  1.00  0.00    -0.232 C  
BRANCH  15  16
HETATM   16  C   UNL     1      -9.371  14.960  67.329  1.00  0.00    -0.210 A  
HETATM   17  C   UNL     1      -9.285  15.593  68.576  1.00  0.00    -0.197 A  
HETATM   18  C   UNL     1      -9.584  16.948  68.723  1.00  0.00    -0.268 A  
HETATM   19  O   UNL     1      -8.917  14.929  69.715  1.00  0.00    -0.438 OA 
HETATM   20  H   UNL     1      -8.858  15.358  70.561  1.00  0.00     0.000 HD 
HETATM   21  C   UNL     1      -9.949  17.700  67.604  1.00  0.00    -0.323 A  
HETATM   22  C   UNL     1      -9.989  17.092  66.343  1.00  0.00    -0.318 A  
HETATM   23  C   UNL     1      -9.703  15.729  66.207  1.00  0.00    -0.328 A  
BRANCH  21  24
HETATM   24  C   UNL     1     -10.337  19.132  67.742  1.00  0.00    -0.421 C  
HETATM   25  N   UNL     1     -10.847  19.810  66.672  1.00  0.00    -0.413 NA 
HETATM   26  N   UNL     1     -10.238  19.796  68.849  1.00  0.00    -0.591 NA 
HETATM   27  H1  UNL     1     -11.112  20.790  66.766  1.00  0.00     0.000 HD 
HETATM   28  H2  UNL     1     -10.962  19.335  65.776  1.00  0.00     0.000 HD 
HETATM   29  H1  UNL     1     -10.503  20.776  68.944  1.00  0.00     0.000 HD 
HETATM   30  H2  UNL     1      -9.874  19.314  69.671  1.00  0.00     0.000 HD 
ENDBRANCH  21  24
ENDBRANCH  15  16
ENDBRANCH  11  14
ENDBRANCH   4   8
TORSDOF 4
ENDMDL
MODEL       43
REMARK 921   NORMALIZED FREE ENERGY PREDICTED BY IDOCK:   -5.50 KCAL/MOL
REMARK 922        TOTAL FREE ENERGY PREDICTED BY IDOCK:   -7.29 KCAL/MOL
REMARK 923 INTER-LIGAND FREE ENERGY PREDICTED BY IDOCK:   -6.82 KCAL/MOL
REMARK 924 INTRA-LIGAND FREE ENERGY PREDICTED BY IDOCK:   -0.47 KCAL/MOL
REMARK 927      BINDING AFFINITY PREDICTED BY RF-SCORE:    0.00 PKD
ROOT
HETATM    1  N   UNL     1     -11.176   4.230  64.957  1.00  0.00    -1.020 NA 
HETATM    2  H2  UNL     1     -11.365   3.245  64.767  1.00  0.00     0.000 HD 
HETATM    3  H1  UNL     1     -11.591   4.949  64.364  1.00  0.00     0.000 HD 
HETATM    4  C   UNL     1     -10.369   4.579  66.004  1.00  0.00    -0.243 C  
HETATM    5  H2  UNL     1     -10.033   2.685  66.565  1.00  0.00     0.000 HD 
HETATM    6  N   UNL     1      -9.844   3.670  66.754  1.00  0.00    -0.383 NA 
HETATM    7  H1  UNL     1      -9.242   3.931  67.535  1.00  0.00     0.000 HD 
ENDROOT
BRANCH   4   8
HETATM    8  C   UNL     1     -10.054   6.014  66.246  1.00  0.00    -0.067 A  
HETATM    9  C   UNL     1     -10.923   6.805  67.002  1.00  0.00    -0.439 A  
HETATM   10  C   UNL     1     -10.702   8.181  67.106  1.00  0.00    -0.264 A  
HETATM   11  C   UNL     1      -9.611   8.784  66.464  1.00  0.00    -0.302 A  
HETATM   12  C   UNL     1      -8.926   6.590  65.659  1.00  0.00    -0.007 A  
HETATM   13  C   UNL     1      -8.710   7.970  65.759  1.00  0.00    -0.175 A  
BRANCH  11  14
HETATM   14  C   UNL     1      -9.531  10.252  66.462  1.00  0.00    -0.212 C  
HETATM   15  C   UNL     1     -10.576  11.084  66.341  1.00  0.00    -0.308 C  
BRANCH  15  16
HETATM   16  C   UNL     1     -10.415  12.540  66.424  1.00  0.00    -0.269 A  
HETATM   17  C   UNL     1     -10.382  13.215  67.652  1.00  0.00    -0.223 A  
HETATM   18  C   UNL     1     -10.326  14.608  67.712  1.00  0.00    -0.237 A  
HETATM   19  O   UNL     1     -10.413  12.560  68.854  1.00  0.00    -0.367 OA 
HETATM   20  H   UNL     1     -10.391  13.017  69.686  1.00  0.00     0.000 HD 
HETATM   21  C   UNL     1     -10.273  15.348  66.529  1.00  0.00    -0.287 A  
HETATM   22  C   UNL     1     -10.252  14.684  65.296  1.00  0.00    -0.421 A  
HETATM   23  C   UNL     1     -10.325  13.288  65.244  1.00  0.00    -0.324 A  
BRANCH  21  24
HETATM   24  C   UNL     1     -10.279  16.838  66.561  1.00  0.00    -0.316 C  
HETATM   25  N   UNL     1     -10.077  17.499  67.739  1.00  0.00    -0.315 NA 
HETATM   26  N   UNL     1     -10.451  17.575  65.510  1.00  0.00    -0.637 NA 
HETATM   27  H1  UNL     1     -10.082  18.518  67.761  1.00  0.00     0.000 HD 
HETATM   28  H2  UNL     1      -9.923  16.972  68.598  1.00  0.00     0.000 HD 
HETATM   29  H1  UNL     1     -10.456  18.594  65.532  1.00  0.00     0.000 HD 
HETATM   30  H2  UNL     1     -10.589  17.111  64.612  1.00  0.00     0.000 HD 
ENDBRANCH  21  24
ENDBRANCH  15  16
ENDBRANCH  11  14
ENDBRANCH   4   8
TORSDOF 4
ENDMDL
MODEL       44
REMARK 921   NORMALIZED FREE ENERGY PREDICTED BY IDOCK:   -5.47 KCAL/MOL
REMARK 922        TOTAL FREE ENERGY PREDICTED BY IDOCK:   -7.25 KCAL/MOL
REMARK 923 INTER-LIGAND FREE ENERGY PREDICTED BY IDOCK:   -6.76 KCAL/MOL
REMARK 924 INTRA-LIGAND FREE ENERGY PREDICTED BY IDOCK:   -0.49 KCAL/MOL
REMARK 927      BINDING AFFINITY PREDICTED BY RF-SCORE:    0.00 PKD
ROOT
HETATM    1  N   UNL     1     -10.462  20.069  68.871  1.00  0.00    -0.517 NA 
HETATM    2  H2  UNL     1     -10.385  21.069  69.061  1.00  0.00     0.000 HD 
HETATM    3  H1  UNL     1     -10.731  19.430  69.618  1.00  0.00     0.000 HD 
HETATM    4  C   UNL     1     -10.202  19.593  67.615  1.00  0.00    -0.435 C  
HETATM    5  H2  UNL     1      -9.785  21.401  66.859  1.00  0.00     0.000 HD 
HETATM    6  N   UNL     1      -9.861  20.402  66.669  1.00  0.00    -0.590 NA 
HETATM    7  H1  UNL     1      -9.667  20.047  65.732  1.00  0.00     0.000 HD 
ENDROOT
BRANCH   4   8
HETATM    8  C   UNL     1     -10.262  18.129  67.354  1.00  0.00    -0.383 A  
HETATM    9  C   UNL     1     -10.544  17.241  68.396  1.00  0.00    -0.368 A  
HETATM   10  C   UNL     1     -10.457  15.863  68.181  1.00  0.00    -0.270 A  
HETATM   11  C   UNL     1     -10.095  15.353  66.927  1.00  0.00    -0.258 A  
HETATM   12  C   UNL     1      -9.968  17.633  66.082  1.00  0.00    -0.281 A  
HETATM   13  C   UNL     1      -9.876  16.251  65.872  1.00  0.00    -0.365 A  
BRANCH  11  14
HETATM   14  C   UNL     1      -9.848  13.908  66.811  1.00  0.00    -0.274 C  
HETATM   15  C   UNL     1     -10.796  12.967  66.693  1.00  0.00    -0.291 C  
BRANCH  15  16
HETATM   16  C   UNL     1     -10.458  11.552  66.507  1.00  0.00    -0.284 A  
HETATM   17  C   UNL     1     -10.825  10.570  67.437  1.00  0.00    -0.291 A  
HETATM   18  C   UNL     1     -10.413   9.246  67.293  1.00  0.00    -0.334 A  
HETATM   19  O   UNL     1     -11.592  10.848  68.537  1.00  0.00    -0.292 OA 
HETATM   20  H   UNL     1     -11.841  10.183  69.168  1.00  0.00     0.000 HD 
HETATM   21  C   UNL     1      -9.644   8.877  66.187  1.00  0.00    -0.335 A  
HETATM   22  C   UNL     1      -9.314   9.837  65.222  1.00  0.00    -0.315 A  
HETATM   23  C   UNL     1      -9.717  11.167  65.382  1.00  0.00    -0.275 A  
BRANCH  21  24
HETATM   24  C   UNL     1      -9.135   7.484  66.042  1.00  0.00    -0.094 C  
HETATM   25  N   UNL     1      -9.996   6.428  66.123  1.00  0.00    -0.402 NA 
HETATM   26  N   UNL     1      -7.892   7.197  65.820  1.00  0.00    -0.103 NA 
HETATM   27  H1  UNL     1      -9.648   5.475  66.025  1.00  0.00     0.000 HD 
HETATM   28  H2  UNL     1     -10.990   6.592  66.283  1.00  0.00     0.000 HD 
HETATM   29  H1  UNL     1      -7.543   6.244  65.722  1.00  0.00     0.000 HD 
HETATM   30  H2  UNL     1      -7.225   7.965  65.740  1.00  0.00     0.000 HD 
ENDBRANCH  21  24
ENDBRANCH  15  16
ENDBRANCH  11  14
ENDBRANCH   4   8
TORSDOF 4
ENDMDL
MODEL       45
REMARK 921   NORMALIZED FREE ENERGY PREDICTED BY IDOCK:   -5.36 KCAL/MOL
REMARK 922        TOTAL FREE ENERGY PREDICTED BY IDOCK:   -7.12 KCAL/MOL
REMARK 923 INTER-LIGAND FREE ENERGY PREDICTED BY IDOCK:   -6.63 KCAL/MOL
REMARK 924 INTRA-LIGAND FREE ENERGY PREDICTED BY IDOCK:   -0.49 KCAL/MOL
REMARK 927      BINDING AFFINITY PREDICTED BY RF-SCORE:    0.00 PKD
ROOT
HETATM    1  N   UNL     1     -12.031  16.503  72.391  1.00  0.00    -0.598 NA 
HETATM    2  H2  UNL     1     -12.210  17.335  72.953  1.00  0.00     0.000 HD 
HETATM    3  H1  UNL     1     -11.179  16.441  71.834  1.00  0.00     0.000 HD 
HETATM    4  C   UNL     1     -12.933  15.475  72.390  1.00  0.00    -0.421 C  
HETATM    5  H2  UNL     1     -14.190  16.385  73.657  1.00  0.00     0.000 HD 
HETATM    6  N   UNL     1     -14.011  15.553  73.095  1.00  0.00    -0.552 NA 
HETATM    7  H1  UNL     1     -14.684  14.786  73.094  1.00  0.00     0.000 HD 
ENDROOT
BRANCH   4   8
HETATM    8  C   UNL     1     -12.694  14.284  71.528  1.00  0.00    -0.425 A  
HETATM    9  C   UNL     1     -13.072  13.013  71.968  1.00  0.00    -0.481 A  
HETATM   10  C   UNL     1     -12.717  11.884  71.225  1.00  0.00    -0.401 A  
HETATM   11  C   UNL     1     -11.987  12.007  70.035  1.00  0.00    -0.400 A  
HETATM   12  C   UNL     1     -12.027  14.426  70.310  1.00  0.00    -0.388 A  
HETATM   13  C   UNL     1     -11.667  13.292  69.571  1.00  0.00    -0.384 A  
BRANCH  11  14
HETATM   14  C   UNL     1     -11.491  10.779  69.395  1.00  0.00    -0.366 C  
HETATM   15  C   UNL     1     -11.009  10.698  68.146  1.00  0.00    -0.321 C  
BRANCH  15  16
HETATM   16  C   UNL     1     -10.464   9.446  67.611  1.00  0.00    -0.328 A  
HETATM   17  C   UNL     1      -9.460   9.429  66.632  1.00  0.00    -0.177 A  
HETATM   18  C   UNL     1      -9.023   8.232  66.065  1.00  0.00    -0.224 A  
HETATM   19  O   UNL     1      -8.863  10.571  66.171  1.00  0.00    -0.150 OA 
HETATM   20  H   UNL     1      -8.182  10.560  65.508  1.00  0.00     0.000 HD 
HETATM   21  C   UNL     1      -9.570   7.022  66.495  1.00  0.00    -0.201 A  
HETATM   22  C   UNL     1     -10.536   7.020  67.509  1.00  0.00    -0.351 A  
HETATM   23  C   UNL     1     -10.982   8.226  68.063  1.00  0.00     0.127 A  
BRANCH  21  24
HETATM   24  C   UNL     1      -9.169   5.735  65.860  1.00  0.00    -0.113 C  
HETATM   25  N   UNL     1      -9.144   4.586  66.597  1.00  0.00    -0.118 NA 
HETATM   26  N   UNL     1      -8.847   5.624  64.611  1.00  0.00    -0.361 NA 
HETATM   27  H1  UNL     1      -8.869   3.705  66.163  1.00  0.00     0.000 HD 
HETATM   28  H2  UNL     1      -9.401   4.608  67.584  1.00  0.00     0.000 HD 
HETATM   29  H1  UNL     1      -8.572   4.744  64.176  1.00  0.00     0.000 HD 
HETATM   30  H2  UNL     1      -8.869   6.462  64.030  1.00  0.00     0.000 HD 
ENDBRANCH  21  24
ENDBRANCH  15  16
ENDBRANCH  11  14
ENDBRANCH   4   8
TORSDOF 4
ENDMDL
MODEL       46
REMARK 921   NORMALIZED FREE ENERGY PREDICTED BY IDOCK:   -5.36 KCAL/MOL
REMARK 922        TOTAL FREE ENERGY PREDICTED BY IDOCK:   -7.12 KCAL/MOL
REMARK 923 INTER-LIGAND FREE ENERGY PREDICTED BY IDOCK:   -6.70 KCAL/MOL
REMARK 924 INTRA-LIGAND FREE ENERGY PREDICTED BY IDOCK:   -0.42 KCAL/MOL
REMARK 927      BINDING AFFINITY PREDICTED BY RF-SCORE:    0.00 PKD
ROOT
HETATM    1  N   UNL     1     -14.106  14.050  72.591  1.00  0.00    -0.651 NA 
HETATM    2  H2  UNL     1     -14.370  14.934  73.027  1.00  0.00     0.000 HD 
HETATM    3  H1  UNL     1     -14.658  13.211  72.771  1.00  0.00     0.000 HD 
HETATM    4  C   UNL     1     -13.015  13.995  71.768  1.00  0.00    -0.353 C  
HETATM    5  H2  UNL     1     -12.580  15.940  71.976  1.00  0.00     0.000 HD 
HETATM    6  N   UNL     1     -12.317  15.056  71.540  1.00  0.00    -0.312 NA 
HETATM    7  H1  UNL     1     -11.503  15.015  70.926  1.00  0.00     0.000 HD 
ENDROOT
BRANCH   4   8
HETATM    8  C   UNL     1     -12.602  12.693  71.175  1.00  0.00    -0.354 A  
HETATM    9  C   UNL     1     -12.963  11.494  71.796  1.00  0.00    -0.500 A  
HETATM   10  C   UNL     1     -12.453  10.282  71.322  1.00  0.00    -0.514 A  
HETATM   11  C   UNL     1     -11.585  10.249  70.222  1.00  0.00    -0.396 A  
HETATM   12  C   UNL     1     -11.794  12.669  70.038  1.00  0.00    -0.358 A  
HETATM   13  C   UNL     1     -11.280  11.453  69.568  1.00  0.00    -0.322 A  
BRANCH  11  14
HETATM   14  C   UNL     1     -10.944   8.970  69.882  1.00  0.00    -0.204 C  
HETATM   15  C   UNL     1     -11.497   7.760  70.046  1.00  0.00     0.023 C  
BRANCH  15  16
HETATM   16  C   UNL     1     -10.816   6.536  69.609  1.00  0.00    -0.359 A  
HETATM   17  C   UNL     1     -10.728   6.176  68.257  1.00  0.00    -0.290 A  
HETATM   18  C   UNL     1     -10.162   4.962  67.867  1.00  0.00    -0.106 A  
HETATM   19  O   UNL     1     -11.194   6.977  67.250  1.00  0.00    -0.590 OA 
HETATM   20  H   UNL     1     -11.134   6.734  66.334  1.00  0.00     0.000 HD 
HETATM   21  C   UNL     1      -9.646   4.098  68.834  1.00  0.00    -0.222 A  
HETATM   22  C   UNL     1      -9.680   4.468  70.184  1.00  0.00    -0.287 A  
HETATM   23  C   UNL     1     -10.264   5.680  70.570  1.00  0.00    -0.297 A  
BRANCH  21  24
HETATM   24  C   UNL     1      -9.096   2.767  68.451  1.00  0.00    -0.167 C  
HETATM   25  N   UNL     1      -9.481   2.176  67.281  1.00  0.00    -0.397 NA 
HETATM   26  N   UNL     1      -8.235   2.116  69.167  1.00  0.00    -0.047 NA 
HETATM   27  H1  UNL     1      -9.105   1.265  67.020  1.00  0.00     0.000 HD 
HETATM   28  H2  UNL     1     -10.147   2.647  66.669  1.00  0.00     0.000 HD 
HETATM   29  H1  UNL     1      -7.859   1.205  68.905  1.00  0.00     0.000 HD 
HETATM   30  H2  UNL     1      -7.916   2.537  70.039  1.00  0.00     0.000 HD 
ENDBRANCH  21  24
ENDBRANCH  15  16
ENDBRANCH  11  14
ENDBRANCH   4   8
TORSDOF 4
ENDMDL
MODEL       47
REMARK 921   NORMALIZED FREE ENERGY PREDICTED BY IDOCK:   -5.34 KCAL/MOL
REMARK 922        TOTAL FREE ENERGY PREDICTED BY IDOCK:   -7.09 KCAL/MOL
REMARK 923 INTER-LIGAND FREE ENERGY PREDICTED BY IDOCK:   -6.59 KCAL/MOL
REMARK 924 INTRA-LIGAND FREE ENERGY PREDICTED BY IDOCK:   -0.50 KCAL/MOL
REMARK 927      BINDING AFFINITY PREDICTED BY RF-SCORE:    0.00 PKD
ROOT
HETATM    1  N   UNL     1      -9.568  20.444  66.932  1.00  0.00    -0.554 NA 
HETATM    2  H2  UNL     1      -9.135  21.330  66.672  1.00  0.00     0.000 HD 
HETATM    3  H1  UNL     1     -10.370  20.437  67.562  1.00  0.00     0.000 HD 
HETATM    4  C   UNL     1      -9.071  19.271  66.434  1.00  0.00    -0.352 C  
HETATM    5  H2  UNL     1      -7.623  20.166  65.377  1.00  0.00     0.000 HD 
HETATM    6  N   UNL     1      -8.056  19.280  65.637  1.00  0.00    -0.358 NA 
HETATM    7  H1  UNL     1      -7.686  18.405  65.265  1.00  0.00     0.000 HD 
ENDROOT
BRANCH   4   8
HETATM    8  C   UNL     1      -9.672  17.976  66.856  1.00  0.00    -0.314 A  
HETATM    9  C   UNL     1     -10.668  17.952  67.837  1.00  0.00    -0.328 A  
HETATM   10  C   UNL     1     -11.126  16.730  68.335  1.00  0.00    -0.266 A  
HETATM   11  C   UNL     1     -10.604  15.518  67.860  1.00  0.00    -0.274 A  
HETATM   12  C   UNL     1      -9.193  16.777  66.325  1.00  0.00    -0.313 A  
HETATM   13  C   UNL     1      -9.651  15.554  66.831  1.00  0.00    -0.241 A  
BRANCH  11  14
HETATM   14  C   UNL     1     -10.996  14.277  68.545  1.00  0.00    -0.267 C  
HETATM   15  C   UNL     1     -10.222  13.191  68.680  1.00  0.00    -0.177 C  
BRANCH  15  16
HETATM   16  C   UNL     1     -10.665  12.020  69.446  1.00  0.00     0.022 A  
HETATM   17  C   UNL     1      -9.847  10.896  69.627  1.00  0.00     0.193 A  
HETATM   18  C   UNL     1     -10.318   9.754  70.274  1.00  0.00    -0.348 A  
HETATM   19  O   UNL     1      -8.555  10.847  69.177  1.00  0.00    -0.292 OA 
HETATM   20  H   UNL     1      -8.000  10.086  69.300  1.00  0.00     0.000 HD 
HETATM   21  C   UNL     1     -11.620   9.734  70.778  1.00  0.00    -0.417 A  
HETATM   22  C   UNL     1     -12.431  10.868  70.651  1.00  0.00    -0.460 A  
HETATM   23  C   UNL     1     -11.956  12.004  69.986  1.00  0.00    -0.400 A  
BRANCH  21  24
HETATM   24  C   UNL     1     -12.171   8.504  71.415  1.00  0.00    -0.304 C  
HETATM   25  N   UNL     1     -12.574   8.530  72.720  1.00  0.00    -0.594 NA 
HETATM   26  N   UNL     1     -12.314   7.379  70.791  1.00  0.00    -0.546 NA 
HETATM   27  H1  UNL     1     -12.951   7.689  73.156  1.00  0.00     0.000 HD 
HETATM   28  H2  UNL     1     -12.498   9.392  73.259  1.00  0.00     0.000 HD 
HETATM   29  H1  UNL     1     -12.691   6.537  71.227  1.00  0.00     0.000 HD 
HETATM   30  H2  UNL     1     -12.035   7.330  69.811  1.00  0.00     0.000 HD 
ENDBRANCH  21  24
ENDBRANCH  15  16
ENDBRANCH  11  14
ENDBRANCH   4   8
TORSDOF 4
ENDMDL
MODEL       48
REMARK 921   NORMALIZED FREE ENERGY PREDICTED BY IDOCK:   -5.26 KCAL/MOL
REMARK 922        TOTAL FREE ENERGY PREDICTED BY IDOCK:   -6.99 KCAL/MOL
REMARK 923 INTER-LIGAND FREE ENERGY PREDICTED BY IDOCK:   -6.49 KCAL/MOL
REMARK 924 INTRA-LIGAND FREE ENERGY PREDICTED BY IDOCK:   -0.50 KCAL/MOL
REMARK 927      BINDING AFFINITY PREDICTED BY RF-SCORE:    0.00 PKD
ROOT
HETATM    1  N   UNL     1      -9.195   7.299  69.745  1.00  0.00    -0.141 NA 
HETATM    2  H2  UNL     1      -9.079   6.349  70.098  1.00  0.00     0.000 HD 
HETATM    3  H1  UNL     1      -8.384   7.819  69.413  1.00  0.00     0.000 HD 
HETATM    4  C   UNL     1     -10.438   7.868  69.721  1.00  0.00    -0.233 C  
HETATM    5  H2  UNL     1     -11.349   6.260  70.495  1.00  0.00     0.000 HD 
HETATM    6  N   UNL     1     -11.465   7.210  70.142  1.00  0.00    -0.458 NA 
HETATM    7  H1  UNL     1     -12.393   7.636  70.123  1.00  0.00     0.000 HD 
ENDROOT
BRANCH   4   8
HETATM    8  C   UNL     1     -10.597   9.273  69.255  1.00  0.00    -0.234 A  
HETATM    9  C   UNL     1      -9.707   9.807  68.319  1.00  0.00    -0.160 A  
HETATM   10  C   UNL     1      -9.768  11.164  67.992  1.00  0.00    -0.183 A  
HETATM   11  C   UNL     1     -10.718  12.005  68.589  1.00  0.00    -0.266 A  
HETATM   12  C   UNL     1     -11.592  10.084  69.805  1.00  0.00    -0.193 A  
HETATM   13  C   UNL     1     -11.647  11.445  69.480  1.00  0.00    -0.399 A  
BRANCH  11  14
HETATM   14  C   UNL     1     -10.619  13.451  68.341  1.00  0.00    -0.259 C  
HETATM   15  C   UNL     1     -10.659  14.034  67.135  1.00  0.00    -0.274 C  
BRANCH  15  16
HETATM   16  C   UNL     1     -10.628  15.493  66.983  1.00  0.00    -0.311 A  
HETATM   17  C   UNL     1     -10.619  16.110  65.724  1.00  0.00    -0.334 A  
HETATM   18  C   UNL     1     -10.492  17.493  65.597  1.00  0.00    -0.156 A  
HETATM   19  O   UNL     1     -10.722  15.402  64.557  1.00  0.00    -0.612 OA 
HETATM   20  H   UNL     1     -10.716  15.820  63.704  1.00  0.00     0.000 HD 
HETATM   21  C   UNL     1     -10.401  18.287  66.742  1.00  0.00    -0.403 A  
HETATM   22  C   UNL     1     -10.461  17.689  68.007  1.00  0.00    -0.395 A  
HETATM   23  C   UNL     1     -10.572  16.299  68.126  1.00  0.00    -0.307 A  
BRANCH  21  24
HETATM   24  C   UNL     1     -10.198  19.760  66.635  1.00  0.00    -0.478 C  
HETATM   25  N   UNL     1     -10.116  20.352  65.407  1.00  0.00    -0.346 NA 
HETATM   26  N   UNL     1     -10.109  20.545  67.660  1.00  0.00    -0.348 NA 
HETATM   27  H1  UNL     1      -9.976  21.360  65.334  1.00  0.00     0.000 HD 
HETATM   28  H2  UNL     1     -10.193  19.786  64.562  1.00  0.00     0.000 HD 
HETATM   29  H1  UNL     1      -9.970  21.553  67.587  1.00  0.00     0.000 HD 
HETATM   30  H2  UNL     1     -10.181  20.135  68.591  1.00  0.00     0.000 HD 
ENDBRANCH  21  24
ENDBRANCH  15  16
ENDBRANCH  11  14
ENDBRANCH   4   8
TORSDOF 4
ENDMDL
MODEL       49
REMARK 921   NORMALIZED FREE ENERGY PREDICTED BY IDOCK:   -5.26 KCAL/MOL
REMARK 922        TOTAL FREE ENERGY PREDICTED BY IDOCK:   -6.99 KCAL/MOL
REMARK 923 INTER-LIGAND FREE ENERGY PREDICTED BY IDOCK:   -6.46 KCAL/MOL
REMARK 924 INTRA-LIGAND FREE ENERGY PREDICTED BY IDOCK:   -0.54 KCAL/MOL
REMARK 927      BINDING AFFINITY PREDICTED BY RF-SCORE:    0.00 PKD
ROOT
HETATM    1  N   UNL     1     -13.210   7.415  71.697  1.00  0.00    -0.387 NA 
HETATM    2  H2  UNL     1     -13.522   6.615  72.249  1.00  0.00     0.000 HD 
HETATM    3  H1  UNL     1     -12.703   7.263  70.826  1.00  0.00     0.000 HD 
HETATM    4  C   UNL     1     -13.475   8.685  72.130  1.00  0.00    -0.398 C  
HETATM    5  H2  UNL     1     -14.429   8.078  73.784  1.00  0.00     0.000 HD 
HETATM    6  N   UNL     1     -14.117   8.877  73.232  1.00  0.00    -1.248 NA 
HETATM    7  H1  UNL     1     -14.315   9.825  73.555  1.00  0.00     0.000 HD 
ENDROOT
BRANCH   4   8
HETATM    8  C   UNL     1     -12.974   9.850  71.350  1.00  0.00    -0.504 A  
HETATM    9  C   UNL     1     -12.248   9.646  70.173  1.00  0.00     0.124 A  
HETATM   10  C   UNL     1     -11.655  10.731  69.522  1.00  0.00    -0.375 A  
HETATM   11  C   UNL     1     -11.782  12.031  70.031  1.00  0.00    -0.346 A  
HETATM   12  C   UNL     1     -13.166  11.147  71.830  1.00  0.00    -0.486 A  
HETATM   13  C   UNL     1     -12.565  12.232  71.178  1.00  0.00    -0.353 A  
BRANCH  11  14
HETATM   14  C   UNL     1     -10.992  13.102  69.406  1.00  0.00    -0.056 C  
HETATM   15  C   UNL     1      -9.920  12.916  68.623  1.00  0.00    -0.099 C  
BRANCH  15  16
HETATM   16  C   UNL     1      -9.234  14.041  67.976  1.00  0.00    -0.201 A  
HETATM   17  C   UNL     1      -7.850  14.040  67.755  1.00  0.00    -0.171 A  
HETATM   18  C   UNL     1      -7.200  15.156  67.228  1.00  0.00    -0.197 A  
HETATM   19  O   UNL     1      -7.059  12.962  68.047  1.00  0.00    -0.086 OA 
HETATM   20  H   UNL     1      -6.120  12.961  67.897  1.00  0.00     0.000 HD 
HETATM   21  C   UNL     1      -7.940  16.289  66.886  1.00  0.00    -0.278 A  
HETATM   22  C   UNL     1      -9.331  16.286  67.054  1.00  0.00    -0.235 A  
HETATM   23  C   UNL     1      -9.974  15.168  67.598  1.00  0.00    -0.229 A  
BRANCH  21  24
HETATM   24  C   UNL     1      -7.264  17.519  66.384  1.00  0.00    -0.291 C  
HETATM   25  N   UNL     1      -7.982  18.473  65.720  1.00  0.00    -0.478 NA 
HETATM   26  N   UNL     1      -6.004  17.761  66.553  1.00  0.00    -0.164 NA 
HETATM   27  H1  UNL     1      -7.519  19.314  65.376  1.00  0.00     0.000 HD 
HETATM   28  H2  UNL     1      -8.982  18.344  65.568  1.00  0.00     0.000 HD 
HETATM   29  H1  UNL     1      -5.541  18.602  66.209  1.00  0.00     0.000 HD 
HETATM   30  H2  UNL     1      -5.443  17.075  67.058  1.00  0.00     0.000 HD 
ENDBRANCH  21  24
ENDBRANCH  15  16
ENDBRANCH  11  14
ENDBRANCH   4   8
TORSDOF 4
ENDMDL
MODEL       50
REMARK 921   NORMALIZED FREE ENERGY PREDICTED BY IDOCK:   -5.22 KCAL/MOL
REMARK 922        TOTAL FREE ENERGY PREDICTED BY IDOCK:   -6.94 KCAL/MOL
REMARK 923 INTER-LIGAND FREE ENERGY PREDICTED BY IDOCK:   -6.42 KCAL/MOL
REMARK 924 INTRA-LIGAND FREE ENERGY PREDICTED BY IDOCK:   -0.52 KCAL/MOL
REMARK 927      BINDING AFFINITY PREDICTED BY RF-SCORE:    0.00 PKD
ROOT
HETATM    1  N   UNL     1     -12.965  15.440  71.060  1.00  0.00    -0.466 NA 
HETATM    2  H2  UNL     1     -13.224  16.350  71.442  1.00  0.00     0.000 HD 
HETATM    3  H1  UNL     1     -12.582  15.376  70.116  1.00  0.00     0.000 HD 
HETATM    4  C   UNL     1     -13.131  14.312  71.815  1.00  0.00    -0.359 C  
HETATM    5  H2  UNL     1     -13.874  15.302  73.390  1.00  0.00     0.000 HD 
HETATM    6  N   UNL     1     -13.615  14.392  73.008  1.00  0.00    -0.595 NA 
HETATM    7  H1  UNL     1     -13.739  13.550  73.571  1.00  0.00     0.000 HD 
ENDROOT
BRANCH   4   8
HETATM    8  C   UNL     1     -12.801  12.981  71.235  1.00  0.00    -0.370 A  
HETATM    9  C   UNL     1     -13.187  11.812  71.898  1.00  0.00    -0.468 A  
HETATM   10  C   UNL     1     -12.752  10.569  71.430  1.00  0.00    -0.547 A  
HETATM   11  C   UNL     1     -11.933  10.474  70.297  1.00  0.00    -0.411 A  
HETATM   12  C   UNL     1     -12.043  12.896  70.066  1.00  0.00    -0.357 A  
HETATM   13  C   UNL     1     -11.603  11.649  69.604  1.00  0.00    -0.401 A  
BRANCH  11  14
HETATM   14  C   UNL     1     -11.364   9.161  69.959  1.00  0.00    -0.108 C  
HETATM   15  C   UNL     1     -11.570   8.029  70.647  1.00  0.00    -0.203 C  
BRANCH  15  16
HETATM   16  C   UNL     1     -11.023   6.744  70.196  1.00  0.00    -0.340 A  
HETATM   17  C   UNL     1     -10.653   5.736  71.097  1.00  0.00    -0.251 A  
HETATM   18  C   UNL     1     -10.045   4.560  70.658  1.00  0.00    -0.232 A  
HETATM   19  O   UNL     1     -10.853   5.845  72.447  1.00  0.00    -0.219 OA 
HETATM   20  H   UNL     1     -10.603   5.162  73.058  1.00  0.00     0.000 HD 
HETATM   21  C   UNL     1      -9.824   4.364  69.294  1.00  0.00    -0.218 A  
HETATM   22  C   UNL     1     -10.235   5.340  68.377  1.00  0.00    -0.206 A  
HETATM   23  C   UNL     1     -10.830   6.524  68.827  1.00  0.00    -0.357 A  
BRANCH  21  24
HETATM   24  C   UNL     1      -9.117   3.147  68.803  1.00  0.00    -0.150 C  
HETATM   25  N   UNL     1      -9.832   2.079  68.341  1.00  0.00    -0.110 NA 
HETATM   26  N   UNL     1      -7.827   3.035  68.767  1.00  0.00    -0.057 NA 
HETATM   27  H1  UNL     1      -9.348   1.246  68.006  1.00  0.00     0.000 HD 
HETATM   28  H2  UNL     1     -10.851   2.114  68.332  1.00  0.00     0.000 HD 
HETATM   29  H1  UNL     1      -7.344   2.202  68.431  1.00  0.00     0.000 HD 
HETATM   30  H2  UNL     1      -7.265   3.821  69.091  1.00  0.00     0.000 HD 
ENDBRANCH  21  24
ENDBRANCH  15  16
ENDBRANCH  11  14
ENDBRANCH   4   8
TORSDOF 4
ENDMDL
MODEL       51
REMARK 921   NORMALIZED FREE ENERGY PREDICTED BY IDOCK:   -5.19 KCAL/MOL
REMARK 922        TOTAL FREE ENERGY PREDICTED BY IDOCK:   -6.91 KCAL/MOL
REMARK 923 INTER-LIGAND FREE ENERGY PREDICTED BY IDOCK:   -6.40 KCAL/MOL
REMARK 924 INTRA-LIGAND FREE ENERGY PREDICTED BY IDOCK:   -0.51 KCAL/MOL
REMARK 927      BINDING AFFINITY PREDICTED BY RF-SCORE:    0.00 PKD
ROOT
HETATM    1  N   UNL     1     -14.201  15.433  70.991  1.00  0.00    -0.846 NA 
HETATM    2  H2  UNL     1     -14.564  16.343  71.277  1.00  0.00     0.000 HD 
HETATM    3  H1  UNL     1     -14.846  14.661  70.825  1.00  0.00     0.000 HD 
HETATM    4  C   UNL     1     -12.854  15.256  70.834  1.00  0.00    -0.449 C  
HETATM    5  H2  UNL     1     -12.401  17.143  71.330  1.00  0.00     0.000 HD 
HETATM    6  N   UNL     1     -12.039  16.233  71.045  1.00  0.00    -0.527 NA 
HETATM    7  H1  UNL     1     -11.034  16.100  70.927  1.00  0.00     0.000 HD 
ENDROOT
BRANCH   4   8
HETATM    8  C   UNL     1     -12.325  13.913  70.469  1.00  0.00    -0.439 A  
HETATM    9  C   UNL     1     -11.374  13.786  69.452  1.00  0.00    -0.306 A  
HETATM   10  C   UNL     1     -10.988  12.517  69.013  1.00  0.00    -0.237 A  
HETATM   11  C   UNL     1     -11.538  11.361  69.583  1.00  0.00    -0.399 A  
HETATM   12  C   UNL     1     -12.830  12.770  71.092  1.00  0.00    -0.315 A  
HETATM   13  C   UNL     1     -12.445  11.499  70.645  1.00  0.00    -0.405 A  
BRANCH  11  14
HETATM   14  C   UNL     1     -11.228  10.065  68.961  1.00  0.00    -0.180 C  
HETATM   15  C   UNL     1     -10.738   9.898  67.724  1.00  0.00    -0.332 C  
BRANCH  15  16
HETATM   16  C   UNL     1     -10.385   8.570  67.208  1.00  0.00    -0.372 A  
HETATM   17  C   UNL     1      -9.502   8.400  66.133  1.00  0.00    -0.194 A  
HETATM   18  C   UNL     1      -9.253   7.138  65.593  1.00  0.00     0.182 A  
HETATM   19  O   UNL     1      -8.845   9.448  65.547  1.00  0.00    -0.160 OA 
HETATM   20  H   UNL     1      -8.246   9.333  64.819  1.00  0.00     0.000 HD 
HETATM   21  C   UNL     1      -9.870   6.015  66.148  1.00  0.00    -0.032 A  
HETATM   22  C   UNL     1     -10.714   6.164  67.256  1.00  0.00    -0.414 A  
HETATM   23  C   UNL     1     -10.972   7.435  67.781  1.00  0.00    -0.099 A  
BRANCH  21  24
HETATM   24  C   UNL     1      -9.673   4.664  65.551  1.00  0.00    -0.181 C  
HETATM   25  N   UNL     1     -10.716   4.026  64.942  1.00  0.00    -0.580 NA 
HETATM   26  N   UNL     1      -8.539   4.039  65.554  1.00  0.00    -0.112 NA 
HETATM   27  H1  UNL     1     -10.581   3.101  64.534  1.00  0.00     0.000 HD 
HETATM   28  H2  UNL     1     -11.630   4.475  64.896  1.00  0.00     0.000 HD 
HETATM   29  H1  UNL     1      -8.405   3.114  65.146  1.00  0.00     0.000 HD 
HETATM   30  H2  UNL     1      -7.737   4.495  65.989  1.00  0.00     0.000 HD 
ENDBRANCH  21  24
ENDBRANCH  15  16
ENDBRANCH  11  14
ENDBRANCH   4   8
TORSDOF 4
ENDMDL
MODEL       52
REMARK 921   NORMALIZED FREE ENERGY PREDICTED BY IDOCK:   -5.19 KCAL/MOL
REMARK 922        TOTAL FREE ENERGY PREDICTED BY IDOCK:   -6.91 KCAL/MOL
REMARK 923 INTER-LIGAND FREE ENERGY PREDICTED BY IDOCK:   -6.41 KCAL/MOL
REMARK 924 INTRA-LIGAND FREE ENERGY PREDICTED BY IDOCK:   -0.49 KCAL/MOL
REMARK 927      BINDING AFFINITY PREDICTED BY RF-SCORE:    0.00 PKD
ROOT
HETATM    1  N   UNL     1      -9.592   5.402  67.959  1.00  0.00    -0.122 NA 
HETATM    2  H2  UNL     1      -9.398   4.414  68.125  1.00  0.00     0.000 HD 
HETATM    3  H1  UNL     1      -9.259   5.847  67.104  1.00  0.00     0.000 HD 
HETATM    4  C   UNL     1     -10.297   6.122  68.883  1.00  0.00    -0.208 C  
HETATM    5  H2  UNL     1     -10.525   4.571  70.131  1.00  0.00     0.000 HD 
HETATM    6  N   UNL     1     -10.719   5.559  69.965  1.00  0.00    -0.314 NA 
HETATM    7  H1  UNL     1     -11.245   6.096  70.654  1.00  0.00     0.000 HD 
ENDROOT
BRANCH   4   8
HETATM    8  C   UNL     1     -10.533   7.575  68.663  1.00  0.00    -0.207 A  
HETATM    9  C   UNL     1     -10.485   8.106  67.371  1.00  0.00    -0.356 A  
HETATM   10  C   UNL     1     -10.561   9.488  67.181  1.00  0.00    -0.295 A  
HETATM   11  C   UNL     1     -10.691  10.358  68.273  1.00  0.00    -0.275 A  
HETATM   12  C   UNL     1     -10.732   8.424  69.753  1.00  0.00    -0.211 A  
HETATM   13  C   UNL     1     -10.802   9.810  69.560  1.00  0.00    -0.264 A  
BRANCH  11  14
HETATM   14  C   UNL     1     -10.588  11.803  68.025  1.00  0.00    -0.235 C  
HETATM   15  C   UNL     1     -11.077  12.762  68.824  1.00  0.00    -0.303 C  
BRANCH  15  16
HETATM   16  C   UNL     1     -10.863  14.186  68.539  1.00  0.00    -0.264 A  
HETATM   17  C   UNL     1     -10.771  15.143  69.559  1.00  0.00    -0.266 A  
HETATM   18  C   UNL     1     -10.665  16.503  69.268  1.00  0.00    -0.331 A  
HETATM   19  O   UNL     1     -10.790  14.809  70.886  1.00  0.00    -0.524 OA 
HETATM   20  H   UNL     1     -10.728  15.457  71.578  1.00  0.00     0.000 HD 
HETATM   21  C   UNL     1     -10.619  16.923  67.938  1.00  0.00    -0.361 A  
HETATM   22  C   UNL     1     -10.657  15.974  66.909  1.00  0.00    -0.300 A  
HETATM   23  C   UNL     1     -10.780  14.613  67.208  1.00  0.00    -0.290 A  
BRANCH  21  24
HETATM   24  C   UNL     1     -10.572  18.374  67.597  1.00  0.00    -0.408 C  
HETATM   25  N   UNL     1     -10.433  19.305  68.586  1.00  0.00    -0.473 NA 
HETATM   26  N   UNL     1     -10.639  18.826  66.386  1.00  0.00    -0.405 NA 
HETATM   27  H1  UNL     1     -10.402  20.298  68.353  1.00  0.00     0.000 HD 
HETATM   28  H2  UNL     1     -10.361  19.008  69.559  1.00  0.00     0.000 HD 
HETATM   29  H1  UNL     1     -10.608  19.818  66.153  1.00  0.00     0.000 HD 
HETATM   30  H2  UNL     1     -10.729  18.154  65.623  1.00  0.00     0.000 HD 
ENDBRANCH  21  24
ENDBRANCH  15  16
ENDBRANCH  11  14
ENDBRANCH   4   8
TORSDOF 4
ENDMDL
MODEL       53
REMARK 921   NORMALIZED FREE ENERGY PREDICTED BY IDOCK:   -5.17 KCAL/MOL
REMARK 922        TOTAL FREE ENERGY PREDICTED BY IDOCK:   -6.89 KCAL/MOL
REMARK 923 INTER-LIGAND FREE ENERGY PREDICTED BY IDOCK:   -6.40 KCAL/MOL
REMARK 924 INTRA-LIGAND FREE ENERGY PREDICTED BY IDOCK:   -0.49 KCAL/MOL
REMARK 927      BINDING AFFINITY PREDICTED BY RF-SCORE:    0.00 PKD
ROOT
HETATM    1  N   UNL     1      -8.134   5.495  72.608  1.00  0.00    -0.106 NA 
HETATM    2  H2  UNL     1      -7.780   4.712  73.157  1.00  0.00     0.000 HD 
HETATM    3  H1  UNL     1      -8.028   6.448  72.956  1.00  0.00     0.000 HD 
HETATM    4  C   UNL     1      -8.750   5.263  71.409  1.00  0.00    -0.130 C  
HETATM    5  H2  UNL     1      -8.532   3.275  71.517  1.00  0.00     0.000 HD 
HETATM    6  N   UNL     1      -8.886   4.058  70.968  1.00  0.00    -0.084 NA 
HETATM    7  H1  UNL     1      -9.345   3.885  70.073  1.00  0.00     0.000 HD 
ENDROOT
BRANCH   4   8
HETATM    8  C   UNL     1      -9.313   6.404  70.635  1.00  0.00    -0.169 A  
HETATM    9  C   UNL     1      -9.935   6.178  69.404  1.00  0.00    -0.205 A  
HETATM   10  C   UNL     1     -10.331   7.261  68.614  1.00  0.00    -0.208 A  
HETATM   11  C   UNL     1     -10.118   8.579  69.041  1.00  0.00    -0.207 A  
HETATM   12  C   UNL     1      -9.158   7.710  71.104  1.00  0.00    -0.152 A  
HETATM   13  C   UNL     1      -9.550   8.793  70.306  1.00  0.00    -0.198 A  
BRANCH  11  14
HETATM   14  C   UNL     1     -10.393   9.669  68.093  1.00  0.00    -0.250 C  
HETATM   15  C   UNL     1     -11.115  10.766  68.363  1.00  0.00    -0.323 C  
BRANCH  15  16
HETATM   16  C   UNL     1     -11.277  11.842  67.380  1.00  0.00    -0.366 A  
HETATM   17  C   UNL     1     -11.800  13.095  67.728  1.00  0.00    -0.348 A  
HETATM   18  C   UNL     1     -12.038  14.074  66.763  1.00  0.00    -0.480 A  
HETATM   19  O   UNL     1     -12.116  13.429  69.017  1.00  0.00    -0.325 OA 
HETATM   20  H   UNL     1     -12.471  14.278  69.253  1.00  0.00     0.000 HD 
HETATM   21  C   UNL     1     -11.724  13.818  65.427  1.00  0.00    -0.346 A  
HETATM   22  C   UNL     1     -11.152  12.589  65.072  1.00  0.00    -0.335 A  
HETATM   23  C   UNL     1     -10.932  11.607  66.043  1.00  0.00    -0.338 A  
BRANCH  21  24
HETATM   24  C   UNL     1     -12.028  14.820  64.366  1.00  0.00    -0.417 C  
HETATM   25  N   UNL     1     -11.490  16.073  64.433  1.00  0.00    -0.723 NA 
HETATM   26  N   UNL     1     -12.779  14.570  63.341  1.00  0.00    -0.690 NA 
HETATM   27  H1  UNL     1     -11.699  16.759  63.708  1.00  0.00     0.000 HD 
HETATM   28  H2  UNL     1     -10.879  16.324  65.210  1.00  0.00     0.000 HD 
HETATM   29  H1  UNL     1     -12.988  15.256  62.616  1.00  0.00     0.000 HD 
HETATM   30  H2  UNL     1     -13.185  13.639  63.255  1.00  0.00     0.000 HD 
ENDBRANCH  21  24
ENDBRANCH  15  16
ENDBRANCH  11  14
ENDBRANCH   4   8
TORSDOF 4
ENDMDL
MODEL       54
REMARK 921   NORMALIZED FREE ENERGY PREDICTED BY IDOCK:   -5.15 KCAL/MOL
REMARK 922        TOTAL FREE ENERGY PREDICTED BY IDOCK:   -6.86 KCAL/MOL
REMARK 923 INTER-LIGAND FREE ENERGY PREDICTED BY IDOCK:   -6.36 KCAL/MOL
REMARK 924 INTRA-LIGAND FREE ENERGY PREDICTED BY IDOCK:   -0.49 KCAL/MOL
REMARK 927      BINDING AFFINITY PREDICTED BY RF-SCORE:    0.00 PKD
ROOT
HETATM    1  N   UNL     1     -10.605  20.180  66.879  1.00  0.00    -0.318 NA 
HETATM    2  H2  UNL     1     -10.647  21.166  66.621  1.00  0.00     0.000 HD 
HETATM    3  H1  UNL     1     -11.404  19.741  67.336  1.00  0.00     0.000 HD 
HETATM    4  C   UNL     1      -9.478  19.453  66.609  1.00  0.00    -0.350 C  
HETATM    5  H2  UNL     1      -8.509  20.995  65.773  1.00  0.00     0.000 HD 
HETATM    6  N   UNL     1      -8.467  20.008  66.030  1.00  0.00    -0.520 NA 
HETATM    7  H1  UNL     1      -7.627  19.466  65.829  1.00  0.00     0.000 HD 
ENDROOT
BRANCH   4   8
HETATM    8  C   UNL     1      -9.400  18.028  67.033  1.00  0.00    -0.265 A  
HETATM    9  C   UNL     1      -9.884  17.019  66.195  1.00  0.00    -0.297 A  
HETATM   10  C   UNL     1      -9.943  15.701  66.654  1.00  0.00    -0.269 A  
HETATM   11  C   UNL     1      -9.518  15.370  67.948  1.00  0.00    -0.197 A  
HETATM   12  C   UNL     1      -8.909  17.702  68.299  1.00  0.00    -0.276 A  
HETATM   13  C   UNL     1      -8.976  16.380  68.757  1.00  0.00    -0.245 A  
BRANCH  11  14
HETATM   14  C   UNL     1      -9.769  14.005  68.434  1.00  0.00    -0.223 C  
HETATM   15  C   UNL     1     -10.797  13.228  68.062  1.00  0.00    -0.261 C  
BRANCH  15  16
HETATM   16  C   UNL     1     -10.931  11.847  68.540  1.00  0.00    -0.277 A  
HETATM   17  C   UNL     1     -11.491  11.543  69.789  1.00  0.00    -0.286 A  
HETATM   18  C   UNL     1     -11.523  10.234  70.269  1.00  0.00    -0.395 A  
HETATM   19  O   UNL     1     -12.025  12.501  70.608  1.00  0.00    -0.505 OA 
HETATM   20  H   UNL     1     -12.404  12.295  71.455  1.00  0.00     0.000 HD 
HETATM   21  C   UNL     1     -11.015   9.198  69.483  1.00  0.00    -0.138 A  
HETATM   22  C   UNL     1     -10.500   9.480  68.211  1.00  0.00    -0.265 A  
HETATM   23  C   UNL     1     -10.457  10.798  67.744  1.00  0.00    -0.243 A  
BRANCH  21  24
HETATM   24  C   UNL     1     -10.976   7.800  69.998  1.00  0.00    -0.214 C  
HETATM   25  N   UNL     1     -10.257   7.502  71.120  1.00  0.00    -0.193 NA 
HETATM   26  N   UNL     1     -11.612   6.817  69.445  1.00  0.00    -0.624 NA 
HETATM   27  H1  UNL     1     -10.230   6.545  71.471  1.00  0.00     0.000 HD 
HETATM   28  H2  UNL     1      -9.746   8.238  71.607  1.00  0.00     0.000 HD 
HETATM   29  H1  UNL     1     -11.585   5.860  69.796  1.00  0.00     0.000 HD 
HETATM   30  H2  UNL     1     -12.170   7.009  68.613  1.00  0.00     0.000 HD 
ENDBRANCH  21  24
ENDBRANCH  15  16
ENDBRANCH  11  14
ENDBRANCH   4   8
TORSDOF 4
ENDMDL
MODEL       55
REMARK 921   NORMALIZED FREE ENERGY PREDICTED BY IDOCK:   -5.13 KCAL/MOL
REMARK 922        TOTAL FREE ENERGY PREDICTED BY IDOCK:   -6.83 KCAL/MOL
REMARK 923 INTER-LIGAND FREE ENERGY PREDICTED BY IDOCK:   -6.63 KCAL/MOL
REMARK 924 INTRA-LIGAND FREE ENERGY PREDICTED BY IDOCK:   -0.20 KCAL/MOL
REMARK 927      BINDING AFFINITY PREDICTED BY RF-SCORE:    0.00 PKD
ROOT
HETATM    1  N   UNL     1     -11.859  16.172  63.820  1.00  0.00    -1.368 NA 
HETATM    2  H2  UNL     1     -12.039  17.048  63.330  1.00  0.00     0.000 HD 
HETATM    3  H1  UNL     1     -12.269  15.304  63.474  1.00  0.00     0.000 HD 
HETATM    4  C   UNL     1     -11.071  16.166  64.938  1.00  0.00    -0.325 C  
HETATM    5  H2  UNL     1     -10.733  18.140  64.886  1.00  0.00     0.000 HD 
HETATM    6  N   UNL     1     -10.553  17.264  65.376  1.00  0.00    -0.631 NA 
HETATM    7  H1  UNL     1      -9.965  17.259  66.209  1.00  0.00     0.000 HD 
ENDROOT
BRANCH   4   8
HETATM    8  C   UNL     1     -10.854  14.894  65.681  1.00  0.00    -0.347 A  
HETATM    9  C   UNL     1      -9.627  14.646  66.303  1.00  0.00    -0.333 A  
HETATM   10  C   UNL     1      -9.375  13.395  66.873  1.00  0.00    -0.253 A  
HETATM   11  C   UNL     1     -10.341  12.380  66.836  1.00  0.00    -0.240 A  
HETATM   12  C   UNL     1     -11.850  13.916  65.698  1.00  0.00    -0.383 A  
HETATM   13  C   UNL     1     -11.591  12.662  66.265  1.00  0.00    -0.440 A  
BRANCH  11  14
HETATM   14  C   UNL     1      -9.955  11.037  67.292  1.00  0.00    -0.210 C  
HETATM   15  C   UNL     1     -10.803  10.027  67.533  1.00  0.00    -0.326 C  
BRANCH  15  16
HETATM   16  C   UNL     1     -10.325   8.693  67.914  1.00  0.00    -0.286 A  
HETATM   17  C   UNL     1      -9.400   8.503  68.950  1.00  0.00    -0.146 A  
HETATM   18  C   UNL     1      -8.883   7.239  69.235  1.00  0.00    -0.136 A  
HETATM   19  O   UNL     1      -8.944   9.532  69.728  1.00  0.00    -0.167 OA 
HETATM   20  H   UNL     1      -8.317   9.403  70.431  1.00  0.00     0.000 HD 
HETATM   21  C   UNL     1      -9.313   6.134  68.498  1.00  0.00    -0.117 A  
HETATM   22  C   UNL     1     -10.276   6.302  67.495  1.00  0.00    -0.213 A  
HETATM   23  C   UNL     1     -10.778   7.575  67.204  1.00  0.00    -0.379 A  
BRANCH  21  24
HETATM   24  C   UNL     1      -8.729   4.784  68.737  1.00  0.00    -0.093 C  
HETATM   25  N   UNL     1      -9.536   3.742  69.094  1.00  0.00    -0.176 NA 
HETATM   26  N   UNL     1      -7.468   4.518  68.609  1.00  0.00    -0.064 NA 
HETATM   27  H1  UNL     1      -9.136   2.818  69.258  1.00  0.00     0.000 HD 
HETATM   28  H2  UNL     1     -10.540   3.887  69.197  1.00  0.00     0.000 HD 
HETATM   29  H1  UNL     1      -7.068   3.594  68.774  1.00  0.00     0.000 HD 
HETATM   30  H2  UNL     1      -6.841   5.272  68.330  1.00  0.00     0.000 HD 
ENDBRANCH  21  24
ENDBRANCH  15  16
ENDBRANCH  11  14
ENDBRANCH   4   8
TORSDOF 4
ENDMDL
MODEL       56
REMARK 921   NORMALIZED FREE ENERGY PREDICTED BY IDOCK:   -5.13 KCAL/MOL
REMARK 922        TOTAL FREE ENERGY PREDICTED BY IDOCK:   -6.83 KCAL/MOL
REMARK 923 INTER-LIGAND FREE ENERGY PREDICTED BY IDOCK:   -6.32 KCAL/MOL
REMARK 924 INTRA-LIGAND FREE ENERGY PREDICTED BY IDOCK:   -0.51 KCAL/MOL
REMARK 927      BINDING AFFINITY PREDICTED BY RF-SCORE:    0.00 PKD
ROOT
HETATM    1  N   UNL     1     -11.940  16.423  72.661  1.00  0.00    -0.549 NA 
HETATM    2  H2  UNL     1     -12.181  17.081  73.402  1.00  0.00     0.000 HD 
HETATM    3  H1  UNL     1     -10.971  16.330  72.359  1.00  0.00     0.000 HD 
HETATM    4  C   UNL     1     -12.920  15.669  72.076  1.00  0.00    -0.452 C  
HETATM    5  H2  UNL     1     -14.388  16.444  73.199  1.00  0.00     0.000 HD 
HETATM    6  N   UNL     1     -14.147  15.785  72.458  1.00  0.00    -0.517 NA 
HETATM    7  H1  UNL     1     -14.878  15.222  72.022  1.00  0.00     0.000 HD 
ENDROOT
BRANCH   4   8
HETATM    8  C   UNL     1     -12.575  14.747  70.959  1.00  0.00    -0.401 A  
HETATM    9  C   UNL     1     -12.547  13.366  71.172  1.00  0.00    -0.430 A  
HETATM   10  C   UNL     1     -12.083  12.514  70.166  1.00  0.00    -0.368 A  
HETATM   11  C   UNL     1     -11.646  13.026  68.936  1.00  0.00    -0.355 A  
HETATM   12  C   UNL     1     -12.208  15.264  69.715  1.00  0.00    -0.326 A  
HETATM   13  C   UNL     1     -11.737  14.408  68.711  1.00  0.00    -0.372 A  
BRANCH  11  14
HETATM   14  C   UNL     1     -11.005  12.102  67.989  1.00  0.00    -0.271 C  
HETATM   15  C   UNL     1      -9.690  11.851  67.922  1.00  0.00    -0.192 C  
BRANCH  15  16
HETATM   16  C   UNL     1      -9.141  10.856  66.993  1.00  0.00    -0.158 A  
HETATM   17  C   UNL     1      -7.948  11.072  66.290  1.00  0.00    -0.148 A  
HETATM   18  C   UNL     1      -7.492  10.159  65.340  1.00  0.00    -0.144 A  
HETATM   19  O   UNL     1      -7.172  12.184  66.483  1.00  0.00    -0.373 OA 
HETATM   20  H   UNL     1      -6.363  12.330  66.006  1.00  0.00     0.000 HD 
HETATM   21  C   UNL     1      -8.218   8.991  65.100  1.00  0.00    -0.147 A  
HETATM   22  C   UNL     1      -9.384   8.736  65.832  1.00  0.00    -0.284 A  
HETATM   23  C   UNL     1      -9.844   9.665  66.773  1.00  0.00    -0.270 A  
BRANCH  21  24
HETATM   24  C   UNL     1      -7.789   8.030  64.045  1.00  0.00    -0.145 C  
HETATM   25  N   UNL     1      -8.505   6.888  63.826  1.00  0.00    -0.331 NA 
HETATM   26  N   UNL     1      -6.759   8.218  63.283  1.00  0.00    -0.084 NA 
HETATM   27  H1  UNL     1      -8.211   6.230  63.104  1.00  0.00     0.000 HD 
HETATM   28  H2  UNL     1      -9.334   6.692  64.386  1.00  0.00     0.000 HD 
HETATM   29  H1  UNL     1      -6.465   7.561  62.561  1.00  0.00     0.000 HD 
HETATM   30  H2  UNL     1      -6.211   9.069  63.411  1.00  0.00     0.000 HD 
ENDBRANCH  21  24
ENDBRANCH  15  16
ENDBRANCH  11  14
ENDBRANCH   4   8
TORSDOF 4
ENDMDL
MODEL       57
REMARK 921   NORMALIZED FREE ENERGY PREDICTED BY IDOCK:   -5.09 KCAL/MOL
REMARK 922        TOTAL FREE ENERGY PREDICTED BY IDOCK:   -6.79 KCAL/MOL
REMARK 923 INTER-LIGAND FREE ENERGY PREDICTED BY IDOCK:   -6.28 KCAL/MOL
REMARK 924 INTRA-LIGAND FREE ENERGY PREDICTED BY IDOCK:   -0.51 KCAL/MOL
REMARK 927      BINDING AFFINITY PREDICTED BY RF-SCORE:    0.00 PKD
ROOT
HETATM    1  N   UNL     1     -12.248   9.144  70.621  1.00  0.00    -0.486 NA 
HETATM    2  H2  UNL     1     -12.509   8.248  71.035  1.00  0.00     0.000 HD 
HETATM    3  H1  UNL     1     -12.851   9.956  70.747  1.00  0.00     0.000 HD 
HETATM    4  C   UNL     1     -11.090   9.248  69.901  1.00  0.00    -0.181 C  
HETATM    5  H2  UNL     1     -10.587   7.326  70.156  1.00  0.00     0.000 HD 
HETATM    6  N   UNL     1     -10.326   8.221  69.742  1.00  0.00    -0.212 NA 
HETATM    7  H1  UNL     1      -9.462   8.299  69.205  1.00  0.00     0.000 HD 
ENDROOT
BRANCH   4   8
HETATM    8  C   UNL     1     -10.738  10.542  69.254  1.00  0.00    -0.269 A  
HETATM    9  C   UNL     1      -9.490  10.706  68.646  1.00  0.00    -0.176 A  
HETATM   10  C   UNL     1      -9.105  11.962  68.170  1.00  0.00    -0.190 A  
HETATM   11  C   UNL     1      -9.959  13.068  68.287  1.00  0.00    -0.235 A  
HETATM   12  C   UNL     1     -11.625  11.618  69.316  1.00  0.00    -0.385 A  
HETATM   13  C   UNL     1     -11.234  12.877  68.842  1.00  0.00    -0.327 A  
BRANCH  11  14
HETATM   14  C   UNL     1      -9.432  14.393  67.931  1.00  0.00    -0.214 C  
HETATM   15  C   UNL     1     -10.142  15.530  67.919  1.00  0.00    -0.224 C  
BRANCH  15  16
HETATM   16  C   UNL     1      -9.517  16.825  67.623  1.00  0.00    -0.234 A  
HETATM   17  C   UNL     1      -9.725  17.490  66.406  1.00  0.00    -0.288 A  
HETATM   18  C   UNL     1      -9.048  18.671  66.103  1.00  0.00    -0.135 A  
HETATM   19  O   UNL     1     -10.586  17.024  65.450  1.00  0.00    -0.601 OA 
HETATM   20  H   UNL     1     -10.727  17.475  64.625  1.00  0.00     0.000 HD 
HETATM   21  C   UNL     1      -8.167  19.222  67.035  1.00  0.00    -0.287 A  
HETATM   22  C   UNL     1      -7.989  18.596  68.275  1.00  0.00    -0.337 A  
HETATM   23  C   UNL     1      -8.660  17.403  68.566  1.00  0.00    -0.270 A  
BRANCH  21  24
HETATM   24  C   UNL     1      -7.381  20.447  66.711  1.00  0.00    -0.278 C  
HETATM   25  N   UNL     1      -7.022  21.313  67.704  1.00  0.00    -0.439 NA 
HETATM   26  N   UNL     1      -6.988  20.748  65.515  1.00  0.00    -0.511 NA 
HETATM   27  H1  UNL     1      -6.485  22.151  67.482  1.00  0.00     0.000 HD 
HETATM   28  H2  UNL     1      -7.292  21.122  68.669  1.00  0.00     0.000 HD 
HETATM   29  H1  UNL     1      -6.451  21.585  65.293  1.00  0.00     0.000 HD 
HETATM   30  H2  UNL     1      -7.228  20.113  64.753  1.00  0.00     0.000 HD 
ENDBRANCH  21  24
ENDBRANCH  15  16
ENDBRANCH  11  14
ENDBRANCH   4   8
TORSDOF 4
ENDMDL
MODEL       58
REMARK 921   NORMALIZED FREE ENERGY PREDICTED BY IDOCK:   -5.07 KCAL/MOL
REMARK 922        TOTAL FREE ENERGY PREDICTED BY IDOCK:   -6.76 KCAL/MOL
REMARK 923 INTER-LIGAND FREE ENERGY PREDICTED BY IDOCK:   -6.27 KCAL/MOL
REMARK 924 INTRA-LIGAND FREE ENERGY PREDICTED BY IDOCK:   -0.49 KCAL/MOL
REMARK 927      BINDING AFFINITY PREDICTED BY RF-SCORE:    0.00 PKD
ROOT
HETATM    1  N   UNL     1     -11.355  12.827  63.151  1.00  0.00    -0.757 NA 
HETATM    2  H2  UNL     1     -11.429  13.596  62.485  1.00  0.00     0.000 HD 
HETATM    3  H1  UNL     1     -11.573  11.876  62.855  1.00  0.00     0.000 HD 
HETATM    4  C   UNL     1     -10.965  13.077  64.438  1.00  0.00    -0.374 C  
HETATM    5  H2  UNL     1     -10.763  15.049  64.147  1.00  0.00     0.000 HD 
HETATM    6  N   UNL     1     -10.690  14.280  64.814  1.00  0.00    -0.489 NA 
HETATM    7  H1  UNL     1     -10.398  14.466  65.774  1.00  0.00     0.000 HD 
ENDROOT
BRANCH   4   8
HETATM    8  C   UNL     1     -10.910  11.960  65.422  1.00  0.00    -0.343 A  
HETATM    9  C   UNL     1     -11.354  12.158  66.733  1.00  0.00    -0.398 A  
HETATM   10  C   UNL     1     -11.166  11.158  67.691  1.00  0.00    -0.364 A  
HETATM   11  C   UNL     1     -10.542   9.949  67.355  1.00  0.00    -0.338 A  
HETATM   12  C   UNL     1     -10.349  10.735  65.058  1.00  0.00    -0.357 A  
HETATM   13  C   UNL     1     -10.157   9.737  66.022  1.00  0.00    -0.322 A  
BRANCH  11  14
HETATM   14  C   UNL     1     -10.214   9.012  68.440  1.00  0.00    -0.232 C  
HETATM   15  C   UNL     1     -10.892   8.892  69.590  1.00  0.00    -0.186 C  
BRANCH  15  16
HETATM   16  C   UNL     1     -10.541   7.877  70.589  1.00  0.00    -0.221 A  
HETATM   17  C   UNL     1      -9.556   8.099  71.561  1.00  0.00    -0.173 A  
HETATM   18  C   UNL     1      -9.167   7.089  72.441  1.00  0.00    -0.148 A  
HETATM   19  O   UNL     1      -8.915   9.300  71.699  1.00  0.00    -0.311 OA 
HETATM   20  H   UNL     1      -8.247   9.451  72.358  1.00  0.00     0.000 HD 
HETATM   21  C   UNL     1      -9.787   5.840  72.377  1.00  0.00    -0.186 A  
HETATM   22  C   UNL     1     -10.809   5.620  71.446  1.00  0.00    -0.290 A  
HETATM   23  C   UNL     1     -11.183   6.633  70.555  1.00  0.00    -0.388 A  
BRANCH  21  24
HETATM   24  C   UNL     1      -9.346   4.723  73.261  1.00  0.00    -0.120 C  
HETATM   25  N   UNL     1      -9.965   4.512  74.460  1.00  0.00    -0.179 NA 
HETATM   26  N   UNL     1      -8.394   3.901  72.952  1.00  0.00    -0.094 NA 
HETATM   27  H1  UNL     1      -9.662   3.749  75.064  1.00  0.00     0.000 HD 
HETATM   28  H2  UNL     1     -10.731   5.120  74.751  1.00  0.00     0.000 HD 
HETATM   29  H1  UNL     1      -8.092   3.137  73.556  1.00  0.00     0.000 HD 
HETATM   30  H2  UNL     1      -7.922   4.023  72.057  1.00  0.00     0.000 HD 
ENDBRANCH  21  24
ENDBRANCH  15  16
ENDBRANCH  11  14
ENDBRANCH   4   8
TORSDOF 4
ENDMDL
MODEL       59
REMARK 921   NORMALIZED FREE ENERGY PREDICTED BY IDOCK:   -5.04 KCAL/MOL
REMARK 922        TOTAL FREE ENERGY PREDICTED BY IDOCK:   -6.72 KCAL/MOL
REMARK 923 INTER-LIGAND FREE ENERGY PREDICTED BY IDOCK:   -6.35 KCAL/MOL
REMARK 924 INTRA-LIGAND FREE ENERGY PREDICTED BY IDOCK:   -0.37 KCAL/MOL
REMARK 927      BINDING AFFINITY PREDICTED BY RF-SCORE:    0.00 PKD
ROOT
HETATM    1  N   UNL     1      -8.228  18.279  66.094  1.00  0.00    -0.469 NA 
HETATM    2  H2  UNL     1      -7.960  19.261  66.027  1.00  0.00     0.000 HD 
HETATM    3  H1  UNL     1      -7.507  17.557  66.119  1.00  0.00     0.000 HD 
HETATM    4  C   UNL     1      -9.551  17.937  66.151  1.00  0.00    -0.178 C  
HETATM    5  H2  UNL     1     -10.194  19.831  66.052  1.00  0.00     0.000 HD 
HETATM    6  N   UNL     1     -10.462  18.849  66.120  1.00  0.00    -0.458 NA 
HETATM    7  H1  UNL     1     -11.449  18.593  66.163  1.00  0.00     0.000 HD 
ENDROOT
BRANCH   4   8
HETATM    8  C   UNL     1      -9.939  16.500  66.197  1.00  0.00    -0.363 A  
HETATM    9  C   UNL     1      -9.484  15.682  67.235  1.00  0.00    -0.221 A  
HETATM   10  C   UNL     1      -9.728  14.307  67.198  1.00  0.00    -0.254 A  
HETATM   11  C   UNL     1     -10.433  13.731  66.132  1.00  0.00    -0.297 A  
HETATM   12  C   UNL     1     -10.701  15.949  65.165  1.00  0.00    -0.449 A  
HETATM   13  C   UNL     1     -10.939  14.569  65.128  1.00  0.00    -0.387 A  
BRANCH  11  14
HETATM   14  C   UNL     1     -10.504  12.263  66.060  1.00  0.00    -0.284 C  
HETATM   15  C   UNL     1      -9.599  11.419  66.574  1.00  0.00    -0.220 C  
BRANCH  15  16
HETATM   16  C   UNL     1      -9.786   9.964  66.522  1.00  0.00    -0.260 A  
HETATM   17  C   UNL     1     -10.766   9.312  67.283  1.00  0.00    -0.174 A  
HETATM   18  C   UNL     1     -10.867   7.921  67.295  1.00  0.00    -0.189 A  
HETATM   19  O   UNL     1     -11.666   9.990  68.059  1.00  0.00    -0.645 OA 
HETATM   20  H   UNL     1     -12.331   9.549  68.575  1.00  0.00     0.000 HD 
HETATM   21  C   UNL     1      -9.996   7.158  66.514  1.00  0.00    -0.173 A  
HETATM   22  C   UNL     1      -9.046   7.798  65.708  1.00  0.00    -0.063 A  
HETATM   23  C   UNL     1      -8.940   9.194  65.714  1.00  0.00    -0.237 A  
BRANCH  21  24
HETATM   24  C   UNL     1     -10.038   5.669  66.558  1.00  0.00    -0.185 C  
HETATM   25  N   UNL     1      -9.149   4.981  67.334  1.00  0.00    -0.113 NA 
HETATM   26  N   UNL     1     -10.900   4.959  65.903  1.00  0.00    -0.735 NA 
HETATM   27  H1  UNL     1      -9.177   3.963  67.363  1.00  0.00     0.000 HD 
HETATM   28  H2  UNL     1      -8.455   5.488  67.883  1.00  0.00     0.000 HD 
HETATM   29  H1  UNL     1     -10.928   3.940  65.933  1.00  0.00     0.000 HD 
HETATM   30  H2  UNL     1     -11.587   5.443  65.326  1.00  0.00     0.000 HD 
ENDBRANCH  21  24
ENDBRANCH  15  16
ENDBRANCH  11  14
ENDBRANCH   4   8
TORSDOF 4
ENDMDL
MODEL       60
REMARK 921   NORMALIZED FREE ENERGY PREDICTED BY IDOCK:   -5.02 KCAL/MOL
REMARK 922        TOTAL FREE ENERGY PREDICTED BY IDOCK:   -6.69 KCAL/MOL
REMARK 923 INTER-LIGAND FREE ENERGY PREDICTED BY IDOCK:   -6.20 KCAL/MOL
REMARK 924 INTRA-LIGAND FREE ENERGY PREDICTED BY IDOCK:   -0.49 KCAL/MOL
REMARK 927      BINDING AFFINITY PREDICTED BY RF-SCORE:    0.00 PKD
ROOT
HETATM    1  N   UNL     1     -10.934   6.892  66.607  1.00  0.00    -0.489 NA 
HETATM    2  H2  UNL     1     -11.116   5.889  66.618  1.00  0.00     0.000 HD 
HETATM    3  H1  UNL     1     -11.714   7.549  66.612  1.00  0.00     0.000 HD 
HETATM    4  C   UNL     1      -9.645   7.351  66.586  1.00  0.00    -0.190 C  
HETATM    5  H2  UNL     1      -8.840   5.516  66.591  1.00  0.00     0.000 HD 
HETATM    6  N   UNL     1      -8.658   6.520  66.580  1.00  0.00    -0.115 NA 
HETATM    7  H1  UNL     1      -7.697   6.862  66.565  1.00  0.00     0.000 HD 
ENDROOT
BRANCH   4   8
HETATM    8  C   UNL     1      -9.384   8.815  66.518  1.00  0.00    -0.260 A  
HETATM    9  C   UNL     1      -8.709   9.457  67.560  1.00  0.00    -0.123 A  
HETATM   10  C   UNL     1      -8.593  10.849  67.563  1.00  0.00    -0.127 A  
HETATM   11  C   UNL     1      -9.142  11.618  66.528  1.00  0.00    -0.200 A  
HETATM   12  C   UNL     1      -9.875   9.563  65.446  1.00  0.00    -0.248 A  
HETATM   13  C   UNL     1      -9.763  10.959  65.456  1.00  0.00    -0.282 A  
BRANCH  11  14
HETATM   14  C   UNL     1      -9.144  13.081  66.676  1.00  0.00    -0.181 C  
HETATM   15  C   UNL     1     -10.217  13.827  66.976  1.00  0.00    -0.254 C  
BRANCH  15  16
HETATM   16  C   UNL     1     -10.114  15.277  67.179  1.00  0.00    -0.240 A  
HETATM   17  C   UNL     1      -9.939  15.840  68.450  1.00  0.00    -0.217 A  
HETATM   18  C   UNL     1      -9.941  17.222  68.637  1.00  0.00    -0.327 A  
HETATM   19  O   UNL     1      -9.768  15.079  69.575  1.00  0.00    -0.352 OA 
HETATM   20  H   UNL     1      -9.649  15.460  70.437  1.00  0.00     0.000 HD 
HETATM   21  C   UNL     1     -10.090  18.068  67.536  1.00  0.00    -0.356 A  
HETATM   22  C   UNL     1     -10.214  17.520  66.252  1.00  0.00    -0.356 A  
HETATM   23  C   UNL     1     -10.228  16.132  66.076  1.00  0.00    -0.374 A  
BRANCH  21  24
HETATM   24  C   UNL     1     -10.162  19.546  67.714  1.00  0.00    -0.429 C  
HETATM   25  N   UNL     1     -10.493  20.075  68.928  1.00  0.00    -0.517 NA 
HETATM   26  N   UNL     1      -9.906  20.393  66.768  1.00  0.00    -0.569 NA 
HETATM   27  H1  UNL     1     -10.542  21.086  69.049  1.00  0.00     0.000 HD 
HETATM   28  H2  UNL     1     -10.692  19.457  69.715  1.00  0.00     0.000 HD 
HETATM   29  H1  UNL     1      -9.956  21.404  66.889  1.00  0.00     0.000 HD 
HETATM   30  H2  UNL     1      -9.642  20.029  65.852  1.00  0.00     0.000 HD 
ENDBRANCH  21  24
ENDBRANCH  15  16
ENDBRANCH  11  14
ENDBRANCH   4   8
TORSDOF 4
ENDMDL
MODEL       61
REMARK 921   NORMALIZED FREE ENERGY PREDICTED BY IDOCK:   -4.99 KCAL/MOL
REMARK 922        TOTAL FREE ENERGY PREDICTED BY IDOCK:   -6.67 KCAL/MOL
REMARK 923 INTER-LIGAND FREE ENERGY PREDICTED BY IDOCK:   -6.17 KCAL/MOL
REMARK 924 INTRA-LIGAND FREE ENERGY PREDICTED BY IDOCK:   -0.49 KCAL/MOL
REMARK 927      BINDING AFFINITY PREDICTED BY RF-SCORE:    0.00 PKD
ROOT
HETATM    1  N   UNL     1      -9.337   2.132  70.043  1.00  0.00    -0.117 NA 
HETATM    2  H2  UNL     1      -8.947   1.193  69.964  1.00  0.00     0.000 HD 
HETATM    3  H1  UNL     1     -10.163   2.385  69.501  1.00  0.00     0.000 HD 
HETATM    4  C   UNL     1      -8.749   3.045  70.874  1.00  0.00    -0.075 C  
HETATM    5  H2  UNL     1      -7.314   1.786  71.481  1.00  0.00     0.000 HD 
HETATM    6  N   UNL     1      -7.704   2.725  71.560  1.00  0.00    -0.047 NA 
HETATM    7  H1  UNL     1      -7.266   3.407  72.180  1.00  0.00     0.000 HD 
ENDROOT
BRANCH   4   8
HETATM    8  C   UNL     1      -9.289   4.431  70.948  1.00  0.00    -0.218 A  
HETATM    9  C   UNL     1     -10.276   4.848  70.049  1.00  0.00    -0.313 A  
HETATM   10  C   UNL     1     -10.675   6.187  70.025  1.00  0.00    -0.370 A  
HETATM   11  C   UNL     1     -10.104   7.124  70.896  1.00  0.00    -0.200 A  
HETATM   12  C   UNL     1      -8.762   5.339  71.868  1.00  0.00    -0.134 A  
HETATM   13  C   UNL     1      -9.160   6.681  71.836  1.00  0.00    -0.143 A  
BRANCH  11  14
HETATM   14  C   UNL     1     -10.434   8.544  70.703  1.00  0.00    -0.234 C  
HETATM   15  C   UNL     1     -11.641   9.091  70.905  1.00  0.00    -0.344 C  
BRANCH  15  16
HETATM   16  C   UNL     1     -11.866  10.534  70.760  1.00  0.00    -0.465 A  
HETATM   17  C   UNL     1     -12.745  11.238  71.595  1.00  0.00    -0.343 A  
HETATM   18  C   UNL     1     -13.021  12.588  71.383  1.00  0.00    -0.347 A  
HETATM   19  O   UNL     1     -13.388  10.648  72.651  1.00  0.00    -0.408 OA 
HETATM   20  H   UNL     1     -13.983  11.125  73.217  1.00  0.00     0.000 HD 
HETATM   21  C   UNL     1     -12.390  13.266  70.338  1.00  0.00    -0.365 A  
HETATM   22  C   UNL     1     -11.470  12.589  69.528  1.00  0.00    -0.299 A  
HETATM   23  C   UNL     1     -11.211  11.230  69.737  1.00  0.00    -0.294 A  
BRANCH  21  24
HETATM   24  C   UNL     1     -12.715  14.691  70.047  1.00  0.00    -0.152 C  
HETATM   25  N   UNL     1     -13.496  15.406  70.910  1.00  0.00    -0.711 NA 
HETATM   26  N   UNL     1     -12.279  15.326  69.006  1.00  0.00    -0.594 NA 
HETATM   27  H1  UNL     1     -13.719  16.381  70.711  1.00  0.00     0.000 HD 
HETATM   28  H2  UNL     1     -13.858  14.963  71.755  1.00  0.00     0.000 HD 
HETATM   29  H1  UNL     1     -12.502  16.301  68.807  1.00  0.00     0.000 HD 
HETATM   30  H2  UNL     1     -11.682  14.824  68.349  1.00  0.00     0.000 HD 
ENDBRANCH  21  24
ENDBRANCH  15  16
ENDBRANCH  11  14
ENDBRANCH   4   8
TORSDOF 4
ENDMDL
MODEL       62
REMARK 921   NORMALIZED FREE ENERGY PREDICTED BY IDOCK:   -4.99 KCAL/MOL
REMARK 922        TOTAL FREE ENERGY PREDICTED BY IDOCK:   -6.66 KCAL/MOL
REMARK 923 INTER-LIGAND FREE ENERGY PREDICTED BY IDOCK:   -6.28 KCAL/MOL
REMARK 924 INTRA-LIGAND FREE ENERGY PREDICTED BY IDOCK:   -0.39 KCAL/MOL
REMARK 927      BINDING AFFINITY PREDICTED BY RF-SCORE:    0.00 PKD
ROOT
HETATM    1  N   UNL     1     -10.654  16.074  64.859  1.00  0.00    -0.664 NA 
HETATM    2  H2  UNL     1     -10.731  16.959  64.359  1.00  0.00     0.000 HD 
HETATM    3  H1  UNL     1      -9.874  15.919  65.499  1.00  0.00     0.000 HD 
HETATM    4  C   UNL     1     -11.595  15.100  64.669  1.00  0.00    -0.357 C  
HETATM    5  H2  UNL     1     -12.659  16.181  63.360  1.00  0.00     0.000 HD 
HETATM    6  N   UNL     1     -12.581  15.295  63.861  1.00  0.00    -0.898 NA 
HETATM    7  H1  UNL     1     -13.283  14.569  63.719  1.00  0.00     0.000 HD 
ENDROOT
BRANCH   4   8
HETATM    8  C   UNL     1     -11.450  13.789  65.360  1.00  0.00    -0.318 A  
HETATM    9  C   UNL     1     -12.137  13.545  66.553  1.00  0.00    -0.460 A  
HETATM   10  C   UNL     1     -11.888  12.374  67.274  1.00  0.00    -0.357 A  
HETATM   11  C   UNL     1     -10.958  11.431  66.815  1.00  0.00    -0.347 A  
HETATM   12  C   UNL     1     -10.573  12.827  64.857  1.00  0.00    -0.336 A  
HETATM   13  C   UNL     1     -10.322  11.657  65.586  1.00  0.00    -0.306 A  
BRANCH  11  14
HETATM   14  C   UNL     1     -10.610  10.311  67.702  1.00  0.00    -0.312 C  
HETATM   15  C   UNL     1     -10.342   9.060  67.300  1.00  0.00    -0.342 C  
BRANCH  15  16
HETATM   16  C   UNL     1      -9.929   8.019  68.248  1.00  0.00    -0.210 A  
HETATM   17  C   UNL     1      -8.642   7.984  68.800  1.00  0.00    -0.128 A  
HETATM   18  C   UNL     1      -8.235   6.934  69.623  1.00  0.00    -0.131 A  
HETATM   19  O   UNL     1      -7.712   8.960  68.562  1.00  0.00    -0.095 OA 
HETATM   20  H   UNL     1      -6.839   8.936  68.936  1.00  0.00     0.000 HD 
HETATM   21  C   UNL     1      -9.132   5.909  69.930  1.00  0.00    -0.156 A  
HETATM   22  C   UNL     1     -10.439   5.957  69.427  1.00  0.00    -0.343 A  
HETATM   23  C   UNL     1     -10.834   7.006  68.589  1.00  0.00    -0.191 A  
BRANCH  21  24
HETATM   24  C   UNL     1      -8.705   4.742  70.752  1.00  0.00    -0.109 C  
HETATM   25  N   UNL     1      -7.721   4.886  71.687  1.00  0.00    -0.095 NA 
HETATM   26  N   UNL     1      -9.232   3.563  70.649  1.00  0.00    -0.122 NA 
HETATM   27  H1  UNL     1      -7.428   4.087  72.249  1.00  0.00     0.000 HD 
HETATM   28  H2  UNL     1      -7.277   5.794  71.824  1.00  0.00     0.000 HD 
HETATM   29  H1  UNL     1      -8.939   2.764  71.211  1.00  0.00     0.000 HD 
HETATM   30  H2  UNL     1      -9.980   3.426  69.969  1.00  0.00     0.000 HD 
ENDBRANCH  21  24
ENDBRANCH  15  16
ENDBRANCH  11  14
ENDBRANCH   4   8
TORSDOF 4
ENDMDL
MODEL       63
REMARK 921   NORMALIZED FREE ENERGY PREDICTED BY IDOCK:   -4.96 KCAL/MOL
REMARK 922        TOTAL FREE ENERGY PREDICTED BY IDOCK:   -6.63 KCAL/MOL
REMARK 923 INTER-LIGAND FREE ENERGY PREDICTED BY IDOCK:   -6.15 KCAL/MOL
REMARK 924 INTRA-LIGAND FREE ENERGY PREDICTED BY IDOCK:   -0.48 KCAL/MOL
REMARK 927      BINDING AFFINITY PREDICTED BY RF-SCORE:    0.00 PKD
ROOT
HETATM    1  N   UNL     1     -10.530  16.852  65.150  1.00  0.00    -0.674 NA 
HETATM    2  H2  UNL     1     -10.719  17.782  64.777  1.00  0.00     0.000 HD 
HETATM    3  H1  UNL     1      -9.817  16.728  65.869  1.00  0.00     0.000 HD 
HETATM    4  C   UNL     1     -11.233  15.775  64.684  1.00  0.00    -0.363 C  
HETATM    5  H2  UNL     1     -12.324  16.862  63.401  1.00  0.00     0.000 HD 
HETATM    6  N   UNL     1     -12.135  15.931  63.774  1.00  0.00    -1.230 NA 
HETATM    7  H1  UNL     1     -12.660  15.128  63.426  1.00  0.00     0.000 HD 
ENDROOT
BRANCH   4   8
HETATM    8  C   UNL     1     -10.919  14.412  65.192  1.00  0.00    -0.380 A  
HETATM    9  C   UNL     1     -10.105  14.253  66.317  1.00  0.00    -0.308 A  
HETATM   10  C   UNL     1      -9.693  12.975  66.705  1.00  0.00    -0.256 A  
HETATM   11  C   UNL     1     -10.091  11.841  65.982  1.00  0.00    -0.263 A  
HETATM   12  C   UNL     1     -11.378  13.287  64.504  1.00  0.00    -0.392 A  
HETATM   13  C   UNL     1     -10.959  12.008  64.892  1.00  0.00    -0.356 A  
BRANCH  11  14
HETATM   14  C   UNL     1      -9.484  10.548  66.331  1.00  0.00    -0.208 C  
HETATM   15  C   UNL     1     -10.023   9.347  66.077  1.00  0.00    -0.352 C  
BRANCH  15  16
HETATM   16  C   UNL     1      -9.313   8.102  66.392  1.00  0.00    -0.269 A  
HETATM   17  C   UNL     1      -8.657   7.350  65.408  1.00  0.00    -0.041 A  
HETATM   18  C   UNL     1      -8.071   6.120  65.707  1.00  0.00    -0.124 A  
HETATM   19  O   UNL     1      -8.562   7.764  64.107  1.00  0.00    -0.372 OA 
HETATM   20  H   UNL     1      -8.117   7.255  63.440  1.00  0.00     0.000 HD 
HETATM   21  C   UNL     1      -8.109   5.637  67.017  1.00  0.00    -0.102 A  
HETATM   22  C   UNL     1      -8.716   6.402  68.021  1.00  0.00    -0.115 A  
HETATM   23  C   UNL     1      -9.316   7.627  67.709  1.00  0.00    -0.153 A  
BRANCH  21  24
HETATM   24  C   UNL     1      -7.549   4.297  67.352  1.00  0.00    -0.077 C  
HETATM   25  N   UNL     1      -6.255   4.181  67.773  1.00  0.00    -0.035 NA 
HETATM   26  N   UNL     1      -8.233   3.200  67.285  1.00  0.00    -0.082 NA 
HETATM   27  H1  UNL     1      -5.872   3.265  68.002  1.00  0.00     0.000 HD 
HETATM   28  H2  UNL     1      -5.671   5.013  67.859  1.00  0.00     0.000 HD 
HETATM   29  H1  UNL     1      -7.849   2.283  67.514  1.00  0.00     0.000 HD 
HETATM   30  H2  UNL     1      -9.206   3.254  66.988  1.00  0.00     0.000 HD 
ENDBRANCH  21  24
ENDBRANCH  15  16
ENDBRANCH  11  14
ENDBRANCH   4   8
TORSDOF 4
ENDMDL
MODEL       64
REMARK 921   NORMALIZED FREE ENERGY PREDICTED BY IDOCK:   -4.96 KCAL/MOL
REMARK 922        TOTAL FREE ENERGY PREDICTED BY IDOCK:   -6.63 KCAL/MOL
REMARK 923 INTER-LIGAND FREE ENERGY PREDICTED BY IDOCK:   -6.18 KCAL/MOL
REMARK 924 INTRA-LIGAND FREE ENERGY PREDICTED BY IDOCK:   -0.45 KCAL/MOL
REMARK 927      BINDING AFFINITY PREDICTED BY RF-SCORE:    0.00 PKD
ROOT
HETATM    1  N   UNL     1     -10.502   2.567  74.523  1.00  0.00    -0.150 NA 
HETATM    2  H2  UNL     1     -10.500   1.647  74.965  1.00  0.00     0.000 HD 
HETATM    3  H1  UNL     1     -10.488   3.407  75.101  1.00  0.00     0.000 HD 
HETATM    4  C   UNL     1     -10.525   2.667  73.159  1.00  0.00    -0.157 C  
HETATM    5  H2  UNL     1     -10.541   0.685  72.869  1.00  0.00     0.000 HD 
HETATM    6  N   UNL     1     -10.544   1.604  72.428  1.00  0.00    -0.156 NA 
HETATM    7  H1  UNL     1     -10.561   1.679  71.410  1.00  0.00     0.000 HD 
ENDROOT
BRANCH   4   8
HETATM    8  C   UNL     1     -10.582   4.010  72.518  1.00  0.00    -0.141 A  
HETATM    9  C   UNL     1     -11.227   5.069  73.164  1.00  0.00    -0.408 A  
HETATM   10  C   UNL     1     -11.406   6.285  72.501  1.00  0.00    -0.313 A  
HETATM   11  C   UNL     1     -10.941   6.465  71.191  1.00  0.00    -0.327 A  
HETATM   12  C   UNL     1     -10.054   4.197  71.240  1.00  0.00    -0.155 A  
HETATM   13  C   UNL     1     -10.241   5.416  70.575  1.00  0.00    -0.326 A  
BRANCH  11  14
HETATM   14  C   UNL     1     -11.314   7.699  70.484  1.00  0.00    -0.266 C  
HETATM   15  C   UNL     1     -10.625   8.849  70.519  1.00  0.00    -0.262 C  
BRANCH  15  16
HETATM   16  C   UNL     1     -11.029  10.013  69.723  1.00  0.00    -0.317 A  
HETATM   17  C   UNL     1     -10.645  10.168  68.384  1.00  0.00    -0.217 A  
HETATM   18  C   UNL     1     -10.955  11.326  67.671  1.00  0.00    -0.312 A  
HETATM   19  O   UNL     1      -9.942   9.210  67.704  1.00  0.00    -0.172 OA 
HETATM   20  H   UNL     1      -9.681   9.315  66.797  1.00  0.00     0.000 HD 
HETATM   21  C   UNL     1     -11.688  12.342  68.288  1.00  0.00    -0.392 A  
HETATM   22  C   UNL     1     -12.123  12.179  69.609  1.00  0.00    -0.283 A  
HETATM   23  C   UNL     1     -11.793  11.021  70.323  1.00  0.00    -0.456 A  
BRANCH  21  24
HETATM   24  C   UNL     1     -11.977  13.616  67.571  1.00  0.00    -0.358 C  
HETATM   25  N   UNL     1     -12.070  13.631  66.209  1.00  0.00    -0.419 NA 
HETATM   26  N   UNL     1     -12.169  14.747  68.173  1.00  0.00    -0.589 NA 
HETATM   27  H1  UNL     1     -12.267  14.503  65.719  1.00  0.00     0.000 HD 
HETATM   28  H2  UNL     1     -11.942  12.768  65.681  1.00  0.00     0.000 HD 
HETATM   29  H1  UNL     1     -12.367  15.619  67.683  1.00  0.00     0.000 HD 
HETATM   30  H2  UNL     1     -12.121  14.766  69.192  1.00  0.00     0.000 HD 
ENDBRANCH  21  24
ENDBRANCH  15  16
ENDBRANCH  11  14
ENDBRANCH   4   8
TORSDOF 4
ENDMDL
MODEL       65
REMARK 921   NORMALIZED FREE ENERGY PREDICTED BY IDOCK:   -4.96 KCAL/MOL
REMARK 922        TOTAL FREE ENERGY PREDICTED BY IDOCK:   -6.63 KCAL/MOL
REMARK 923 INTER-LIGAND FREE ENERGY PREDICTED BY IDOCK:   -6.12 KCAL/MOL
REMARK 924 INTRA-LIGAND FREE ENERGY PREDICTED BY IDOCK:   -0.51 KCAL/MOL
REMARK 927      BINDING AFFINITY PREDICTED BY RF-SCORE:    0.00 PKD
ROOT
HETATM    1  N   UNL     1     -10.794   4.073  64.658  1.00  0.00    -0.642 NA 
HETATM    2  H2  UNL     1     -10.806   3.164  64.195  1.00  0.00     0.000 HD 
HETATM    3  H1  UNL     1     -11.293   4.860  64.243  1.00  0.00     0.000 HD 
HETATM    4  C   UNL     1     -10.108   4.230  65.831  1.00  0.00    -0.205 C  
HETATM    5  H2  UNL     1      -9.489   2.326  65.893  1.00  0.00     0.000 HD 
HETATM    6  N   UNL     1      -9.477   3.235  66.356  1.00  0.00    -0.362 NA 
HETATM    7  H1  UNL     1      -8.966   3.353  67.231  1.00  0.00     0.000 HD 
ENDROOT
BRANCH   4   8
HETATM    8  C   UNL     1     -10.049   5.571  66.476  1.00  0.00    -0.241 A  
HETATM    9  C   UNL     1     -10.949   5.901  67.493  1.00  0.00    -0.249 A  
HETATM   10  C   UNL     1     -10.988   7.204  67.995  1.00  0.00    -0.127 A  
HETATM   11  C   UNL     1     -10.128   8.192  67.496  1.00  0.00    -0.286 A  
HETATM   12  C   UNL     1      -9.140   6.527  66.018  1.00  0.00    -0.111 A  
HETATM   13  C   UNL     1      -9.186   7.834  66.520  1.00  0.00    -0.229 A  
BRANCH  11  14
HETATM   14  C   UNL     1     -10.336   9.580  67.936  1.00  0.00    -0.276 C  
HETATM   15  C   UNL     1     -10.943  10.536  67.219  1.00  0.00    -0.325 C  
BRANCH  15  16
HETATM   16  C   UNL     1     -11.175  11.878  67.765  1.00  0.00    -0.330 A  
HETATM   17  C   UNL     1     -10.485  13.003  67.293  1.00  0.00    -0.238 A  
HETATM   18  C   UNL     1     -10.647  14.254  67.888  1.00  0.00    -0.240 A  
HETATM   19  O   UNL     1      -9.613  12.943  66.239  1.00  0.00    -0.265 OA 
HETATM   20  H   UNL     1      -9.145  13.706  65.919  1.00  0.00     0.000 HD 
HETATM   21  C   UNL     1     -11.534  14.402  68.956  1.00  0.00    -0.314 A  
HETATM   22  C   UNL     1     -12.269  13.297  69.405  1.00  0.00    -0.210 A  
HETATM   23  C   UNL     1     -12.089  12.042  68.813  1.00  0.00    -0.166 A  
BRANCH  21  24
HETATM   24  C   UNL     1     -11.677  15.711  69.653  1.00  0.00    -0.361 C  
HETATM   25  N   UNL     1     -12.859  16.045  70.250  1.00  0.00    -0.616 NA 
HETATM   26  N   UNL     1     -10.720  16.578  69.750  1.00  0.00    -0.326 NA 
HETATM   27  H1  UNL     1     -12.957  16.941  70.726  1.00  0.00     0.000 HD 
HETATM   28  H2  UNL     1     -13.646  15.396  70.219  1.00  0.00     0.000 HD 
HETATM   29  H1  UNL     1     -10.818  17.474  70.226  1.00  0.00     0.000 HD 
HETATM   30  H2  UNL     1      -9.819  16.353  69.327  1.00  0.00     0.000 HD 
ENDBRANCH  21  24
ENDBRANCH  15  16
ENDBRANCH  11  14
ENDBRANCH   4   8
TORSDOF 4
ENDMDL
MODEL       66
REMARK 921   NORMALIZED FREE ENERGY PREDICTED BY IDOCK:   -4.96 KCAL/MOL
REMARK 922        TOTAL FREE ENERGY PREDICTED BY IDOCK:   -6.62 KCAL/MOL
REMARK 923 INTER-LIGAND FREE ENERGY PREDICTED BY IDOCK:   -6.11 KCAL/MOL
REMARK 924 INTRA-LIGAND FREE ENERGY PREDICTED BY IDOCK:   -0.51 KCAL/MOL
REMARK 927      BINDING AFFINITY PREDICTED BY RF-SCORE:    0.00 PKD
ROOT
HETATM    1  N   UNL     1      -7.826   2.812  72.220  1.00  0.00    -0.053 NA 
HETATM    2  H2  UNL     1      -7.479   2.222  72.977  1.00  0.00     0.000 HD 
HETATM    3  H1  UNL     1      -7.295   2.889  71.353  1.00  0.00     0.000 HD 
HETATM    4  C   UNL     1      -9.001   3.495  72.374  1.00  0.00    -0.096 C  
HETATM    5  H2  UNL     1      -9.326   2.808  74.227  1.00  0.00     0.000 HD 
HETATM    6  N   UNL     1      -9.673   3.398  73.471  1.00  0.00    -0.106 NA 
HETATM    7  H1  UNL     1     -10.550   3.908  73.585  1.00  0.00     0.000 HD 
ENDROOT
BRANCH   4   8
HETATM    8  C   UNL     1      -9.478   4.396  71.288  1.00  0.00    -0.224 A  
HETATM    9  C   UNL     1      -8.939   4.292  70.003  1.00  0.00    -0.152 A  
HETATM   10  C   UNL     1      -9.281   5.231  69.026  1.00  0.00    -0.152 A  
HETATM   11  C   UNL     1     -10.165   6.280  69.314  1.00  0.00    -0.236 A  
HETATM   12  C   UNL     1     -10.413   5.395  71.569  1.00  0.00    -0.289 A  
HETATM   13  C   UNL     1     -10.748   6.337  70.589  1.00  0.00    -0.321 A  
BRANCH  11  14
HETATM   14  C   UNL     1     -10.347   7.333  68.303  1.00  0.00    -0.227 C  
HETATM   15  C   UNL     1     -10.225   8.649  68.527  1.00  0.00    -0.221 C  
BRANCH  15  16
HETATM   16  C   UNL     1     -10.349   9.629  67.442  1.00  0.00    -0.306 A  
HETATM   17  C   UNL     1     -11.237  10.712  67.516  1.00  0.00    -0.253 A  
HETATM   18  C   UNL     1     -11.413  11.578  66.438  1.00  0.00    -0.150 A  
HETATM   19  O   UNL     1     -11.983  10.977  68.632  1.00  0.00    -0.548 OA 
HETATM   20  H   UNL     1     -12.585  11.710  68.683  1.00  0.00     0.000 HD 
HETATM   21  C   UNL     1     -10.673  11.386  65.269  1.00  0.00    -0.326 A  
HETATM   22  C   UNL     1      -9.745  10.340  65.200  1.00  0.00    -0.364 A  
HETATM   23  C   UNL     1      -9.585   9.465  66.281  1.00  0.00    -0.297 A  
BRANCH  21  24
HETATM   24  C   UNL     1     -10.889  12.256  64.078  1.00  0.00    -0.389 C  
HETATM   25  N   UNL     1     -10.324  13.498  64.026  1.00  0.00    -0.691 NA 
HETATM   26  N   UNL     1     -11.585  11.897  63.047  1.00  0.00    -0.713 NA 
HETATM   27  H1  UNL     1     -10.472  14.094  63.211  1.00  0.00     0.000 HD 
HETATM   28  H2  UNL     1      -9.752  13.831  64.803  1.00  0.00     0.000 HD 
HETATM   29  H1  UNL     1     -11.734  12.493  62.233  1.00  0.00     0.000 HD 
HETATM   30  H2  UNL     1     -12.009  10.970  63.050  1.00  0.00     0.000 HD 
ENDBRANCH  21  24
ENDBRANCH  15  16
ENDBRANCH  11  14
ENDBRANCH   4   8
TORSDOF 4
ENDMDL
MODEL       67
REMARK 921   NORMALIZED FREE ENERGY PREDICTED BY IDOCK:   -4.91 KCAL/MOL
REMARK 922        TOTAL FREE ENERGY PREDICTED BY IDOCK:   -6.57 KCAL/MOL
REMARK 923 INTER-LIGAND FREE ENERGY PREDICTED BY IDOCK:   -6.08 KCAL/MOL
REMARK 924 INTRA-LIGAND FREE ENERGY PREDICTED BY IDOCK:   -0.49 KCAL/MOL
REMARK 927      BINDING AFFINITY PREDICTED BY RF-SCORE:    0.00 PKD
ROOT
HETATM    1  N   UNL     1     -10.513  16.793  67.284  1.00  0.00    -0.321 NA 
HETATM    2  H2  UNL     1     -10.277  17.647  66.779  1.00  0.00     0.000 HD 
HETATM    3  H1  UNL     1     -10.666  16.826  68.292  1.00  0.00     0.000 HD 
HETATM    4  C   UNL     1     -10.624  15.609  66.608  1.00  0.00    -0.307 C  
HETATM    5  H2  UNL     1     -10.194  16.420  64.827  1.00  0.00     0.000 HD 
HETATM    6  N   UNL     1     -10.431  15.567  65.333  1.00  0.00    -0.379 NA 
HETATM    7  H1  UNL     1     -10.513  14.683  64.829  1.00  0.00     0.000 HD 
ENDROOT
BRANCH   4   8
HETATM    8  C   UNL     1     -10.917  14.356  67.357  1.00  0.00    -0.303 A  
HETATM    9  C   UNL     1     -11.774  14.382  68.461  1.00  0.00    -0.370 A  
HETATM   10  C   UNL     1     -11.933  13.239  69.248  1.00  0.00    -0.354 A  
HETATM   11  C   UNL     1     -11.246  12.055  68.943  1.00  0.00    -0.315 A  
HETATM   12  C   UNL     1     -10.280  13.165  67.002  1.00  0.00    -0.250 A  
HETATM   13  C   UNL     1     -10.437  12.022  67.797  1.00  0.00    -0.223 A  
BRANCH  11  14
HETATM   14  C   UNL     1     -11.315  10.945  69.905  1.00  0.00    -0.381 C  
HETATM   15  C   UNL     1     -10.747   9.742  69.740  1.00  0.00    -0.283 C  
BRANCH  15  16
HETATM   16  C   UNL     1     -10.802   8.714  70.786  1.00  0.00    -0.272 A  
HETATM   17  C   UNL     1      -9.733   8.487  71.663  1.00  0.00    -0.252 A  
HETATM   18  C   UNL     1      -9.763   7.443  72.587  1.00  0.00    -0.212 A  
HETATM   19  O   UNL     1      -8.602   9.259  71.660  1.00  0.00    -0.309 OA 
HETATM   20  H   UNL     1      -7.877   9.105  72.255  1.00  0.00     0.000 HD 
HETATM   21  C   UNL     1     -10.891   6.622  72.666  1.00  0.00    -0.279 A  
HETATM   22  C   UNL     1     -11.988   6.870  71.831  1.00  0.00    -0.363 A  
HETATM   23  C   UNL     1     -11.943   7.910  70.895  1.00  0.00    -0.211 A  
BRANCH  21  24
HETATM   24  C   UNL     1     -10.924   5.460  73.597  1.00  0.00    -0.220 C  
HETATM   25  N   UNL     1      -9.929   5.289  74.516  1.00  0.00    -0.213 NA 
HETATM   26  N   UNL     1     -11.874   4.580  73.608  1.00  0.00    -0.260 NA 
HETATM   27  H1  UNL     1      -9.952   4.493  75.153  1.00  0.00     0.000 HD 
HETATM   28  H2  UNL     1      -9.160   5.958  74.565  1.00  0.00     0.000 HD 
HETATM   29  H1  UNL     1     -11.897   3.784  74.245  1.00  0.00     0.000 HD 
HETATM   30  H2  UNL     1     -12.640   4.687  72.943  1.00  0.00     0.000 HD 
ENDBRANCH  21  24
ENDBRANCH  15  16
ENDBRANCH  11  14
ENDBRANCH   4   8
TORSDOF 4
ENDMDL
MODEL       68
REMARK 921   NORMALIZED FREE ENERGY PREDICTED BY IDOCK:   -4.89 KCAL/MOL
REMARK 922        TOTAL FREE ENERGY PREDICTED BY IDOCK:   -6.54 KCAL/MOL
REMARK 923 INTER-LIGAND FREE ENERGY PREDICTED BY IDOCK:   -6.06 KCAL/MOL
REMARK 924 INTRA-LIGAND FREE ENERGY PREDICTED BY IDOCK:   -0.49 KCAL/MOL
REMARK 927      BINDING AFFINITY PREDICTED BY RF-SCORE:    0.00 PKD
ROOT
HETATM    1  N   UNL     1     -11.202  16.613  68.491  1.00  0.00    -0.309 NA 
HETATM    2  H2  UNL     1     -11.472  17.592  68.588  1.00  0.00     0.000 HD 
HETATM    3  H1  UNL     1     -10.409  16.362  67.901  1.00  0.00     0.000 HD 
HETATM    4  C   UNL     1     -11.907  15.644  69.151  1.00  0.00    -0.362 C  
HETATM    5  H2  UNL     1     -13.180  16.940  69.995  1.00  0.00     0.000 HD 
HETATM    6  N   UNL     1     -12.910  15.961  69.897  1.00  0.00    -0.599 NA 
HETATM    7  H1  UNL     1     -13.435  15.238  70.390  1.00  0.00     0.000 HD 
ENDROOT
BRANCH   4   8
HETATM    8  C   UNL     1     -11.543  14.212  68.965  1.00  0.00    -0.342 A  
HETATM    9  C   UNL     1     -10.638  13.842  67.967  1.00  0.00    -0.258 A  
HETATM   10  C   UNL     1     -10.410  12.489  67.698  1.00  0.00    -0.222 A  
HETATM   11  C   UNL     1     -11.075  11.491  68.423  1.00  0.00    -0.288 A  
HETATM   12  C   UNL     1     -12.160  13.228  69.741  1.00  0.00    -0.355 A  
HETATM   13  C   UNL     1     -11.934  11.874  69.465  1.00  0.00    -0.355 A  
BRANCH  11  14
HETATM   14  C   UNL     1     -10.930  10.097  67.979  1.00  0.00    -0.326 C  
HETATM   15  C   UNL     1     -10.252   9.143  68.632  1.00  0.00    -0.225 C  
BRANCH  15  16
HETATM   16  C   UNL     1     -10.220   7.755  68.154  1.00  0.00    -0.244 A  
HETATM   17  C   UNL     1     -10.496   6.671  68.999  1.00  0.00    -0.214 A  
HETATM   18  C   UNL     1     -10.367   5.356  68.554  1.00  0.00    -0.219 A  
HETATM   19  O   UNL     1     -10.893   6.834  70.299  1.00  0.00    -0.240 OA 
HETATM   20  H   UNL     1     -11.080   6.099  70.872  1.00  0.00     0.000 HD 
HETATM   21  C   UNL     1      -9.985   5.107  67.234  1.00  0.00    -0.218 A  
HETATM   22  C   UNL     1      -9.757   6.181  66.364  1.00  0.00    -0.152 A  
HETATM   23  C   UNL     1      -9.872   7.498  66.823  1.00  0.00    -0.295 A  
BRANCH  21  24
HETATM   24  C   UNL     1      -9.776   3.713  66.751  1.00  0.00    -0.068 C  
HETATM   25  N   UNL     1      -9.799   3.440  65.413  1.00  0.00    -0.379 NA 
HETATM   26  N   UNL     1      -9.549   2.710  67.538  1.00  0.00    -0.387 NA 
HETATM   27  H1  UNL     1      -9.657   2.486  65.083  1.00  0.00     0.000 HD 
HETATM   28  H2  UNL     1      -9.960   4.193  64.743  1.00  0.00     0.000 HD 
HETATM   29  H1  UNL     1      -9.407   1.756  67.208  1.00  0.00     0.000 HD 
HETATM   30  H2  UNL     1      -9.511   2.883  68.543  1.00  0.00     0.000 HD 
ENDBRANCH  21  24
ENDBRANCH  15  16
ENDBRANCH  11  14
ENDBRANCH   4   8
TORSDOF 4
ENDMDL
MODEL       69
REMARK 921   NORMALIZED FREE ENERGY PREDICTED BY IDOCK:   -4.89 KCAL/MOL
REMARK 922        TOTAL FREE ENERGY PREDICTED BY IDOCK:   -6.54 KCAL/MOL
REMARK 923 INTER-LIGAND FREE ENERGY PREDICTED BY IDOCK:   -6.06 KCAL/MOL
REMARK 924 INTRA-LIGAND FREE ENERGY PREDICTED BY IDOCK:   -0.48 KCAL/MOL
REMARK 927      BINDING AFFINITY PREDICTED BY RF-SCORE:    0.00 PKD
ROOT
HETATM    1  N   UNL     1     -10.459  19.840  68.897  1.00  0.00    -0.542 NA 
HETATM    2  H2  UNL     1     -10.528  20.800  69.236  1.00  0.00     0.000 HD 
HETATM    3  H1  UNL     1     -11.117  19.136  69.232  1.00  0.00     0.000 HD 
HETATM    4  C   UNL     1      -9.487  19.503  67.996  1.00  0.00    -0.340 C  
HETATM    5  H2  UNL     1      -8.723  21.354  67.911  1.00  0.00     0.000 HD 
HETATM    6  N   UNL     1      -8.655  20.394  67.572  1.00  0.00    -0.311 NA 
HETATM    7  H1  UNL     1      -7.930  20.142  66.900  1.00  0.00     0.000 HD 
ENDROOT
BRANCH   4   8
HETATM    8  C   UNL     1      -9.357  18.091  67.544  1.00  0.00    -0.257 A  
HETATM    9  C   UNL     1     -10.201  17.592  66.548  1.00  0.00    -0.355 A  
HETATM   10  C   UNL     1     -10.176  16.232  66.228  1.00  0.00    -0.339 A  
HETATM   11  C   UNL     1      -9.308  15.354  66.892  1.00  0.00    -0.255 A  
HETATM   12  C   UNL     1      -8.440  17.240  68.165  1.00  0.00    -0.238 A  
HETATM   13  C   UNL     1      -8.422  15.876  67.846  1.00  0.00    -0.164 A  
BRANCH  11  14
HETATM   14  C   UNL     1      -9.453  13.912  66.640  1.00  0.00    -0.296 C  
HETATM   15  C   UNL     1      -9.333  12.949  67.564  1.00  0.00    -0.190 C  
BRANCH  15  16
HETATM   16  C   UNL     1      -9.568  11.537  67.240  1.00  0.00    -0.183 A  
HETATM   17  C   UNL     1     -10.824  10.937  67.398  1.00  0.00    -0.279 A  
HETATM   18  C   UNL     1     -11.007   9.572  67.178  1.00  0.00    -0.019 A  
HETATM   19  O   UNL     1     -11.934  11.641  67.782  1.00  0.00    -0.608 OA 
HETATM   20  H   UNL     1     -12.786  11.234  67.888  1.00  0.00     0.000 HD 
HETATM   21  C   UNL     1      -9.928   8.788  66.764  1.00  0.00    -0.338 A  
HETATM   22  C   UNL     1      -8.678   9.384  66.553  1.00  0.00    -0.148 A  
HETATM   23  C   UNL     1      -8.499  10.751  66.792  1.00  0.00    -0.134 A  
BRANCH  21  24
HETATM   24  C   UNL     1     -10.078   7.316  66.586  1.00  0.00    -0.168 C  
HETATM   25  N   UNL     1     -11.299   6.726  66.753  1.00  0.00    -0.739 NA 
HETATM   26  N   UNL     1      -9.102   6.532  66.254  1.00  0.00    -0.156 NA 
HETATM   27  H1  UNL     1     -11.401   5.719  66.632  1.00  0.00     0.000 HD 
HETATM   28  H2  UNL     1     -12.109   7.295  67.001  1.00  0.00     0.000 HD 
HETATM   29  H1  UNL     1      -9.205   5.525  66.133  1.00  0.00     0.000 HD 
HETATM   30  H2  UNL     1      -8.180   6.944  66.108  1.00  0.00     0.000 HD 
ENDBRANCH  21  24
ENDBRANCH  15  16
ENDBRANCH  11  14
ENDBRANCH   4   8
TORSDOF 4
ENDMDL
MODEL       70
REMARK 921   NORMALIZED FREE ENERGY PREDICTED BY IDOCK:   -4.85 KCAL/MOL
REMARK 922        TOTAL FREE ENERGY PREDICTED BY IDOCK:   -6.49 KCAL/MOL
REMARK 923 INTER-LIGAND FREE ENERGY PREDICTED BY IDOCK:   -6.00 KCAL/MOL
REMARK 924 INTRA-LIGAND FREE ENERGY PREDICTED BY IDOCK:   -0.49 KCAL/MOL
REMARK 927      BINDING AFFINITY PREDICTED BY RF-SCORE:    0.00 PKD
ROOT
HETATM    1  N   UNL     1      -7.519  19.519  65.704  1.00  0.00    -0.423 NA 
HETATM    2  H2  UNL     1      -7.206  20.400  65.294  1.00  0.00     0.000 HD 
HETATM    3  H1  UNL     1      -6.962  18.675  65.578  1.00  0.00     0.000 HD 
HETATM    4  C   UNL     1      -8.685  19.477  66.418  1.00  0.00    -0.361 C  
HETATM    5  H2  UNL     1      -9.078  21.426  66.167  1.00  0.00     0.000 HD 
HETATM    6  N   UNL     1      -9.391  20.546  66.577  1.00  0.00    -0.633 NA 
HETATM    7  H1  UNL     1     -10.260  20.514  67.110  1.00  0.00     0.000 HD 
ENDROOT
BRANCH   4   8
HETATM    8  C   UNL     1      -9.166  18.181  66.969  1.00  0.00    -0.270 A  
HETATM    9  C   UNL     1      -8.466  17.556  68.006  1.00  0.00    -0.242 A  
HETATM   10  C   UNL     1      -8.834  16.274  68.422  1.00  0.00    -0.202 A  
HETATM   11  C   UNL     1      -9.904  15.601  67.817  1.00  0.00    -0.220 A  
HETATM   12  C   UNL     1     -10.277  17.551  66.405  1.00  0.00    -0.354 A  
HETATM   13  C   UNL     1     -10.639  16.263  66.821  1.00  0.00    -0.257 A  
BRANCH  11  14
HETATM   14  C   UNL     1     -10.130  14.192  68.173  1.00  0.00    -0.239 C  
HETATM   15  C   UNL     1      -9.547  13.141  67.580  1.00  0.00    -0.210 C  
BRANCH  15  16
HETATM   16  C   UNL     1      -9.772  11.769  68.049  1.00  0.00    -0.185 A  
HETATM   17  C   UNL     1     -10.900  11.028  67.670  1.00  0.00    -0.256 A  
HETATM   18  C   UNL     1     -11.147   9.763  68.201  1.00  0.00    -0.169 A  
HETATM   19  O   UNL     1     -11.822  11.499  66.774  1.00  0.00    -0.511 OA 
HETATM   20  H   UNL     1     -12.586  10.997  66.516  1.00  0.00     0.000 HD 
HETATM   21  C   UNL     1     -10.243   9.205  69.107  1.00  0.00    -0.215 A  
HETATM   22  C   UNL     1      -9.085   9.912  69.456  1.00  0.00    -0.237 A  
HETATM   23  C   UNL     1      -8.852  11.188  68.931  1.00  0.00    -0.086 A  
BRANCH  21  24
HETATM   24  C   UNL     1     -10.516   7.884  69.741  1.00  0.00    -0.233 C  
HETATM   25  N   UNL     1     -11.181   6.914  69.045  1.00  0.00    -0.505 NA 
HETATM   26  N   UNL     1     -10.138   7.575  70.940  1.00  0.00    -0.192 NA 
HETATM   27  H1  UNL     1     -11.368   6.011  69.479  1.00  0.00     0.000 HD 
HETATM   28  H2  UNL     1     -11.491   7.095  68.091  1.00  0.00     0.000 HD 
HETATM   29  H1  UNL     1     -10.325   6.671  71.374  1.00  0.00     0.000 HD 
HETATM   30  H2  UNL     1      -9.627   8.272  71.481  1.00  0.00     0.000 HD 
ENDBRANCH  21  24
ENDBRANCH  15  16
ENDBRANCH  11  14
ENDBRANCH   4   8
TORSDOF 4
ENDMDL
MODEL       71
REMARK 921   NORMALIZED FREE ENERGY PREDICTED BY IDOCK:   -4.83 KCAL/MOL
REMARK 922        TOTAL FREE ENERGY PREDICTED BY IDOCK:   -6.46 KCAL/MOL
REMARK 923 INTER-LIGAND FREE ENERGY PREDICTED BY IDOCK:   -5.95 KCAL/MOL
REMARK 924 INTRA-LIGAND FREE ENERGY PREDICTED BY IDOCK:   -0.51 KCAL/MOL
REMARK 927      BINDING AFFINITY PREDICTED BY RF-SCORE:    0.00 PKD
ROOT
HETATM    1  N   UNL     1     -11.326  16.679  69.308  1.00  0.00    -0.263 NA 
HETATM    2  H2  UNL     1     -11.215  17.641  69.631  1.00  0.00     0.000 HD 
HETATM    3  H1  UNL     1     -11.850  16.012  69.873  1.00  0.00     0.000 HD 
HETATM    4  C   UNL     1     -10.768  16.291  68.121  1.00  0.00    -0.322 C  
HETATM    5  H2  UNL     1      -9.994  18.097  67.728  1.00  0.00     0.000 HD 
HETATM    6  N   UNL     1     -10.104  17.135  67.406  1.00  0.00    -0.292 NA 
HETATM    7  H1  UNL     1      -9.689  16.846  66.520  1.00  0.00     0.000 HD 
ENDROOT
BRANCH   4   8
HETATM    8  C   UNL     1     -10.886  14.874  67.679  1.00  0.00    -0.286 A  
HETATM    9  C   UNL     1     -11.742  13.998  68.351  1.00  0.00    -0.389 A  
HETATM   10  C   UNL     1     -11.743  12.638  68.029  1.00  0.00    -0.402 A  
HETATM   11  C   UNL     1     -10.896  12.136  67.031  1.00  0.00    -0.289 A  
HETATM   12  C   UNL     1     -10.088  14.399  66.636  1.00  0.00    -0.276 A  
HETATM   13  C   UNL     1     -10.087  13.035  66.320  1.00  0.00    -0.283 A  
BRANCH  11  14
HETATM   14  C   UNL     1     -10.813  10.678  66.861  1.00  0.00    -0.267 C  
HETATM   15  C   UNL     1      -9.681   9.984  66.673  1.00  0.00    -0.246 C  
BRANCH  15  16
HETATM   16  C   UNL     1      -9.681   8.519  66.587  1.00  0.00    -0.318 A  
HETATM   17  C   UNL     1      -8.660   7.812  65.936  1.00  0.00    -0.153 A  
HETATM   18  C   UNL     1      -8.725   6.428  65.779  1.00  0.00    -0.135 A  
HETATM   19  O   UNL     1      -7.557   8.429  65.411  1.00  0.00    -0.086 OA 
HETATM   20  H   UNL     1      -6.865   7.951  64.970  1.00  0.00     0.000 HD 
HETATM   21  C   UNL     1      -9.810   5.723  66.304  1.00  0.00    -0.136 A  
HETATM   22  C   UNL     1     -10.811   6.410  67.002  1.00  0.00    -0.464 A  
HETATM   23  C   UNL     1     -10.747   7.801  67.141  1.00  0.00    -0.337 A  
BRANCH  21  24
HETATM   24  C   UNL     1      -9.937   4.253  66.094  1.00  0.00    -0.215 C  
HETATM   25  N   UNL     1      -9.617   3.387  67.100  1.00  0.00    -0.353 NA 
HETATM   26  N   UNL     1     -10.361   3.723  64.991  1.00  0.00    -0.436 NA 
HETATM   27  H1  UNL     1      -9.704   2.381  66.955  1.00  0.00     0.000 HD 
HETATM   28  H2  UNL     1      -9.290   3.746  67.996  1.00  0.00     0.000 HD 
HETATM   29  H1  UNL     1     -10.448   2.717  64.847  1.00  0.00     0.000 HD 
HETATM   30  H2  UNL     1     -10.622   4.343  64.225  1.00  0.00     0.000 HD 
ENDBRANCH  21  24
ENDBRANCH  15  16
ENDBRANCH  11  14
ENDBRANCH   4   8
TORSDOF 4
ENDMDL
MODEL       72
REMARK 921   NORMALIZED FREE ENERGY PREDICTED BY IDOCK:   -4.82 KCAL/MOL
REMARK 922        TOTAL FREE ENERGY PREDICTED BY IDOCK:   -6.45 KCAL/MOL
REMARK 923 INTER-LIGAND FREE ENERGY PREDICTED BY IDOCK:   -5.96 KCAL/MOL
REMARK 924 INTRA-LIGAND FREE ENERGY PREDICTED BY IDOCK:   -0.49 KCAL/MOL
REMARK 927      BINDING AFFINITY PREDICTED BY RF-SCORE:    0.00 PKD
ROOT
HETATM    1  N   UNL     1     -12.870   4.900  73.109  1.00  0.00     0.039 NA 
HETATM    2  H2  UNL     1     -13.157   4.047  73.591  1.00  0.00     0.000 HD 
HETATM    3  H1  UNL     1     -13.571   5.586  72.832  1.00  0.00     0.000 HD 
HETATM    4  C   UNL     1     -11.547   5.116  72.838  1.00  0.00    -0.205 C  
HETATM    5  H2  UNL     1     -10.946   3.396  73.671  1.00  0.00     0.000 HD 
HETATM    6  N   UNL     1     -10.659   4.248  73.189  1.00  0.00    -0.182 NA 
HETATM    7  H1  UNL     1      -9.672   4.410  72.987  1.00  0.00     0.000 HD 
ENDROOT
BRANCH   4   8
HETATM    8  C   UNL     1     -11.137   6.336  72.089  1.00  0.00    -0.312 A  
HETATM    9  C   UNL     1     -10.755   7.489  72.780  1.00  0.00    -0.382 A  
HETATM   10  C   UNL     1     -10.512   8.673  72.080  1.00  0.00    -0.422 A  
HETATM   11  C   UNL     1     -10.641   8.723  70.685  1.00  0.00    -0.258 A  
HETATM   12  C   UNL     1     -11.203   6.353  70.694  1.00  0.00    -0.400 A  
HETATM   13  C   UNL     1     -10.964   7.544  69.996  1.00  0.00    -0.252 A  
BRANCH  11  14
HETATM   14  C   UNL     1     -10.547  10.034  70.025  1.00  0.00    -0.344 C  
HETATM   15  C   UNL     1     -10.993  10.314  68.793  1.00  0.00    -0.285 C  
BRANCH  15  16
HETATM   16  C   UNL     1     -10.926  11.671  68.239  1.00  0.00    -0.273 A  
HETATM   17  C   UNL     1     -10.051  12.007  67.197  1.00  0.00    -0.201 A  
HETATM   18  C   UNL     1      -9.930  13.322  66.748  1.00  0.00    -0.263 A  
HETATM   19  O   UNL     1      -9.262  11.080  66.570  1.00  0.00    -0.163 OA 
HETATM   20  H   UNL     1      -8.669  11.308  65.864  1.00  0.00     0.000 HD 
HETATM   21  C   UNL     1     -10.715  14.324  67.324  1.00  0.00    -0.277 A  
HETATM   22  C   UNL     1     -11.632  13.994  68.330  1.00  0.00    -0.366 A  
HETATM   23  C   UNL     1     -11.735  12.675  68.786  1.00  0.00    -0.364 A  
BRANCH  21  24
HETATM   24  C   UNL     1     -10.560  15.747  66.910  1.00  0.00    -0.317 C  
HETATM   25  N   UNL     1     -10.624  16.743  67.842  1.00  0.00    -0.340 NA 
HETATM   26  N   UNL     1     -10.344  16.116  65.688  1.00  0.00    -0.395 NA 
HETATM   27  H1  UNL     1     -10.518  17.716  67.559  1.00  0.00     0.000 HD 
HETATM   28  H2  UNL     1     -10.778  16.512  68.824  1.00  0.00     0.000 HD 
HETATM   29  H1  UNL     1     -10.239  17.090  65.404  1.00  0.00     0.000 HD 
HETATM   30  H2  UNL     1     -10.277  15.395  64.970  1.00  0.00     0.000 HD 
ENDBRANCH  21  24
ENDBRANCH  15  16
ENDBRANCH  11  14
ENDBRANCH   4   8
TORSDOF 4
ENDMDL
MODEL       73
REMARK 921   NORMALIZED FREE ENERGY PREDICTED BY IDOCK:   -4.78 KCAL/MOL
REMARK 922        TOTAL FREE ENERGY PREDICTED BY IDOCK:   -6.40 KCAL/MOL
REMARK 923 INTER-LIGAND FREE ENERGY PREDICTED BY IDOCK:   -5.88 KCAL/MOL
REMARK 924 INTRA-LIGAND FREE ENERGY PREDICTED BY IDOCK:   -0.52 KCAL/MOL
REMARK 927      BINDING AFFINITY PREDICTED BY RF-SCORE:    0.00 PKD
ROOT
HETATM    1  N   UNL     1      -9.760   7.415  69.942  1.00  0.00    -0.171 NA 
HETATM    2  H2  UNL     1      -9.792   6.482  70.355  1.00  0.00     0.000 HD 
HETATM    3  H1  UNL     1      -8.954   7.694  69.383  1.00  0.00     0.000 HD 
HETATM    4  C   UNL     1     -10.797   8.284  70.143  1.00  0.00    -0.237 C  
HETATM    5  H2  UNL     1     -11.848   6.998  71.263  1.00  0.00     0.000 HD 
HETATM    6  N   UNL     1     -11.816   7.930  70.850  1.00  0.00    -0.392 NA 
HETATM    7  H1  UNL     1     -12.590   8.579  70.999  1.00  0.00     0.000 HD 
ENDROOT
BRANCH   4   8
HETATM    8  C   UNL     1     -10.723   9.662  69.584  1.00  0.00    -0.260 A  
HETATM    9  C   UNL     1      -9.574  10.085  68.910  1.00  0.00    -0.181 A  
HETATM   10  C   UNL     1      -9.449  11.420  68.515  1.00  0.00    -0.183 A  
HETATM   11  C   UNL     1     -10.467  12.346  68.780  1.00  0.00    -0.179 A  
HETATM   12  C   UNL     1     -11.774  10.557  69.793  1.00  0.00    -0.354 A  
HETATM   13  C   UNL     1     -11.642  11.896  69.401  1.00  0.00    -0.388 A  
BRANCH  11  14
HETATM   14  C   UNL     1     -10.204  13.766  68.501  1.00  0.00    -0.235 C  
HETATM   15  C   UNL     1      -9.231  14.230  67.704  1.00  0.00    -0.194 C  
BRANCH  15  16
HETATM   16  C   UNL     1      -9.085  15.663  67.421  1.00  0.00    -0.203 A  
HETATM   17  C   UNL     1      -8.180  16.471  68.121  1.00  0.00    -0.181 A  
HETATM   18  C   UNL     1      -8.123  17.848  67.907  1.00  0.00    -0.244 A  
HETATM   19  O   UNL     1      -7.313  15.969  69.054  1.00  0.00    -0.164 OA 
HETATM   20  H   UNL     1      -6.699  16.517  69.529  1.00  0.00     0.000 HD 
HETATM   21  C   UNL     1      -8.961  18.435  66.957  1.00  0.00    -0.275 A  
HETATM   22  C   UNL     1      -9.835  17.632  66.213  1.00  0.00    -0.297 A  
HETATM   23  C   UNL     1      -9.897  16.253  66.445  1.00  0.00    -0.310 A  
BRANCH  21  24
HETATM   24  C   UNL     1      -8.969  19.911  66.754  1.00  0.00    -0.360 C  
HETATM   25  N   UNL     1     -10.128  20.552  66.425  1.00  0.00    -0.526 NA 
HETATM   26  N   UNL     1      -7.918  20.656  66.889  1.00  0.00    -0.546 NA 
HETATM   27  H1  UNL     1     -10.133  21.562  66.285  1.00  0.00     0.000 HD 
HETATM   28  H2  UNL     1     -10.992  20.020  66.318  1.00  0.00     0.000 HD 
HETATM   29  H1  UNL     1      -7.922  21.667  66.750  1.00  0.00     0.000 HD 
HETATM   30  H2  UNL     1      -7.039  20.210  67.149  1.00  0.00     0.000 HD 
ENDBRANCH  21  24
ENDBRANCH  15  16
ENDBRANCH  11  14
ENDBRANCH   4   8
TORSDOF 4
ENDMDL
MODEL       74
REMARK 921   NORMALIZED FREE ENERGY PREDICTED BY IDOCK:   -4.77 KCAL/MOL
REMARK 922        TOTAL FREE ENERGY PREDICTED BY IDOCK:   -6.39 KCAL/MOL
REMARK 923 INTER-LIGAND FREE ENERGY PREDICTED BY IDOCK:   -5.88 KCAL/MOL
REMARK 924 INTRA-LIGAND FREE ENERGY PREDICTED BY IDOCK:   -0.51 KCAL/MOL
REMARK 927      BINDING AFFINITY PREDICTED BY RF-SCORE:    0.00 PKD
ROOT
HETATM    1  N   UNL     1     -12.215  15.891  72.432  1.00  0.00    -0.451 NA 
HETATM    2  H2  UNL     1     -12.537  16.498  73.186  1.00  0.00     0.000 HD 
HETATM    3  H1  UNL     1     -11.240  15.925  72.134  1.00  0.00     0.000 HD 
HETATM    4  C   UNL     1     -13.092  15.035  71.825  1.00  0.00    -0.356 C  
HETATM    5  H2  UNL     1     -14.648  15.599  72.955  1.00  0.00     0.000 HD 
HETATM    6  N   UNL     1     -14.326  14.991  72.201  1.00  0.00    -0.529 NA 
HETATM    7  H1  UNL     1     -14.980  14.352  71.748  1.00  0.00     0.000 HD 
ENDROOT
BRANCH   4   8
HETATM    8  C   UNL     1     -12.632  14.188  70.690  1.00  0.00    -0.421 A  
HETATM    9  C   UNL     1     -12.635  12.795  70.808  1.00  0.00    -0.308 A  
HETATM   10  C   UNL     1     -12.068  12.009  69.802  1.00  0.00    -0.317 A  
HETATM   11  C   UNL     1     -11.497  12.598  68.665  1.00  0.00    -0.347 A  
HETATM   12  C   UNL     1     -12.128  14.784  69.533  1.00  0.00    -0.328 A  
HETATM   13  C   UNL     1     -11.555  13.993  68.529  1.00  0.00    -0.357 A  
BRANCH  11  14
HETATM   14  C   UNL     1     -10.761  11.734  67.730  1.00  0.00    -0.244 C  
HETATM   15  C   UNL     1     -10.834  10.396  67.693  1.00  0.00    -0.361 C  
BRANCH  15  16
HETATM   16  C   UNL     1     -10.121   9.613  66.676  1.00  0.00    -0.307 A  
HETATM   17  C   UNL     1      -9.728   8.287  66.899  1.00  0.00    -0.225 A  
HETATM   18  C   UNL     1      -8.968   7.590  65.960  1.00  0.00    -0.164 A  
HETATM   19  O   UNL     1     -10.052   7.605  68.041  1.00  0.00    -0.172 OA 
HETATM   20  H   UNL     1      -9.786   6.705  68.192  1.00  0.00     0.000 HD 
HETATM   21  C   UNL     1      -8.612   8.210  64.761  1.00  0.00    -0.000 A  
HETATM   22  C   UNL     1      -9.043   9.518  64.502  1.00  0.00    -0.250 A  
HETATM   23  C   UNL     1      -9.792  10.216  65.456  1.00  0.00    -0.365 A  
BRANCH  21  24
HETATM   24  C   UNL     1      -7.746   7.513  63.769  1.00  0.00    -0.126 C  
HETATM   25  N   UNL     1      -6.685   8.164  63.208  1.00  0.00    -0.083 NA 
HETATM   26  N   UNL     1      -7.925   6.284  63.402  1.00  0.00    -0.166 NA 
HETATM   27  H1  UNL     1      -6.093   7.687  62.529  1.00  0.00     0.000 HD 
HETATM   28  H2  UNL     1      -6.485   9.130  63.468  1.00  0.00     0.000 HD 
HETATM   29  H1  UNL     1      -7.332   5.806  62.723  1.00  0.00     0.000 HD 
HETATM   30  H2  UNL     1      -8.700   5.765  63.814  1.00  0.00     0.000 HD 
ENDBRANCH  21  24
ENDBRANCH  15  16
ENDBRANCH  11  14
ENDBRANCH   4   8
TORSDOF 4
ENDMDL
MODEL       75
REMARK 921   NORMALIZED FREE ENERGY PREDICTED BY IDOCK:   -4.71 KCAL/MOL
REMARK 922        TOTAL FREE ENERGY PREDICTED BY IDOCK:   -6.32 KCAL/MOL
REMARK 923 INTER-LIGAND FREE ENERGY PREDICTED BY IDOCK:   -5.82 KCAL/MOL
REMARK 924 INTRA-LIGAND FREE ENERGY PREDICTED BY IDOCK:   -0.50 KCAL/MOL
REMARK 927      BINDING AFFINITY PREDICTED BY RF-SCORE:    0.00 PKD
ROOT
HETATM    1  N   UNL     1     -11.000   5.940  72.263  1.00  0.00    -0.251 NA 
HETATM    2  H2  UNL     1     -11.040   4.980  72.606  1.00  0.00     0.000 HD 
HETATM    3  H1  UNL     1     -11.185   6.715  72.899  1.00  0.00     0.000 HD 
HETATM    4  C   UNL     1     -10.698   6.181  70.950  1.00  0.00    -0.258 C  
HETATM    5  H2  UNL     1     -10.505   4.241  70.488  1.00  0.00     0.000 HD 
HETATM    6  N   UNL     1     -10.464   5.201  70.145  1.00  0.00    -0.275 NA 
HETATM    7  H1  UNL     1     -10.239   5.381  69.166  1.00  0.00     0.000 HD 
ENDROOT
BRANCH   4   8
HETATM    8  C   UNL     1     -10.692   7.580  70.440  1.00  0.00    -0.248 A  
HETATM    9  C   UNL     1     -10.594   7.825  69.067  1.00  0.00    -0.179 A  
HETATM   10  C   UNL     1     -10.442   9.134  68.602  1.00  0.00    -0.235 A  
HETATM   11  C   UNL     1     -10.391  10.213  69.495  1.00  0.00    -0.263 A  
HETATM   12  C   UNL     1     -10.712   8.651  71.335  1.00  0.00    -0.338 A  
HETATM   13  C   UNL     1     -10.553   9.961  70.865  1.00  0.00    -0.254 A  
BRANCH  11  14
HETATM   14  C   UNL     1     -10.052  11.541  68.961  1.00  0.00    -0.075 C  
HETATM   15  C   UNL     1     -10.865  12.307  68.220  1.00  0.00    -0.254 C  
BRANCH  15  16
HETATM   16  C   UNL     1     -10.474  13.654  67.790  1.00  0.00    -0.241 A  
HETATM   17  C   UNL     1     -11.342  14.487  67.070  1.00  0.00    -0.349 A  
HETATM   18  C   UNL     1     -10.921  15.726  66.586  1.00  0.00    -0.179 A  
HETATM   19  O   UNL     1     -12.636  14.138  66.793  1.00  0.00    -0.554 OA 
HETATM   20  H   UNL     1     -13.224  14.702  66.306  1.00  0.00     0.000 HD 
HETATM   21  C   UNL     1      -9.620  16.163  66.844  1.00  0.00    -0.243 A  
HETATM   22  C   UNL     1      -8.758  15.363  67.606  1.00  0.00    -0.174 A  
HETATM   23  C   UNL     1      -9.183  14.115  68.074  1.00  0.00    -0.195 A  
BRANCH  21  24
HETATM   24  C   UNL     1      -9.123  17.451  66.284  1.00  0.00    -0.203 C  
HETATM   25  N   UNL     1      -9.998  18.465  66.016  1.00  0.00    -0.542 NA 
HETATM   26  N   UNL     1      -7.874  17.690  66.039  1.00  0.00    -0.511 NA 
HETATM   27  H1  UNL     1      -9.658  19.346  65.632  1.00  0.00     0.000 HD 
HETATM   28  H2  UNL     1     -10.993  18.340  66.201  1.00  0.00     0.000 HD 
HETATM   29  H1  UNL     1      -7.534  18.571  65.655  1.00  0.00     0.000 HD 
HETATM   30  H2  UNL     1      -7.194  16.958  66.242  1.00  0.00     0.000 HD 
ENDBRANCH  21  24
ENDBRANCH  15  16
ENDBRANCH  11  14
ENDBRANCH   4   8
TORSDOF 4
ENDMDL
MODEL       76
REMARK 921   NORMALIZED FREE ENERGY PREDICTED BY IDOCK:   -4.67 KCAL/MOL
REMARK 922        TOTAL FREE ENERGY PREDICTED BY IDOCK:   -6.26 KCAL/MOL
REMARK 923 INTER-LIGAND FREE ENERGY PREDICTED BY IDOCK:   -5.79 KCAL/MOL
REMARK 924 INTRA-LIGAND FREE ENERGY PREDICTED BY IDOCK:   -0.48 KCAL/MOL
REMARK 927      BINDING AFFINITY PREDICTED BY RF-SCORE:    0.00 PKD
ROOT
HETATM    1  N   UNL     1     -14.320  15.280  71.023  1.00  0.00    -0.819 NA 
HETATM    2  H2  UNL     1     -14.663  16.169  71.388  1.00  0.00     0.000 HD 
HETATM    3  H1  UNL     1     -14.966  14.502  70.891  1.00  0.00     0.000 HD 
HETATM    4  C   UNL     1     -12.995  15.136  70.714  1.00  0.00    -0.414 C  
HETATM    5  H2  UNL     1     -12.519  17.008  71.245  1.00  0.00     0.000 HD 
HETATM    6  N   UNL     1     -12.177  16.119  70.881  1.00  0.00    -0.510 NA 
HETATM    7  H1  UNL     1     -11.189  16.012  70.650  1.00  0.00     0.000 HD 
ENDROOT
BRANCH   4   8
HETATM    8  C   UNL     1     -12.488  13.822  70.232  1.00  0.00    -0.357 A  
HETATM    9  C   UNL     1     -12.784  12.653  70.940  1.00  0.00    -0.274 A  
HETATM   10  C   UNL     1     -12.189  11.444  70.570  1.00  0.00    -0.478 A  
HETATM   11  C   UNL     1     -11.298  11.382  69.490  1.00  0.00    -0.357 A  
HETATM   12  C   UNL     1     -11.656  13.762  69.113  1.00  0.00    -0.363 A  
HETATM   13  C   UNL     1     -11.057  12.549  68.749  1.00  0.00    -0.314 A  
BRANCH  11  14
HETATM   14  C   UNL     1     -10.570  10.125  69.262  1.00  0.00    -0.254 C  
HETATM   15  C   UNL     1     -10.750   9.306  68.215  1.00  0.00    -0.195 C  
BRANCH  15  16
HETATM   16  C   UNL     1      -9.926   8.107  68.026  1.00  0.00    -0.222 A  
HETATM   17  C   UNL     1      -9.291   7.825  66.809  1.00  0.00    -0.180 A  
HETATM   18  C   UNL     1      -8.592   6.634  66.615  1.00  0.00    -0.123 A  
HETATM   19  O   UNL     1      -9.324   8.686  65.745  1.00  0.00    -0.323 OA 
HETATM   20  H   UNL     1      -8.894   8.495  64.919  1.00  0.00     0.000 HD 
HETATM   21  C   UNL     1      -8.495   5.712  67.660  1.00  0.00    -0.102 A  
HETATM   22  C   UNL     1      -9.081   6.003  68.898  1.00  0.00    -0.121 A  
HETATM   23  C   UNL     1      -9.794   7.194  69.079  1.00  0.00    -0.156 A  
BRANCH  21  24
HETATM   24  C   UNL     1      -7.811   4.403  67.461  1.00  0.00    -0.085 C  
HETATM   25  N   UNL     1      -7.472   3.991  66.204  1.00  0.00    -0.086 NA 
HETATM   26  N   UNL     1      -7.491   3.609  68.432  1.00  0.00    -0.054 NA 
HETATM   27  H1  UNL     1      -7.004   3.095  66.068  1.00  0.00     0.000 HD 
HETATM   28  H2  UNL     1      -7.686   4.581  65.399  1.00  0.00     0.000 HD 
HETATM   29  H1  UNL     1      -7.024   2.713  68.296  1.00  0.00     0.000 HD 
HETATM   30  H2  UNL     1      -7.719   3.894  69.384  1.00  0.00     0.000 HD 
ENDBRANCH  21  24
ENDBRANCH  15  16
ENDBRANCH  11  14
ENDBRANCH   4   8
TORSDOF 4
ENDMDL
MODEL       77
REMARK 921   NORMALIZED FREE ENERGY PREDICTED BY IDOCK:   -4.56 KCAL/MOL
REMARK 922        TOTAL FREE ENERGY PREDICTED BY IDOCK:   -6.13 KCAL/MOL
REMARK 923 INTER-LIGAND FREE ENERGY PREDICTED BY IDOCK:   -5.73 KCAL/MOL
REMARK 924 INTRA-LIGAND FREE ENERGY PREDICTED BY IDOCK:   -0.40 KCAL/MOL
REMARK 927      BINDING AFFINITY PREDICTED BY RF-SCORE:    0.00 PKD
ROOT
HETATM    1  N   UNL     1      -8.697   3.586  72.973  1.00  0.00    -0.092 NA 
HETATM    2  H2  UNL     1      -8.343   3.041  73.760  1.00  0.00     0.000 HD 
HETATM    3  H1  UNL     1      -8.394   3.363  72.025  1.00  0.00     0.000 HD 
HETATM    4  C   UNL     1      -9.575   4.611  73.195  1.00  0.00    -0.130 C  
HETATM    5  H2  UNL     1      -9.604   4.349  75.181  1.00  0.00     0.000 HD 
HETATM    6  N   UNL     1      -9.958   4.894  74.394  1.00  0.00    -0.183 NA 
HETATM    7  H1  UNL     1     -10.613   5.658  74.559  1.00  0.00     0.000 HD 
ENDROOT
BRANCH   4   8
HETATM    8  C   UNL     1     -10.048   5.437  72.050  1.00  0.00    -0.240 A  
HETATM    9  C   UNL     1      -9.354   5.419  70.837  1.00  0.00    -0.196 A  
HETATM   10  C   UNL     1      -9.713   6.301  69.815  1.00  0.00    -0.185 A  
HETATM   11  C   UNL     1     -10.768   7.208  69.985  1.00  0.00    -0.268 A  
HETATM   12  C   UNL     1     -11.145   6.287  72.208  1.00  0.00    -0.311 A  
HETATM   13  C   UNL     1     -11.497   7.175  71.184  1.00  0.00    -0.322 A  
BRANCH  11  14
HETATM   14  C   UNL     1     -10.982   8.228  68.947  1.00  0.00     0.119 C  
HETATM   15  C   UNL     1     -10.458   9.462  68.955  1.00  0.00    -0.236 C  
BRANCH  15  16
HETATM   16  C   UNL     1     -10.663  10.392  67.839  1.00  0.00    -0.307 A  
HETATM   17  C   UNL     1     -10.002  10.240  66.612  1.00  0.00    -0.216 A  
HETATM   18  C   UNL     1     -10.133  11.186  65.596  1.00  0.00    -0.304 A  
HETATM   19  O   UNL     1      -9.189   9.172  66.342  1.00  0.00    -0.159 OA 
HETATM   20  H   UNL     1      -8.741   9.068  65.511  1.00  0.00     0.000 HD 
HETATM   21  C   UNL     1     -10.960  12.295  65.788  1.00  0.00    -0.338 A  
HETATM   22  C   UNL     1     -11.668  12.433  66.989  1.00  0.00    -0.423 A  
HETATM   23  C   UNL     1     -11.518  11.488  68.009  1.00  0.00    -0.381 A  
BRANCH  21  24
HETATM   24  C   UNL     1     -11.068  13.355  64.746  1.00  0.00    -0.351 C  
HETATM   25  N   UNL     1     -10.071  14.277  64.601  1.00  0.00    -0.640 NA 
HETATM   26  N   UNL     1     -12.068  13.455  63.928  1.00  0.00    -0.568 NA 
HETATM   27  H1  UNL     1     -10.146  15.003  63.888  1.00  0.00     0.000 HD 
HETATM   28  H2  UNL     1      -9.252  14.241  65.207  1.00  0.00     0.000 HD 
HETATM   29  H1  UNL     1     -12.142  14.180  63.216  1.00  0.00     0.000 HD 
HETATM   30  H2  UNL     1     -12.822  12.772  64.002  1.00  0.00     0.000 HD 
ENDBRANCH  21  24
ENDBRANCH  15  16
ENDBRANCH  11  14
ENDBRANCH   4   8
TORSDOF 4
ENDMDL
MODEL       78
REMARK 921   NORMALIZED FREE ENERGY PREDICTED BY IDOCK:   -4.53 KCAL/MOL
REMARK 922        TOTAL FREE ENERGY PREDICTED BY IDOCK:   -6.09 KCAL/MOL
REMARK 923 INTER-LIGAND FREE ENERGY PREDICTED BY IDOCK:   -5.60 KCAL/MOL
REMARK 924 INTRA-LIGAND FREE ENERGY PREDICTED BY IDOCK:   -0.49 KCAL/MOL
REMARK 927      BINDING AFFINITY PREDICTED BY RF-SCORE:    0.00 PKD
ROOT
HETATM    1  N   UNL     1      -9.591   3.500  72.730  1.00  0.00    -0.124 NA 
HETATM    2  H2  UNL     1      -9.680   2.688  73.342  1.00  0.00     0.000 HD 
HETATM    3  H1  UNL     1      -9.666   4.439  73.118  1.00  0.00     0.000 HD 
HETATM    4  C   UNL     1      -9.370   3.321  71.391  1.00  0.00    -0.136 C  
HETATM    5  H2  UNL     1      -9.364   1.321  71.512  1.00  0.00     0.000 HD 
HETATM    6  N   UNL     1      -9.274   2.133  70.899  1.00  0.00    -0.108 NA 
HETATM    7  H1  UNL     1      -9.109   2.000  69.901  1.00  0.00     0.000 HD 
ENDROOT
BRANCH   4   8
HETATM    8  C   UNL     1      -9.292   4.506  70.492  1.00  0.00    -0.218 A  
HETATM    9  C   UNL     1      -8.628   5.662  70.911  1.00  0.00    -0.129 A  
HETATM   10  C   UNL     1      -8.681   6.819  70.129  1.00  0.00    -0.141 A  
HETATM   11  C   UNL     1      -9.389   6.837  68.919  1.00  0.00    -0.129 A  
HETATM   12  C   UNL     1      -9.943   4.489  69.257  1.00  0.00    -0.192 A  
HETATM   13  C   UNL     1      -9.999   5.652  68.479  1.00  0.00    -0.205 A  
BRANCH  11  14
HETATM   14  C   UNL     1      -9.557   8.126  68.232  1.00  0.00    -0.154 C  
HETATM   15  C   UNL     1     -10.079   8.288  67.008  1.00  0.00    -0.353 C  
BRANCH  15  16
HETATM   16  C   UNL     1     -10.279   9.620  66.426  1.00  0.00    -0.288 A  
HETATM   17  C   UNL     1      -9.847   9.939  65.132  1.00  0.00    -0.278 A  
HETATM   18  C   UNL     1      -9.957  11.236  64.630  1.00  0.00    -0.331 A  
HETATM   19  O   UNL     1      -9.286   9.013  64.294  1.00  0.00    -0.416 OA 
HETATM   20  H   UNL     1      -8.993   9.229  63.416  1.00  0.00     0.000 HD 
HETATM   21  C   UNL     1     -10.536  12.234  65.417  1.00  0.00    -0.309 A  
HETATM   22  C   UNL     1     -11.021  11.917  66.692  1.00  0.00    -0.336 A  
HETATM   23  C   UNL     1     -10.891  10.618  67.195  1.00  0.00    -0.328 A  
BRANCH  21  24
HETATM   24  C   UNL     1     -10.608  13.641  64.932  1.00  0.00    -0.408 C  
HETATM   25  N   UNL     1      -9.571  14.499  65.162  1.00  0.00    -0.421 NA 
HETATM   26  N   UNL     1     -11.613  14.119  64.270  1.00  0.00    -0.593 NA 
HETATM   27  H1  UNL     1      -9.620  15.462  64.831  1.00  0.00     0.000 HD 
HETATM   28  H2  UNL     1      -8.745  14.176  65.667  1.00  0.00     0.000 HD 
HETATM   29  H1  UNL     1     -11.663  15.082  63.939  1.00  0.00     0.000 HD 
HETATM   30  H2  UNL     1     -12.398  13.499  64.070  1.00  0.00     0.000 HD 
ENDBRANCH  21  24
ENDBRANCH  15  16
ENDBRANCH  11  14
ENDBRANCH   4   8
TORSDOF 4
ENDMDL
MODEL       79
REMARK 921   NORMALIZED FREE ENERGY PREDICTED BY IDOCK:   -4.48 KCAL/MOL
REMARK 922        TOTAL FREE ENERGY PREDICTED BY IDOCK:   -6.03 KCAL/MOL
REMARK 923 INTER-LIGAND FREE ENERGY PREDICTED BY IDOCK:   -5.52 KCAL/MOL
REMARK 924 INTRA-LIGAND FREE ENERGY PREDICTED BY IDOCK:   -0.51 KCAL/MOL
REMARK 927      BINDING AFFINITY PREDICTED BY RF-SCORE:    0.00 PKD
ROOT
HETATM    1  N   UNL     1     -11.072  15.761  66.483  1.00  0.00    -0.160 NA 
HETATM    2  H2  UNL     1     -11.056  16.706  66.100  1.00  0.00     0.000 HD 
HETATM    3  H1  UNL     1     -10.758  15.595  67.439  1.00  0.00     0.000 HD 
HETATM    4  C   UNL     1     -11.516  14.722  65.712  1.00  0.00    -0.322 C  
HETATM    5  H2  UNL     1     -11.898  15.877  64.120  1.00  0.00     0.000 HD 
HETATM    6  N   UNL     1     -11.914  14.931  64.502  1.00  0.00    -0.535 NA 
HETATM    7  H1  UNL     1     -12.245  14.156  63.928  1.00  0.00     0.000 HD 
ENDROOT
BRANCH   4   8
HETATM    8  C   UNL     1     -11.489  13.336  66.255  1.00  0.00    -0.358 A  
HETATM    9  C   UNL     1     -11.755  13.107  67.608  1.00  0.00    -0.414 A  
HETATM   10  C   UNL     1     -11.587  11.829  68.146  1.00  0.00    -0.391 A  
HETATM   11  C   UNL     1     -11.158  10.762  67.343  1.00  0.00    -0.363 A  
HETATM   12  C   UNL     1     -11.128  12.269  65.430  1.00  0.00    -0.353 A  
HETATM   13  C   UNL     1     -10.954  10.990  65.974  1.00  0.00    -0.136 A  
BRANCH  11  14
HETATM   14  C   UNL     1     -10.830   9.488  68.000  1.00  0.00    -0.225 C  
HETATM   15  C   UNL     1     -10.341   8.403  67.382  1.00  0.00    -0.355 C  
BRANCH  15  16
HETATM   16  C   UNL     1      -9.970   7.194  68.127  1.00  0.00    -0.172 A  
HETATM   17  C   UNL     1     -10.256   5.908  67.649  1.00  0.00    -0.187 A  
HETATM   18  C   UNL     1      -9.983   4.774  68.413  1.00  0.00    -0.156 A  
HETATM   19  O   UNL     1     -10.822   5.688  66.422  1.00  0.00    -0.571 OA 
HETATM   20  H   UNL     1     -11.016   4.817  66.098  1.00  0.00     0.000 HD 
HETATM   21  C   UNL     1      -9.388   4.914  69.669  1.00  0.00    -0.190 A  
HETATM   22  C   UNL     1      -9.049   6.189  70.137  1.00  0.00    -0.156 A  
HETATM   23  C   UNL     1      -9.340   7.323  69.371  1.00  0.00    -0.151 A  
BRANCH  21  24
HETATM   24  C   UNL     1      -9.146   3.725  70.534  1.00  0.00    -0.119 C  
HETATM   25  N   UNL     1      -8.592   3.880  71.773  1.00  0.00    -0.093 NA 
HETATM   26  N   UNL     1      -9.450   2.515  70.188  1.00  0.00    -0.114 NA 
HETATM   27  H1  UNL     1      -8.426   3.067  72.365  1.00  0.00     0.000 HD 
HETATM   28  H2  UNL     1      -8.343   4.812  72.106  1.00  0.00     0.000 HD 
HETATM   29  H1  UNL     1      -9.284   1.701  70.780  1.00  0.00     0.000 HD 
HETATM   30  H2  UNL     1      -9.878   2.367  69.274  1.00  0.00     0.000 HD 
ENDBRANCH  21  24
ENDBRANCH  15  16
ENDBRANCH  11  14
ENDBRANCH   4   8
TORSDOF 4
ENDMDL
MODEL       80
REMARK 921   NORMALIZED FREE ENERGY PREDICTED BY IDOCK:   -4.48 KCAL/MOL
REMARK 922        TOTAL FREE ENERGY PREDICTED BY IDOCK:   -6.03 KCAL/MOL
REMARK 923 INTER-LIGAND FREE ENERGY PREDICTED BY IDOCK:   -5.55 KCAL/MOL
REMARK 924 INTRA-LIGAND FREE ENERGY PREDICTED BY IDOCK:   -0.48 KCAL/MOL
REMARK 927      BINDING AFFINITY PREDICTED BY RF-SCORE:    0.00 PKD
ROOT
HETATM    1  N   UNL     1      -9.321  20.470  66.780  1.00  0.00    -0.615 NA 
HETATM    2  H2  UNL     1      -9.430  21.485  66.793  1.00  0.00     0.000 HD 
HETATM    3  H1  UNL     1      -8.844  20.022  65.998  1.00  0.00     0.000 HD 
HETATM    4  C   UNL     1      -9.815  19.719  67.810  1.00  0.00    -0.398 C  
HETATM    5  H2  UNL     1     -10.527  21.300  68.814  1.00  0.00     0.000 HD 
HETATM    6  N   UNL     1     -10.418  20.286  68.800  1.00  0.00    -0.347 NA 
HETATM    7  H1  UNL     1     -10.786  19.725  69.568  1.00  0.00     0.000 HD 
ENDROOT
BRANCH   4   8
HETATM    8  C   UNL     1      -9.701  18.235  67.762  1.00  0.00    -0.305 A  
HETATM    9  C   UNL     1      -8.603  17.596  68.344  1.00  0.00    -0.284 A  
HETATM   10  C   UNL     1      -8.423  16.221  68.172  1.00  0.00    -0.174 A  
HETATM   11  C   UNL     1      -9.336  15.465  67.424  1.00  0.00    -0.205 A  
HETATM   12  C   UNL     1     -10.654  17.483  67.072  1.00  0.00    -0.245 A  
HETATM   13  C   UNL     1     -10.468  16.106  66.896  1.00  0.00    -0.300 A  
BRANCH  11  14
HETATM   14  C   UNL     1      -9.002  14.064  67.130  1.00  0.00    -0.241 C  
HETATM   15  C   UNL     1      -9.826  13.175  66.559  1.00  0.00    -0.265 C  
BRANCH  15  16
HETATM   16  C   UNL     1      -9.385  11.814  66.232  1.00  0.00    -0.235 A  
HETATM   17  C   UNL     1      -9.966  11.072  65.194  1.00  0.00    -0.278 A  
HETATM   18  C   UNL     1      -9.602   9.747  64.960  1.00  0.00    -0.333 A  
HETATM   19  O   UNL     1     -10.922  11.592  64.364  1.00  0.00    -0.319 OA 
HETATM   20  H   UNL     1     -11.316  11.090  63.661  1.00  0.00     0.000 HD 
HETATM   21  C   UNL     1      -8.619   9.150  65.752  1.00  0.00    -0.171 A  
HETATM   22  C   UNL     1      -7.992   9.895  66.759  1.00  0.00    -0.116 A  
HETATM   23  C   UNL     1      -8.375  11.220  66.998  1.00  0.00    -0.153 A  
BRANCH  21  24
HETATM   24  C   UNL     1      -8.257   7.716  65.567  1.00  0.00    -0.135 C  
HETATM   25  N   UNL     1      -7.786   6.986  66.620  1.00  0.00    -0.092 NA 
HETATM   26  N   UNL     1      -8.378   7.088  64.441  1.00  0.00    -0.336 NA 
HETATM   27  H1  UNL     1      -7.538   6.005  66.493  1.00  0.00     0.000 HD 
HETATM   28  H2  UNL     1      -7.682   7.423  67.536  1.00  0.00     0.000 HD 
HETATM   29  H1  UNL     1      -8.130   6.107  64.313  1.00  0.00     0.000 HD 
HETATM   30  H2  UNL     1      -8.741   7.601  63.638  1.00  0.00     0.000 HD 
ENDBRANCH  21  24
ENDBRANCH  15  16
ENDBRANCH  11  14
ENDBRANCH   4   8
TORSDOF 4
ENDMDL
MODEL       81
REMARK 921   NORMALIZED FREE ENERGY PREDICTED BY IDOCK:   -4.48 KCAL/MOL
REMARK 922        TOTAL FREE ENERGY PREDICTED BY IDOCK:   -6.03 KCAL/MOL
REMARK 923 INTER-LIGAND FREE ENERGY PREDICTED BY IDOCK:   -5.67 KCAL/MOL
REMARK 924 INTRA-LIGAND FREE ENERGY PREDICTED BY IDOCK:   -0.36 KCAL/MOL
REMARK 927      BINDING AFFINITY PREDICTED BY RF-SCORE:    0.00 PKD
ROOT
HETATM    1  N   UNL     1      -6.335  20.406  70.832  1.00  0.00    -0.519 NA 
HETATM    2  H2  UNL     1      -5.993  21.330  71.096  1.00  0.00     0.000 HD 
HETATM    3  H1  UNL     1      -6.626  19.748  71.554  1.00  0.00     0.000 HD 
HETATM    4  C   UNL     1      -6.400  20.057  69.511  1.00  0.00    -0.344 C  
HETATM    5  H2  UNL     1      -5.689  21.814  68.862  1.00  0.00     0.000 HD 
HETATM    6  N   UNL     1      -6.032  20.890  68.597  1.00  0.00    -0.343 NA 
HETATM    7  H1  UNL     1      -6.081  20.629  67.612  1.00  0.00     0.000 HD 
ENDROOT
BRANCH   4   8
HETATM    8  C   UNL     1      -6.850  18.689  69.131  1.00  0.00    -0.284 A  
HETATM    9  C   UNL     1      -8.103  18.502  68.540  1.00  0.00    -0.354 A  
HETATM   10  C   UNL     1      -8.583  17.208  68.318  1.00  0.00    -0.241 A  
HETATM   11  C   UNL     1      -7.822  16.088  68.677  1.00  0.00    -0.179 A  
HETATM   12  C   UNL     1      -6.053  17.583  69.430  1.00  0.00    -0.245 A  
HETATM   13  C   UNL     1      -6.540  16.288  69.212  1.00  0.00    -0.197 A  
BRANCH  11  14
HETATM   14  C   UNL     1      -8.451  14.762  68.584  1.00  0.00    -0.167 C  
HETATM   15  C   UNL     1      -8.204  13.853  67.630  1.00  0.00    -0.181 C  
BRANCH  15  16
HETATM   16  C   UNL     1      -8.822  12.523  67.654  1.00  0.00    -0.179 A  
HETATM   17  C   UNL     1      -8.422  11.534  68.564  1.00  0.00    -0.143 A  
HETATM   18  C   UNL     1      -8.952  10.245  68.511  1.00  0.00    -0.134 A  
HETATM   19  O   UNL     1      -7.493  11.765  69.542  1.00  0.00    -0.345 OA 
HETATM   20  H   UNL     1      -7.222  11.095  70.159  1.00  0.00     0.000 HD 
HETATM   21  C   UNL     1      -9.920   9.934  67.554  1.00  0.00    -0.229 A  
HETATM   22  C   UNL     1     -10.366  10.927  66.672  1.00  0.00    -0.289 A  
HETATM   23  C   UNL     1      -9.819  12.213  66.721  1.00  0.00    -0.218 A  
BRANCH  21  24
HETATM   24  C   UNL     1     -10.455   8.548  67.431  1.00  0.00    -0.280 C  
HETATM   25  N   UNL     1     -10.387   7.891  66.236  1.00  0.00    -0.374 NA 
HETATM   26  N   UNL     1     -10.982   7.896  68.418  1.00  0.00    -0.419 NA 
HETATM   27  H1  UNL     1     -10.753   6.943  66.153  1.00  0.00     0.000 HD 
HETATM   28  H2  UNL     1      -9.969   8.348  65.426  1.00  0.00     0.000 HD 
HETATM   29  H1  UNL     1     -11.349   6.948  68.334  1.00  0.00     0.000 HD 
HETATM   30  H2  UNL     1     -11.035   8.355  69.327  1.00  0.00     0.000 HD 
ENDBRANCH  21  24
ENDBRANCH  15  16
ENDBRANCH  11  14
ENDBRANCH   4   8
TORSDOF 4
ENDMDL
MODEL       82
REMARK 921   NORMALIZED FREE ENERGY PREDICTED BY IDOCK:   -4.47 KCAL/MOL
REMARK 922        TOTAL FREE ENERGY PREDICTED BY IDOCK:   -6.03 KCAL/MOL
REMARK 923 INTER-LIGAND FREE ENERGY PREDICTED BY IDOCK:   -5.52 KCAL/MOL
REMARK 924 INTRA-LIGAND FREE ENERGY PREDICTED BY IDOCK:   -0.50 KCAL/MOL
REMARK 927      BINDING AFFINITY PREDICTED BY RF-SCORE:    0.00 PKD
ROOT
HETATM    1  N   UNL     1      -8.194  19.870  67.870  1.00  0.00    -0.296 NA 
HETATM    2  H2  UNL     1      -8.016  20.868  67.759  1.00  0.00     0.000 HD 
HETATM    3  H1  UNL     1      -9.154  19.529  67.925  1.00  0.00     0.000 HD 
HETATM    4  C   UNL     1      -7.145  18.996  67.945  1.00  0.00    -0.231 C  
HETATM    5  H2  UNL     1      -5.753  20.425  67.765  1.00  0.00     0.000 HD 
HETATM    6  N   UNL     1      -5.931  19.427  67.876  1.00  0.00    -0.207 NA 
HETATM    7  H1  UNL     1      -5.149  18.774  67.931  1.00  0.00     0.000 HD 
ENDROOT
BRANCH   4   8
HETATM    8  C   UNL     1      -7.407  17.546  68.160  1.00  0.00    -0.218 A  
HETATM    9  C   UNL     1      -6.453  16.597  67.780  1.00  0.00    -0.164 A  
HETATM   10  C   UNL     1      -6.759  15.235  67.848  1.00  0.00    -0.167 A  
HETATM   11  C   UNL     1      -8.014  14.801  68.298  1.00  0.00    -0.130 A  
HETATM   12  C   UNL     1      -8.635  17.126  68.675  1.00  0.00    -0.260 A  
HETATM   13  C   UNL     1      -8.940  15.760  68.736  1.00  0.00    -0.214 A  
BRANCH  11  14
HETATM   14  C   UNL     1      -8.339  13.372  68.179  1.00  0.00    -0.164 C  
HETATM   15  C   UNL     1      -9.388  12.870  67.512  1.00  0.00    -0.190 C  
BRANCH  15  16
HETATM   16  C   UNL     1      -9.596  11.423  67.380  1.00  0.00    -0.185 A  
HETATM   17  C   UNL     1      -9.380  10.748  66.171  1.00  0.00    -0.183 A  
HETATM   18  C   UNL     1      -9.675   9.392  66.037  1.00  0.00    -0.345 A  
HETATM   19  O   UNL     1      -8.883  11.371  65.059  1.00  0.00    -0.387 OA 
HETATM   20  H   UNL     1      -8.737  10.914  64.239  1.00  0.00     0.000 HD 
HETATM   21  C   UNL     1     -10.168   8.680  67.133  1.00  0.00    -0.353 A  
HETATM   22  C   UNL     1     -10.339   9.330  68.362  1.00  0.00    -0.244 A  
HETATM   23  C   UNL     1     -10.056  10.695  68.484  1.00  0.00    -0.185 A  
BRANCH  21  24
HETATM   24  C   UNL     1     -10.554   7.246  67.000  1.00  0.00    -0.344 C  
HETATM   25  N   UNL     1      -9.912   6.444  66.100  1.00  0.00    -0.402 NA 
HETATM   26  N   UNL     1     -11.475   6.685  67.716  1.00  0.00    -0.658 NA 
HETATM   27  H1  UNL     1     -10.176   5.464  66.009  1.00  0.00     0.000 HD 
HETATM   28  H2  UNL     1      -9.167   6.827  65.518  1.00  0.00     0.000 HD 
HETATM   29  H1  UNL     1     -11.740   5.705  67.625  1.00  0.00     0.000 HD 
HETATM   30  H2  UNL     1     -11.964   7.254  68.408  1.00  0.00     0.000 HD 
ENDBRANCH  21  24
ENDBRANCH  15  16
ENDBRANCH  11  14
ENDBRANCH   4   8
TORSDOF 4
ENDMDL
MODEL       83
REMARK 921   NORMALIZED FREE ENERGY PREDICTED BY IDOCK:   -4.45 KCAL/MOL
REMARK 922        TOTAL FREE ENERGY PREDICTED BY IDOCK:   -6.00 KCAL/MOL
REMARK 923 INTER-LIGAND FREE ENERGY PREDICTED BY IDOCK:   -5.56 KCAL/MOL
REMARK 924 INTRA-LIGAND FREE ENERGY PREDICTED BY IDOCK:   -0.44 KCAL/MOL
REMARK 927      BINDING AFFINITY PREDICTED BY RF-SCORE:    0.00 PKD
ROOT
HETATM    1  N   UNL     1      -8.260  19.819  68.272  1.00  0.00    -0.307 NA 
HETATM    2  H2  UNL     1      -7.964  20.795  68.278  1.00  0.00     0.000 HD 
HETATM    3  H1  UNL     1      -9.241  19.585  68.422  1.00  0.00     0.000 HD 
HETATM    4  C   UNL     1      -7.339  18.830  68.063  1.00  0.00    -0.249 C  
HETATM    5  H2  UNL     1      -5.801  20.101  67.879  1.00  0.00     0.000 HD 
HETATM    6  N   UNL     1      -6.097  19.125  67.873  1.00  0.00    -0.205 NA 
HETATM    7  H1  UNL     1      -5.410  18.387  67.717  1.00  0.00     0.000 HD 
ENDROOT
BRANCH   4   8
HETATM    8  C   UNL     1      -7.764  17.404  68.107  1.00  0.00    -0.221 A  
HETATM    9  C   UNL     1      -6.975  16.417  67.510  1.00  0.00    -0.175 A  
HETATM   10  C   UNL     1      -7.445  15.104  67.425  1.00  0.00    -0.239 A  
HETATM   11  C   UNL     1      -8.703  14.756  67.937  1.00  0.00    -0.167 A  
HETATM   12  C   UNL     1      -8.989  17.058  68.682  1.00  0.00    -0.267 A  
HETATM   13  C   UNL     1      -9.460  15.742  68.589  1.00  0.00    -0.208 A  
BRANCH  11  14
HETATM   14  C   UNL     1      -9.216  13.406  67.661  1.00  0.00    -0.212 C  
HETATM   15  C   UNL     1      -8.484  12.284  67.667  1.00  0.00    -0.166 C  
BRANCH  15  16
HETATM   16  C   UNL     1      -9.092  10.966  67.454  1.00  0.00    -0.144 A  
HETATM   17  C   UNL     1      -9.799  10.300  68.465  1.00  0.00    -0.164 A  
HETATM   18  C   UNL     1     -10.288   9.008  68.276  1.00  0.00    -0.252 A  
HETATM   19  O   UNL     1     -10.042  10.866  69.687  1.00  0.00    -0.431 OA 
HETATM   20  H   UNL     1     -10.522  10.415  70.373  1.00  0.00     0.000 HD 
HETATM   21  C   UNL     1     -10.097   8.369  67.049  1.00  0.00    -0.354 A  
HETATM   22  C   UNL     1      -9.438   9.042  66.012  1.00  0.00    -0.323 A  
HETATM   23  C   UNL     1      -8.937  10.332  66.215  1.00  0.00    -0.172 A  
BRANCH  21  24
HETATM   24  C   UNL     1     -10.551   6.965  66.842  1.00  0.00    -0.302 C  
HETATM   25  N   UNL     1     -11.602   6.471  67.559  1.00  0.00    -0.610 NA 
HETATM   26  N   UNL     1     -10.008   6.157  65.987  1.00  0.00    -0.393 NA 
HETATM   27  H1  UNL     1     -11.912   5.510  67.418  1.00  0.00     0.000 HD 
HETATM   28  H2  UNL     1     -12.079   7.064  68.238  1.00  0.00     0.000 HD 
HETATM   29  H1  UNL     1     -10.318   5.196  65.845  1.00  0.00     0.000 HD 
HETATM   30  H2  UNL     1      -9.229   6.501  65.425  1.00  0.00     0.000 HD 
ENDBRANCH  21  24
ENDBRANCH  15  16
ENDBRANCH  11  14
ENDBRANCH   4   8
TORSDOF 4
ENDMDL
MODEL       84
REMARK 921   NORMALIZED FREE ENERGY PREDICTED BY IDOCK:   -4.44 KCAL/MOL
REMARK 922        TOTAL FREE ENERGY PREDICTED BY IDOCK:   -5.98 KCAL/MOL
REMARK 923 INTER-LIGAND FREE ENERGY PREDICTED BY IDOCK:   -5.50 KCAL/MOL
REMARK 924 INTRA-LIGAND FREE ENERGY PREDICTED BY IDOCK:   -0.48 KCAL/MOL
REMARK 927      BINDING AFFINITY PREDICTED BY RF-SCORE:    0.00 PKD
ROOT
HETATM    1  N   UNL     1     -10.792   4.081  64.644  1.00  0.00    -0.642 NA 
HETATM    2  H2  UNL     1     -10.888   3.108  64.352  1.00  0.00     0.000 HD 
HETATM    3  H1  UNL     1     -11.148   4.827  64.047  1.00  0.00     0.000 HD 
HETATM    4  C   UNL     1     -10.188   4.379  65.834  1.00  0.00    -0.227 C  
HETATM    5  H2  UNL     1      -9.833   2.462  66.298  1.00  0.00     0.000 HD 
HETATM    6  N   UNL     1      -9.737   3.435  66.590  1.00  0.00    -0.412 NA 
HETATM    7  H1  UNL     1      -9.286   3.657  67.478  1.00  0.00     0.000 HD 
ENDROOT
BRANCH   4   8
HETATM    8  C   UNL     1     -10.002   5.801  66.233  1.00  0.00    -0.129 A  
HETATM    9  C   UNL     1     -10.991   6.457  66.971  1.00  0.00    -0.463 A  
HETATM   10  C   UNL     1     -10.883   7.828  67.218  1.00  0.00    -0.225 A  
HETATM   11  C   UNL     1      -9.788   8.561  66.739  1.00  0.00    -0.327 A  
HETATM   12  C   UNL     1      -8.873   6.504  65.809  1.00  0.00    -0.097 A  
HETATM   13  C   UNL     1      -8.771   7.880  66.053  1.00  0.00    -0.182 A  
BRANCH  11  14
HETATM   14  C   UNL     1      -9.818  10.025  66.876  1.00  0.00    -0.248 C  
HETATM   15  C   UNL     1      -9.392  10.710  67.947  1.00  0.00    -0.154 C  
BRANCH  15  16
HETATM   16  C   UNL     1      -9.389  12.177  67.970  1.00  0.00    -0.197 A  
HETATM   17  C   UNL     1     -10.302  12.911  68.740  1.00  0.00    -0.125 A  
HETATM   18  C   UNL     1     -10.349  14.303  68.676  1.00  0.00    -0.246 A  
HETATM   19  O   UNL     1     -11.201  12.314  69.583  1.00  0.00    -0.449 OA 
HETATM   20  H   UNL     1     -11.820  12.811  70.105  1.00  0.00     0.000 HD 
HETATM   21  C   UNL     1      -9.452  14.988  67.854  1.00  0.00    -0.195 A  
HETATM   22  C   UNL     1      -8.499  14.271  67.119  1.00  0.00    -0.220 A  
HETATM   23  C   UNL     1      -8.470  12.873  67.176  1.00  0.00    -0.179 A  
BRANCH  21  24
HETATM   24  C   UNL     1      -9.522  16.470  67.716  1.00  0.00    -0.222 C  
HETATM   25  N   UNL     1     -10.701  17.124  67.933  1.00  0.00    -0.372 NA 
HETATM   26  N   UNL     1      -8.503  17.209  67.411  1.00  0.00    -0.190 NA 
HETATM   27  H1  UNL     1     -10.749  18.138  67.838  1.00  0.00     0.000 HD 
HETATM   28  H2  UNL     1     -11.536  16.596  68.189  1.00  0.00     0.000 HD 
HETATM   29  H1  UNL     1      -8.551  18.223  67.316  1.00  0.00     0.000 HD 
HETATM   30  H2  UNL     1      -7.604  16.752  67.257  1.00  0.00     0.000 HD 
ENDBRANCH  21  24
ENDBRANCH  15  16
ENDBRANCH  11  14
ENDBRANCH   4   8
TORSDOF 4
ENDMDL
MODEL       85
REMARK 921   NORMALIZED FREE ENERGY PREDICTED BY IDOCK:   -4.41 KCAL/MOL
REMARK 922        TOTAL FREE ENERGY PREDICTED BY IDOCK:   -5.95 KCAL/MOL
REMARK 923 INTER-LIGAND FREE ENERGY PREDICTED BY IDOCK:   -5.47 KCAL/MOL
REMARK 924 INTRA-LIGAND FREE ENERGY PREDICTED BY IDOCK:   -0.48 KCAL/MOL
REMARK 927      BINDING AFFINITY PREDICTED BY RF-SCORE:    0.00 PKD
ROOT
HETATM    1  N   UNL     1     -12.654  13.650  63.094  1.00  0.00    -0.949 NA 
HETATM    2  H2  UNL     1     -13.009  14.219  62.326  1.00  0.00     0.000 HD 
HETATM    3  H1  UNL     1     -12.766  12.636  63.069  1.00  0.00     0.000 HD 
HETATM    4  C   UNL     1     -12.030  14.249  64.154  1.00  0.00    -0.373 C  
HETATM    5  H2  UNL     1     -12.242  16.100  63.418  1.00  0.00     0.000 HD 
HETATM    6  N   UNL     1     -11.887  15.531  64.186  1.00  0.00    -0.877 NA 
HETATM    7  H1  UNL     1     -11.421  15.978  64.977  1.00  0.00     0.000 HD 
ENDROOT
BRANCH   4   8
HETATM    8  C   UNL     1     -11.559  13.421  65.298  1.00  0.00    -0.329 A  
HETATM    9  C   UNL     1     -11.664  13.905  66.605  1.00  0.00    -0.417 A  
HETATM   10  C   UNL     1     -11.092  13.192  67.661  1.00  0.00    -0.295 A  
HETATM   11  C   UNL     1     -10.414  11.987  67.431  1.00  0.00    -0.239 A  
HETATM   12  C   UNL     1     -10.947  12.188  65.063  1.00  0.00    -0.355 A  
HETATM   13  C   UNL     1     -10.369  11.479  66.124  1.00  0.00    -0.287 A  
BRANCH  11  14
HETATM   14  C   UNL     1      -9.683  11.376  68.551  1.00  0.00    -0.199 C  
HETATM   15  C   UNL     1      -8.599  10.596  68.435  1.00  0.00    -0.134 C  
BRANCH  15  16
HETATM   16  C   UNL     1      -7.885  10.088  69.612  1.00  0.00    -0.171 A  
HETATM   17  C   UNL     1      -6.500  10.238  69.764  1.00  0.00    -0.080 A  
HETATM   18  C   UNL     1      -5.823   9.666  70.841  1.00  0.00    -0.072 A  
HETATM   19  O   UNL     1      -5.733  10.938  68.872  1.00  0.00    -0.041 OA 
HETATM   20  H   UNL     1      -4.794  11.041  68.975  1.00  0.00     0.000 HD 
HETATM   21  C   UNL     1      -6.538   8.952  71.805  1.00  0.00    -0.055 A  
HETATM   22  C   UNL     1      -7.930   8.838  71.694  1.00  0.00    -0.137 A  
HETATM   23  C   UNL     1      -8.599   9.402  70.602  1.00  0.00    -0.247 A  
BRANCH  21  24
HETATM   24  C   UNL     1      -5.833   8.275  72.930  1.00  0.00    -0.064 C  
HETATM   25  N   UNL     1      -5.216   9.015  73.898  1.00  0.00    -0.103 NA 
HETATM   26  N   UNL     1      -5.778   6.988  73.068  1.00  0.00    -0.045 NA 
HETATM   27  H1  UNL     1      -4.734   8.551  74.667  1.00  0.00     0.000 HD 
HETATM   28  H2  UNL     1      -5.238  10.034  73.851  1.00  0.00     0.000 HD 
HETATM   29  H1  UNL     1      -5.295   6.524  73.837  1.00  0.00     0.000 HD 
HETATM   30  H2  UNL     1      -6.241   6.407  72.369  1.00  0.00     0.000 HD 
ENDBRANCH  21  24
ENDBRANCH  15  16
ENDBRANCH  11  14
ENDBRANCH   4   8
TORSDOF 4
ENDMDL
MODEL       86
REMARK 921   NORMALIZED FREE ENERGY PREDICTED BY IDOCK:   -4.33 KCAL/MOL
REMARK 922        TOTAL FREE ENERGY PREDICTED BY IDOCK:   -5.85 KCAL/MOL
REMARK 923 INTER-LIGAND FREE ENERGY PREDICTED BY IDOCK:   -5.35 KCAL/MOL
REMARK 924 INTRA-LIGAND FREE ENERGY PREDICTED BY IDOCK:   -0.50 KCAL/MOL
REMARK 927      BINDING AFFINITY PREDICTED BY RF-SCORE:    0.00 PKD
ROOT
HETATM    1  N   UNL     1      -8.065   4.839  69.915  1.00  0.00    -0.068 NA 
HETATM    2  H2  UNL     1      -8.101   3.920  70.357  1.00  0.00     0.000 HD 
HETATM    3  H1  UNL     1      -7.162   5.268  69.710  1.00  0.00     0.000 HD 
HETATM    4  C   UNL     1      -9.226   5.489  69.599  1.00  0.00    -0.132 C  
HETATM    5  H2  UNL     1     -10.404   4.028  70.300  1.00  0.00     0.000 HD 
HETATM    6  N   UNL     1     -10.368   4.946  69.857  1.00  0.00    -0.233 NA 
HETATM    7  H1  UNL     1     -11.234   5.431  69.621  1.00  0.00     0.000 HD 
ENDROOT
BRANCH   4   8
HETATM    8  C   UNL     1      -9.170   6.852  69.001  1.00  0.00    -0.137 A  
HETATM    9  C   UNL     1      -9.282   7.981  69.817  1.00  0.00    -0.149 A  
HETATM   10  C   UNL     1      -9.375   9.251  69.242  1.00  0.00    -0.160 A  
HETATM   11  C   UNL     1      -9.353   9.412  67.850  1.00  0.00    -0.142 A  
HETATM   12  C   UNL     1      -9.077   7.004  67.617  1.00  0.00    -0.122 A  
HETATM   13  C   UNL     1      -9.177   8.278  67.043  1.00  0.00    -0.187 A  
BRANCH  11  14
HETATM   14  C   UNL     1      -9.632  10.748  67.301  1.00  0.00    -0.182 C  
HETATM   15  C   UNL     1      -9.784  11.866  68.026  1.00  0.00    -0.191 C  
BRANCH  15  16
HETATM   16  C   UNL     1      -9.987  13.173  67.391  1.00  0.00    -0.229 A  
HETATM   17  C   UNL     1     -11.053  14.013  67.742  1.00  0.00    -0.267 A  
HETATM   18  C   UNL     1     -11.288  15.208  67.062  1.00  0.00    -0.277 A  
HETATM   19  O   UNL     1     -11.925  13.712  68.754  1.00  0.00    -0.345 OA 
HETATM   20  H   UNL     1     -12.647  14.281  68.992  1.00  0.00     0.000 HD 
HETATM   21  C   UNL     1     -10.431  15.595  66.030  1.00  0.00    -0.343 A  
HETATM   22  C   UNL     1      -9.331  14.791  65.703  1.00  0.00     0.025 A  
HETATM   23  C   UNL     1      -9.112  13.586  66.379  1.00  0.00    -0.064 A  
BRANCH  21  24
HETATM   24  C   UNL     1     -10.695  16.833  65.244  1.00  0.00    -0.169 C  
HETATM   25  N   UNL     1     -10.246  18.041  65.695  1.00  0.00    -0.574 NA 
HETATM   26  N   UNL     1     -11.329  16.841  64.114  1.00  0.00    -1.400 NA 
HETATM   27  H1  UNL     1     -10.428  18.888  65.157  1.00  0.00     0.000 HD 
HETATM   28  H2  UNL     1      -9.728  18.096  66.572  1.00  0.00     0.000 HD 
HETATM   29  H1  UNL     1     -11.511  17.688  63.576  1.00  0.00     0.000 HD 
HETATM   30  H2  UNL     1     -11.665  15.952  63.743  1.00  0.00     0.000 HD 
ENDBRANCH  21  24
ENDBRANCH  15  16
ENDBRANCH  11  14
ENDBRANCH   4   8
TORSDOF 4
ENDMDL
MODEL       87
REMARK 921   NORMALIZED FREE ENERGY PREDICTED BY IDOCK:   -4.30 KCAL/MOL
REMARK 922        TOTAL FREE ENERGY PREDICTED BY IDOCK:   -5.81 KCAL/MOL
REMARK 923 INTER-LIGAND FREE ENERGY PREDICTED BY IDOCK:   -5.32 KCAL/MOL
REMARK 924 INTRA-LIGAND FREE ENERGY PREDICTED BY IDOCK:   -0.49 KCAL/MOL
REMARK 927      BINDING AFFINITY PREDICTED BY RF-SCORE:    0.00 PKD
ROOT
HETATM    1  N   UNL     1      -6.586  18.186  65.308  1.00  0.00    -0.383 NA 
HETATM    2  H2  UNL     1      -6.359  19.128  64.987  1.00  0.00     0.000 HD 
HETATM    3  H1  UNL     1      -5.938  17.420  65.131  1.00  0.00     0.000 HD 
HETATM    4  C   UNL     1      -7.759  17.959  65.973  1.00  0.00    -0.181 C  
HETATM    5  H2  UNL     1      -8.353  19.870  65.876  1.00  0.00     0.000 HD 
HETATM    6  N   UNL     1      -8.581  18.928  66.197  1.00  0.00    -0.468 NA 
HETATM    7  H1  UNL     1      -9.455  18.758  66.694  1.00  0.00     0.000 HD 
ENDROOT
BRANCH   4   8
HETATM    8  C   UNL     1      -8.112  16.575  66.394  1.00  0.00    -0.362 A  
HETATM    9  C   UNL     1      -9.348  16.027  66.039  1.00  0.00    -0.380 A  
HETATM   10  C   UNL     1      -9.737  14.788  66.556  1.00  0.00    -0.295 A  
HETATM   11  C   UNL     1      -8.898  14.078  67.426  1.00  0.00    -0.210 A  
HETATM   12  C   UNL     1      -7.239  15.847  67.205  1.00  0.00    -0.254 A  
HETATM   13  C   UNL     1      -7.634  14.608  67.726  1.00  0.00    -0.173 A  
BRANCH  11  14
HETATM   14  C   UNL     1      -9.433  12.871  68.074  1.00  0.00    -0.213 C  
HETATM   15  C   UNL     1      -8.711  11.799  68.430  1.00  0.00    -0.155 C  
BRANCH  15  16
HETATM   16  C   UNL     1      -9.313  10.666  69.141  1.00  0.00    -0.174 A  
HETATM   17  C   UNL     1      -8.545   9.767  69.894  1.00  0.00    -0.218 A  
HETATM   18  C   UNL     1      -9.119   8.641  70.484  1.00  0.00    -0.188 A  
HETATM   19  O   UNL     1      -7.199   9.929  70.085  1.00  0.00    -0.123 OA 
HETATM   20  H   UNL     1      -6.678   9.320  70.595  1.00  0.00     0.000 HD 
HETATM   21  C   UNL     1     -10.490   8.415  70.351  1.00  0.00    -0.228 A  
HETATM   22  C   UNL     1     -11.279   9.332  69.645  1.00  0.00    -0.061 A  
HETATM   23  C   UNL     1     -10.693  10.451  69.043  1.00  0.00    -0.260 A  
BRANCH  21  24
HETATM   24  C   UNL     1     -11.119   7.186  70.914  1.00  0.00    -0.263 C  
HETATM   25  N   UNL     1     -12.256   6.680  70.354  1.00  0.00    -0.523 NA 
HETATM   26  N   UNL     1     -10.635   6.535  71.923  1.00  0.00    -0.207 NA 
HETATM   27  H1  UNL     1     -12.686   5.840  70.740  1.00  0.00     0.000 HD 
HETATM   28  H2  UNL     1     -12.676   7.142  69.548  1.00  0.00     0.000 HD 
HETATM   29  H1  UNL     1     -11.065   5.695  72.310  1.00  0.00     0.000 HD 
HETATM   30  H2  UNL     1      -9.778   6.880  72.356  1.00  0.00     0.000 HD 
ENDBRANCH  21  24
ENDBRANCH  15  16
ENDBRANCH  11  14
ENDBRANCH   4   8
TORSDOF 4
ENDMDL
MODEL       88
REMARK 921   NORMALIZED FREE ENERGY PREDICTED BY IDOCK:   -4.26 KCAL/MOL
REMARK 922        TOTAL FREE ENERGY PREDICTED BY IDOCK:   -5.76 KCAL/MOL
REMARK 923 INTER-LIGAND FREE ENERGY PREDICTED BY IDOCK:   -5.26 KCAL/MOL
REMARK 924 INTRA-LIGAND FREE ENERGY PREDICTED BY IDOCK:   -0.49 KCAL/MOL
REMARK 927      BINDING AFFINITY PREDICTED BY RF-SCORE:    0.00 PKD
ROOT
HETATM    1  N   UNL     1     -10.769  19.814  68.305  1.00  0.00    -0.355 NA 
HETATM    2  H2  UNL     1     -10.801  20.830  68.400  1.00  0.00     0.000 HD 
HETATM    3  H1  UNL     1     -11.637  19.284  68.233  1.00  0.00     0.000 HD 
HETATM    4  C   UNL     1      -9.563  19.171  68.276  1.00  0.00    -0.356 C  
HETATM    5  H2  UNL     1      -8.496  20.856  68.462  1.00  0.00     0.000 HD 
HETATM    6  N   UNL     1      -8.464  19.841  68.367  1.00  0.00    -0.297 NA 
HETATM    7  H1  UNL     1      -7.564  19.360  68.345  1.00  0.00     0.000 HD 
ENDROOT
BRANCH   4   8
HETATM    8  C   UNL     1      -9.521  17.685  68.191  1.00  0.00    -0.286 A  
HETATM    9  C   UNL     1     -10.532  16.992  67.519  1.00  0.00    -0.334 A  
HETATM   10  C   UNL     1     -10.570  15.596  67.564  1.00  0.00    -0.297 A  
HETATM   11  C   UNL     1      -9.600  14.873  68.273  1.00  0.00    -0.214 A  
HETATM   12  C   UNL     1      -8.510  16.976  68.842  1.00  0.00    -0.193 A  
HETATM   13  C   UNL     1      -8.555  15.576  68.891  1.00  0.00    -0.209 A  
BRANCH  11  14
HETATM   14  C   UNL     1      -9.793  13.424  68.432  1.00  0.00    -0.216 C  
HETATM   15  C   UNL     1      -9.299  12.483  67.615  1.00  0.00    -0.189 C  
BRANCH  15  16
HETATM   16  C   UNL     1      -9.476  11.053  67.891  1.00  0.00    -0.170 A  
HETATM   17  C   UNL     1     -10.018  10.174  66.942  1.00  0.00    -0.207 A  
HETATM   18  C   UNL     1     -10.270   8.839  67.253  1.00  0.00    -0.332 A  
HETATM   19  O   UNL     1     -10.339  10.570  65.671  1.00  0.00    -0.256 OA 
HETATM   20  H   UNL     1     -10.706   9.975  65.028  1.00  0.00     0.000 HD 
HETATM   21  C   UNL     1      -9.952   8.353  68.523  1.00  0.00    -0.203 A  
HETATM   22  C   UNL     1      -9.362   9.207  69.464  1.00  0.00    -0.165 A  
HETATM   23  C   UNL     1      -9.127  10.550  69.150  1.00  0.00    -0.177 A  
BRANCH  21  24
HETATM   24  C   UNL     1     -10.271   6.948  68.905  1.00  0.00    -0.177 C  
HETATM   25  N   UNL     1      -9.442   6.261  69.746  1.00  0.00    -0.151 NA 
HETATM   26  N   UNL     1     -11.324   6.317  68.493  1.00  0.00    -0.478 NA 
HETATM   27  H1  UNL     1      -9.660   5.300  70.006  1.00  0.00     0.000 HD 
HETATM   28  H2  UNL     1      -8.604   6.711  70.114  1.00  0.00     0.000 HD 
HETATM   29  H1  UNL     1     -11.542   5.355  68.753  1.00  0.00     0.000 HD 
HETATM   30  H2  UNL     1     -11.970   6.807  67.874  1.00  0.00     0.000 HD 
ENDBRANCH  21  24
ENDBRANCH  15  16
ENDBRANCH  11  14
ENDBRANCH   4   8
TORSDOF 4
ENDMDL
MODEL       89
REMARK 921   NORMALIZED FREE ENERGY PREDICTED BY IDOCK:   -4.23 KCAL/MOL
REMARK 922        TOTAL FREE ENERGY PREDICTED BY IDOCK:   -5.73 KCAL/MOL
REMARK 923 INTER-LIGAND FREE ENERGY PREDICTED BY IDOCK:   -5.24 KCAL/MOL
REMARK 924 INTRA-LIGAND FREE ENERGY PREDICTED BY IDOCK:   -0.49 KCAL/MOL
REMARK 927      BINDING AFFINITY PREDICTED BY RF-SCORE:    0.00 PKD
ROOT
HETATM    1  N   UNL     1     -10.843  18.505  67.551  1.00  0.00    -0.376 NA 
HETATM    2  H2  UNL     1     -10.920  19.522  67.560  1.00  0.00     0.000 HD 
HETATM    3  H1  UNL     1     -11.347  17.952  68.244  1.00  0.00     0.000 HD 
HETATM    4  C   UNL     1     -10.065  17.889  66.609  1.00  0.00    -0.362 C  
HETATM    5  H2  UNL     1      -9.504  19.605  65.741  1.00  0.00     0.000 HD 
HETATM    6  N   UNL     1      -9.428  18.588  65.732  1.00  0.00    -0.362 NA 
HETATM    7  H1  UNL     1      -8.848  18.129  65.029  1.00  0.00     0.000 HD 
ENDROOT
BRANCH   4   8
HETATM    8  C   UNL     1      -9.914  16.408  66.630  1.00  0.00    -0.281 A  
HETATM    9  C   UNL     1     -10.400  15.637  65.570  1.00  0.00    -0.421 A  
HETATM   10  C   UNL     1     -10.388  14.243  65.659  1.00  0.00    -0.352 A  
HETATM   11  C   UNL     1      -9.888  13.599  66.799  1.00  0.00    -0.271 A  
HETATM   12  C   UNL     1      -9.350  15.780  67.742  1.00  0.00    -0.206 A  
HETATM   13  C   UNL     1      -9.346  14.382  67.830  1.00  0.00    -0.203 A  
BRANCH  11  14
HETATM   14  C   UNL     1     -10.065  12.144  66.909  1.00  0.00    -0.222 C  
HETATM   15  C   UNL     1      -9.364  11.338  67.718  1.00  0.00    -0.163 C  
BRANCH  15  16
HETATM   16  C   UNL     1      -9.657   9.903  67.820  1.00  0.00    -0.163 A  
HETATM   17  C   UNL     1      -9.311   9.152  68.951  1.00  0.00    -0.146 A  
HETATM   18  C   UNL     1      -9.509   7.772  68.992  1.00  0.00    -0.150 A  
HETATM   19  O   UNL     1      -8.755   9.715  70.068  1.00  0.00    -0.200 OA 
HETATM   20  H   UNL     1      -8.520   9.206  70.835  1.00  0.00     0.000 HD 
HETATM   21  C   UNL     1     -10.089   7.124  67.899  1.00  0.00    -0.211 A  
HETATM   22  C   UNL     1     -10.488   7.870  66.782  1.00  0.00    -0.317 A  
HETATM   23  C   UNL     1     -10.271   9.252  66.743  1.00  0.00    -0.325 A  
BRANCH  21  24
HETATM   24  C   UNL     1     -10.252   5.643  67.889  1.00  0.00    -0.187 C  
HETATM   25  N   UNL     1     -10.991   5.042  66.910  1.00  0.00    -0.166 NA 
HETATM   26  N   UNL     1      -9.709   4.858  68.764  1.00  0.00    -0.156 NA 
HETATM   27  H1  UNL     1     -11.103   4.028  66.904  1.00  0.00     0.000 HD 
HETATM   28  H2  UNL     1     -11.432   5.607  66.185  1.00  0.00     0.000 HD 
HETATM   29  H1  UNL     1      -9.821   3.845  68.757  1.00  0.00     0.000 HD 
HETATM   30  H2  UNL     1      -9.139   5.275  69.500  1.00  0.00     0.000 HD 
ENDBRANCH  21  24
ENDBRANCH  15  16
ENDBRANCH  11  14
ENDBRANCH   4   8
TORSDOF 4
ENDMDL
MODEL       90
REMARK 921   NORMALIZED FREE ENERGY PREDICTED BY IDOCK:   -4.19 KCAL/MOL
REMARK 922        TOTAL FREE ENERGY PREDICTED BY IDOCK:   -5.67 KCAL/MOL
REMARK 923 INTER-LIGAND FREE ENERGY PREDICTED BY IDOCK:   -5.16 KCAL/MOL
REMARK 924 INTRA-LIGAND FREE ENERGY PREDICTED BY IDOCK:   -0.51 KCAL/MOL
REMARK 927      BINDING AFFINITY PREDICTED BY RF-SCORE:    0.00 PKD
ROOT
HETATM    1  N   UNL     1      -7.898   5.977  66.276  1.00  0.00    -0.102 NA 
HETATM    2  H2  UNL     1      -7.518   5.030  66.297  1.00  0.00     0.000 HD 
HETATM    3  H1  UNL     1      -7.995   6.464  65.385  1.00  0.00     0.000 HD 
HETATM    4  C   UNL     1      -8.272   6.586  67.441  1.00  0.00    -0.121 C  
HETATM    5  H2  UNL     1      -7.769   5.022  68.589  1.00  0.00     0.000 HD 
HETATM    6  N   UNL     1      -8.149   5.969  68.568  1.00  0.00    -0.106 NA 
HETATM    7  H1  UNL     1      -8.429   6.424  69.438  1.00  0.00     0.000 HD 
ENDROOT
BRANCH   4   8
HETATM    8  C   UNL     1      -8.776   7.987  67.413  1.00  0.00    -0.124 A  
HETATM    9  C   UNL     1      -8.575   8.782  66.281  1.00  0.00    -0.144 A  
HETATM   10  C   UNL     1      -8.918  10.136  66.311  1.00  0.00    -0.168 A  
HETATM   11  C   UNL     1      -9.470  10.713  67.463  1.00  0.00    -0.169 A  
HETATM   12  C   UNL     1      -9.388   8.532  68.543  1.00  0.00    -0.139 A  
HETATM   13  C   UNL     1      -9.725   9.891  68.571  1.00  0.00    -0.163 A  
BRANCH  11  14
HETATM   14  C   UNL     1      -9.643  12.173  67.494  1.00  0.00    -0.179 C  
HETATM   15  C   UNL     1      -9.822  12.954  66.418  1.00  0.00    -0.268 C  
BRANCH  15  16
HETATM   16  C   UNL     1     -10.063  14.396  66.545  1.00  0.00    -0.281 A  
HETATM   17  C   UNL     1     -10.603  15.154  65.497  1.00  0.00    -0.366 A  
HETATM   18  C   UNL     1     -10.736  16.539  65.600  1.00  0.00    -0.257 A  
HETATM   19  O   UNL     1     -11.020  14.593  64.321  1.00  0.00    -0.605 OA 
HETATM   20  H   UNL     1     -11.386  15.107  63.611  1.00  0.00     0.000 HD 
HETATM   21  C   UNL     1     -10.351  17.185  66.777  1.00  0.00    -0.302 A  
HETATM   22  C   UNL     1      -9.858  16.433  67.851  1.00  0.00    -0.238 A  
HETATM   23  C   UNL     1      -9.713  15.046  67.734  1.00  0.00    -0.215 A  
BRANCH  21  24
HETATM   24  C   UNL     1     -10.420  18.669  66.889  1.00  0.00    -0.402 C  
HETATM   25  N   UNL     1     -10.834  19.250  68.054  1.00  0.00    -0.359 NA 
HETATM   26  N   UNL     1     -10.087  19.475  65.931  1.00  0.00    -0.449 NA 
HETATM   27  H1  UNL     1     -10.881  20.265  68.130  1.00  0.00     0.000 HD 
HETATM   28  H2  UNL     1     -11.096  18.666  68.848  1.00  0.00     0.000 HD 
HETATM   29  H1  UNL     1     -10.135  20.490  66.008  1.00  0.00     0.000 HD 
HETATM   30  H2  UNL     1      -9.761  19.072  65.053  1.00  0.00     0.000 HD 
ENDBRANCH  21  24
ENDBRANCH  15  16
ENDBRANCH  11  14
ENDBRANCH   4   8
TORSDOF 4
ENDMDL
MODEL       91
REMARK 921   NORMALIZED FREE ENERGY PREDICTED BY IDOCK:   -4.05 KCAL/MOL
REMARK 922        TOTAL FREE ENERGY PREDICTED BY IDOCK:   -5.50 KCAL/MOL
REMARK 923 INTER-LIGAND FREE ENERGY PREDICTED BY IDOCK:   -5.07 KCAL/MOL
REMARK 924 INTRA-LIGAND FREE ENERGY PREDICTED BY IDOCK:   -0.44 KCAL/MOL
REMARK 927      BINDING AFFINITY PREDICTED BY RF-SCORE:    0.00 PKD
ROOT
HETATM    1  N   UNL     1      -8.322   3.221  72.982  1.00  0.00    -0.080 NA 
HETATM    2  H2  UNL     1      -8.339   2.254  73.304  1.00  0.00     0.000 HD 
HETATM    3  H1  UNL     1      -7.438   3.728  72.942  1.00  0.00     0.000 HD 
HETATM    4  C   UNL     1      -9.486   3.834  72.606  1.00  0.00    -0.124 C  
HETATM    5  H2  UNL     1     -10.622   2.226  72.978  1.00  0.00     0.000 HD 
HETATM    6  N   UNL     1     -10.605   3.194  72.656  1.00  0.00    -0.091 NA 
HETATM    7  H1  UNL     1     -11.473   3.651  72.375  1.00  0.00     0.000 HD 
ENDROOT
BRANCH   4   8
HETATM    8  C   UNL     1      -9.465   5.263  72.186  1.00  0.00    -0.168 A  
HETATM    9  C   UNL     1     -10.623   6.039  72.284  1.00  0.00    -0.256 A  
HETATM   10  C   UNL     1     -10.642   7.333  71.757  1.00  0.00    -0.229 A  
HETATM   11  C   UNL     1      -9.509   7.870  71.130  1.00  0.00    -0.180 A  
HETATM   12  C   UNL     1      -8.309   5.810  71.627  1.00  0.00    -0.124 A  
HETATM   13  C   UNL     1      -8.334   7.105  71.093  1.00  0.00    -0.113 A  
BRANCH  11  14
HETATM   14  C   UNL     1      -9.645   9.162  70.440  1.00  0.00    -0.268 C  
HETATM   15  C   UNL     1      -9.597   9.338  69.112  1.00  0.00    -0.161 C  
BRANCH  15  16
HETATM   16  C   UNL     1      -9.817  10.654  68.502  1.00  0.00    -0.175 A  
HETATM   17  C   UNL     1     -11.101  11.187  68.324  1.00  0.00    -0.251 A  
HETATM   18  C   UNL     1     -11.298  12.395  67.655  1.00  0.00    -0.371 A  
HETATM   19  O   UNL     1     -12.228  10.559  68.781  1.00  0.00    -0.779 OA 
HETATM   20  H   UNL     1     -13.099  10.920  68.662  1.00  0.00     0.000 HD 
HETATM   21  C   UNL     1     -10.196  13.107  67.176  1.00  0.00    -0.244 A  
HETATM   22  C   UNL     1      -8.904  12.612  67.391  1.00  0.00    -0.189 A  
HETATM   23  C   UNL     1      -8.716  11.391  68.049  1.00  0.00    -0.148 A  
BRANCH  21  24
HETATM   24  C   UNL     1     -10.381  14.366  66.401  1.00  0.00    -0.287 C  
HETATM   25  N   UNL     1     -11.129  15.385  66.916  1.00  0.00    -0.296 NA 
HETATM   26  N   UNL     1      -9.848  14.575  65.239  1.00  0.00    -0.530 NA 
HETATM   27  H1  UNL     1     -11.255  16.247  66.385  1.00  0.00     0.000 HD 
HETATM   28  H2  UNL     1     -11.562  15.285  67.834  1.00  0.00     0.000 HD 
HETATM   29  H1  UNL     1      -9.975  15.436  64.708  1.00  0.00     0.000 HD 
HETATM   30  H2  UNL     1      -9.272  13.838  64.832  1.00  0.00     0.000 HD 
ENDBRANCH  21  24
ENDBRANCH  15  16
ENDBRANCH  11  14
ENDBRANCH   4   8
TORSDOF 4
ENDMDL
MODEL       92
REMARK 921   NORMALIZED FREE ENERGY PREDICTED BY IDOCK:   -4.05 KCAL/MOL
REMARK 922        TOTAL FREE ENERGY PREDICTED BY IDOCK:   -5.50 KCAL/MOL
REMARK 923 INTER-LIGAND FREE ENERGY PREDICTED BY IDOCK:   -5.02 KCAL/MOL
REMARK 924 INTRA-LIGAND FREE ENERGY PREDICTED BY IDOCK:   -0.48 KCAL/MOL
REMARK 927      BINDING AFFINITY PREDICTED BY RF-SCORE:    0.00 PKD
ROOT
HETATM    1  N   UNL     1      -5.542  21.059  70.669  1.00  0.00    -0.509 NA 
HETATM    2  H2  UNL     1      -5.171  22.008  70.715  1.00  0.00     0.000 HD 
HETATM    3  H1  UNL     1      -5.608  20.499  71.519  1.00  0.00     0.000 HD 
HETATM    4  C   UNL     1      -5.947  20.543  69.469  1.00  0.00    -0.324 C  
HETATM    5  H2  UNL     1      -5.492  22.201  68.439  1.00  0.00     0.000 HD 
HETATM    6  N   UNL     1      -5.863  21.252  68.394  1.00  0.00    -0.285 NA 
HETATM    7  H1  UNL     1      -6.165  20.867  67.498  1.00  0.00     0.000 HD 
ENDROOT
BRANCH   4   8
HETATM    8  C   UNL     1      -6.438  19.140  69.397  1.00  0.00    -0.337 A  
HETATM    9  C   UNL     1      -5.575  18.078  69.683  1.00  0.00    -0.220 A  
HETATM   10  C   UNL     1      -5.994  16.762  69.474  1.00  0.00    -0.210 A  
HETATM   11  C   UNL     1      -7.278  16.486  68.984  1.00  0.00    -0.219 A  
HETATM   12  C   UNL     1      -7.742  18.877  68.974  1.00  0.00    -0.262 A  
HETATM   13  C   UNL     1      -8.158  17.556  68.760  1.00  0.00    -0.232 A  
BRANCH  11  14
HETATM   14  C   UNL     1      -7.598  15.098  68.617  1.00  0.00    -0.127 C  
HETATM   15  C   UNL     1      -8.826  14.561  68.620  1.00  0.00    -0.180 C  
BRANCH  15  16
HETATM   16  C   UNL     1      -9.066  13.186  68.167  1.00  0.00    -0.200 A  
HETATM   17  C   UNL     1     -10.323  12.760  67.714  1.00  0.00    -0.221 A  
HETATM   18  C   UNL     1     -10.558  11.427  67.380  1.00  0.00    -0.257 A  
HETATM   19  O   UNL     1     -11.386  13.613  67.584  1.00  0.00    -0.275 OA 
HETATM   20  H   UNL     1     -12.237  13.325  67.277  1.00  0.00     0.000 HD 
HETATM   21  C   UNL     1      -9.519  10.499  67.467  1.00  0.00    -0.166 A  
HETATM   22  C   UNL     1      -8.245  10.920  67.869  1.00  0.00    -0.114 A  
HETATM   23  C   UNL     1      -8.021  12.256  68.218  1.00  0.00    -0.163 A  
BRANCH  21  24
HETATM   24  C   UNL     1      -9.759   9.056  67.179  1.00  0.00    -0.181 C  
HETATM   25  N   UNL     1     -11.013   8.531  67.309  1.00  0.00    -0.403 NA 
HETATM   26  N   UNL     1      -8.832   8.243  66.785  1.00  0.00    -0.134 NA 
HETATM   27  H1  UNL     1     -11.176   7.544  67.112  1.00  0.00     0.000 HD 
HETATM   28  H2  UNL     1     -11.786   9.126  67.603  1.00  0.00     0.000 HD 
HETATM   29  H1  UNL     1      -8.996   7.255  66.588  1.00  0.00     0.000 HD 
HETATM   30  H2  UNL     1      -7.887   8.608  66.665  1.00  0.00     0.000 HD 
ENDBRANCH  21  24
ENDBRANCH  15  16
ENDBRANCH  11  14
ENDBRANCH   4   8
TORSDOF 4
ENDMDL
MODEL       93
REMARK 921   NORMALIZED FREE ENERGY PREDICTED BY IDOCK:   -4.03 KCAL/MOL
REMARK 922        TOTAL FREE ENERGY PREDICTED BY IDOCK:   -5.48 KCAL/MOL
REMARK 923 INTER-LIGAND FREE ENERGY PREDICTED BY IDOCK:   -4.99 KCAL/MOL
REMARK 924 INTRA-LIGAND FREE ENERGY PREDICTED BY IDOCK:   -0.49 KCAL/MOL
REMARK 927      BINDING AFFINITY PREDICTED BY RF-SCORE:    0.00 PKD
ROOT
HETATM    1  N   UNL     1     -13.691   9.181  70.339  1.00  0.00     0.165 NA 
HETATM    2  H2  UNL     1     -14.222   8.389  70.701  1.00  0.00     0.000 HD 
HETATM    3  H1  UNL     1     -13.537   9.271  69.335  1.00  0.00     0.000 HD 
HETATM    4  C   UNL     1     -13.188  10.115  71.202  1.00  0.00    -0.355 C  
HETATM    5  H2  UNL     1     -13.915   9.210  72.834  1.00  0.00     0.000 HD 
HETATM    6  N   UNL     1     -13.383  10.001  72.472  1.00  0.00    -0.560 NA 
HETATM    7  H1  UNL     1     -13.008  10.699  73.115  1.00  0.00     0.000 HD 
ENDROOT
BRANCH   4   8
HETATM    8  C   UNL     1     -12.369  11.241  70.674  1.00  0.00    -0.477 A  
HETATM    9  C   UNL     1     -12.655  12.556  71.054  1.00  0.00    -0.350 A  
HETATM   10  C   UNL     1     -11.982  13.619  70.447  1.00  0.00    -0.372 A  
HETATM   11  C   UNL     1     -11.012  13.387  69.462  1.00  0.00    -0.006 A  
HETATM   12  C   UNL     1     -11.357  10.993  69.744  1.00  0.00    -0.366 A  
HETATM   13  C   UNL     1     -10.688  12.062  69.134  1.00  0.00    -0.121 A  
BRANCH  11  14
HETATM   14  C   UNL     1     -10.468  14.546  68.737  1.00  0.00    -0.246 C  
HETATM   15  C   UNL     1      -9.205  14.986  68.819  1.00  0.00    -0.200 C  
BRANCH  15  16
HETATM   16  C   UNL     1      -8.725  16.106  68.002  1.00  0.00    -0.176 A  
HETATM   17  C   UNL     1      -7.619  16.881  68.378  1.00  0.00    -0.209 A  
HETATM   18  C   UNL     1      -7.235  18.001  67.641  1.00  0.00    -0.210 A  
HETATM   19  O   UNL     1      -6.862  16.596  69.482  1.00  0.00    -0.231 OA 
HETATM   20  H   UNL     1      -6.112  17.121  69.737  1.00  0.00     0.000 HD 
HETATM   21  C   UNL     1      -7.945  18.347  66.489  1.00  0.00    -0.294 A  
HETATM   22  C   UNL     1      -9.021  17.552  66.073  1.00  0.00    -0.065 A  
HETATM   23  C   UNL     1      -9.409  16.439  66.827  1.00  0.00    -0.265 A  
BRANCH  21  24
HETATM   24  C   UNL     1      -7.599  19.575  65.720  1.00  0.00    -0.229 C  
HETATM   25  N   UNL     1      -6.300  19.832  65.387  1.00  0.00    -0.234 NA 
HETATM   26  N   UNL     1      -8.477  20.437  65.316  1.00  0.00    -0.189 NA 
HETATM   27  H1  UNL     1      -6.063  20.673  64.861  1.00  0.00     0.000 HD 
HETATM   28  H2  UNL     1      -5.565  19.182  65.665  1.00  0.00     0.000 HD 
HETATM   29  H1  UNL     1      -8.240  21.278  64.791  1.00  0.00     0.000 HD 
HETATM   30  H2  UNL     1      -9.458  20.267  65.537  1.00  0.00     0.000 HD 
ENDBRANCH  21  24
ENDBRANCH  15  16
ENDBRANCH  11  14
ENDBRANCH   4   8
TORSDOF 4
ENDMDL
MODEL       94
REMARK 921   NORMALIZED FREE ENERGY PREDICTED BY IDOCK:   -4.02 KCAL/MOL
REMARK 922        TOTAL FREE ENERGY PREDICTED BY IDOCK:   -5.46 KCAL/MOL
REMARK 923 INTER-LIGAND FREE ENERGY PREDICTED BY IDOCK:   -4.99 KCAL/MOL
REMARK 924 INTRA-LIGAND FREE ENERGY PREDICTED BY IDOCK:   -0.48 KCAL/MOL
REMARK 927      BINDING AFFINITY PREDICTED BY RF-SCORE:    0.00 PKD
ROOT
HETATM    1  N   UNL     1     -10.931  15.416  68.687  1.00  0.00    -0.259 NA 
HETATM    2  H2  UNL     1     -11.175  16.342  69.039  1.00  0.00     0.000 HD 
HETATM    3  H1  UNL     1     -10.068  15.285  68.159  1.00  0.00     0.000 HD 
HETATM    4  C   UNL     1     -11.762  14.357  68.925  1.00  0.00    -0.322 C  
HETATM    5  H2  UNL     1     -13.098  15.448  69.945  1.00  0.00     0.000 HD 
HETATM    6  N   UNL     1     -12.854  14.522  69.593  1.00  0.00    -0.491 NA 
HETATM    7  H1  UNL     1     -13.473  13.731  69.771  1.00  0.00     0.000 HD 
ENDROOT
BRANCH   4   8
HETATM    8  C   UNL     1     -11.430  13.017  68.366  1.00  0.00    -0.345 A  
HETATM    9  C   UNL     1     -10.780  12.067  69.160  1.00  0.00    -0.121 A  
HETATM   10  C   UNL     1     -10.339  10.869  68.592  1.00  0.00    -0.206 A  
HETATM   11  C   UNL     1     -10.545  10.599  67.232  1.00  0.00    -0.313 A  
HETATM   12  C   UNL     1     -11.701  12.733  67.027  1.00  0.00    -0.440 A  
HETATM   13  C   UNL     1     -11.253  11.533  66.460  1.00  0.00    -0.324 A  
BRANCH  11  14
HETATM   14  C   UNL     1      -9.905   9.407  66.657  1.00  0.00    -0.309 C  
HETATM   15  C   UNL     1      -9.963   8.171  67.174  1.00  0.00    -0.304 C  
BRANCH  15  16
HETATM   16  C   UNL     1      -9.357   7.022  66.493  1.00  0.00    -0.201 A  
HETATM   17  C   UNL     1     -10.075   5.845  66.238  1.00  0.00    -0.046 A  
HETATM   18  C   UNL     1      -9.457   4.727  65.678  1.00  0.00    -0.173 A  
HETATM   19  O   UNL     1     -11.406   5.717  66.530  1.00  0.00    -0.669 OA 
HETATM   20  H   UNL     1     -11.893   4.920  66.357  1.00  0.00     0.000 HD 
HETATM   21  C   UNL     1      -8.105   4.784  65.335  1.00  0.00    -0.112 A  
HETATM   22  C   UNL     1      -7.388   5.971  65.536  1.00  0.00    -0.076 A  
HETATM   23  C   UNL     1      -8.011   7.082  66.113  1.00  0.00    -0.110 A  
BRANCH  21  24
HETATM   24  C   UNL     1      -7.404   3.585  64.795  1.00  0.00    -0.071 C  
HETATM   25  N   UNL     1      -6.316   3.076  65.446  1.00  0.00    -0.030 NA 
HETATM   26  N   UNL     1      -7.777   2.960  63.725  1.00  0.00    -0.067 NA 
HETATM   27  H1  UNL     1      -5.836   2.256  65.077  1.00  0.00     0.000 HD 
HETATM   28  H2  UNL     1      -5.983   3.518  66.303  1.00  0.00     0.000 HD 
HETATM   29  H1  UNL     1      -7.297   2.139  63.355  1.00  0.00     0.000 HD 
HETATM   30  H2  UNL     1      -8.595   3.306  63.223  1.00  0.00     0.000 HD 
ENDBRANCH  21  24
ENDBRANCH  15  16
ENDBRANCH  11  14
ENDBRANCH   4   8
TORSDOF 4
ENDMDL
MODEL       95
REMARK 921   NORMALIZED FREE ENERGY PREDICTED BY IDOCK:   -4.01 KCAL/MOL
REMARK 922        TOTAL FREE ENERGY PREDICTED BY IDOCK:   -5.45 KCAL/MOL
REMARK 923 INTER-LIGAND FREE ENERGY PREDICTED BY IDOCK:   -4.94 KCAL/MOL
REMARK 924 INTRA-LIGAND FREE ENERGY PREDICTED BY IDOCK:   -0.51 KCAL/MOL
REMARK 927      BINDING AFFINITY PREDICTED BY RF-SCORE:    0.00 PKD
ROOT
HETATM    1  N   UNL     1      -9.708   4.656  68.176  1.00  0.00    -0.152 NA 
HETATM    2  H2  UNL     1      -9.968   3.766  68.602  1.00  0.00     0.000 HD 
HETATM    3  H1  UNL     1      -9.096   4.668  67.360  1.00  0.00     0.000 HD 
HETATM    4  C   UNL     1     -10.180   5.827  68.703  1.00  0.00    -0.197 C  
HETATM    5  H2  UNL     1     -11.214   4.923  70.161  1.00  0.00     0.000 HD 
HETATM    6  N   UNL     1     -10.953   5.813  69.735  1.00  0.00    -0.363 NA 
HETATM    7  H1  UNL     1     -11.305   6.686  70.127  1.00  0.00     0.000 HD 
ENDROOT
BRANCH   4   8
HETATM    8  C   UNL     1      -9.755   7.126  68.111  1.00  0.00    -0.147 A  
HETATM    9  C   UNL     1      -8.477   7.630  68.370  1.00  0.00    -0.125 A  
HETATM   10  C   UNL     1      -8.133   8.913  67.936  1.00  0.00    -0.106 A  
HETATM   11  C   UNL     1      -9.053   9.706  67.235  1.00  0.00    -0.150 A  
HETATM   12  C   UNL     1     -10.657   7.877  67.356  1.00  0.00    -0.342 A  
HETATM   13  C   UNL     1     -10.310   9.165  66.927  1.00  0.00    -0.321 A  
BRANCH  11  14
HETATM   14  C   UNL     1      -8.696  11.106  66.962  1.00  0.00    -0.148 C  
HETATM   15  C   UNL     1      -9.032  12.154  67.728  1.00  0.00    -0.179 C  
BRANCH  15  16
HETATM   16  C   UNL     1      -8.569  13.512  67.420  1.00  0.00    -0.209 A  
HETATM   17  C   UNL     1      -9.300  14.378  66.595  1.00  0.00    -0.278 A  
HETATM   18  C   UNL     1      -8.799  15.629  66.235  1.00  0.00    -0.364 A  
HETATM   19  O   UNL     1     -10.529  14.050  66.089  1.00  0.00    -0.285 OA 
HETATM   20  H   UNL     1     -11.024  14.637  65.529  1.00  0.00     0.000 HD 
HETATM   21  C   UNL     1      -7.560  16.045  66.726  1.00  0.00    -0.247 A  
HETATM   22  C   UNL     1      -6.843  15.212  67.594  1.00  0.00    -0.204 A  
HETATM   23  C   UNL     1      -7.344  13.951  67.937  1.00  0.00    -0.157 A  
BRANCH  21  24
HETATM   24  C   UNL     1      -6.972  17.348  66.306  1.00  0.00    -0.284 C  
HETATM   25  N   UNL     1      -7.739  18.266  65.647  1.00  0.00    -0.508 NA 
HETATM   26  N   UNL     1      -5.746  17.689  66.545  1.00  0.00    -0.176 NA 
HETATM   27  H1  UNL     1      -7.336  19.157  65.359  1.00  0.00     0.000 HD 
HETATM   28  H2  UNL     1      -8.717  18.059  65.442  1.00  0.00     0.000 HD 
HETATM   29  H1  UNL     1      -5.343  18.581  66.257  1.00  0.00     0.000 HD 
HETATM   30  H2  UNL     1      -5.151  17.031  67.048  1.00  0.00     0.000 HD 
ENDBRANCH  21  24
ENDBRANCH  15  16
ENDBRANCH  11  14
ENDBRANCH   4   8
TORSDOF 4
ENDMDL
MODEL       96
REMARK 921   NORMALIZED FREE ENERGY PREDICTED BY IDOCK:   -3.99 KCAL/MOL
REMARK 922        TOTAL FREE ENERGY PREDICTED BY IDOCK:   -5.43 KCAL/MOL
REMARK 923 INTER-LIGAND FREE ENERGY PREDICTED BY IDOCK:   -4.95 KCAL/MOL
REMARK 924 INTRA-LIGAND FREE ENERGY PREDICTED BY IDOCK:   -0.48 KCAL/MOL
REMARK 927      BINDING AFFINITY PREDICTED BY RF-SCORE:    0.00 PKD
ROOT
HETATM    1  N   UNL     1      -7.707   4.799  72.351  1.00  0.00    -0.089 NA 
HETATM    2  H2  UNL     1      -7.328   4.021  72.891  1.00  0.00     0.000 HD 
HETATM    3  H1  UNL     1      -8.185   4.619  71.468  1.00  0.00     0.000 HD 
HETATM    4  C   UNL     1      -7.570   6.079  72.814  1.00  0.00    -0.095 C  
HETATM    5  H2  UNL     1      -6.586   5.529  74.470  1.00  0.00     0.000 HD 
HETATM    6  N   UNL     1      -6.965   6.307  73.930  1.00  0.00    -0.082 NA 
HETATM    7  H1  UNL     1      -6.864   7.262  74.275  1.00  0.00     0.000 HD 
ENDROOT
BRANCH   4   8
HETATM    8  C   UNL     1      -8.078   7.216  71.998  1.00  0.00    -0.100 A  
HETATM    9  C   UNL     1      -9.453   7.445  71.892  1.00  0.00    -0.166 A  
HETATM   10  C   UNL     1      -9.932   8.420  71.013  1.00  0.00    -0.235 A  
HETATM   11  C   UNL     1      -9.050   9.181  70.234  1.00  0.00    -0.247 A  
HETATM   12  C   UNL     1      -7.185   8.014  71.280  1.00  0.00    -0.062 A  
HETATM   13  C   UNL     1      -7.669   8.986  70.395  1.00  0.00    -0.110 A  
BRANCH  11  14
HETATM   14  C   UNL     1      -9.617  10.062  69.202  1.00  0.00    -0.217 C  
HETATM   15  C   UNL     1      -9.143  11.271  68.871  1.00  0.00    -0.064 C  
BRANCH  15  16
HETATM   16  C   UNL     1      -9.727  12.054  67.775  1.00  0.00    -0.192 A  
HETATM   17  C   UNL     1      -9.093  13.190  67.253  1.00  0.00    -0.217 A  
HETATM   18  C   UNL     1      -9.707  13.978  66.279  1.00  0.00    -0.311 A  
HETATM   19  O   UNL     1      -7.855  13.599  67.669  1.00  0.00    -0.145 OA 
HETATM   20  H   UNL     1      -7.425  14.369  67.315  1.00  0.00     0.000 HD 
HETATM   21  C   UNL     1     -10.964  13.616  65.789  1.00  0.00    -0.281 A  
HETATM   22  C   UNL     1     -11.585  12.455  66.264  1.00  0.00    -0.449 A  
HETATM   23  C   UNL     1     -10.970  11.679  67.253  1.00  0.00    -0.318 A  
BRANCH  21  24
HETATM   24  C   UNL     1     -11.671  14.475  64.797  1.00  0.00    -0.422 C  
HETATM   25  N   UNL     1     -11.649  15.834  64.928  1.00  0.00    -0.168 NA 
HETATM   26  N   UNL     1     -12.312  14.005  63.775  1.00  0.00    -0.976 NA 
HETATM   27  H1  UNL     1     -12.134  16.421  64.249  1.00  0.00     0.000 HD 
HETATM   28  H2  UNL     1     -11.148  16.263  65.706  1.00  0.00     0.000 HD 
HETATM   29  H1  UNL     1     -12.797  14.592  63.096  1.00  0.00     0.000 HD 
HETATM   30  H2  UNL     1     -12.335  12.994  63.641  1.00  0.00     0.000 HD 
ENDBRANCH  21  24
ENDBRANCH  15  16
ENDBRANCH  11  14
ENDBRANCH   4   8
TORSDOF 4
ENDMDL
MODEL       97
REMARK 921   NORMALIZED FREE ENERGY PREDICTED BY IDOCK:   -3.67 KCAL/MOL
REMARK 922        TOTAL FREE ENERGY PREDICTED BY IDOCK:   -5.04 KCAL/MOL
REMARK 923 INTER-LIGAND FREE ENERGY PREDICTED BY IDOCK:   -4.53 KCAL/MOL
REMARK 924 INTRA-LIGAND FREE ENERGY PREDICTED BY IDOCK:   -0.51 KCAL/MOL
REMARK 927      BINDING AFFINITY PREDICTED BY RF-SCORE:    0.00 PKD
ROOT
HETATM    1  N   UNL     1     -10.062   3.000  74.561  1.00  0.00    -0.137 NA 
HETATM    2  H2  UNL     1      -9.894   2.224  75.200  1.00  0.00     0.000 HD 
HETATM    3  H1  UNL     1      -9.902   3.958  74.872  1.00  0.00     0.000 HD 
HETATM    4  C   UNL     1     -10.501   2.752  73.289  1.00  0.00    -0.156 C  
HETATM    5  H2  UNL     1     -10.535   0.764  73.534  1.00  0.00     0.000 HD 
HETATM    6  N   UNL     1     -10.703   1.541  72.894  1.00  0.00    -0.140 NA 
HETATM    7  H1  UNL     1     -11.030   1.356  71.945  1.00  0.00     0.000 HD 
ENDROOT
BRANCH   4   8
HETATM    8  C   UNL     1     -10.795   3.890  72.375  1.00  0.00     0.101 A  
HETATM    9  C   UNL     1     -10.056   4.056  71.200  1.00  0.00    -0.112 A  
HETATM   10  C   UNL     1     -10.234   5.201  70.420  1.00  0.00    -0.334 A  
HETATM   11  C   UNL     1     -11.153   6.191  70.795  1.00  0.00    -0.375 A  
HETATM   12  C   UNL     1     -11.762   4.834  72.724  1.00  0.00    -0.027 A  
HETATM   13  C   UNL     1     -11.934   5.984  71.942  1.00  0.00    -0.185 A  
BRANCH  11  14
HETATM   14  C   UNL     1     -11.167   7.449  70.034  1.00  0.00    -0.200 C  
HETATM   15  C   UNL     1     -10.169   8.343  69.998  1.00  0.00    -0.202 C  
BRANCH  15  16
HETATM   16  C   UNL     1     -10.237   9.540  69.150  1.00  0.00    -0.209 A  
HETATM   17  C   UNL     1     -10.808  10.738  69.600  1.00  0.00    -0.241 A  
HETATM   18  C   UNL     1     -10.952  11.835  68.751  1.00  0.00    -0.281 A  
HETATM   19  O   UNL     1     -11.263  10.902  70.881  1.00  0.00    -0.282 OA 
HETATM   20  H   UNL     1     -11.650  11.714  71.186  1.00  0.00     0.000 HD 
HETATM   21  C   UNL     1     -10.495  11.754  67.434  1.00  0.00    -0.238 A  
HETATM   22  C   UNL     1      -9.876  10.580  66.986  1.00  0.00    -0.223 A  
HETATM   23  C   UNL     1      -9.749   9.478  67.840  1.00  0.00    -0.171 A  
BRANCH  21  24
HETATM   24  C   UNL     1     -10.695  12.886  66.486  1.00  0.00    -0.269 C  
HETATM   25  N   UNL     1      -9.626  13.435  65.837  1.00  0.00    -0.480 NA 
HETATM   26  N   UNL     1     -11.855  13.392  66.212  1.00  0.00    -0.374 NA 
HETATM   27  H1  UNL     1      -9.763  14.210  65.190  1.00  0.00     0.000 HD 
HETATM   28  H2  UNL     1      -8.688  13.068  66.002  1.00  0.00     0.000 HD 
HETATM   29  H1  UNL     1     -11.992  14.168  65.564  1.00  0.00     0.000 HD 
HETATM   30  H2  UNL     1     -12.676  12.995  66.669  1.00  0.00     0.000 HD 
ENDBRANCH  21  24
ENDBRANCH  15  16
ENDBRANCH  11  14
ENDBRANCH   4   8
TORSDOF 4
ENDMDL
MODEL       98
REMARK 921   NORMALIZED FREE ENERGY PREDICTED BY IDOCK:   -3.67 KCAL/MOL
REMARK 922        TOTAL FREE ENERGY PREDICTED BY IDOCK:   -5.04 KCAL/MOL
REMARK 923 INTER-LIGAND FREE ENERGY PREDICTED BY IDOCK:   -4.54 KCAL/MOL
REMARK 924 INTRA-LIGAND FREE ENERGY PREDICTED BY IDOCK:   -0.50 KCAL/MOL
REMARK 927      BINDING AFFINITY PREDICTED BY RF-SCORE:    0.00 PKD
ROOT
HETATM    1  N   UNL     1     -11.988  16.112  71.436  1.00  0.00    -0.609 NA 
HETATM    2  H2  UNL     1     -12.288  16.983  71.875  1.00  0.00     0.000 HD 
HETATM    3  H1  UNL     1     -12.160  15.223  71.905  1.00  0.00     0.000 HD 
HETATM    4  C   UNL     1     -11.357  16.143  70.223  1.00  0.00    -0.353 C  
HETATM    5  H2  UNL     1     -11.438  18.139  70.068  1.00  0.00     0.000 HD 
HETATM    6  N   UNL     1     -11.139  17.268  69.630  1.00  0.00    -0.116 NA 
HETATM    7  H1  UNL     1     -10.668  17.290  68.725  1.00  0.00     0.000 HD 
ENDROOT
BRANCH   4   8
HETATM    8  C   UNL     1     -10.873  14.875  69.611  1.00  0.00    -0.269 A  
HETATM    9  C   UNL     1      -9.701  14.865  68.850  1.00  0.00    -0.223 A  
HETATM   10  C   UNL     1      -9.328  13.710  68.157  1.00  0.00    -0.212 A  
HETATM   11  C   UNL     1     -10.114  12.551  68.218  1.00  0.00    -0.228 A  
HETATM   12  C   UNL     1     -11.629  13.707  69.735  1.00  0.00    -0.322 A  
HETATM   13  C   UNL     1     -11.255  12.553  69.034  1.00  0.00    -0.321 A  
BRANCH  11  14
HETATM   14  C   UNL     1      -9.768  11.430  67.330  1.00  0.00    -0.196 C  
HETATM   15  C   UNL     1      -8.522  11.035  67.033  1.00  0.00    -0.141 C  
BRANCH  15  16
HETATM   16  C   UNL     1      -8.266   9.857  66.196  1.00  0.00    -0.118 A  
HETATM   17  C   UNL     1      -7.268   9.846  65.212  1.00  0.00    -0.131 A  
HETATM   18  C   UNL     1      -7.103   8.754  64.360  1.00  0.00    -0.089 A  
HETATM   19  O   UNL     1      -6.412  10.897  65.020  1.00  0.00    -0.366 OA 
HETATM   20  H   UNL     1      -5.735  10.890  64.354  1.00  0.00     0.000 HD 
HETATM   21  C   UNL     1      -7.925   7.635  64.505  1.00  0.00    -0.130 A  
HETATM   22  C   UNL     1      -8.892   7.611  65.518  1.00  0.00    -0.029 A  
HETATM   23  C   UNL     1      -9.063   8.717  66.357  1.00  0.00    -0.221 A  
BRANCH  21  24
HETATM   24  C   UNL     1      -7.814   6.482  63.568  1.00  0.00    -0.110 C  
HETATM   25  N   UNL     1      -8.823   6.215  62.686  1.00  0.00    -0.321 NA 
HETATM   26  N   UNL     1      -6.785   5.697  63.518  1.00  0.00    -0.036 NA 
HETATM   27  H1  UNL     1      -8.747   5.426  62.046  1.00  0.00     0.000 HD 
HETATM   28  H2  UNL     1      -9.654   6.807  62.669  1.00  0.00     0.000 HD 
HETATM   29  H1  UNL     1      -6.709   4.908  62.877  1.00  0.00     0.000 HD 
HETATM   30  H2  UNL     1      -6.008   5.878  64.153  1.00  0.00     0.000 HD 
ENDBRANCH  21  24
ENDBRANCH  15  16
ENDBRANCH  11  14
ENDBRANCH   4   8
TORSDOF 4
ENDMDL
MODEL       99
REMARK 921   NORMALIZED FREE ENERGY PREDICTED BY IDOCK:   -3.65 KCAL/MOL
REMARK 922        TOTAL FREE ENERGY PREDICTED BY IDOCK:   -5.01 KCAL/MOL
REMARK 923 INTER-LIGAND FREE ENERGY PREDICTED BY IDOCK:   -4.63 KCAL/MOL
REMARK 924 INTRA-LIGAND FREE ENERGY PREDICTED BY IDOCK:   -0.37 KCAL/MOL
REMARK 927      BINDING AFFINITY PREDICTED BY RF-SCORE:    0.00 PKD
ROOT
HETATM    1  N   UNL     1      -9.288  15.379  65.620  1.00  0.00    -0.377 NA 
HETATM    2  H2  UNL     1      -9.461  16.169  64.998  1.00  0.00     0.000 HD 
HETATM    3  H1  UNL     1      -8.339  15.178  65.934  1.00  0.00     0.000 HD 
HETATM    4  C   UNL     1     -10.331  14.593  66.028  1.00  0.00    -0.305 C  
HETATM    5  H2  UNL     1     -11.705  15.637  65.009  1.00  0.00     0.000 HD 
HETATM    6  N   UNL     1     -11.532  14.846  65.631  1.00  0.00    -0.325 NA 
HETATM    7  H1  UNL     1     -12.309  14.260  65.936  1.00  0.00     0.000 HD 
ENDROOT
BRANCH   4   8
HETATM    8  C   UNL     1     -10.068  13.410  66.892  1.00  0.00    -0.255 A  
HETATM    9  C   UNL     1      -9.747  12.177  66.316  1.00  0.00    -0.251 A  
HETATM   10  C   UNL     1      -9.644  11.038  67.119  1.00  0.00    -0.189 A  
HETATM   11  C   UNL     1      -9.856  11.112  68.502  1.00  0.00    -0.199 A  
HETATM   12  C   UNL     1     -10.213  13.510  68.277  1.00  0.00    -0.250 A  
HETATM   13  C   UNL     1     -10.116  12.365  69.078  1.00  0.00     0.136 A  
BRANCH  11  14
HETATM   14  C   UNL     1      -9.910   9.855  69.265  1.00  0.00    -0.217 C  
HETATM   15  C   UNL     1     -10.619   8.771  68.920  1.00  0.00    -0.178 C  
BRANCH  15  16
HETATM   16  C   UNL     1     -10.558   7.530  69.701  1.00  0.00    -0.243 A  
HETATM   17  C   UNL     1     -11.005   7.462  71.027  1.00  0.00    -0.251 A  
HETATM   18  C   UNL     1     -10.851   6.302  71.785  1.00  0.00    -0.294 A  
HETATM   19  O   UNL     1     -11.605   8.520  71.656  1.00  0.00    -0.265 OA 
HETATM   20  H   UNL     1     -11.909   8.474  72.555  1.00  0.00     0.000 HD 
HETATM   21  C   UNL     1     -10.265   5.173  71.209  1.00  0.00    -0.292 A  
HETATM   22  C   UNL     1      -9.860   5.210  69.868  1.00  0.00    -0.289 A  
HETATM   23  C   UNL     1     -10.004   6.383  69.119  1.00  0.00    -0.173 A  
BRANCH  21  24
HETATM   24  C   UNL     1     -10.027   3.942  72.014  1.00  0.00    -0.170 C  
HETATM   25  N   UNL     1     -10.867   3.623  73.042  1.00  0.00    -0.147 NA 
HETATM   26  N   UNL     1      -9.055   3.116  71.788  1.00  0.00    -0.097 NA 
HETATM   27  H1  UNL     1     -10.704   2.781  73.594  1.00  0.00     0.000 HD 
HETATM   28  H2  UNL     1     -11.659   4.228  73.260  1.00  0.00     0.000 HD 
HETATM   29  H1  UNL     1      -8.892   2.274  72.339  1.00  0.00     0.000 HD 
HETATM   30  H2  UNL     1      -8.419   3.319  71.018  1.00  0.00     0.000 HD 
ENDBRANCH  21  24
ENDBRANCH  15  16
ENDBRANCH  11  14
ENDBRANCH   4   8
TORSDOF 4
ENDMDL
MODEL      100
REMARK 921   NORMALIZED FREE ENERGY PREDICTED BY IDOCK:   -3.51 KCAL/MOL
REMARK 922        TOTAL FREE ENERGY PREDICTED BY IDOCK:   -4.83 KCAL/MOL
REMARK 923 INTER-LIGAND FREE ENERGY PREDICTED BY IDOCK:   -4.34 KCAL/MOL
REMARK 924 INTRA-LIGAND FREE ENERGY PREDICTED BY IDOCK:   -0.49 KCAL/MOL
REMARK 927      BINDING AFFINITY PREDICTED BY RF-SCORE:    0.00 PKD
ROOT
HETATM    1  N   UNL     1     -10.436  19.532  69.560  1.00  0.00    -0.344 NA 
HETATM    2  H2  UNL     1     -10.737  20.481  69.783  1.00  0.00     0.000 HD 
HETATM    3  H1  UNL     1     -10.372  18.833  70.300  1.00  0.00     0.000 HD 
HETATM    4  C   UNL     1     -10.118  19.204  68.271  1.00  0.00    -0.416 C  
HETATM    5  H2  UNL     1     -10.500  21.037  67.558  1.00  0.00     0.000 HD 
HETATM    6  N   UNL     1     -10.198  20.089  67.335  1.00  0.00    -0.407 NA 
HETATM    7  H1  UNL     1      -9.962  19.843  66.373  1.00  0.00     0.000 HD 
ENDROOT
BRANCH   4   8
HETATM    8  C   UNL     1      -9.628  17.834  67.958  1.00  0.00    -0.291 A  
HETATM    9  C   UNL     1      -8.670  17.642  66.958  1.00  0.00    -0.254 A  
HETATM   10  C   UNL     1      -8.320  16.348  66.566  1.00  0.00    -0.337 A  
HETATM   11  C   UNL     1      -8.914  15.229  67.167  1.00  0.00    -0.227 A  
HETATM   12  C   UNL     1     -10.177  16.729  68.612  1.00  0.00    -0.298 A  
HETATM   13  C   UNL     1      -9.828  15.433  68.212  1.00  0.00    -0.213 A  
BRANCH  11  14
HETATM   14  C   UNL     1      -8.638  13.904  66.593  1.00  0.00     0.040 C  
HETATM   15  C   UNL     1      -8.555  12.761  67.289  1.00  0.00    -0.197 C  
BRANCH  15  16
HETATM   16  C   UNL     1      -8.350  11.469  66.625  1.00  0.00    -0.167 A  
HETATM   17  C   UNL     1      -7.171  10.728  66.786  1.00  0.00    -0.128 A  
HETATM   18  C   UNL     1      -6.953   9.550  66.073  1.00  0.00    -0.091 A  
HETATM   19  O   UNL     1      -6.169  11.116  67.634  1.00  0.00    -0.050 OA 
HETATM   20  H   UNL     1      -5.369  10.614  67.744  1.00  0.00     0.000 HD 
HETATM   21  C   UNL     1      -7.936   9.077  65.202  1.00  0.00    -0.119 A  
HETATM   22  C   UNL     1      -9.141   9.779  65.070  1.00  0.00    -0.280 A  
HETATM   23  C   UNL     1      -9.346  10.969  65.777  1.00  0.00    -0.236 A  
BRANCH  21  24
HETATM   24  C   UNL     1      -7.703   7.857  64.378  1.00  0.00    -0.123 C  
HETATM   25  N   UNL     1      -7.371   7.974  63.059  1.00  0.00    -0.098 NA 
HETATM   26  N   UNL     1      -7.780   6.653  64.848  1.00  0.00    -0.102 NA 
HETATM   27  H1  UNL     1      -7.212   7.139  62.496  1.00  0.00     0.000 HD 
HETATM   28  H2  UNL     1      -7.282   8.898  62.636  1.00  0.00     0.000 HD 
HETATM   29  H1  UNL     1      -7.621   5.818  64.284  1.00  0.00     0.000 HD 
HETATM   30  H2  UNL     1      -8.012   6.532  65.833  1.00  0.00     0.000 HD 
ENDBRANCH  21  24
ENDBRANCH  15  16
ENDBRANCH  11  14
ENDBRANCH   4   8
TORSDOF 4
ENDMDL
MODEL      101
REMARK 921   NORMALIZED FREE ENERGY PREDICTED BY IDOCK:   -3.48 KCAL/MOL
REMARK 922        TOTAL FREE ENERGY PREDICTED BY IDOCK:   -4.80 KCAL/MOL
REMARK 923 INTER-LIGAND FREE ENERGY PREDICTED BY IDOCK:   -4.64 KCAL/MOL
REMARK 924 INTRA-LIGAND FREE ENERGY PREDICTED BY IDOCK:   -0.16 KCAL/MOL
REMARK 927      BINDING AFFINITY PREDICTED BY RF-SCORE:    0.00 PKD
ROOT
HETATM    1  N   UNL     1      -8.497   4.288  65.818  1.00  0.00    -0.113 NA 
HETATM    2  H2  UNL     1      -8.592   3.316  65.524  1.00  0.00     0.000 HD 
HETATM    3  H1  UNL     1      -8.350   4.508  66.803  1.00  0.00     0.000 HD 
HETATM    4  C   UNL     1      -8.569   5.291  64.891  1.00  0.00    -0.145 C  
HETATM    5  H2  UNL     1      -8.851   4.042  63.350  1.00  0.00     0.000 HD 
HETATM    6  N   UNL     1      -8.756   5.014  63.645  1.00  0.00    -0.260 NA 
HETATM    7  H1  UNL     1      -8.810   5.763  62.953  1.00  0.00     0.000 HD 
ENDROOT
BRANCH   4   8
HETATM    8  C   UNL     1      -8.483   6.711  65.331  1.00  0.00    -0.112 A  
HETATM    9  C   UNL     1      -8.952   7.084  66.594  1.00  0.00    -0.157 A  
HETATM   10  C   UNL     1      -9.005   8.434  66.948  1.00  0.00    -0.168 A  
HETATM   11  C   UNL     1      -8.586   9.429  66.053  1.00  0.00    -0.154 A  
HETATM   12  C   UNL     1      -7.999   7.685  64.457  1.00  0.00    -0.130 A  
HETATM   13  C   UNL     1      -8.059   9.039  64.812  1.00  0.00    -0.144 A  
BRANCH  11  14
HETATM   14  C   UNL     1      -8.830  10.834  66.412  1.00  0.00    -0.174 C  
HETATM   15  C   UNL     1     -10.014  11.343  66.781  1.00  0.00    -0.238 C  
BRANCH  15  16
HETATM   16  C   UNL     1     -10.154  12.744  67.196  1.00  0.00    -0.234 A  
HETATM   17  C   UNL     1      -9.316  13.322  68.160  1.00  0.00    -0.220 A  
HETATM   18  C   UNL     1      -9.523  14.624  68.613  1.00  0.00    -0.211 A  
HETATM   19  O   UNL     1      -8.262  12.649  68.717  1.00  0.00    -0.330 OA 
HETATM   20  H   UNL     1      -7.694  13.040  69.371  1.00  0.00     0.000 HD 
HETATM   21  C   UNL     1     -10.566  15.383  68.079  1.00  0.00    -0.263 A  
HETATM   22  C   UNL     1     -11.380  14.837  67.078  1.00  0.00    -0.358 A  
HETATM   23  C   UNL     1     -11.175  13.524  66.640  1.00  0.00    -0.328 A  
BRANCH  21  24
HETATM   24  C   UNL     1     -10.852  16.754  68.591  1.00  0.00    -0.336 C  
HETATM   25  N   UNL     1     -10.717  17.835  67.768  1.00  0.00    -0.375 NA 
HETATM   26  N   UNL     1     -11.249  16.997  69.800  1.00  0.00    -0.189 NA 
HETATM   27  H1  UNL     1     -10.912  18.772  68.119  1.00  0.00     0.000 HD 
HETATM   28  H2  UNL     1     -10.421  17.704  66.801  1.00  0.00     0.000 HD 
HETATM   29  H1  UNL     1     -11.443  17.934  70.150  1.00  0.00     0.000 HD 
HETATM   30  H2  UNL     1     -11.373  16.209  70.435  1.00  0.00     0.000 HD 
ENDBRANCH  21  24
ENDBRANCH  15  16
ENDBRANCH  11  14
ENDBRANCH   4   8
TORSDOF 4
ENDMDL
MODEL      102
REMARK 921   NORMALIZED FREE ENERGY PREDICTED BY IDOCK:   -3.42 KCAL/MOL
REMARK 922        TOTAL FREE ENERGY PREDICTED BY IDOCK:   -4.72 KCAL/MOL
REMARK 923 INTER-LIGAND FREE ENERGY PREDICTED BY IDOCK:   -4.22 KCAL/MOL
REMARK 924 INTRA-LIGAND FREE ENERGY PREDICTED BY IDOCK:   -0.50 KCAL/MOL
REMARK 927      BINDING AFFINITY PREDICTED BY RF-SCORE:    0.00 PKD
ROOT
HETATM    1  N   UNL     1      -5.832   6.531  64.203  1.00  0.00    -0.029 NA 
HETATM    2  H2  UNL     1      -5.391   5.647  63.948  1.00  0.00     0.000 HD 
HETATM    3  H1  UNL     1      -5.290   7.247  64.687  1.00  0.00     0.000 HD 
HETATM    4  C   UNL     1      -7.146   6.751  63.896  1.00  0.00    -0.059 C  
HETATM    5  H2  UNL     1      -7.392   4.961  63.029  1.00  0.00     0.000 HD 
HETATM    6  N   UNL     1      -7.833   5.845  63.284  1.00  0.00    -0.098 NA 
HETATM    7  H1  UNL     1      -8.813   6.010  63.055  1.00  0.00     0.000 HD 
ENDROOT
BRANCH   4   8
HETATM    8  C   UNL     1      -7.800   8.020  64.316  1.00  0.00    -0.137 A  
HETATM    9  C   UNL     1      -7.989   9.052  63.392  1.00  0.00    -0.149 A  
HETATM   10  C   UNL     1      -8.468  10.293  63.820  1.00  0.00    -0.179 A  
HETATM   11  C   UNL     1      -8.770  10.520  65.170  1.00  0.00    -0.197 A  
HETATM   12  C   UNL     1      -8.162   8.212  65.651  1.00  0.00    -0.133 A  
HETATM   13  C   UNL     1      -8.636   9.459  66.078  1.00  0.00    -0.154 A  
BRANCH  11  14
HETATM   14  C   UNL     1      -9.099  11.892  65.586  1.00  0.00     0.017 C  
HETATM   15  C   UNL     1      -9.283  12.293  66.852  1.00  0.00    -0.209 C  
BRANCH  15  16
HETATM   16  C   UNL     1      -9.535  13.700  67.185  1.00  0.00    -0.244 A  
HETATM   17  C   UNL     1     -10.134  14.082  68.393  1.00  0.00    -0.236 A  
HETATM   18  C   UNL     1     -10.455  15.415  68.652  1.00  0.00    -0.237 A  
HETATM   19  O   UNL     1     -10.448  13.183  69.376  1.00  0.00    -0.421 OA 
HETATM   20  H   UNL     1     -10.854  13.442  70.195  1.00  0.00     0.000 HD 
HETATM   21  C   UNL     1     -10.149  16.395  67.707  1.00  0.00    -0.262 A  
HETATM   22  C   UNL     1      -9.503  16.035  66.517  1.00  0.00    -0.297 A  
HETATM   23  C   UNL     1      -9.199  14.693  66.258  1.00  0.00    -0.257 A  
BRANCH  21  24
HETATM   24  C   UNL     1     -10.539  17.817  67.928  1.00  0.00    -0.382 C  
HETATM   25  N   UNL     1     -10.674  18.300  69.198  1.00  0.00    -0.161 NA 
HETATM   26  N   UNL     1     -10.750  18.658  66.967  1.00  0.00    -0.393 NA 
HETATM   27  H1  UNL     1     -10.941  19.272  69.350  1.00  0.00     0.000 HD 
HETATM   28  H2  UNL     1     -10.507  17.687  69.997  1.00  0.00     0.000 HD 
HETATM   29  H1  UNL     1     -11.017  19.631  67.119  1.00  0.00     0.000 HD 
HETATM   30  H2  UNL     1     -10.643  18.332  66.007  1.00  0.00     0.000 HD 
ENDBRANCH  21  24
ENDBRANCH  15  16
ENDBRANCH  11  14
ENDBRANCH   4   8
TORSDOF 4
ENDMDL
MODEL      103
REMARK 921   NORMALIZED FREE ENERGY PREDICTED BY IDOCK:   -2.84 KCAL/MOL
REMARK 922        TOTAL FREE ENERGY PREDICTED BY IDOCK:   -4.01 KCAL/MOL
REMARK 923 INTER-LIGAND FREE ENERGY PREDICTED BY IDOCK:   -3.53 KCAL/MOL
REMARK 924 INTRA-LIGAND FREE ENERGY PREDICTED BY IDOCK:   -0.48 KCAL/MOL
REMARK 927      BINDING AFFINITY PREDICTED BY RF-SCORE:    0.00 PKD
ROOT
HETATM    1  N   UNL     1     -10.797  16.796  69.442  1.00  0.00    -0.312 NA 
HETATM    2  H2  UNL     1     -10.969  17.786  69.619  1.00  0.00     0.000 HD 
HETATM    3  H1  UNL     1     -11.223  16.091  70.044  1.00  0.00     0.000 HD 
HETATM    4  C   UNL     1      -9.995  16.421  68.400  1.00  0.00    -0.238 C  
HETATM    5  H2  UNL     1      -9.628  18.302  67.816  1.00  0.00     0.000 HD 
HETATM    6  N   UNL     1      -9.455  17.312  67.639  1.00  0.00    -0.244 NA 
HETATM    7  H1  UNL     1      -8.857  17.031  66.861  1.00  0.00     0.000 HD 
ENDROOT
BRANCH   4   8
HETATM    8  C   UNL     1      -9.703  14.978  68.176  1.00  0.00    -0.215 A  
HETATM    9  C   UNL     1     -10.740  14.041  68.192  1.00  0.00    -0.254 A  
HETATM   10  C   UNL     1     -10.449  12.676  68.128  1.00  0.00    -0.239 A  
HETATM   11  C   UNL     1      -9.124  12.228  68.041  1.00  0.00    -0.191 A  
HETATM   12  C   UNL     1      -8.384  14.548  68.020  1.00  0.00    -0.153 A  
HETATM   13  C   UNL     1      -8.095  13.178  67.962  1.00  0.00    -0.157 A  
BRANCH  11  14
HETATM   14  C   UNL     1      -8.870  10.783  68.155  1.00  0.00    -0.133 C  
HETATM   15  C   UNL     1      -8.840   9.920  67.130  1.00  0.00    -0.146 C  
BRANCH  15  16
HETATM   16  C   UNL     1      -8.505   8.504  67.326  1.00  0.00    -0.123 A  
HETATM   17  C   UNL     1      -9.463   7.489  67.199  1.00  0.00    -0.154 A  
HETATM   18  C   UNL     1      -9.150   6.160  67.483  1.00  0.00    -0.109 A  
HETATM   19  O   UNL     1     -10.750   7.736  66.805  1.00  0.00    -0.421 OA 
HETATM   20  H   UNL     1     -11.399   7.048  66.719  1.00  0.00     0.000 HD 
HETATM   21  C   UNL     1      -7.853   5.823  67.873  1.00  0.00    -0.097 A  
HETATM   22  C   UNL     1      -6.872   6.820  67.953  1.00  0.00    -0.077 A  
HETATM   23  C   UNL     1      -7.197   8.153  67.683  1.00  0.00    -0.092 A  
BRANCH  21  24
HETATM   24  C   UNL     1      -7.508   4.422  68.246  1.00  0.00    -0.065 C  
HETATM   25  N   UNL     1      -7.407   3.461  67.281  1.00  0.00    -0.059 NA 
HETATM   26  N   UNL     1      -7.272   4.043  69.461  1.00  0.00    -0.049 NA 
HETATM   27  H1  UNL     1      -7.172   2.502  67.536  1.00  0.00     0.000 HD 
HETATM   28  H2  UNL     1      -7.568   3.702  66.303  1.00  0.00     0.000 HD 
HETATM   29  H1  UNL     1      -7.037   3.084  69.717  1.00  0.00     0.000 HD 
HETATM   30  H2  UNL     1      -7.325   4.740  70.204  1.00  0.00     0.000 HD 
ENDBRANCH  21  24
ENDBRANCH  15  16
ENDBRANCH  11  14
ENDBRANCH   4   8
TORSDOF 4
ENDMDL
MODEL      104
REMARK 921   NORMALIZED FREE ENERGY PREDICTED BY IDOCK:   -2.84 KCAL/MOL
REMARK 922        TOTAL FREE ENERGY PREDICTED BY IDOCK:   -4.00 KCAL/MOL
REMARK 923 INTER-LIGAND FREE ENERGY PREDICTED BY IDOCK:   -4.16 KCAL/MOL
REMARK 924 INTRA-LIGAND FREE ENERGY PREDICTED BY IDOCK:    0.16 KCAL/MOL
REMARK 927      BINDING AFFINITY PREDICTED BY RF-SCORE:    0.00 PKD
ROOT
HETATM    1  N   UNL     1     -12.626   6.363  72.288  1.00  0.00    -0.552 NA 
HETATM    2  H2  UNL     1     -13.202   5.655  72.744  1.00  0.00     0.000 HD 
HETATM    3  H1  UNL     1     -13.054   7.228  71.957  1.00  0.00     0.000 HD 
HETATM    4  C   UNL     1     -11.286   6.148  72.124  1.00  0.00    -0.287 C  
HETATM    5  H2  UNL     1     -11.320   4.346  72.998  1.00  0.00     0.000 HD 
HETATM    6  N   UNL     1     -10.745   5.054  72.543  1.00  0.00    -0.215 NA 
HETATM    7  H1  UNL     1      -9.744   4.895  72.420  1.00  0.00     0.000 HD 
ENDROOT
BRANCH   4   8
HETATM    8  C   UNL     1     -10.458   7.161  71.412  1.00  0.00    -0.220 A  
HETATM    9  C   UNL     1      -9.333   7.711  72.034  1.00  0.00    -0.182 A  
HETATM   10  C   UNL     1      -8.645   8.763  71.425  1.00  0.00    -0.254 A  
HETATM   11  C   UNL     1      -9.062   9.276  70.189  1.00  0.00    -0.248 A  
HETATM   12  C   UNL     1     -10.844   7.615  70.149  1.00  0.00    -0.255 A  
HETATM   13  C   UNL     1     -10.154   8.674  69.545  1.00  0.00    -0.203 A  
BRANCH  11  14
HETATM   14  C   UNL     1      -8.409  10.493  69.685  1.00  0.00    -0.010 C  
HETATM   15  C   UNL     1      -8.820  11.213  68.632  1.00  0.00    -0.155 C  
BRANCH  15  16
HETATM   16  C   UNL     1      -8.151  12.460  68.243  1.00  0.00    -0.166 A  
HETATM   17  C   UNL     1      -6.841  12.758  68.644  1.00  0.00    -0.099 A  
HETATM   18  C   UNL     1      -6.256  13.988  68.347  1.00  0.00    -0.102 A  
HETATM   19  O   UNL     1      -6.070  11.876  69.352  1.00  0.00    -0.077 OA 
HETATM   20  H   UNL     1      -5.182  12.078  69.623  1.00  0.00     0.000 HD 
HETATM   21  C   UNL     1      -6.971  14.935  67.611  1.00  0.00    -0.207 A  
HETATM   22  C   UNL     1      -8.262  14.630  67.159  1.00  0.00    -0.227 A  
HETATM   23  C   UNL     1      -8.849  13.400  67.475  1.00  0.00    -0.210 A  
BRANCH  21  24
HETATM   24  C   UNL     1      -6.395  16.281  67.335  1.00  0.00    -0.173 C  
HETATM   25  N   UNL     1      -5.664  16.923  68.293  1.00  0.00    -0.124 NA 
HETATM   26  N   UNL     1      -6.531  16.899  66.205  1.00  0.00    -0.196 NA 
HETATM   27  H1  UNL     1      -5.270  17.844  68.105  1.00  0.00     0.000 HD 
HETATM   28  H2  UNL     1      -5.511  16.480  69.199  1.00  0.00     0.000 HD 
HETATM   29  H1  UNL     1      -6.137  17.821  66.017  1.00  0.00     0.000 HD 
HETATM   30  H2  UNL     1      -7.060  16.440  65.464  1.00  0.00     0.000 HD 
ENDBRANCH  21  24
ENDBRANCH  15  16
ENDBRANCH  11  14
ENDBRANCH   4   8
TORSDOF 4
ENDMDL
MODEL      105
REMARK 921   NORMALIZED FREE ENERGY PREDICTED BY IDOCK:   -2.77 KCAL/MOL
REMARK 922        TOTAL FREE ENERGY PREDICTED BY IDOCK:   -3.92 KCAL/MOL
REMARK 923 INTER-LIGAND FREE ENERGY PREDICTED BY IDOCK:   -3.69 KCAL/MOL
REMARK 924 INTRA-LIGAND FREE ENERGY PREDICTED BY IDOCK:   -0.23 KCAL/MOL
REMARK 927      BINDING AFFINITY PREDICTED BY RF-SCORE:    0.00 PKD
ROOT
HETATM    1  N   UNL     1     -13.874   6.219  72.429  1.00  0.00    -0.332 NA 
HETATM    2  H2  UNL     1     -14.565   5.833  73.073  1.00  0.00     0.000 HD 
HETATM    3  H1  UNL     1     -14.151   6.931  71.754  1.00  0.00     0.000 HD 
HETATM    4  C   UNL     1     -12.580   5.777  72.474  1.00  0.00     0.379 C  
HETATM    5  H2  UNL     1     -12.920   4.490  73.972  1.00  0.00     0.000 HD 
HETATM    6  N   UNL     1     -12.229   4.875  73.328  1.00  0.00    -0.224 NA 
HETATM    7  H1  UNL     1     -11.264   4.546  73.362  1.00  0.00     0.000 HD 
ENDROOT
BRANCH   4   8
HETATM    8  C   UNL     1     -11.586   6.303  71.499  1.00  0.00    -0.345 A  
HETATM    9  C   UNL     1     -11.747   7.580  70.953  1.00  0.00    -0.307 A  
HETATM   10  C   UNL     1     -10.897   8.014  69.932  1.00  0.00    -0.217 A  
HETATM   11  C   UNL     1      -9.875   7.186  69.447  1.00  0.00    -0.161 A  
HETATM   12  C   UNL     1     -10.530   5.495  71.073  1.00  0.00    -0.314 A  
HETATM   13  C   UNL     1      -9.684   5.931  70.045  1.00  0.00    -0.209 A  
BRANCH  11  14
HETATM   14  C   UNL     1      -9.132   7.626  68.257  1.00  0.00    -0.136 C  
HETATM   15  C   UNL     1      -9.658   7.800  67.036  1.00  0.00    -0.238 C  
BRANCH  15  16
HETATM   16  C   UNL     1      -8.857   8.315  65.919  1.00  0.00    -0.197 A  
HETATM   17  C   UNL     1      -7.607   7.775  65.588  1.00  0.00    -0.085 A  
HETATM   18  C   UNL     1      -6.817   8.337  64.586  1.00  0.00    -0.068 A  
HETATM   19  O   UNL     1      -7.086   6.681  66.227  1.00  0.00    -0.064 OA 
HETATM   20  H   UNL     1      -6.239   6.315  66.002  1.00  0.00     0.000 HD 
HETATM   21  C   UNL     1      -7.287   9.443  63.875  1.00  0.00    -0.105 A  
HETATM   22  C   UNL     1      -8.557   9.962  64.160  1.00  0.00    -0.201 A  
HETATM   23  C   UNL     1      -9.336   9.402  65.177  1.00  0.00    -0.288 A  
BRANCH  21  24
HETATM   24  C   UNL     1      -6.437  10.105  62.845  1.00  0.00    -0.134 C  
HETATM   25  N   UNL     1      -6.789  11.327  62.348  1.00  0.00    -0.361 NA 
HETATM   26  N   UNL     1      -5.341   9.591  62.386  1.00  0.00    -0.084 NA 
HETATM   27  H1  UNL     1      -6.208  11.779  61.643  1.00  0.00     0.000 HD 
HETATM   28  H2  UNL     1      -7.636  11.788  62.682  1.00  0.00     0.000 HD 
HETATM   29  H1  UNL     1      -4.760  10.043  61.680  1.00  0.00     0.000 HD 
HETATM   30  H2  UNL     1      -5.043   8.686  62.747  1.00  0.00     0.000 HD 
ENDBRANCH  21  24
ENDBRANCH  15  16
ENDBRANCH  11  14
ENDBRANCH   4   8
TORSDOF 4
ENDMDL
MODEL      106
REMARK 921   NORMALIZED FREE ENERGY PREDICTED BY IDOCK:   -2.62 KCAL/MOL
REMARK 922        TOTAL FREE ENERGY PREDICTED BY IDOCK:   -3.73 KCAL/MOL
REMARK 923 INTER-LIGAND FREE ENERGY PREDICTED BY IDOCK:   -3.24 KCAL/MOL
REMARK 924 INTRA-LIGAND FREE ENERGY PREDICTED BY IDOCK:   -0.49 KCAL/MOL
REMARK 927      BINDING AFFINITY PREDICTED BY RF-SCORE:    0.00 PKD
ROOT
HETATM    1  N   UNL     1     -11.596   2.778  73.497  1.00  0.00    -0.140 NA 
HETATM    2  H2  UNL     1     -11.915   1.814  73.597  1.00  0.00     0.000 HD 
HETATM    3  H1  UNL     1     -12.162   3.541  73.866  1.00  0.00     0.000 HD 
HETATM    4  C   UNL     1     -10.410   3.040  72.866  1.00  0.00    -0.161 C  
HETATM    5  H2  UNL     1     -10.013   1.111  72.499  1.00  0.00     0.000 HD 
HETATM    6  N   UNL     1      -9.694   2.074  72.399  1.00  0.00    -0.100 NA 
HETATM    7  H1  UNL     1      -8.809   2.270  71.929  1.00  0.00     0.000 HD 
ENDROOT
BRANCH   4   8
HETATM    8  C   UNL     1      -9.972   4.450  72.675  1.00  0.00    -0.217 A  
HETATM    9  C   UNL     1     -10.795   5.354  71.996  1.00  0.00    -0.266 A  
HETATM   10  C   UNL     1     -10.322   6.633  71.690  1.00  0.00    -0.227 A  
HETATM   11  C   UNL     1      -9.029   7.029  72.061  1.00  0.00    -0.138 A  
HETATM   12  C   UNL     1      -8.709   4.854  73.110  1.00  0.00    -0.109 A  
HETATM   13  C   UNL     1      -8.236   6.135  72.796  1.00  0.00    -0.117 A  
BRANCH  11  14
HETATM   14  C   UNL     1      -8.526   8.316  71.558  1.00  0.00    -0.179 C  
HETATM   15  C   UNL     1      -8.306   8.610  70.269  1.00  0.00    -0.129 C  
BRANCH  15  16
HETATM   16  C   UNL     1      -7.874   9.948  69.847  1.00  0.00    -0.182 A  
HETATM   17  C   UNL     1      -8.572  10.685  68.881  1.00  0.00    -0.158 A  
HETATM   18  C   UNL     1      -8.094  11.912  68.422  1.00  0.00    -0.155 A  
HETATM   19  O   UNL     1      -9.745  10.248  68.327  1.00  0.00    -0.139 OA 
HETATM   20  H   UNL     1     -10.219  10.747  67.673  1.00  0.00     0.000 HD 
HETATM   21  C   UNL     1      -6.913  12.436  68.951  1.00  0.00    -0.091 A  
HETATM   22  C   UNL     1      -6.233  11.735  69.955  1.00  0.00    -0.141 A  
HETATM   23  C   UNL     1      -6.710  10.497  70.399  1.00  0.00    -0.069 A  
BRANCH  21  24
HETATM   24  C   UNL     1      -6.345  13.713  68.433  1.00  0.00    -0.098 C  
HETATM   25  N   UNL     1      -5.499  13.701  67.361  1.00  0.00    -0.339 NA 
HETATM   26  N   UNL     1      -6.621  14.874  68.935  1.00  0.00    -0.087 NA 
HETATM   27  H1  UNL     1      -5.110  14.574  67.006  1.00  0.00     0.000 HD 
HETATM   28  H2  UNL     1      -5.256  12.817  66.914  1.00  0.00     0.000 HD 
HETATM   29  H1  UNL     1      -6.232  15.747  68.581  1.00  0.00     0.000 HD 
HETATM   30  H2  UNL     1      -7.261  14.918  69.728  1.00  0.00     0.000 HD 
ENDBRANCH  21  24
ENDBRANCH  15  16
ENDBRANCH  11  14
ENDBRANCH   4   8
TORSDOF 4
ENDMDL
MODEL      107
REMARK 921   NORMALIZED FREE ENERGY PREDICTED BY IDOCK:   -0.07 KCAL/MOL
REMARK 922        TOTAL FREE ENERGY PREDICTED BY IDOCK:   -0.59 KCAL/MOL
REMARK 923 INTER-LIGAND FREE ENERGY PREDICTED BY IDOCK:   -0.34 KCAL/MOL
REMARK 924 INTRA-LIGAND FREE ENERGY PREDICTED BY IDOCK:   -0.25 KCAL/MOL
REMARK 927      BINDING AFFINITY PREDICTED BY RF-SCORE:    0.00 PKD
ROOT
HETATM    1  N   UNL     1      -7.874  14.628  65.870  1.00  0.00     1.598 NA 
HETATM    2  H2  UNL     1      -8.014  15.509  65.374  1.00  0.00     0.000 HD 
HETATM    3  H1  UNL     1      -6.965  14.168  65.840  1.00  0.00     0.000 HD 
HETATM    4  C   UNL     1      -8.908  14.070  66.571  1.00  0.00    -0.020 C  
HETATM    5  H2  UNL     1     -10.199  15.532  66.113  1.00  0.00     0.000 HD 
HETATM    6  N   UNL     1     -10.059  14.651  66.609  1.00  0.00    -0.266 NA 
HETATM    7  H1  UNL     1     -10.830  14.235  67.132  1.00  0.00     0.000 HD 
ENDROOT
BRANCH   4   8
HETATM    8  C   UNL     1      -8.716  12.759  67.250  1.00  0.00    -0.200 A  
HETATM    9  C   UNL     1      -8.632  11.584  66.496  1.00  0.00    -0.172 A  
HETATM   10  C   UNL     1      -8.599  10.344  67.139  1.00  0.00    -0.130 A  
HETATM   11  C   UNL     1      -8.642  10.258  68.538  1.00  0.00    -0.126 A  
HETATM   12  C   UNL     1      -8.690  12.691  68.644  1.00  0.00     0.049 A  
HETATM   13  C   UNL     1      -8.662  11.446  69.285  1.00  0.00     0.323 A  
BRANCH  11  14
HETATM   14  C   UNL     1      -8.783   8.927  69.148  1.00  0.00    -0.132 C  
HETATM   15  C   UNL     1      -7.879   7.941  69.070  1.00  0.00    -0.110 C  
BRANCH  15  16
HETATM   16  C   UNL     1      -8.066   6.667  69.773  1.00  0.00    -0.126 A  
HETATM   17  C   UNL     1      -9.212   5.879  69.593  1.00  0.00    -0.136 A  
HETATM   18  C   UNL     1      -9.419   4.720  70.341  1.00  0.00    -0.241 A  
HETATM   19  O   UNL     1     -10.191   6.200  68.691  1.00  0.00    -0.152 OA 
HETATM   20  H   UNL     1     -10.967   5.666  68.568  1.00  0.00     0.000 HD 
HETATM   21  C   UNL     1      -8.457   4.315  71.268  1.00  0.00    -0.111 A  
HETATM   22  C   UNL     1      -7.283   5.064  71.422  1.00  0.00    -0.065 A  
HETATM   23  C   UNL     1      -7.090   6.235  70.679  1.00  0.00    -0.069 A  
BRANCH  21  24
HETATM   24  C   UNL     1      -8.682   3.118  72.127  1.00  0.00    -0.082 C  
HETATM   25  N   UNL     1      -9.519   2.123  71.710  1.00  0.00    -0.107 NA 
HETATM   26  N   UNL     1      -8.106   2.943  73.273  1.00  0.00    -0.067 NA 
HETATM   27  H1  UNL     1      -9.674   1.305  72.298  1.00  0.00     0.000 HD 
HETATM   28  H2  UNL     1      -9.991   2.199  70.809  1.00  0.00     0.000 HD 
HETATM   29  H1  UNL     1      -8.260   2.124  73.862  1.00  0.00     0.000 HD 
HETATM   30  H2  UNL     1      -7.464   3.661  73.607  1.00  0.00     0.000 HD 
ENDBRANCH  21  24
ENDBRANCH  15  16
ENDBRANCH  11  14
ENDBRANCH   4   8
TORSDOF 4
ENDMDL
MODEL      108
REMARK 921   NORMALIZED FREE ENERGY PREDICTED BY IDOCK:    2.81 KCAL/MOL
REMARK 922        TOTAL FREE ENERGY PREDICTED BY IDOCK:    2.96 KCAL/MOL
REMARK 923 INTER-LIGAND FREE ENERGY PREDICTED BY IDOCK:    3.37 KCAL/MOL
REMARK 924 INTRA-LIGAND FREE ENERGY PREDICTED BY IDOCK:   -0.41 KCAL/MOL
REMARK 927      BINDING AFFINITY PREDICTED BY RF-SCORE:    0.00 PKD
ROOT
HETATM    1  N   UNL     1      -7.329  13.659  66.902  1.00  0.00    -0.282 NA 
HETATM    2  H2  UNL     1      -7.361  14.487  66.307  1.00  0.00     0.000 HD 
HETATM    3  H1  UNL     1      -6.475  13.104  66.952  1.00  0.00     0.000 HD 
HETATM    4  C   UNL     1      -8.430  13.300  67.629  1.00  0.00    -0.191 C  
HETATM    5  H2  UNL     1      -9.543  14.830  66.971  1.00  0.00     0.000 HD 
HETATM    6  N   UNL     1      -9.510  14.003  67.567  1.00  0.00    -0.215 NA 
HETATM    7  H1  UNL     1     -10.331  13.734  68.110  1.00  0.00     0.000 HD 
ENDROOT
BRANCH   4   8
HETATM    8  C   UNL     1      -8.396  12.062  68.456  1.00  0.00    -0.104 A  
HETATM    9  C   UNL     1      -8.416  10.807  67.841  1.00  0.00    -0.122 A  
HETATM   10  C   UNL     1      -8.532   9.651  68.618  1.00  0.00    -0.119 A  
HETATM   11  C   UNL     1      -8.623   9.731  70.015  1.00  0.00    -0.229 A  
HETATM   12  C   UNL     1      -8.417  12.152  69.849  1.00  0.00     2.543 A  
HETATM   13  C   UNL     1      -8.539  10.992  70.625  1.00  0.00     3.546 A  
BRANCH  11  14
HETATM   14  C   UNL     1      -8.921   8.499  70.762  1.00  0.00    -0.193 C  
HETATM   15  C   UNL     1     -10.014   7.741  70.600  1.00  0.00    -0.186 C  
BRANCH  15  16
HETATM   16  C   UNL     1     -10.196   6.485  71.337  1.00  0.00    -0.221 A  
HETATM   17  C   UNL     1      -9.491   5.320  71.006  1.00  0.00    -0.161 A  
HETATM   18  C   UNL     1      -9.746   4.111  71.652  1.00  0.00    -0.246 A  
HETATM   19  O   UNL     1      -8.527   5.294  70.034  1.00  0.00    -0.098 OA 
HETATM   20  H   UNL     1      -8.049   4.504  69.810  1.00  0.00     0.000 HD 
HETATM   21  C   UNL     1     -10.702   4.059  72.669  1.00  0.00    -0.133 A  
HETATM   22  C   UNL     1     -11.378   5.227  73.046  1.00  0.00    -0.376 A  
HETATM   23  C   UNL     1     -11.127   6.433  72.381  1.00  0.00    -0.303 A  
BRANCH  21  24
HETATM   24  C   UNL     1     -11.042   2.768  73.331  1.00  0.00    -0.181 C  
HETATM   25  N   UNL     1     -10.290   1.654  73.088  1.00  0.00    -0.101 NA 
HETATM   26  N   UNL     1     -12.024   2.628  74.163  1.00  0.00     0.743 NA 
HETATM   27  H1  UNL     1     -10.524   0.771  73.540  1.00  0.00     0.000 HD 
HETATM   28  H2  UNL     1      -9.495   1.706  72.451  1.00  0.00     0.000 HD 
HETATM   29  H1  UNL     1     -12.258   1.745  74.616  1.00  0.00     0.000 HD 
HETATM   30  H2  UNL     1     -12.596   3.445  74.377  1.00  0.00     0.000 HD 
ENDBRANCH  21  24
ENDBRANCH  15  16
ENDBRANCH  11  14
ENDBRANCH   4   8
TORSDOF 4
ENDMDL
