MODEL        1
REMARK 921   NORMALIZED FREE ENERGY PREDICTED BY IDOCK:   -5.84 KCAL/MOL
REMARK 922        TOTAL FREE ENERGY PREDICTED BY IDOCK:  -21.08 KCAL/MOL
REMARK 923 INTER-LIGAND FREE ENERGY PREDICTED BY IDOCK:  -15.39 KCAL/MOL
REMARK 924 INTRA-LIGAND FREE ENERGY PREDICTED BY IDOCK:   -5.69 KCAL/MOL
REMARK 927      BINDING AFFINITY PREDICTED BY RF-SCORE:    0.00 PKD
ROOT
HETATM    1  C   UNL     1      -8.578  10.720  62.444  1.00  0.00    -0.322 C  
HETATM    2  C   UNL     1      -8.391   9.715  63.568  1.00  0.00    -0.172 C  
HETATM    3  O   UNL     1      -8.993   8.480  63.180  1.00  0.00    -0.378 OA 
HETATM    4  H   UNL     1      -8.877   7.851  63.883  1.00  0.00     0.000 HD 
ENDROOT
BRANCH   2   5
HETATM    5  C   UNL     1      -6.914   9.495  63.929  1.00  0.00    -0.105 C  
BRANCH   5   6
HETATM    6  O   UNL     1      -6.728   9.433  65.354  1.00  0.00    -0.075 OA 
BRANCH   6   7
HETATM    7  C   UNL     1      -7.477  10.462  66.022  1.00  0.00    -0.134 C  
BRANCH   7   8
HETATM    8  C   UNL     1      -7.450  10.261  67.558  1.00  0.00    -0.090 C  
HETATM    9  O   UNL     1      -8.079  11.356  68.264  1.00  0.00    -0.128 OA 
HETATM   10  C   UNL     1      -9.479  11.495  68.066  1.00  0.00    -0.181 C  
HETATM   11  C   UNL     1     -10.199  10.189  68.542  1.00  0.00    -0.174 C  
HETATM   12  C   UNL     1      -9.600   8.958  67.802  1.00  0.00    -0.147 C  
HETATM   13  C   UNL     1      -8.060   8.903  68.013  1.00  0.00    -0.106 C  
BRANCH  10  14
HETATM   14  O   UNL     1     -10.033  12.654  68.738  1.00  0.00    -0.144 OA 
BRANCH  14  15
HETATM   15  C   UNL     1     -10.958  13.487  67.994  1.00  0.00    -0.251 C  
HETATM   16  C   UNL     1     -11.724  14.445  68.973  1.00  0.00    -0.310 C  
HETATM   17  C   UNL     1     -10.014  16.096  68.901  1.00  0.00    -0.233 C  
HETATM   18  O   UNL     1     -10.744  15.188  69.731  1.00  0.00    -0.259 OA 
HETATM   19  C   UNL     1      -9.261  15.350  67.763  1.00  0.00    -0.183 C  
HETATM   20  C   UNL     1     -10.253  14.436  66.969  1.00  0.00    -0.263 C  
BRANCH  16  21
HETATM   21  C   UNL     1     -12.737  13.827  69.957  1.00  0.00    -0.022 C  
BRANCH  21  22
HETATM   22  O   UNL     1     -13.432  14.909  70.638  1.00  0.00    -0.296 OA 
BRANCH  22  23
HETATM   23  C   UNL     1     -13.714  14.623  72.011  1.00  0.00    -0.430 C  
BRANCH  23  24
HETATM   24  C   UNL     1     -13.160  15.700  72.971  1.00  0.00    -0.536 C  
HETATM   25  H   UNL     1     -11.865  17.157  72.845  1.00  0.00     0.000 HD 
HETATM   26  C   UNL     1     -12.488  15.147  74.223  1.00  0.00    -0.636 C  
HETATM   27  O   UNL     1     -12.205  16.495  72.254  1.00  0.00    -0.388 OA 
ENDBRANCH  23  24
ENDBRANCH  22  23
ENDBRANCH  21  22
ENDBRANCH  16  21
BRANCH  17  28
HETATM   28  O   UNL     1     -10.860  17.120  68.367  1.00  0.00    -0.367 OA 
BRANCH  28  29
HETATM   29  C   UNL     1     -10.229  18.398  68.278  1.00  0.00    -0.384 C  
BRANCH  29  30
HETATM   30  C   UNL     1     -10.584  19.160  66.994  1.00  0.00    -0.457 C  
HETATM   31  O   UNL     1     -10.463  18.306  65.858  1.00  0.00    -0.532 OA 
HETATM   32  C   UNL     1      -9.695  20.381  66.801  1.00  0.00    -0.528 C  
HETATM   33  H   UNL     1     -10.682  18.778  65.063  1.00  0.00     0.000 HD 
ENDBRANCH  29  30
ENDBRANCH  28  29
ENDBRANCH  17  28
BRANCH  19  34
HETATM   34  O   UNL     1      -8.545  16.197  66.846  1.00  0.00    -0.183 OA 
BRANCH  34  35
HETATM   35  C   UNL     1      -7.185  16.468  67.185  1.00  0.00    -0.188 C  
BRANCH  35  36
HETATM   36  C   UNL     1      -6.731  17.730  66.431  1.00  0.00    -0.246 C  
HETATM   37  H   UNL     1      -7.363  18.795  64.900  1.00  0.00     0.000 HD 
HETATM   38  C   UNL     1      -5.334  17.590  65.845  1.00  0.00    -0.126 C  
HETATM   39  O   UNL     1      -7.643  18.016  65.365  1.00  0.00    -0.412 OA 
ENDBRANCH  35  36
ENDBRANCH  34  35
ENDBRANCH  19  34
BRANCH  20  40
HETATM   40  O   UNL     1     -11.297  15.144  66.256  1.00  0.00    -0.317 OA 
BRANCH  40  41
HETATM   41  C   UNL     1     -11.146  15.107  64.832  1.00  0.00    -0.414 C  
BRANCH  41  42
HETATM   42  C   UNL     1     -12.194  14.172  64.221  1.00  0.00    -0.420 C  
HETATM   43  C   UNL     1     -11.608  12.851  63.763  1.00  0.00    -0.538 C  
HETATM   44  O   UNL     1     -13.211  13.902  65.190  1.00  0.00    -0.768 OA 
HETATM   45  H   UNL     1     -13.861  13.322  64.810  1.00  0.00     0.000 HD 
ENDBRANCH  41  42
ENDBRANCH  40  41
ENDBRANCH  20  40
ENDBRANCH  14  15
ENDBRANCH  10  14
BRANCH  11  46
HETATM   46  O   UNL     1     -10.145   9.943  69.962  1.00  0.00    -0.240 OA 
BRANCH  46  47
HETATM   47  C   UNL     1     -11.291  10.288  70.747  1.00  0.00    -0.337 C  
BRANCH  47  48
HETATM   48  C   UNL     1     -11.955   9.106  71.480  1.00  0.00    -0.352 C  
HETATM   49  C   UNL     1     -13.451   9.309  71.651  1.00  0.00    -0.465 C  
HETATM   50  O   UNL     1     -11.827   7.875  70.755  1.00  0.00    -0.393 OA 
HETATM   51  H   UNL     1     -12.237   7.147  71.208  1.00  0.00     0.000 HD 
ENDBRANCH  47  48
ENDBRANCH  46  47
ENDBRANCH  11  46
BRANCH  12  52
HETATM   52  O   UNL     1     -10.190   7.671  68.118  1.00  0.00    -0.183 OA 
BRANCH  52  53
HETATM   53  C   UNL     1     -11.020   7.113  67.096  1.00  0.00    -0.272 C  
BRANCH  53  54
HETATM   54  C   UNL     1     -10.249   6.116  66.211  1.00  0.00     0.050 C  
HETATM   55  O   UNL     1     -11.135   5.123  65.690  1.00  0.00    -0.763 OA 
HETATM   56  C   UNL     1      -9.104   5.405  66.912  1.00  0.00    -0.114 C  
HETATM   57  H   UNL     1     -10.659   4.508  65.144  1.00  0.00     0.000 HD 
ENDBRANCH  53  54
ENDBRANCH  52  53
ENDBRANCH  12  52
BRANCH  13  58
HETATM   58  O   UNL     1      -7.652   8.713  69.389  1.00  0.00    -0.088 OA 
BRANCH  58  59
HETATM   59  C   UNL     1      -7.090   7.429  69.695  1.00  0.00    -0.072 C  
BRANCH  59  60
HETATM   60  C   UNL     1      -7.774   6.831  70.941  1.00  0.00    -0.093 C  
HETATM   61  O   UNL     1      -9.183   7.067  70.859  1.00  0.00    -0.156 OA 
HETATM   62  H   UNL     1      -9.605   6.699  71.627  1.00  0.00     0.000 HD 
HETATM   63  C   UNL     1      -7.262   7.423  72.235  1.00  0.00    -0.068 C  
ENDBRANCH  59  60
ENDBRANCH  58  59
ENDBRANCH  13  58
ENDBRANCH   7   8
ENDBRANCH   6   7
ENDBRANCH   5   6
ENDBRANCH   2   5
TORSDOF 28
ENDMDL
MODEL        2
REMARK 921   NORMALIZED FREE ENERGY PREDICTED BY IDOCK:   -5.43 KCAL/MOL
REMARK 922        TOTAL FREE ENERGY PREDICTED BY IDOCK:  -20.01 KCAL/MOL
REMARK 923 INTER-LIGAND FREE ENERGY PREDICTED BY IDOCK:  -14.78 KCAL/MOL
REMARK 924 INTRA-LIGAND FREE ENERGY PREDICTED BY IDOCK:   -5.23 KCAL/MOL
REMARK 927      BINDING AFFINITY PREDICTED BY RF-SCORE:    0.00 PKD
ROOT
HETATM    1  C   UNL     1     -10.444  19.841  65.846  1.00  0.00    -0.587 C  
HETATM    2  C   UNL     1     -10.543  18.333  66.003  1.00  0.00    -0.296 C  
HETATM    3  O   UNL     1     -11.050  17.780  64.787  1.00  0.00    -0.852 OA 
HETATM    4  H   UNL     1     -11.112  16.838  64.885  1.00  0.00     0.000 HD 
ENDROOT
BRANCH   2   5
HETATM    5  C   UNL     1      -9.197  17.683  66.359  1.00  0.00    -0.244 C  
BRANCH   5   6
HETATM    6  O   UNL     1      -8.969  16.493  65.583  1.00  0.00    -0.449 OA 
BRANCH   6   7
HETATM    7  C   UNL     1      -8.754  15.352  66.432  1.00  0.00    -0.272 C  
BRANCH   7   8
HETATM    8  C   UNL     1      -9.979  14.403  66.407  1.00  0.00    -0.294 C  
HETATM    9  O   UNL     1      -9.660  13.087  66.918  1.00  0.00    -0.228 OA 
HETATM   10  C   UNL     1      -9.337  13.024  68.300  1.00  0.00    -0.199 C  
HETATM   11  C   UNL     1     -10.553  13.543  69.138  1.00  0.00    -0.024 C  
HETATM   12  C   UNL     1     -10.942  14.975  68.670  1.00  0.00    -0.257 C  
HETATM   13  C   UNL     1     -11.223  14.982  67.141  1.00  0.00    -0.336 C  
BRANCH  10  14
HETATM   14  O   UNL     1      -8.955  11.693  68.732  1.00  0.00    -0.122 OA 
BRANCH  14  15
HETATM   15  C   UNL     1      -8.881  10.653  67.724  1.00  0.00    -0.133 C  
HETATM   16  C   UNL     1      -7.382  10.344  67.381  1.00  0.00    -0.093 C  
HETATM   17  C   UNL     1      -7.161   8.782  69.160  1.00  0.00    -0.067 C  
HETATM   18  O   UNL     1      -6.698  10.019  68.611  1.00  0.00    -0.053 OA 
HETATM   19  C   UNL     1      -8.685   8.829  69.468  1.00  0.00    -0.138 C  
HETATM   20  C   UNL     1      -9.477   9.286  68.198  1.00  0.00    -0.138 C  
BRANCH  16  21
HETATM   21  C   UNL     1      -6.565  11.420  66.637  1.00  0.00    -0.114 C  
BRANCH  21  22
HETATM   22  O   UNL     1      -6.122  10.862  65.369  1.00  0.00    -0.085 OA 
BRANCH  22  23
HETATM   23  C   UNL     1      -6.709   9.590  65.077  1.00  0.00    -0.089 C  
BRANCH  23  24
HETATM   24  C   UNL     1      -7.589   9.617  63.806  1.00  0.00    -0.126 C  
HETATM   25  H   UNL     1      -7.484  10.457  62.046  1.00  0.00     0.000 HD 
HETATM   26  C   UNL     1      -9.002  10.144  64.027  1.00  0.00    -0.265 C  
HETATM   27  O   UNL     1      -6.942  10.441  62.827  1.00  0.00    -0.137 OA 
ENDBRANCH  23  24
ENDBRANCH  22  23
ENDBRANCH  21  22
ENDBRANCH  16  21
BRANCH  17  28
HETATM   28  O   UNL     1      -6.847   7.675  68.309  1.00  0.00    -0.063 OA 
BRANCH  28  29
HETATM   29  C   UNL     1      -6.056   6.669  68.943  1.00  0.00    -0.026 C  
BRANCH  29  30
HETATM   30  C   UNL     1      -6.872   5.448  69.387  1.00  0.00    -0.057 C  
HETATM   31  O   UNL     1      -7.191   5.539  70.774  1.00  0.00    -0.069 OA 
HETATM   32  C   UNL     1      -6.124   4.148  69.128  1.00  0.00    -0.027 C  
HETATM   33  H   UNL     1      -7.696   4.782  71.049  1.00  0.00     0.000 HD 
ENDBRANCH  29  30
ENDBRANCH  28  29
ENDBRANCH  17  28
BRANCH  19  34
HETATM   34  O   UNL     1      -9.245   7.603  69.973  1.00  0.00    -0.151 OA 
BRANCH  34  35
HETATM   35  C   UNL     1     -10.529   7.715  70.588  1.00  0.00    -0.216 C  
BRANCH  35  36
HETATM   36  C   UNL     1     -10.407   7.292  72.062  1.00  0.00    -0.192 C  
HETATM   37  H   UNL     1      -8.962   6.766  73.292  1.00  0.00     0.000 HD 
HETATM   38  C   UNL     1     -11.226   6.051  72.383  1.00  0.00    -0.338 C  
HETATM   39  O   UNL     1      -9.037   7.027  72.381  1.00  0.00    -0.133 OA 
ENDBRANCH  35  36
ENDBRANCH  34  35
ENDBRANCH  19  34
BRANCH  20  40
HETATM   40  O   UNL     1      -9.403   8.376  67.073  1.00  0.00    -0.145 OA 
BRANCH  40  41
HETATM   41  C   UNL     1     -10.456   7.404  67.049  1.00  0.00    -0.333 C  
BRANCH  41  42
HETATM   42  C   UNL     1      -9.864   5.998  66.917  1.00  0.00    -0.158 C  
HETATM   43  C   UNL     1     -10.719   5.077  66.070  1.00  0.00    -0.241 C  
HETATM   44  O   UNL     1      -8.567   6.084  66.319  1.00  0.00    -0.127 OA 
HETATM   45  H   UNL     1      -8.200   5.211  66.238  1.00  0.00     0.000 HD 
ENDBRANCH  41  42
ENDBRANCH  40  41
ENDBRANCH  20  40
ENDBRANCH  14  15
ENDBRANCH  10  14
BRANCH  11  46
HETATM   46  O   UNL     1     -11.729  12.709  69.091  1.00  0.00    -0.290 OA 
BRANCH  46  47
HETATM   47  C   UNL     1     -12.356  12.363  70.331  1.00  0.00    -0.227 C  
BRANCH  47  48
HETATM   48  C   UNL     1     -12.183  10.893  70.758  1.00  0.00    -0.383 C  
HETATM   49  C   UNL     1     -13.074  10.532  71.934  1.00  0.00    -0.567 C  
HETATM   50  O   UNL     1     -12.553   9.977  69.717  1.00  0.00    -0.443 OA 
HETATM   51  H   UNL     1     -12.446   9.071  69.981  1.00  0.00     0.000 HD 
ENDBRANCH  47  48
ENDBRANCH  46  47
ENDBRANCH  11  46
BRANCH  12  52
HETATM   52  O   UNL     1     -12.040  15.605  69.379  1.00  0.00    -0.356 OA 
BRANCH  52  53
HETATM   53  C   UNL     1     -11.807  15.854  70.768  1.00  0.00    -0.391 C  
BRANCH  53  54
HETATM   54  C   UNL     1     -12.929  15.277  71.651  1.00  0.00    -0.408 C  
HETATM   55  O   UNL     1     -14.197  15.436  71.012  1.00  0.00    -0.794 OA 
HETATM   56  C   UNL     1     -13.020  15.892  73.037  1.00  0.00    -0.630 C  
HETATM   57  H   UNL     1     -14.889  15.080  71.556  1.00  0.00     0.000 HD 
ENDBRANCH  53  54
ENDBRANCH  52  53
ENDBRANCH  12  52
BRANCH  13  58
HETATM   58  O   UNL     1     -12.351  14.167  66.737  1.00  0.00    -0.438 OA 
BRANCH  58  59
HETATM   59  C   UNL     1     -12.641  14.168  65.332  1.00  0.00    -0.466 C  
BRANCH  59  60
HETATM   60  C   UNL     1     -12.636  12.727  64.786  1.00  0.00    -0.446 C  
HETATM   61  O   UNL     1     -12.059  11.857  65.767  1.00  0.00    -0.451 OA 
HETATM   62  H   UNL     1     -12.055  10.969  65.430  1.00  0.00     0.000 HD 
HETATM   63  C   UNL     1     -11.853  12.586  63.499  1.00  0.00    -0.616 C  
ENDBRANCH  59  60
ENDBRANCH  58  59
ENDBRANCH  13  58
ENDBRANCH   7   8
ENDBRANCH   6   7
ENDBRANCH   5   6
ENDBRANCH   2   5
TORSDOF 28
ENDMDL
MODEL        3
REMARK 921   NORMALIZED FREE ENERGY PREDICTED BY IDOCK:   -5.19 KCAL/MOL
REMARK 922        TOTAL FREE ENERGY PREDICTED BY IDOCK:  -19.38 KCAL/MOL
REMARK 923 INTER-LIGAND FREE ENERGY PREDICTED BY IDOCK:  -13.96 KCAL/MOL
REMARK 924 INTRA-LIGAND FREE ENERGY PREDICTED BY IDOCK:   -5.42 KCAL/MOL
REMARK 927      BINDING AFFINITY PREDICTED BY RF-SCORE:    0.00 PKD
ROOT
HETATM    1  C   UNL     1     -10.469  19.374  65.910  1.00  0.00    -0.561 C  
HETATM    2  C   UNL     1     -10.527  17.860  66.028  1.00  0.00    -0.293 C  
HETATM    3  O   UNL     1     -10.833  17.314  64.743  1.00  0.00    -0.863 OA 
HETATM    4  H   UNL     1     -10.869  16.368  64.817  1.00  0.00     0.000 HD 
ENDROOT
BRANCH   2   5
HETATM    5  C   UNL     1      -9.221  17.254  66.564  1.00  0.00    -0.261 C  
BRANCH   5   6
HETATM    6  O   UNL     1      -8.924  16.001  65.923  1.00  0.00    -0.326 OA 
BRANCH   6   7
HETATM    7  C   UNL     1      -8.864  14.929  66.880  1.00  0.00    -0.258 C  
BRANCH   7   8
HETATM    8  C   UNL     1      -9.866  13.804  66.516  1.00  0.00    -0.290 C  
HETATM    9  O   UNL     1      -9.378  12.495  66.896  1.00  0.00    -0.206 OA 
HETATM   10  C   UNL     1      -9.255  12.264  68.292  1.00  0.00    -0.189 C  
HETATM   11  C   UNL     1     -10.658  12.427  68.967  1.00  0.00    -0.049 C  
HETATM   12  C   UNL     1     -11.242  13.831  68.633  1.00  0.00    -0.278 C  
HETATM   13  C   UNL     1     -11.292  14.038  67.093  1.00  0.00    -0.331 C  
BRANCH  10  14
HETATM   14  O   UNL     1      -8.691  10.964  68.603  1.00  0.00    -0.142 OA 
BRANCH  14  15
HETATM   15  C   UNL     1      -8.788   9.929  67.594  1.00  0.00    -0.125 C  
HETATM   16  C   UNL     1      -7.352   9.468  67.158  1.00  0.00    -0.088 C  
HETATM   17  C   UNL     1      -7.185   7.881  68.921  1.00  0.00    -0.076 C  
HETATM   18  O   UNL     1      -6.631   9.067  68.344  1.00  0.00    -0.058 OA 
HETATM   19  C   UNL     1      -8.674   8.084  69.322  1.00  0.00    -0.137 C  
HETATM   20  C   UNL     1      -9.492   8.627  68.104  1.00  0.00    -0.141 C  
BRANCH  16  21
HETATM   21  C   UNL     1      -6.476  10.459  66.365  1.00  0.00    -0.097 C  
BRANCH  21  22
HETATM   22  O   UNL     1      -5.454  10.982  67.259  1.00  0.00    -0.041 OA 
BRANCH  22  23
HETATM   23  C   UNL     1      -5.590  12.384  67.510  1.00  0.00    -0.130 C  
BRANCH  23  24
HETATM   24  C   UNL     1      -5.184  12.774  68.949  1.00  0.00    -0.067 C  
HETATM   25  H   UNL     1      -5.640  12.164  70.748  1.00  0.00     0.000 HD 
HETATM   26  C   UNL     1      -5.472  14.226  69.317  1.00  0.00    -0.081 C  
HETATM   27  O   UNL     1      -5.890  11.924  69.864  1.00  0.00    -0.106 OA 
ENDBRANCH  23  24
ENDBRANCH  22  23
ENDBRANCH  21  22
ENDBRANCH  16  21
BRANCH  17  28
HETATM   28  O   UNL     1      -7.040   6.753  68.052  1.00  0.00    -0.080 OA 
BRANCH  28  29
HETATM   29  C   UNL     1      -6.207   5.722  68.583  1.00  0.00    -0.029 C  
BRANCH  29  30
HETATM   30  C   UNL     1      -6.796   4.316  68.406  1.00  0.00    -0.048 C  
HETATM   31  O   UNL     1      -7.836   4.087  69.355  1.00  0.00    -0.053 OA 
HETATM   32  C   UNL     1      -5.732   3.238  68.557  1.00  0.00    -0.022 C  
HETATM   33  H   UNL     1      -8.200   3.217  69.245  1.00  0.00     0.000 HD 
ENDBRANCH  29  30
ENDBRANCH  28  29
ENDBRANCH  17  28
BRANCH  19  34
HETATM   34  O   UNL     1      -9.326   6.919  69.861  1.00  0.00    -0.151 OA 
BRANCH  34  35
HETATM   35  C   UNL     1      -9.464   6.887  71.282  1.00  0.00    -0.165 C  
BRANCH  35  36
HETATM   36  C   UNL     1     -10.551   5.862  71.648  1.00  0.00    -0.241 C  
HETATM   37  H   UNL     1     -12.279   5.873  72.592  1.00  0.00     0.000 HD 
HETATM   38  C   UNL     1     -10.015   4.722  72.500  1.00  0.00    -0.216 C  
HETATM   39  O   UNL     1     -11.608   6.507  72.366  1.00  0.00    -0.277 OA 
ENDBRANCH  35  36
ENDBRANCH  34  35
ENDBRANCH  19  34
BRANCH  20  40
HETATM   40  O   UNL     1      -9.581   7.722  66.976  1.00  0.00    -0.159 OA 
BRANCH  40  41
HETATM   41  C   UNL     1     -10.783   6.942  66.960  1.00  0.00    -0.362 C  
BRANCH  41  42
HETATM   42  C   UNL     1     -10.442   5.464  66.748  1.00  0.00    -0.289 C  
HETATM   43  C   UNL     1      -9.334   5.255  65.735  1.00  0.00    -0.151 C  
HETATM   44  O   UNL     1     -10.029   4.889  67.991  1.00  0.00    -0.154 OA 
HETATM   45  H   UNL     1      -9.818   3.972  67.859  1.00  0.00     0.000 HD 
ENDBRANCH  41  42
ENDBRANCH  40  41
ENDBRANCH  20  40
ENDBRANCH  14  15
ENDBRANCH  10  14
BRANCH  11  46
HETATM   46  O   UNL     1     -11.631  11.426  68.606  1.00  0.00    -0.266 OA 
BRANCH  46  47
HETATM   47  C   UNL     1     -12.504  10.939  69.631  1.00  0.00    -0.129 C  
BRANCH  47  48
HETATM   48  C   UNL     1     -11.863   9.932  70.606  1.00  0.00    -0.303 C  
HETATM   49  C   UNL     1     -12.458  10.028  71.999  1.00  0.00    -0.311 C  
HETATM   50  O   UNL     1     -12.079   8.572  70.202  1.00  0.00    -0.334 OA 
HETATM   51  H   UNL     1     -11.683   7.952  70.803  1.00  0.00     0.000 HD 
ENDBRANCH  47  48
ENDBRANCH  46  47
ENDBRANCH  11  46
BRANCH  12  52
HETATM   52  O   UNL     1     -12.533  14.142  69.217  1.00  0.00    -0.255 OA 
BRANCH  52  53
HETATM   53  C   UNL     1     -12.560  14.192  70.647  1.00  0.00    -0.351 C  
BRANCH  53  54
HETATM   54  C   UNL     1     -12.967  15.584  71.165  1.00  0.00    -0.496 C  
HETATM   55  O   UNL     1     -11.818  16.423  71.291  1.00  0.00    -0.632 OA 
HETATM   56  C   UNL     1     -13.690  15.573  72.501  1.00  0.00    -0.668 C  
HETATM   57  H   UNL     1     -12.068  17.282  71.611  1.00  0.00     0.000 HD 
ENDBRANCH  53  54
ENDBRANCH  52  53
ENDBRANCH  12  52
BRANCH  13  58
HETATM   58  O   UNL     1     -12.170  13.121  66.394  1.00  0.00    -0.399 OA 
BRANCH  58  59
HETATM   59  C   UNL     1     -12.779  13.637  65.203  1.00  0.00    -0.395 C  
BRANCH  59  60
HETATM   60  C   UNL     1     -11.956  13.231  63.965  1.00  0.00    -0.465 C  
HETATM   61  O   UNL     1     -12.525  13.844  62.803  1.00  0.00    -0.901 OA 
HETATM   62  H   UNL     1     -12.018  13.594  62.039  1.00  0.00     0.000 HD 
HETATM   63  C   UNL     1     -11.916  11.735  63.748  1.00  0.00    -0.468 C  
ENDBRANCH  59  60
ENDBRANCH  58  59
ENDBRANCH  13  58
ENDBRANCH   7   8
ENDBRANCH   6   7
ENDBRANCH   5   6
ENDBRANCH   2   5
TORSDOF 28
ENDMDL
MODEL        4
REMARK 921   NORMALIZED FREE ENERGY PREDICTED BY IDOCK:   -5.18 KCAL/MOL
REMARK 922        TOTAL FREE ENERGY PREDICTED BY IDOCK:  -19.34 KCAL/MOL
REMARK 923 INTER-LIGAND FREE ENERGY PREDICTED BY IDOCK:  -14.37 KCAL/MOL
REMARK 924 INTRA-LIGAND FREE ENERGY PREDICTED BY IDOCK:   -4.97 KCAL/MOL
REMARK 927      BINDING AFFINITY PREDICTED BY RF-SCORE:    0.00 PKD
ROOT
HETATM    1  C   UNL     1     -12.352  11.780  63.133  1.00  0.00    -0.282 C  
HETATM    2  C   UNL     1     -11.523  12.702  64.011  1.00  0.00    -0.411 C  
HETATM    3  O   UNL     1     -10.202  12.781  63.472  1.00  0.00    -0.558 OA 
HETATM    4  H   UNL     1      -9.684  13.357  64.021  1.00  0.00     0.000 HD 
ENDROOT
BRANCH   2   5
HETATM    5  C   UNL     1     -12.129  14.108  64.136  1.00  0.00    -0.406 C  
BRANCH   5   6
HETATM    6  O   UNL     1     -12.644  14.340  65.459  1.00  0.00    -0.458 OA 
BRANCH   6   7
HETATM    7  C   UNL     1     -12.386  13.219  66.321  1.00  0.00    -0.317 C  
BRANCH   7   8
HETATM    8  C   UNL     1     -11.763  13.682  67.663  1.00  0.00    -0.363 C  
HETATM    9  O   UNL     1     -11.209  12.578  68.417  1.00  0.00    -0.234 OA 
HETATM   10  C   UNL     1     -10.080  11.940  67.837  1.00  0.00    -0.192 C  
HETATM   11  C   UNL     1      -8.927  12.985  67.668  1.00  0.00    -0.192 C  
HETATM   12  C   UNL     1      -9.434  14.198  66.835  1.00  0.00    -0.267 C  
HETATM   13  C   UNL     1     -10.703  14.809  67.494  1.00  0.00    -0.269 C  
BRANCH  10  14
HETATM   14  O   UNL     1      -9.621  10.797  68.603  1.00  0.00    -0.171 OA 
BRANCH  14  15
HETATM   15  C   UNL     1     -10.609   9.817  69.010  1.00  0.00    -0.219 C  
HETATM   16  C   UNL     1     -10.275   8.422  68.373  1.00  0.00    -0.206 C  
HETATM   17  C   UNL     1      -8.800   7.824  70.140  1.00  0.00    -0.145 C  
HETATM   18  O   UNL     1      -8.921   8.076  68.737  1.00  0.00    -0.141 OA 
HETATM   19  C   UNL     1      -9.209   9.067  70.980  1.00  0.00    -0.264 C  
HETATM   20  C   UNL     1     -10.631   9.562  70.554  1.00  0.00    -0.297 C  
BRANCH  16  21
HETATM   21  C   UNL     1     -10.428   8.260  66.847  1.00  0.00    -0.295 C  
BRANCH  21  22
HETATM   22  O   UNL     1      -9.208   7.663  66.326  1.00  0.00    -0.174 OA 
BRANCH  22  23
HETATM   23  C   UNL     1      -8.638   8.402  65.242  1.00  0.00    -0.150 C  
BRANCH  23  24
HETATM   24  C   UNL     1      -7.368   7.734  64.667  1.00  0.00    -0.080 C  
HETATM   25  H   UNL     1      -5.562   8.319  64.209  1.00  0.00     0.000 HD 
HETATM   26  C   UNL     1      -7.558   7.088  63.298  1.00  0.00    -0.108 C  
HETATM   27  O   UNL     1      -6.342   8.730  64.562  1.00  0.00    -0.066 OA 
ENDBRANCH  23  24
ENDBRANCH  22  23
ENDBRANCH  21  22
ENDBRANCH  16  21
BRANCH  17  28
HETATM   28  O   UNL     1      -9.550   6.671  70.536  1.00  0.00    -0.168 OA 
BRANCH  28  29
HETATM   29  C   UNL     1      -8.855   5.439  70.341  1.00  0.00    -0.129 C  
BRANCH  29  30
HETATM   30  C   UNL     1      -9.732   4.341  69.723  1.00  0.00    -0.220 C  
HETATM   31  O   UNL     1      -9.380   3.064  70.254  1.00  0.00    -0.138 OA 
HETATM   32  C   UNL     1      -9.605   4.307  68.207  1.00  0.00    -0.197 C  
HETATM   33  H   UNL     1      -9.922   2.385  69.871  1.00  0.00     0.000 HD 
ENDBRANCH  29  30
ENDBRANCH  28  29
ENDBRANCH  17  28
BRANCH  19  34
HETATM   34  O   UNL     1      -9.171   8.880  72.407  1.00  0.00    -0.362 OA 
BRANCH  34  35
HETATM   35  C   UNL     1      -7.982   8.278  72.921  1.00  0.00    -0.141 C  
BRANCH  35  36
HETATM   36  C   UNL     1      -8.376   7.263  74.009  1.00  0.00    -0.165 C  
HETATM   37  H   UNL     1      -7.896   5.416  74.493  1.00  0.00     0.000 HD 
HETATM   38  C   UNL     1      -9.864   6.948  74.004  1.00  0.00    -0.354 C  
HETATM   39  O   UNL     1      -7.653   6.042  73.821  1.00  0.00    -0.095 OA 
ENDBRANCH  35  36
ENDBRANCH  34  35
ENDBRANCH  19  34
BRANCH  20  40
HETATM   40  O   UNL     1     -11.707   8.626  70.815  1.00  0.00    -0.277 OA 
BRANCH  40  41
HETATM   41  C   UNL     1     -12.372   8.850  72.064  1.00  0.00    -0.390 C  
BRANCH  41  42
HETATM   42  C   UNL     1     -13.588   9.755  71.853  1.00  0.00    -0.335 C  
HETATM   43  C   UNL     1     -13.232  11.228  71.846  1.00  0.00    -0.491 C  
HETATM   44  O   UNL     1     -14.205   9.435  70.602  1.00  0.00    -0.431 OA 
HETATM   45  H   UNL     1     -14.960   9.997  70.471  1.00  0.00     0.000 HD 
ENDBRANCH  41  42
ENDBRANCH  40  41
ENDBRANCH  20  40
ENDBRANCH  14  15
ENDBRANCH  10  14
BRANCH  11  46
HETATM   46  O   UNL     1      -8.363  13.478  68.900  1.00  0.00     0.006 OA 
BRANCH  46  47
HETATM   47  C   UNL     1      -6.947  13.683  68.955  1.00  0.00    -0.098 C  
BRANCH  47  48
HETATM   48  C   UNL     1      -6.162  12.598  69.719  1.00  0.00    -0.111 C  
HETATM   49  C   UNL     1      -5.580  13.124  71.019  1.00  0.00    -0.175 C  
HETATM   50  O   UNL     1      -6.994  11.495  70.103  1.00  0.00    -0.435 OA 
HETATM   51  H   UNL     1      -6.510  10.826  70.574  1.00  0.00     0.000 HD 
ENDBRANCH  47  48
ENDBRANCH  46  47
ENDBRANCH  11  46
BRANCH  12  52
HETATM   52  O   UNL     1      -8.463  15.242  66.568  1.00  0.00    -0.265 OA 
BRANCH  52  53
HETATM   53  C   UNL     1      -9.014  16.497  66.156  1.00  0.00    -0.309 C  
BRANCH  53  54
HETATM   54  C   UNL     1      -8.328  17.682  66.860  1.00  0.00    -0.236 C  
HETATM   55  O   UNL     1      -8.591  17.647  68.264  1.00  0.00    -0.253 OA 
HETATM   56  C   UNL     1      -8.740  19.049  66.338  1.00  0.00    -0.322 C  
HETATM   57  H   UNL     1      -8.168  18.379  68.698  1.00  0.00     0.000 HD 
ENDBRANCH  53  54
ENDBRANCH  52  53
ENDBRANCH  12  52
BRANCH  13  58
HETATM   58  O   UNL     1     -10.483  15.362  68.814  1.00  0.00    -0.220 OA 
BRANCH  58  59
HETATM   59  C   UNL     1     -11.605  16.045  69.391  1.00  0.00    -0.320 C  
BRANCH  59  60
HETATM   60  C   UNL     1     -11.871  15.520  70.817  1.00  0.00    -0.367 C  
HETATM   61  O   UNL     1     -11.288  14.220  70.953  1.00  0.00    -0.520 OA 
HETATM   62  H   UNL     1     -11.452  13.896  71.831  1.00  0.00     0.000 HD 
HETATM   63  C   UNL     1     -13.345  15.423  71.143  1.00  0.00    -0.580 C  
ENDBRANCH  59  60
ENDBRANCH  58  59
ENDBRANCH  13  58
ENDBRANCH   7   8
ENDBRANCH   6   7
ENDBRANCH   5   6
ENDBRANCH   2   5
TORSDOF 28
ENDMDL
MODEL        5
REMARK 921   NORMALIZED FREE ENERGY PREDICTED BY IDOCK:   -5.14 KCAL/MOL
REMARK 922        TOTAL FREE ENERGY PREDICTED BY IDOCK:  -19.24 KCAL/MOL
REMARK 923 INTER-LIGAND FREE ENERGY PREDICTED BY IDOCK:  -14.37 KCAL/MOL
REMARK 924 INTRA-LIGAND FREE ENERGY PREDICTED BY IDOCK:   -4.87 KCAL/MOL
REMARK 927      BINDING AFFINITY PREDICTED BY RF-SCORE:    0.00 PKD
ROOT
HETATM    1  C   UNL     1      -9.827   3.575  65.078  1.00  0.00    -0.111 C  
HETATM    2  C   UNL     1      -9.836   4.726  66.070  1.00  0.00    -0.216 C  
HETATM    3  O   UNL     1     -11.137   5.317  66.071  1.00  0.00    -0.762 OA 
HETATM    4  H   UNL     1     -11.143   6.036  66.690  1.00  0.00     0.000 HD 
ENDROOT
BRANCH   2   5
HETATM    5  C   UNL     1      -9.453   4.288  67.492  1.00  0.00    -0.178 C  
BRANCH   5   6
HETATM    6  O   UNL     1      -8.420   5.128  68.037  1.00  0.00    -0.101 OA 
BRANCH   6   7
HETATM    7  C   UNL     1      -8.561   6.485  67.584  1.00  0.00    -0.116 C  
BRANCH   7   8
HETATM    8  C   UNL     1      -8.523   7.474  68.777  1.00  0.00    -0.129 C  
HETATM    9  O   UNL     1      -9.166   8.733  68.464  1.00  0.00    -0.141 OA 
HETATM   10  C   UNL     1     -10.568   8.672  68.248  1.00  0.00    -0.128 C  
HETATM   11  C   UNL     1     -11.267   8.128  69.539  1.00  0.00     0.162 C  
HETATM   12  C   UNL     1     -10.652   6.752  69.929  1.00  0.00    -0.222 C  
HETATM   13  C   UNL     1      -9.110   6.879  70.090  1.00  0.00    -0.152 C  
BRANCH  10  14
HETATM   14  O   UNL     1     -11.137   9.950  67.864  1.00  0.00    -0.262 OA 
BRANCH  14  15
HETATM   15  C   UNL     1     -10.222  11.019  67.519  1.00  0.00    -0.188 C  
HETATM   16  C   UNL     1     -10.663  11.689  66.170  1.00  0.00    -0.278 C  
HETATM   17  C   UNL     1     -12.164  13.182  67.252  1.00  0.00    -0.177 C  
HETATM   18  O   UNL     1     -12.036  12.114  66.309  1.00  0.00    -0.605 OA 
HETATM   19  C   UNL     1     -11.657  12.762  68.661  1.00  0.00    -0.314 C  
HETATM   20  C   UNL     1     -10.206  12.185  68.562  1.00  0.00    -0.207 C  
BRANCH  16  21
HETATM   21  C   UNL     1     -10.533  10.869  64.870  1.00  0.00    -0.282 C  
BRANCH  21  22
HETATM   22  O   UNL     1      -9.128  10.823  64.497  1.00  0.00    -0.199 OA 
BRANCH  22  23
HETATM   23  C   UNL     1      -8.539   9.531  64.676  1.00  0.00    -0.187 C  
BRANCH  23  24
HETATM   24  C   UNL     1      -7.016   9.600  64.933  1.00  0.00    -0.113 C  
HETATM   25  H   UNL     1      -5.613   8.319  65.387  1.00  0.00     0.000 HD 
HETATM   26  C   UNL     1      -6.609  10.524  66.075  1.00  0.00    -0.127 C  
HETATM   27  O   UNL     1      -6.549   8.276  65.230  1.00  0.00    -0.051 OA 
ENDBRANCH  23  24
ENDBRANCH  22  23
ENDBRANCH  21  22
ENDBRANCH  16  21
BRANCH  17  28
HETATM   28  O   UNL     1     -11.499  14.367  66.802  1.00  0.00    -0.343 OA 
BRANCH  28  29
HETATM   29  C   UNL     1     -11.856  14.759  65.477  1.00  0.00    -0.231 C  
BRANCH  29  30
HETATM   30  C   UNL     1     -11.310  16.139  65.086  1.00  0.00    -0.030 C  
HETATM   31  O   UNL     1     -11.434  16.344  63.680  1.00  0.00    -1.446 OA 
HETATM   32  C   UNL     1      -9.851  16.301  65.490  1.00  0.00    -0.144 C  
HETATM   33  H   UNL     1     -11.095  17.198  63.437  1.00  0.00     0.000 HD 
ENDBRANCH  29  30
ENDBRANCH  28  29
ENDBRANCH  17  28
BRANCH  19  34
HETATM   34  O   UNL     1     -11.699  13.799  69.659  1.00  0.00    -0.284 OA 
BRANCH  34  35
HETATM   35  C   UNL     1     -12.421  13.484  70.850  1.00  0.00    -0.369 C  
BRANCH  35  36
HETATM   36  C   UNL     1     -12.749  14.794  71.587  1.00  0.00    -0.330 C  
HETATM   37  H   UNL     1     -13.633  16.501  71.161  1.00  0.00     0.000 HD 
HETATM   38  C   UNL     1     -11.507  15.491  72.120  1.00  0.00    -0.512 C  
HETATM   39  O   UNL     1     -13.430  15.692  70.706  1.00  0.00    -0.536 OA 
ENDBRANCH  35  36
ENDBRANCH  34  35
ENDBRANCH  19  34
BRANCH  20  40
HETATM   40  O   UNL     1      -9.201  13.134  68.126  1.00  0.00    -0.206 OA 
BRANCH  40  41
HETATM   41  C   UNL     1      -7.909  12.907  68.704  1.00  0.00    -0.044 C  
BRANCH  41  42
HETATM   42  C   UNL     1      -7.254  14.246  69.056  1.00  0.00    -0.118 C  
HETATM   43  C   UNL     1      -8.234  15.402  69.044  1.00  0.00    -0.217 C  
HETATM   44  O   UNL     1      -6.675  14.161  70.361  1.00  0.00    -0.400 OA 
HETATM   45  H   UNL     1      -6.268  14.992  70.579  1.00  0.00     0.000 HD 
ENDBRANCH  41  42
ENDBRANCH  40  41
ENDBRANCH  20  40
ENDBRANCH  14  15
ENDBRANCH  10  14
BRANCH  11  46
HETATM   46  O   UNL     1     -11.201   9.001  70.684  1.00  0.00    -0.256 OA 
BRANCH  46  47
HETATM   47  C   UNL     1     -12.396   9.685  71.076  1.00  0.00    -0.310 C  
BRANCH  47  48
HETATM   48  C   UNL     1     -13.187   9.012  72.215  1.00  0.00    -0.460 C  
HETATM   49  C   UNL     1     -14.316   8.143  71.690  1.00  0.00    -0.570 C  
HETATM   50  O   UNL     1     -12.369   8.129  72.995  1.00  0.00    -0.666 OA 
HETATM   51  H   UNL     1     -12.857   7.714  73.697  1.00  0.00     0.000 HD 
ENDBRANCH  47  48
ENDBRANCH  46  47
ENDBRANCH  11  46
BRANCH  12  52
HETATM   52  O   UNL     1     -11.221   6.104  71.095  1.00  0.00    -0.291 OA 
BRANCH  52  53
HETATM   53  C   UNL     1     -10.372   5.147  71.737  1.00  0.00    -0.209 C  
BRANCH  53  54
HETATM   54  C   UNL     1     -10.910   4.740  73.121  1.00  0.00    -0.270 C  
HETATM   55  O   UNL     1     -10.040   5.214  74.152  1.00  0.00    -0.182 OA 
HETATM   56  C   UNL     1     -11.094   3.244  73.311  1.00  0.00    -0.230 C  
HETATM   57  H   UNL     1     -10.372   4.962  75.006  1.00  0.00     0.000 HD 
ENDBRANCH  53  54
ENDBRANCH  52  53
ENDBRANCH  12  52
BRANCH  13  58
HETATM   58  O   UNL     1      -8.693   7.762  71.160  1.00  0.00    -0.131 OA 
BRANCH  58  59
HETATM   59  C   UNL     1      -7.371   7.532  71.669  1.00  0.00    -0.075 C  
BRANCH  59  60
HETATM   60  C   UNL     1      -7.371   7.617  73.208  1.00  0.00    -0.097 C  
HETATM   61  O   UNL     1      -7.294   6.293  73.749  1.00  0.00    -0.087 OA 
HETATM   62  H   UNL     1      -7.295   6.345  74.698  1.00  0.00     0.000 HD 
HETATM   63  C   UNL     1      -8.607   8.291  73.762  1.00  0.00    -0.242 C  
ENDBRANCH  59  60
ENDBRANCH  58  59
ENDBRANCH  13  58
ENDBRANCH   7   8
ENDBRANCH   6   7
ENDBRANCH   5   6
ENDBRANCH   2   5
TORSDOF 28
ENDMDL
MODEL        6
REMARK 921   NORMALIZED FREE ENERGY PREDICTED BY IDOCK:   -5.00 KCAL/MOL
REMARK 922        TOTAL FREE ENERGY PREDICTED BY IDOCK:  -18.87 KCAL/MOL
REMARK 923 INTER-LIGAND FREE ENERGY PREDICTED BY IDOCK:  -13.60 KCAL/MOL
REMARK 924 INTRA-LIGAND FREE ENERGY PREDICTED BY IDOCK:   -5.27 KCAL/MOL
REMARK 927      BINDING AFFINITY PREDICTED BY RF-SCORE:    0.00 PKD
ROOT
HETATM    1  C   UNL     1     -13.792   8.791  71.832  1.00  0.00    -0.491 C  
HETATM    2  C   UNL     1     -12.359   8.286  71.868  1.00  0.00    -0.338 C  
HETATM    3  O   UNL     1     -12.084   7.787  73.178  1.00  0.00    -0.607 OA 
HETATM    4  H   UNL     1     -11.189   7.472  73.201  1.00  0.00     0.000 HD 
ENDROOT
BRANCH   2   5
HETATM    5  C   UNL     1     -12.086   7.197  70.819  1.00  0.00    -0.288 C  
BRANCH   5   6
HETATM    6  O   UNL     1     -10.824   7.411  70.160  1.00  0.00    -0.247 OA 
BRANCH   6   7
HETATM    7  C   UNL     1     -10.906   8.496  69.221  1.00  0.00    -0.056 C  
BRANCH   7   8
HETATM    8  C   UNL     1      -9.610   8.598  68.376  1.00  0.00    -0.147 C  
HETATM    9  O   UNL     1      -9.333   9.956  67.961  1.00  0.00    -0.131 OA 
HETATM   10  C   UNL     1      -9.011  10.866  69.004  1.00  0.00    -0.094 C  
HETATM   11  C   UNL     1      -7.731  10.361  69.751  1.00  0.00    -0.116 C  
HETATM   12  C   UNL     1      -7.959   8.909  70.261  1.00  0.00    -0.115 C  
HETATM   13  C   UNL     1      -8.366   7.982  69.080  1.00  0.00    -0.132 C  
BRANCH  10  14
HETATM   14  O   UNL     1      -8.820  12.224  68.531  1.00  0.00    -0.156 OA 
BRANCH  14  15
HETATM   15  C   UNL     1      -9.860  12.802  67.704  1.00  0.00    -0.214 C  
HETATM   16  C   UNL     1     -10.849  13.637  68.591  1.00  0.00    -0.263 C  
HETATM   17  C   UNL     1      -9.511  15.599  68.463  1.00  0.00    -0.200 C  
HETATM   18  O   UNL     1     -10.077  14.610  69.328  1.00  0.00    -0.200 OA 
HETATM   19  C   UNL     1      -8.571  14.959  67.403  1.00  0.00    -0.193 C  
HETATM   20  C   UNL     1      -9.318  13.815  66.641  1.00  0.00    -0.264 C  
BRANCH  16  21
HETATM   21  C   UNL     1     -11.758  12.882  69.582  1.00  0.00    -0.299 C  
BRANCH  21  22
HETATM   22  O   UNL     1     -11.935  13.712  70.764  1.00  0.00    -0.311 OA 
BRANCH  22  23
HETATM   23  C   UNL     1     -13.259  14.241  70.887  1.00  0.00    -0.259 C  
BRANCH  23  24
HETATM   24  C   UNL     1     -13.279  15.662  71.495  1.00  0.00    -0.475 C  
HETATM   25  H   UNL     1     -11.972  17.089  71.766  1.00  0.00     0.000 HD 
HETATM   26  C   UNL     1     -13.716  15.719  72.955  1.00  0.00    -0.583 C  
HETATM   27  O   UNL     1     -11.960  16.215  71.392  1.00  0.00    -0.442 OA 
ENDBRANCH  23  24
ENDBRANCH  22  23
ENDBRANCH  21  22
ENDBRANCH  16  21
BRANCH  17  28
HETATM   28  O   UNL     1     -10.523  16.393  67.836  1.00  0.00    -0.286 OA 
BRANCH  28  29
HETATM   29  C   UNL     1     -10.308  17.799  67.956  1.00  0.00    -0.393 C  
BRANCH  29  30
HETATM   30  C   UNL     1     -10.647  18.575  66.676  1.00  0.00    -0.342 C  
HETATM   31  O   UNL     1     -10.235  17.842  65.524  1.00  0.00    -0.589 OA 
HETATM   32  C   UNL     1      -9.989  19.948  66.660  1.00  0.00    -0.578 C  
HETATM   33  H   UNL     1     -10.444  18.322  64.732  1.00  0.00     0.000 HD 
ENDBRANCH  29  30
ENDBRANCH  28  29
ENDBRANCH  17  28
BRANCH  19  34
HETATM   34  O   UNL     1      -8.003  15.880  66.454  1.00  0.00    -0.244 OA 
BRANCH  34  35
HETATM   35  C   UNL     1      -6.784  16.508  66.854  1.00  0.00    -0.198 C  
BRANCH  35  36
HETATM   36  C   UNL     1      -6.894  18.018  66.579  1.00  0.00    -0.219 C  
HETATM   37  H   UNL     1      -7.385  19.170  65.060  1.00  0.00     0.000 HD 
HETATM   38  C   UNL     1      -5.578  18.749  66.797  1.00  0.00    -0.164 C  
HETATM   39  O   UNL     1      -7.317  18.238  65.229  1.00  0.00    -0.447 OA 
ENDBRANCH  35  36
ENDBRANCH  34  35
ENDBRANCH  19  34
BRANCH  20  40
HETATM   40  O   UNL     1     -10.452  14.248  65.849  1.00  0.00    -0.287 OA 
BRANCH  40  41
HETATM   41  C   UNL     1     -10.613  13.515  64.628  1.00  0.00    -0.427 C  
BRANCH  41  42
HETATM   42  C   UNL     1     -12.052  13.004  64.513  1.00  0.00    -0.410 C  
HETATM   43  C   UNL     1     -12.262  12.100  63.315  1.00  0.00    -0.533 C  
HETATM   44  O   UNL     1     -12.390  12.271  65.694  1.00  0.00    -0.619 OA 
HETATM   45  H   UNL     1     -13.283  11.954  65.623  1.00  0.00     0.000 HD 
ENDBRANCH  41  42
ENDBRANCH  40  41
ENDBRANCH  20  40
ENDBRANCH  14  15
ENDBRANCH  10  14
BRANCH  11  46
HETATM   46  O   UNL     1      -6.517  10.390  68.974  1.00  0.00    -0.050 OA 
BRANCH  46  47
HETATM   47  C   UNL     1      -5.398  11.108  69.504  1.00  0.00    -0.045 C  
BRANCH  47  48
HETATM   48  C   UNL     1      -5.270  12.565  69.018  1.00  0.00    -0.066 C  
HETATM   49  C   UNL     1      -5.430  12.681  67.512  1.00  0.00    -0.110 C  
HETATM   50  O   UNL     1      -6.290  13.412  69.566  1.00  0.00    -0.108 OA 
HETATM   51  H   UNL     1      -6.211  14.310  69.267  1.00  0.00     0.000 HD 
ENDBRANCH  47  48
ENDBRANCH  46  47
ENDBRANCH  11  46
BRANCH  12  52
HETATM   52  O   UNL     1      -6.865   8.312  71.004  1.00  0.00    -0.041 OA 
BRANCH  52  53
HETATM   53  C   UNL     1      -7.122   8.085  72.393  1.00  0.00    -0.090 C  
BRANCH  53  54
HETATM   54  C   UNL     1      -7.726   6.691  72.644  1.00  0.00    -0.101 C  
HETATM   55  O   UNL     1      -9.151   6.770  72.713  1.00  0.00    -0.135 OA 
HETATM   56  C   UNL     1      -7.232   6.008  73.909  1.00  0.00    -0.084 C  
HETATM   57  H   UNL     1      -9.524   5.910  72.868  1.00  0.00     0.000 HD 
ENDBRANCH  53  54
ENDBRANCH  52  53
ENDBRANCH  12  52
BRANCH  13  58
HETATM   58  O   UNL     1      -7.350   7.836  68.058  1.00  0.00    -0.096 OA 
BRANCH  58  59
HETATM   59  C   UNL     1      -7.815   7.355  66.790  1.00  0.00    -0.110 C  
BRANCH  59  60
HETATM   60  C   UNL     1      -6.999   6.121  66.356  1.00  0.00    -0.067 C  
HETATM   61  O   UNL     1      -7.005   6.035  64.927  1.00  0.00    -0.052 OA 
HETATM   62  H   UNL     1      -6.502   5.275  64.659  1.00  0.00     0.000 HD 
HETATM   63  C   UNL     1      -7.543   4.826  66.918  1.00  0.00    -0.087 C  
ENDBRANCH  59  60
ENDBRANCH  58  59
ENDBRANCH  13  58
ENDBRANCH   7   8
ENDBRANCH   6   7
ENDBRANCH   5   6
ENDBRANCH   2   5
TORSDOF 28
ENDMDL
MODEL        7
REMARK 921   NORMALIZED FREE ENERGY PREDICTED BY IDOCK:   -4.75 KCAL/MOL
REMARK 922        TOTAL FREE ENERGY PREDICTED BY IDOCK:  -18.22 KCAL/MOL
REMARK 923 INTER-LIGAND FREE ENERGY PREDICTED BY IDOCK:  -14.16 KCAL/MOL
REMARK 924 INTRA-LIGAND FREE ENERGY PREDICTED BY IDOCK:   -4.05 KCAL/MOL
REMARK 927      BINDING AFFINITY PREDICTED BY RF-SCORE:    0.00 PKD
ROOT
HETATM    1  C   UNL     1     -13.085  14.089  71.160  1.00  0.00    -0.373 C  
HETATM    2  C   UNL     1     -12.932  15.601  71.149  1.00  0.00    -0.478 C  
HETATM    3  O   UNL     1     -13.034  16.080  72.491  1.00  0.00    -0.448 OA 
HETATM    4  H   UNL     1     -12.938  17.025  72.484  1.00  0.00     0.000 HD 
ENDROOT
BRANCH   2   5
HETATM    5  C   UNL     1     -11.607  16.059  70.521  1.00  0.00    -0.362 C  
BRANCH   5   6
HETATM    6  O   UNL     1     -11.690  16.087  69.086  1.00  0.00    -0.358 OA 
BRANCH   6   7
HETATM    7  C   UNL     1     -10.654  16.908  68.520  1.00  0.00    -0.367 C  
BRANCH   7   8
HETATM    8  C   UNL     1      -9.293  16.638  69.212  1.00  0.00    -0.096 C  
HETATM    9  O   UNL     1      -8.969  15.228  69.247  1.00  0.00    -0.228 OA 
HETATM   10  C   UNL     1      -8.721  14.620  67.986  1.00  0.00    -0.167 C  
HETATM   11  C   UNL     1      -7.511  15.336  67.297  1.00  0.00    -0.202 C  
HETATM   12  C   UNL     1      -7.795  16.863  67.191  1.00  0.00    -0.177 C  
HETATM   13  C   UNL     1      -8.116  17.449  68.595  1.00  0.00    -0.264 C  
BRANCH  10  14
HETATM   14  O   UNL     1      -8.477  13.194  68.084  1.00  0.00    -0.160 OA 
BRANCH  14  15
HETATM   15  C   UNL     1      -9.124  12.332  67.114  1.00  0.00    -0.193 C  
HETATM   16  C   UNL     1      -8.387  10.948  67.052  1.00  0.00    -0.132 C  
HETATM   17  C   UNL     1      -9.654  10.047  68.852  1.00  0.00    -0.181 C  
HETATM   18  O   UNL     1      -8.348  10.401  68.388  1.00  0.00    -0.111 OA 
HETATM   19  C   UNL     1     -10.604  11.279  68.875  1.00  0.00    -0.207 C  
HETATM   20  C   UNL     1     -10.605  11.985  67.480  1.00  0.00    -0.221 C  
BRANCH  16  21
HETATM   21  C   UNL     1      -6.963  10.903  66.463  1.00  0.00    -0.139 C  
BRANCH  21  22
HETATM   22  O   UNL     1      -6.946   9.928  65.383  1.00  0.00    -0.099 OA 
BRANCH  22  23
HETATM   23  C   UNL     1      -8.254   9.528  64.963  1.00  0.00    -0.136 C  
BRANCH  23  24
HETATM   24  C   UNL     1      -8.299   8.069  64.458  1.00  0.00    -0.040 C  
HETATM   25  H   UNL     1      -7.937   6.308  65.224  1.00  0.00     0.000 HD 
HETATM   26  C   UNL     1      -7.397   7.786  63.260  1.00  0.00    -0.101 C  
HETATM   27  O   UNL     1      -7.909   7.206  65.535  1.00  0.00    -0.101 OA 
ENDBRANCH  23  24
ENDBRANCH  22  23
ENDBRANCH  21  22
ENDBRANCH  16  21
BRANCH  17  28
HETATM   28  O   UNL     1     -10.219   8.983  68.080  1.00  0.00    -0.192 OA 
BRANCH  28  29
HETATM   29  C   UNL     1      -9.894   7.682  68.571  1.00  0.00    -0.167 C  
BRANCH  29  30
HETATM   30  C   UNL     1     -11.013   6.655  68.349  1.00  0.00    -0.239 C  
HETATM   31  O   UNL     1     -11.279   5.939  69.554  1.00  0.00    -0.389 OA 
HETATM   32  C   UNL     1     -10.659   5.667  67.246  1.00  0.00    -0.328 C  
HETATM   33  H   UNL     1     -11.971   5.303  69.418  1.00  0.00     0.000 HD 
ENDBRANCH  29  30
ENDBRANCH  28  29
ENDBRANCH  17  28
BRANCH  19  34
HETATM   34  O   UNL     1     -11.957  10.999  69.277  1.00  0.00    -0.321 OA 
BRANCH  34  35
HETATM   35  C   UNL     1     -12.193  10.970  70.685  1.00  0.00    -0.385 C  
BRANCH  35  36
HETATM   36  C   UNL     1     -12.554   9.532  71.094  1.00  0.00    -0.301 C  
HETATM   37  H   UNL     1     -13.938   8.652  72.184  1.00  0.00     0.000 HD 
HETATM   38  C   UNL     1     -11.427   8.836  71.841  1.00  0.00    -0.428 C  
HETATM   39  O   UNL     1     -13.715   9.540  71.932  1.00  0.00    -0.377 OA 
ENDBRANCH  35  36
ENDBRANCH  34  35
ENDBRANCH  19  34
BRANCH  20  40
HETATM   40  O   UNL     1     -11.137  11.188  66.392  1.00  0.00    -0.247 OA 
BRANCH  40  41
HETATM   41  C   UNL     1     -11.149  11.871  65.132  1.00  0.00    -0.305 C  
BRANCH  41  42
HETATM   42  C   UNL     1     -12.534  12.473  64.880  1.00  0.00    -0.450 C  
HETATM   43  C   UNL     1     -12.591  13.960  65.169  1.00  0.00    -0.466 C  
HETATM   44  O   UNL     1     -12.899  12.267  63.512  1.00  0.00    -0.768 OA 
HETATM   45  H   UNL     1     -13.758  12.641  63.356  1.00  0.00     0.000 HD 
ENDBRANCH  41  42
ENDBRANCH  40  41
ENDBRANCH  20  40
ENDBRANCH  14  15
ENDBRANCH  10  14
BRANCH  11  46
HETATM   46  O   UNL     1      -6.238  15.150  67.949  1.00  0.00    -0.133 OA 
BRANCH  46  47
HETATM   47  C   UNL     1      -5.704  13.824  68.009  1.00  0.00    -0.132 C  
BRANCH  47  48
HETATM   48  C   UNL     1      -5.539  13.254  69.432  1.00  0.00    -0.083 C  
HETATM   49  C   UNL     1      -5.716  14.320  70.498  1.00  0.00    -0.157 C  
HETATM   50  O   UNL     1      -6.526  12.257  69.735  1.00  0.00    -0.255 OA 
HETATM   51  H   UNL     1      -6.424  11.906  70.611  1.00  0.00     0.000 HD 
ENDBRANCH  47  48
ENDBRANCH  46  47
ENDBRANCH  11  46
BRANCH  12  52
HETATM   52  O   UNL     1      -6.771  17.661  66.543  1.00  0.00    -0.185 OA 
BRANCH  52  53
HETATM   53  C   UNL     1      -7.254  18.770  65.779  1.00  0.00    -0.199 C  
BRANCH  53  54
HETATM   54  C   UNL     1      -6.153  19.816  65.528  1.00  0.00    -0.199 C  
HETATM   55  O   UNL     1      -6.631  21.126  65.841  1.00  0.00    -0.475 OA 
HETATM   56  C   UNL     1      -5.616  19.839  64.106  1.00  0.00    -0.288 C  
HETATM   57  H   UNL     1      -5.951  21.772  65.686  1.00  0.00     0.000 HD 
ENDBRANCH  53  54
ENDBRANCH  52  53
ENDBRANCH  12  52
BRANCH  13  58
HETATM   58  O   UNL     1      -7.023  17.364  69.542  1.00  0.00    -0.175 OA 
BRANCH  58  59
HETATM   59  C   UNL     1      -6.007  18.366  69.402  1.00  0.00    -0.249 C  
BRANCH  59  60
HETATM   60  C   UNL     1      -6.538  19.733  69.878  1.00  0.00    -0.290 C  
HETATM   61  O   UNL     1      -6.295  20.710  68.859  1.00  0.00    -0.304 OA 
HETATM   62  H   UNL     1      -6.621  21.552  69.152  1.00  0.00     0.000 HD 
HETATM   63  C   UNL     1      -5.888  20.204  71.160  1.00  0.00    -0.337 C  
ENDBRANCH  59  60
ENDBRANCH  58  59
ENDBRANCH  13  58
ENDBRANCH   7   8
ENDBRANCH   6   7
ENDBRANCH   5   6
ENDBRANCH   2   5
TORSDOF 28
ENDMDL
MODEL        8
REMARK 921   NORMALIZED FREE ENERGY PREDICTED BY IDOCK:   -4.71 KCAL/MOL
REMARK 922        TOTAL FREE ENERGY PREDICTED BY IDOCK:  -18.10 KCAL/MOL
REMARK 923 INTER-LIGAND FREE ENERGY PREDICTED BY IDOCK:  -13.24 KCAL/MOL
REMARK 924 INTRA-LIGAND FREE ENERGY PREDICTED BY IDOCK:   -4.87 KCAL/MOL
REMARK 927      BINDING AFFINITY PREDICTED BY RF-SCORE:    0.00 PKD
ROOT
HETATM    1  C   UNL     1     -10.276  17.901  65.935  1.00  0.00    -0.228 C  
HETATM    2  C   UNL     1     -10.661  16.535  65.393  1.00  0.00    -0.276 C  
HETATM    3  O   UNL     1     -11.100  16.687  64.042  1.00  0.00    -1.338 OA 
HETATM    4  H   UNL     1     -11.341  15.833  63.703  1.00  0.00     0.000 HD 
ENDROOT
BRANCH   2   5
HETATM    5  C   UNL     1      -9.508  15.521  65.464  1.00  0.00    -0.133 C  
BRANCH   5   6
HETATM    6  O   UNL     1      -9.065  15.327  66.819  1.00  0.00    -0.220 OA 
BRANCH   6   7
HETATM    7  C   UNL     1      -8.816  13.938  67.091  1.00  0.00    -0.226 C  
BRANCH   7   8
HETATM    8  C   UNL     1     -10.059  13.075  66.755  1.00  0.00    -0.247 C  
HETATM    9  O   UNL     1      -9.873  11.685  67.115  1.00  0.00    -0.187 OA 
HETATM   10  C   UNL     1      -9.766  11.418  68.506  1.00  0.00    -0.197 C  
HETATM   11  C   UNL     1     -11.073  11.890  69.226  1.00  0.00    -0.203 C  
HETATM   12  C   UNL     1     -11.330  13.394  68.914  1.00  0.00    -0.287 C  
HETATM   13  C   UNL     1     -11.377  13.623  67.377  1.00  0.00    -0.315 C  
BRANCH  10  14
HETATM   14  O   UNL     1      -9.505  10.021  68.795  1.00  0.00    -0.150 OA 
BRANCH  14  15
HETATM   15  C   UNL     1      -8.230   9.472  68.377  1.00  0.00    -0.113 C  
HETATM   16  C   UNL     1      -7.659   8.529  69.493  1.00  0.00    -0.089 C  
HETATM   17  C   UNL     1      -8.855   6.638  68.688  1.00  0.00    -0.122 C  
HETATM   18  O   UNL     1      -8.659   7.529  69.789  1.00  0.00    -0.137 OA 
HETATM   19  C   UNL     1      -9.315   7.400  67.412  1.00  0.00    -0.132 C  
HETATM   20  C   UNL     1      -8.329   8.573  67.100  1.00  0.00    -0.111 C  
BRANCH  16  21
HETATM   21  C   UNL     1      -7.195   9.164  70.820  1.00  0.00    -0.108 C  
BRANCH  21  22
HETATM   22  O   UNL     1      -7.013   8.101  71.796  1.00  0.00    -0.063 OA 
BRANCH  22  23
HETATM   23  C   UNL     1      -7.738   8.320  73.010  1.00  0.00    -0.125 C  
BRANCH  23  24
HETATM   24  C   UNL     1      -8.469   7.052  73.506  1.00  0.00    -0.130 C  
HETATM   25  H   UNL     1      -8.595   5.190  72.928  1.00  0.00     0.000 HD 
HETATM   26  C   UNL     1      -9.986   7.183  73.576  1.00  0.00    -0.344 C  
HETATM   27  O   UNL     1      -8.145   5.970  72.622  1.00  0.00    -0.104 OA 
ENDBRANCH  23  24
ENDBRANCH  22  23
ENDBRANCH  21  22
ENDBRANCH  16  21
BRANCH  17  28
HETATM   28  O   UNL     1      -7.684   5.860  68.423  1.00  0.00    -0.091 OA 
BRANCH  28  29
HETATM   29  C   UNL     1      -7.746   4.532  68.943  1.00  0.00    -0.070 C  
BRANCH  29  30
HETATM   30  C   UNL     1      -6.637   4.227  69.959  1.00  0.00    -0.033 C  
HETATM   31  O   UNL     1      -6.320   5.394  70.716  1.00  0.00    -0.028 OA 
HETATM   32  C   UNL     1      -5.377   3.712  69.278  1.00  0.00    -0.012 C  
HETATM   33  H   UNL     1      -5.633   5.205  71.344  1.00  0.00     0.000 HD 
ENDBRANCH  29  30
ENDBRANCH  28  29
ENDBRANCH  17  28
BRANCH  19  34
HETATM   34  O   UNL     1      -9.482   6.583  66.239  1.00  0.00    -0.157 OA 
BRANCH  34  35
HETATM   35  C   UNL     1     -10.386   5.485  66.371  1.00  0.00    -0.219 C  
BRANCH  35  36
HETATM   36  C   UNL     1      -9.872   4.318  65.511  1.00  0.00    -0.215 C  
HETATM   37  H   UNL     1      -8.343   3.975  64.320  1.00  0.00     0.000 HD 
HETATM   38  C   UNL     1     -10.879   3.880  64.459  1.00  0.00    -0.120 C  
HETATM   39  O   UNL     1      -8.660   4.696  64.850  1.00  0.00    -0.128 OA 
ENDBRANCH  35  36
ENDBRANCH  34  35
ENDBRANCH  19  34
BRANCH  20  40
HETATM   40  O   UNL     1      -6.980   8.163  66.763  1.00  0.00    -0.070 OA 
BRANCH  40  41
HETATM   41  C   UNL     1      -6.133   9.248  66.364  1.00  0.00    -0.063 C  
BRANCH  41  42
HETATM   42  C   UNL     1      -6.615   9.823  65.030  1.00  0.00    -0.099 C  
HETATM   43  C   UNL     1      -7.493   8.859  64.257  1.00  0.00    -0.106 C  
HETATM   44  O   UNL     1      -7.363  11.018  65.271  1.00  0.00    -0.354 OA 
HETATM   45  H   UNL     1      -7.663  11.374  64.443  1.00  0.00     0.000 HD 
ENDBRANCH  41  42
ENDBRANCH  40  41
ENDBRANCH  20  40
ENDBRANCH  14  15
ENDBRANCH  10  14
BRANCH  11  46
HETATM   46  O   UNL     1     -12.260  11.143  68.891  1.00  0.00    -0.522 OA 
BRANCH  46  47
HETATM   47  C   UNL     1     -12.990  10.530  69.960  1.00  0.00     0.132 C  
BRANCH  47  48
HETATM   48  C   UNL     1     -12.125   9.780  70.992  1.00  0.00    -0.346 C  
HETATM   49  C   UNL     1     -12.952   9.240  72.145  1.00  0.00    -0.503 C  
HETATM   50  O   UNL     1     -11.479   8.631  70.427  1.00  0.00    -0.385 OA 
HETATM   51  H   UNL     1     -10.945   8.169  71.063  1.00  0.00     0.000 HD 
ENDBRANCH  47  48
ENDBRANCH  46  47
ENDBRANCH  11  46
BRANCH  12  52
HETATM   52  O   UNL     1     -12.498  13.986  69.539  1.00  0.00    -0.299 OA 
BRANCH  52  53
HETATM   53  C   UNL     1     -12.493  13.980  70.970  1.00  0.00    -0.371 C  
BRANCH  53  54
HETATM   54  C   UNL     1     -11.655  15.135  71.547  1.00  0.00    -0.387 C  
HETATM   55  O   UNL     1     -12.268  15.654  72.729  1.00  0.00    -0.369 OA 
HETATM   56  C   UNL     1     -11.431  16.292  70.587  1.00  0.00    -0.297 C  
HETATM   57  H   UNL     1     -11.751  16.367  73.085  1.00  0.00     0.000 HD 
ENDBRANCH  53  54
ENDBRANCH  52  53
ENDBRANCH  12  52
BRANCH  13  58
HETATM   58  O   UNL     1     -12.461  12.939  66.703  1.00  0.00    -0.367 OA 
BRANCH  58  59
HETATM   59  C   UNL     1     -12.954  13.580  65.519  1.00  0.00    -0.209 C  
BRANCH  59  60
HETATM   60  C   UNL     1     -12.156  13.108  64.287  1.00  0.00    -0.414 C  
HETATM   61  O   UNL     1     -12.287  14.081  63.244  1.00  0.00    -1.133 OA 
HETATM   62  H   UNL     1     -11.796  13.790  62.485  1.00  0.00     0.000 HD 
HETATM   63  C   UNL     1     -12.625  11.771  63.757  1.00  0.00    -0.413 C  
ENDBRANCH  59  60
ENDBRANCH  58  59
ENDBRANCH  13  58
ENDBRANCH   7   8
ENDBRANCH   6   7
ENDBRANCH   5   6
ENDBRANCH   2   5
TORSDOF 28
ENDMDL
MODEL        9
REMARK 921   NORMALIZED FREE ENERGY PREDICTED BY IDOCK:   -4.68 KCAL/MOL
REMARK 922        TOTAL FREE ENERGY PREDICTED BY IDOCK:  -18.03 KCAL/MOL
REMARK 923 INTER-LIGAND FREE ENERGY PREDICTED BY IDOCK:  -12.55 KCAL/MOL
REMARK 924 INTRA-LIGAND FREE ENERGY PREDICTED BY IDOCK:   -5.48 KCAL/MOL
REMARK 927      BINDING AFFINITY PREDICTED BY RF-SCORE:    0.00 PKD
ROOT
HETATM    1  C   UNL     1      -5.267   6.107  63.720  1.00  0.00    -0.017 C  
HETATM    2  C   UNL     1      -6.232   5.711  64.826  1.00  0.00    -0.025 C  
HETATM    3  O   UNL     1      -6.013   4.337  65.151  1.00  0.00    -0.021 OA 
HETATM    4  H   UNL     1      -6.616   4.089  65.842  1.00  0.00     0.000 HD 
ENDROOT
BRANCH   2   5
HETATM    5  C   UNL     1      -6.086   6.583  66.082  1.00  0.00    -0.033 C  
BRANCH   5   6
HETATM    6  O   UNL     1      -7.330   7.220  66.423  1.00  0.00    -0.076 OA 
BRANCH   6   7
HETATM    7  C   UNL     1      -7.121   8.580  66.840  1.00  0.00    -0.075 C  
BRANCH   7   8
HETATM    8  C   UNL     1      -7.305   8.725  68.372  1.00  0.00    -0.086 C  
HETATM    9  O   UNL     1      -7.759  10.049  68.744  1.00  0.00    -0.079 OA 
HETATM   10  C   UNL     1      -9.067  10.396  68.312  1.00  0.00    -0.145 C  
HETATM   11  C   UNL     1     -10.097   9.387  68.922  1.00  0.00    -0.190 C  
HETATM   12  C   UNL     1      -9.697   7.933  68.538  1.00  0.00    -0.161 C  
HETATM   13  C   UNL     1      -8.237   7.641  68.987  1.00  0.00    -0.127 C  
BRANCH  10  14
HETATM   14  O   UNL     1      -9.431  11.759  68.651  1.00  0.00    -0.178 OA 
BRANCH  14  15
HETATM   15  C   UNL     1     -10.226  12.502  67.693  1.00  0.00    -0.219 C  
HETATM   16  C   UNL     1     -11.247  13.426  68.446  1.00  0.00    -0.279 C  
HETATM   17  C   UNL     1      -9.675  15.196  68.673  1.00  0.00    -0.216 C  
HETATM   18  O   UNL     1     -10.505  14.259  69.364  1.00  0.00    -0.160 OA 
HETATM   19  C   UNL     1      -8.647  14.479  67.753  1.00  0.00    -0.175 C  
HETATM   20  C   UNL     1      -9.381  13.474  66.805  1.00  0.00    -0.257 C  
BRANCH  16  21
HETATM   21  C   UNL     1     -12.405  12.760  69.216  1.00  0.00     0.113 C  
BRANCH  21  22
HETATM   22  O   UNL     1     -11.960  12.501  70.577  1.00  0.00    -0.326 OA 
BRANCH  22  23
HETATM   23  C   UNL     1     -12.945  12.823  71.564  1.00  0.00    -0.292 C  
BRANCH  23  24
HETATM   24  C   UNL     1     -12.973  14.329  71.909  1.00  0.00    -0.350 C  
HETATM   25  H   UNL     1     -12.762  15.399  73.530  1.00  0.00     0.000 HD 
HETATM   26  C   UNL     1     -14.277  15.036  71.555  1.00  0.00    -0.633 C  
HETATM   27  O   UNL     1     -12.745  14.473  73.318  1.00  0.00    -0.465 OA 
ENDBRANCH  23  24
ENDBRANCH  22  23
ENDBRANCH  21  22
ENDBRANCH  16  21
BRANCH  17  28
HETATM   28  O   UNL     1     -10.452  16.141  67.929  1.00  0.00    -0.272 OA 
BRANCH  28  29
HETATM   29  C   UNL     1     -10.557  17.419  68.557  1.00  0.00    -0.340 C  
BRANCH  29  30
HETATM   30  C   UNL     1      -9.756  18.514  67.839  1.00  0.00    -0.314 C  
HETATM   31  O   UNL     1      -8.849  19.143  68.742  1.00  0.00    -0.356 OA 
HETATM   32  C   UNL     1     -10.668  19.568  67.227  1.00  0.00    -0.604 C  
HETATM   33  H   UNL     1      -8.354  19.821  68.298  1.00  0.00     0.000 HD 
ENDBRANCH  29  30
ENDBRANCH  28  29
ENDBRANCH  17  28
BRANCH  19  34
HETATM   34  O   UNL     1      -7.808  15.352  66.976  1.00  0.00    -0.207 OA 
BRANCH  34  35
HETATM   35  C   UNL     1      -6.476  15.527  67.462  1.00  0.00    -0.156 C  
BRANCH  35  36
HETATM   36  C   UNL     1      -6.026  16.966  67.157  1.00  0.00    -0.173 C  
HETATM   37  H   UNL     1      -6.033  18.702  68.088  1.00  0.00     0.000 HD 
HETATM   38  C   UNL     1      -6.710  17.545  65.928  1.00  0.00    -0.189 C  
HETATM   39  O   UNL     1      -6.311  17.813  68.276  1.00  0.00    -0.181 OA 
ENDBRANCH  35  36
ENDBRANCH  34  35
ENDBRANCH  19  34
BRANCH  20  40
HETATM   40  O   UNL     1     -10.292  14.084  65.856  1.00  0.00    -0.298 OA 
BRANCH  40  41
HETATM   41  C   UNL     1     -10.536  13.280  64.696  1.00  0.00    -0.402 C  
BRANCH  41  42
HETATM   42  C   UNL     1     -12.036  13.245  64.393  1.00  0.00    -0.415 C  
HETATM   43  C   UNL     1     -12.853  14.068  65.369  1.00  0.00    -0.442 C  
HETATM   44  O   UNL     1     -12.266  13.750  63.075  1.00  0.00    -1.031 OA 
HETATM   45  H   UNL     1     -13.198  13.728  62.887  1.00  0.00     0.000 HD 
ENDBRANCH  41  42
ENDBRANCH  40  41
ENDBRANCH  20  40
ENDBRANCH  14  15
ENDBRANCH  10  14
BRANCH  11  46
HETATM   46  O   UNL     1     -10.251   9.459  70.353  1.00  0.00    -0.217 OA 
BRANCH  46  47
HETATM   47  C   UNL     1     -11.552   9.225  70.901  1.00  0.00    -0.301 C  
BRANCH  47  48
HETATM   48  C   UNL     1     -11.616   8.123  71.977  1.00  0.00    -0.330 C  
HETATM   49  C   UNL     1     -12.781   7.175  71.755  1.00  0.00    -0.374 C  
HETATM   50  O   UNL     1     -10.450   7.288  71.969  1.00  0.00    -0.198 OA 
HETATM   51  H   UNL     1     -10.489   6.610  72.633  1.00  0.00     0.000 HD 
ENDBRANCH  47  48
ENDBRANCH  46  47
ENDBRANCH  11  46
BRANCH  12  52
HETATM   52  O   UNL     1     -10.579   6.882  69.009  1.00  0.00    -0.199 OA 
BRANCH  52  53
HETATM   53  C   UNL     1     -10.432   5.620  68.349  1.00  0.00    -0.195 C  
BRANCH  53  54
HETATM   54  C   UNL     1     -10.115   4.487  69.342  1.00  0.00    -0.054 C  
HETATM   55  O   UNL     1      -9.589   5.023  70.557  1.00  0.00    -0.160 OA 
HETATM   56  C   UNL     1      -9.135   3.449  68.822  1.00  0.00    -0.204 C  
HETATM   57  H   UNL     1      -9.393   4.323  71.170  1.00  0.00     0.000 HD 
ENDBRANCH  53  54
ENDBRANCH  52  53
ENDBRANCH  12  52
BRANCH  13  58
HETATM   58  O   UNL     1      -8.031   7.692  70.420  1.00  0.00    -0.094 OA 
BRANCH  58  59
HETATM   59  C   UNL     1      -6.760   7.210  70.878  1.00  0.00    -0.052 C  
BRANCH  59  60
HETATM   60  C   UNL     1      -6.811   6.931  72.393  1.00  0.00    -0.062 C  
HETATM   61  O   UNL     1      -7.728   5.859  72.641  1.00  0.00    -0.099 OA 
HETATM   62  H   UNL     1      -7.759   5.687  73.575  1.00  0.00     0.000 HD 
HETATM   63  C   UNL     1      -7.248   8.134  73.200  1.00  0.00    -0.157 C  
ENDBRANCH  59  60
ENDBRANCH  58  59
ENDBRANCH  13  58
ENDBRANCH   7   8
ENDBRANCH   6   7
ENDBRANCH   5   6
ENDBRANCH   2   5
TORSDOF 28
ENDMDL
MODEL       10
REMARK 921   NORMALIZED FREE ENERGY PREDICTED BY IDOCK:   -4.61 KCAL/MOL
REMARK 922        TOTAL FREE ENERGY PREDICTED BY IDOCK:  -17.84 KCAL/MOL
REMARK 923 INTER-LIGAND FREE ENERGY PREDICTED BY IDOCK:  -14.25 KCAL/MOL
REMARK 924 INTRA-LIGAND FREE ENERGY PREDICTED BY IDOCK:   -3.59 KCAL/MOL
REMARK 927      BINDING AFFINITY PREDICTED BY RF-SCORE:    0.00 PKD
ROOT
HETATM    1  C   UNL     1     -12.227  11.997  63.491  1.00  0.00    -0.653 C  
HETATM    2  C   UNL     1     -11.406  13.052  64.214  1.00  0.00    -0.376 C  
HETATM    3  O   UNL     1     -10.070  13.013  63.712  1.00  0.00    -0.710 OA 
HETATM    4  H   UNL     1      -9.557  13.673  64.164  1.00  0.00     0.000 HD 
ENDROOT
BRANCH   2   5
HETATM    5  C   UNL     1     -11.989  14.465  64.062  1.00  0.00    -0.258 C  
BRANCH   5   6
HETATM    6  O   UNL     1     -11.857  15.219  65.281  1.00  0.00    -0.146 OA 
BRANCH   6   7
HETATM    7  C   UNL     1     -12.227  14.428  66.424  1.00  0.00    -0.340 C  
BRANCH   7   8
HETATM    8  C   UNL     1     -11.503  14.927  67.700  1.00  0.00    -0.352 C  
HETATM    9  O   UNL     1     -11.133  13.838  68.579  1.00  0.00    -0.245 OA 
HETATM   10  C   UNL     1     -10.146  12.949  68.077  1.00  0.00    -0.235 C  
HETATM   11  C   UNL     1      -8.832  13.748  67.785  1.00  0.00    -0.188 C  
HETATM   12  C   UNL     1      -9.139  14.926  66.815  1.00  0.00    -0.270 C  
HETATM   13  C   UNL     1     -10.267  15.823  67.399  1.00  0.00    -0.270 C  
BRANCH  10  14
HETATM   14  O   UNL     1      -9.876  11.839  68.971  1.00  0.00    -0.065 OA 
BRANCH  14  15
HETATM   15  C   UNL     1     -10.906  10.831  69.124  1.00  0.00    -0.237 C  
HETATM   16  C   UNL     1     -10.683   9.675  68.087  1.00  0.00    -0.217 C  
HETATM   17  C   UNL     1      -9.182   8.508  69.515  1.00  0.00    -0.150 C  
HETATM   18  O   UNL     1      -9.340   9.172  68.258  1.00  0.00    -0.135 OA 
HETATM   19  C   UNL     1      -9.482   9.462  70.706  1.00  0.00    -0.241 C  
HETATM   20  C   UNL     1     -10.885  10.129  70.523  1.00  0.00    -0.273 C  
BRANCH  16  21
HETATM   21  C   UNL     1     -10.904   9.981  66.592  1.00  0.00     0.012 C  
BRANCH  21  22
HETATM   22  O   UNL     1      -9.645  10.446  66.030  1.00  0.00    -0.181 OA 
BRANCH  22  23
HETATM   23  C   UNL     1      -9.254   9.730  64.854  1.00  0.00    -0.257 C  
BRANCH  23  24
HETATM   24  C   UNL     1      -7.784   9.992  64.456  1.00  0.00    -0.145 C  
HETATM   25  H   UNL     1      -6.413   9.035  63.447  1.00  0.00     0.000 HD 
HETATM   26  C   UNL     1      -6.838  10.203  65.634  1.00  0.00    -0.124 C  
HETATM   27  O   UNL     1      -7.317   8.873  63.692  1.00  0.00    -0.098 OA 
ENDBRANCH  23  24
ENDBRANCH  22  23
ENDBRANCH  21  22
ENDBRANCH  16  21
BRANCH  17  28
HETATM   28  O   UNL     1      -9.985   7.326  69.593  1.00  0.00    -0.172 OA 
BRANCH  28  29
HETATM   29  C   UNL     1      -9.340   6.158  69.086  1.00  0.00    -0.126 C  
BRANCH  29  30
HETATM   30  C   UNL     1      -9.221   5.033  70.123  1.00  0.00    -0.135 C  
HETATM   31  O   UNL     1      -9.421   3.763  69.506  1.00  0.00    -0.166 OA 
HETATM   32  C   UNL     1     -10.223   5.205  71.256  1.00  0.00    -0.292 C  
HETATM   33  H   UNL     1      -9.347   3.067  70.148  1.00  0.00     0.000 HD 
ENDBRANCH  29  30
ENDBRANCH  28  29
ENDBRANCH  17  28
BRANCH  19  34
HETATM   34  O   UNL     1      -9.400   8.857  72.009  1.00  0.00    -0.324 OA 
BRANCH  34  35
HETATM   35  C   UNL     1      -8.125   8.322  72.366  1.00  0.00    -0.147 C  
BRANCH  35  36
HETATM   36  C   UNL     1      -8.208   7.767  73.799  1.00  0.00    -0.202 C  
HETATM   37  H   UNL     1      -7.217   6.466  74.895  1.00  0.00     0.000 HD 
HETATM   38  C   UNL     1      -9.543   7.101  74.091  1.00  0.00    -0.272 C  
HETATM   39  O   UNL     1      -7.166   6.808  74.011  1.00  0.00    -0.089 OA 
ENDBRANCH  35  36
ENDBRANCH  34  35
ENDBRANCH  19  34
BRANCH  20  40
HETATM   40  O   UNL     1     -12.006   9.210  70.554  1.00  0.00    -0.186 OA 
BRANCH  40  41
HETATM   41  C   UNL     1     -13.204   9.784  71.092  1.00  0.00    -0.331 C  
BRANCH  41  42
HETATM   42  C   UNL     1     -14.115   8.677  71.630  1.00  0.00    -0.400 C  
HETATM   43  C   UNL     1     -13.504   7.297  71.500  1.00  0.00    -0.439 C  
HETATM   44  O   UNL     1     -14.389   8.920  73.013  1.00  0.00    -1.115 OA 
HETATM   45  H   UNL     1     -14.954   8.233  73.347  1.00  0.00     0.000 HD 
ENDBRANCH  41  42
ENDBRANCH  40  41
ENDBRANCH  20  40
ENDBRANCH  14  15
ENDBRANCH  10  14
BRANCH  11  46
HETATM   46  O   UNL     1      -8.164  14.274  68.949  1.00  0.00    -0.133 OA 
BRANCH  46  47
HETATM   47  C   UNL     1      -6.781  14.624  68.828  1.00  0.00    -0.088 C  
BRANCH  47  48
HETATM   48  C   UNL     1      -5.809  13.429  68.781  1.00  0.00    -0.079 C  
HETATM   49  C   UNL     1      -6.387  12.197  69.455  1.00  0.00    -0.116 C  
HETATM   50  O   UNL     1      -5.519  13.018  67.438  1.00  0.00    -0.300 OA 
HETATM   51  H   UNL     1      -4.920  12.281  67.409  1.00  0.00     0.000 HD 
ENDBRANCH  47  48
ENDBRANCH  46  47
ENDBRANCH  11  46
BRANCH  12  52
HETATM   52  O   UNL     1      -8.006  15.746  66.425  1.00  0.00    -0.214 OA 
BRANCH  52  53
HETATM   53  C   UNL     1      -8.334  17.059  65.961  1.00  0.00    -0.145 C  
BRANCH  53  54
HETATM   54  C   UNL     1      -7.230  18.078  66.297  1.00  0.00    -0.275 C  
HETATM   55  O   UNL     1      -7.303  19.200  65.415  1.00  0.00    -0.456 OA 
HETATM   56  C   UNL     1      -5.817  17.521  66.233  1.00  0.00    -0.244 C  
HETATM   57  H   UNL     1      -6.622  19.829  65.621  1.00  0.00     0.000 HD 
ENDBRANCH  53  54
ENDBRANCH  52  53
ENDBRANCH  12  52
BRANCH  13  58
HETATM   58  O   UNL     1      -9.925  16.479  68.644  1.00  0.00    -0.227 OA 
BRANCH  58  59
HETATM   59  C   UNL     1     -10.744  17.602  68.995  1.00  0.00     0.071 C  
BRANCH  59  60
HETATM   60  C   UNL     1     -10.185  18.889  68.354  1.00  0.00    -0.373 C  
HETATM   61  O   UNL     1     -10.388  19.985  69.252  1.00  0.00    -0.611 OA 
HETATM   62  H   UNL     1     -10.045  20.778  68.857  1.00  0.00     0.000 HD 
HETATM   63  C   UNL     1     -10.842  19.222  67.032  1.00  0.00    -0.515 C  
ENDBRANCH  59  60
ENDBRANCH  58  59
ENDBRANCH  13  58
ENDBRANCH   7   8
ENDBRANCH   6   7
ENDBRANCH   5   6
ENDBRANCH   2   5
TORSDOF 28
ENDMDL
MODEL       11
REMARK 921   NORMALIZED FREE ENERGY PREDICTED BY IDOCK:   -4.50 KCAL/MOL
REMARK 922        TOTAL FREE ENERGY PREDICTED BY IDOCK:  -17.56 KCAL/MOL
REMARK 923 INTER-LIGAND FREE ENERGY PREDICTED BY IDOCK:  -13.78 KCAL/MOL
REMARK 924 INTRA-LIGAND FREE ENERGY PREDICTED BY IDOCK:   -3.78 KCAL/MOL
REMARK 927      BINDING AFFINITY PREDICTED BY RF-SCORE:    0.00 PKD
ROOT
HETATM    1  C   UNL     1     -10.098  20.018  66.361  1.00  0.00    -0.609 C  
HETATM    2  C   UNL     1     -10.301  18.512  66.332  1.00  0.00    -0.423 C  
HETATM    3  O   UNL     1     -10.983  18.166  65.125  1.00  0.00    -0.637 OA 
HETATM    4  H   UNL     1     -11.110  17.226  65.107  1.00  0.00     0.000 HD 
ENDROOT
BRANCH   2   5
HETATM    5  C   UNL     1      -8.981  17.732  66.436  1.00  0.00    -0.229 C  
BRANCH   5   6
HETATM    6  O   UNL     1      -8.994  16.568  65.591  1.00  0.00    -0.449 OA 
BRANCH   6   7
HETATM    7  C   UNL     1      -8.721  15.375  66.347  1.00  0.00    -0.272 C  
BRANCH   7   8
HETATM    8  C   UNL     1      -9.928  14.403  66.305  1.00  0.00    -0.306 C  
HETATM    9  O   UNL     1      -9.583  13.082  66.783  1.00  0.00    -0.234 OA 
HETATM   10  C   UNL     1      -9.252  12.993  68.162  1.00  0.00    -0.212 C  
HETATM   11  C   UNL     1     -10.473  13.469  69.018  1.00  0.00    -0.051 C  
HETATM   12  C   UNL     1     -10.890  14.904  68.585  1.00  0.00    -0.251 C  
HETATM   13  C   UNL     1     -11.179  14.942  67.058  1.00  0.00    -0.344 C  
BRANCH  10  14
HETATM   14  O   UNL     1      -8.842  11.659  68.560  1.00  0.00    -0.165 OA 
BRANCH  14  15
HETATM   15  C   UNL     1      -7.987  10.918  67.654  1.00  0.00    -0.114 C  
HETATM   16  C   UNL     1      -6.745  10.354  68.430  1.00  0.00    -0.060 C  
HETATM   17  C   UNL     1      -7.900   8.391  69.114  1.00  0.00    -0.105 C  
HETATM   18  O   UNL     1      -7.229   9.578  69.548  1.00  0.00    -0.065 OA 
HETATM   19  C   UNL     1      -9.120   8.724  68.209  1.00  0.00    -0.141 C  
HETATM   20  C   UNL     1      -8.681   9.660  67.035  1.00  0.00    -0.128 C  
BRANCH  16  21
HETATM   21  C   UNL     1      -5.691  11.354  68.948  1.00  0.00    -0.043 C  
BRANCH  21  22
HETATM   22  O   UNL     1      -6.291  12.135  70.020  1.00  0.00    -0.128 OA 
BRANCH  22  23
HETATM   23  C   UNL     1      -5.447  13.192  70.488  1.00  0.00    -0.159 C  
BRANCH  23  24
HETATM   24  C   UNL     1      -5.802  14.559  69.862  1.00  0.00    -0.122 C  
HETATM   25  H   UNL     1      -7.402  15.673  69.743  1.00  0.00     0.000 HD 
HETATM   26  C   UNL     1      -5.571  14.646  68.357  1.00  0.00    -0.107 C  
HETATM   27  O   UNL     1      -7.185  14.832  70.127  1.00  0.00    -0.082 OA 
ENDBRANCH  23  24
ENDBRANCH  22  23
ENDBRANCH  21  22
ENDBRANCH  16  21
BRANCH  17  28
HETATM   28  O   UNL     1      -7.005   7.490  68.453  1.00  0.00    -0.074 OA 
BRANCH  28  29
HETATM   29  C   UNL     1      -6.079   6.852  69.332  1.00  0.00    -0.033 C  
BRANCH  29  30
HETATM   30  C   UNL     1      -6.753   5.923  70.351  1.00  0.00    -0.049 C  
HETATM   31  O   UNL     1      -6.512   6.383  71.680  1.00  0.00    -0.048 OA 
HETATM   32  C   UNL     1      -6.259   4.490  70.218  1.00  0.00    -0.022 C  
HETATM   33  H   UNL     1      -6.929   5.808  72.311  1.00  0.00     0.000 HD 
ENDBRANCH  29  30
ENDBRANCH  28  29
ENDBRANCH  17  28
BRANCH  19  34
HETATM   34  O   UNL     1      -9.820   7.582  67.682  1.00  0.00    -0.147 OA 
BRANCH  34  35
HETATM   35  C   UNL     1     -10.543   6.804  68.636  1.00  0.00    -0.227 C  
BRANCH  35  36
HETATM   36  C   UNL     1      -9.784   5.487  68.875  1.00  0.00    -0.144 C  
HETATM   37  H   UNL     1      -9.604   3.748  67.970  1.00  0.00     0.000 HD 
HETATM   38  C   UNL     1     -10.145   4.837  70.202  1.00  0.00    -0.310 C  
HETATM   39  O   UNL     1     -10.073   4.560  67.822  1.00  0.00    -0.102 OA 
ENDBRANCH  35  36
ENDBRANCH  34  35
ENDBRANCH  19  34
BRANCH  20  40
HETATM   40  O   UNL     1      -7.740   9.070  66.103  1.00  0.00    -0.096 OA 
BRANCH  40  41
HETATM   41  C   UNL     1      -8.329   8.696  64.852  1.00  0.00    -0.164 C  
BRANCH  41  42
HETATM   42  C   UNL     1      -7.827   9.625  63.742  1.00  0.00    -0.139 C  
HETATM   43  C   UNL     1      -8.844   9.821  62.636  1.00  0.00    -0.250 C  
HETATM   44  O   UNL     1      -7.516  10.904  64.300  1.00  0.00    -0.323 OA 
HETATM   45  H   UNL     1      -7.205  11.480  63.611  1.00  0.00     0.000 HD 
ENDBRANCH  41  42
ENDBRANCH  40  41
ENDBRANCH  20  40
ENDBRANCH  14  15
ENDBRANCH  10  14
BRANCH  11  46
HETATM   46  O   UNL     1     -11.633  12.615  68.957  1.00  0.00    -0.276 OA 
BRANCH  46  47
HETATM   47  C   UNL     1     -12.077  11.997  70.170  1.00  0.00    -0.298 C  
BRANCH  47  48
HETATM   48  C   UNL     1     -12.254  10.468  70.094  1.00  0.00    -0.280 C  
HETATM   49  C   UNL     1     -11.160   9.729  70.844  1.00  0.00    -0.428 C  
HETATM   50  O   UNL     1     -13.480  10.033  70.699  1.00  0.00    -0.582 OA 
HETATM   51  H   UNL     1     -13.589   9.091  70.652  1.00  0.00     0.000 HD 
ENDBRANCH  47  48
ENDBRANCH  46  47
ENDBRANCH  11  46
BRANCH  12  52
HETATM   52  O   UNL     1     -11.996  15.496  69.314  1.00  0.00    -0.342 OA 
BRANCH  52  53
HETATM   53  C   UNL     1     -11.664  16.031  70.599  1.00  0.00    -0.350 C  
BRANCH  53  54
HETATM   54  C   UNL     1     -12.828  15.891  71.597  1.00  0.00    -0.363 C  
HETATM   55  O   UNL     1     -12.365  15.327  72.826  1.00  0.00    -0.341 OA 
HETATM   56  C   UNL     1     -13.987  15.044  71.099  1.00  0.00    -0.451 C  
HETATM   57  H   UNL     1     -13.083  15.240  73.442  1.00  0.00     0.000 HD 
ENDBRANCH  53  54
ENDBRANCH  52  53
ENDBRANCH  12  52
BRANCH  13  58
HETATM   58  O   UNL     1     -12.293  14.116  66.640  1.00  0.00    -0.455 OA 
BRANCH  58  59
HETATM   59  C   UNL     1     -12.863  14.447  65.367  1.00  0.00    -0.221 C  
BRANCH  59  60
HETATM   60  C   UNL     1     -12.199  13.614  64.253  1.00  0.00    -0.396 C  
HETATM   61  O   UNL     1     -12.570  14.154  62.980  1.00  0.00    -1.002 OA 
HETATM   62  H   UNL     1     -12.161  13.640  62.293  1.00  0.00     0.000 HD 
HETATM   63  C   UNL     1     -12.596  12.154  64.291  1.00  0.00    -0.432 C  
ENDBRANCH  59  60
ENDBRANCH  58  59
ENDBRANCH  13  58
ENDBRANCH   7   8
ENDBRANCH   6   7
ENDBRANCH   5   6
ENDBRANCH   2   5
TORSDOF 28
ENDMDL
MODEL       12
REMARK 921   NORMALIZED FREE ENERGY PREDICTED BY IDOCK:   -4.49 KCAL/MOL
REMARK 922        TOTAL FREE ENERGY PREDICTED BY IDOCK:  -17.54 KCAL/MOL
REMARK 923 INTER-LIGAND FREE ENERGY PREDICTED BY IDOCK:  -12.79 KCAL/MOL
REMARK 924 INTRA-LIGAND FREE ENERGY PREDICTED BY IDOCK:   -4.74 KCAL/MOL
REMARK 927      BINDING AFFINITY PREDICTED BY RF-SCORE:    0.00 PKD
ROOT
HETATM    1  C   UNL     1     -12.485   8.482  72.192  1.00  0.00    -0.437 C  
HETATM    2  C   UNL     1     -11.905   7.153  71.738  1.00  0.00    -0.303 C  
HETATM    3  O   UNL     1     -12.588   6.101  72.421  1.00  0.00    -0.542 OA 
HETATM    4  H   UNL     1     -12.225   5.270  72.138  1.00  0.00     0.000 HD 
ENDROOT
BRANCH   2   5
HETATM    5  C   UNL     1     -12.003   6.950  70.218  1.00  0.00    -0.202 C  
BRANCH   5   6
HETATM    6  O   UNL     1     -11.326   5.749  69.807  1.00  0.00    -0.287 OA 
BRANCH   6   7
HETATM    7  C   UNL     1     -10.108   6.054  69.105  1.00  0.00    -0.181 C  
BRANCH   7   8
HETATM    8  C   UNL     1     -10.289   5.874  67.576  1.00  0.00    -0.215 C  
HETATM    9  O   UNL     1     -10.740   7.090  66.933  1.00  0.00    -0.324 OA 
HETATM   10  C   UNL     1      -9.817   8.170  66.939  1.00  0.00    -0.247 C  
HETATM   11  C   UNL     1      -8.509   7.735  66.196  1.00  0.00    -0.138 C  
HETATM   12  C   UNL     1      -7.938   6.443  66.852  1.00  0.00    -0.109 C  
HETATM   13  C   UNL     1      -9.018   5.325  66.865  1.00  0.00    -0.109 C  
BRANCH  10  14
HETATM   14  O   UNL     1     -10.357   9.379  66.348  1.00  0.00    -0.242 OA 
BRANCH  14  15
HETATM   15  C   UNL     1      -9.809  10.647  66.787  1.00  0.00    -0.198 C  
HETATM   16  C   UNL     1     -10.962  11.698  66.962  1.00  0.00    -0.288 C  
HETATM   17  C   UNL     1     -11.428  11.008  69.189  1.00  0.00    -0.301 C  
HETATM   18  O   UNL     1     -11.944  11.140  67.862  1.00  0.00    -0.624 OA 
HETATM   19  C   UNL     1     -10.178  10.084  69.226  1.00  0.00    -0.214 C  
HETATM   20  C   UNL     1      -9.115  10.572  68.187  1.00  0.00    -0.141 C  
BRANCH  16  21
HETATM   21  C   UNL     1     -11.687  12.204  65.698  1.00  0.00    -0.323 C  
BRANCH  21  22
HETATM   22  O   UNL     1     -12.193  13.541  65.967  1.00  0.00    -0.414 OA 
BRANCH  22  23
HETATM   23  C   UNL     1     -12.016  14.443  64.871  1.00  0.00    -0.426 C  
BRANCH  23  24
HETATM   24  C   UNL     1     -11.254  15.726  65.270  1.00  0.00    -0.190 C  
HETATM   25  H   UNL     1     -10.941  17.479  64.465  1.00  0.00     0.000 HD 
HETATM   26  C   UNL     1      -9.764  15.524  65.524  1.00  0.00    -0.307 C  
HETATM   27  O   UNL     1     -11.410  16.690  64.219  1.00  0.00    -1.116 OA 
ENDBRANCH  23  24
ENDBRANCH  22  23
ENDBRANCH  21  22
ENDBRANCH  16  21
BRANCH  17  28
HETATM   28  O   UNL     1     -11.138  12.283  69.772  1.00  0.00    -0.049 OA 
BRANCH  28  29
HETATM   29  C   UNL     1     -12.255  12.882  70.429  1.00  0.00    -0.304 C  
BRANCH  29  30
HETATM   30  C   UNL     1     -12.171  14.414  70.489  1.00  0.00    -0.341 C  
HETATM   31  O   UNL     1     -11.106  14.821  71.346  1.00  0.00    -0.549 OA 
HETATM   32  C   UNL     1     -13.474  15.029  70.980  1.00  0.00    -0.461 C  
HETATM   33  H   UNL     1     -11.054  15.769  71.384  1.00  0.00     0.000 HD 
ENDBRANCH  29  30
ENDBRANCH  28  29
ENDBRANCH  17  28
BRANCH  19  34
HETATM   34  O   UNL     1      -9.561   9.942  70.519  1.00  0.00    -0.180 OA 
BRANCH  34  35
HETATM   35  C   UNL     1      -8.378   9.143  70.557  1.00  0.00    -0.194 C  
BRANCH  35  36
HETATM   36  C   UNL     1      -8.554   8.055  71.631  1.00  0.00    -0.129 C  
HETATM   37  H   UNL     1      -8.667   7.979  73.595  1.00  0.00     0.000 HD 
HETATM   38  C   UNL     1      -7.452   7.007  71.585  1.00  0.00    -0.088 C  
HETATM   39  O   UNL     1      -8.559   8.651  72.932  1.00  0.00    -0.398 OA 
ENDBRANCH  35  36
ENDBRANCH  34  35
ENDBRANCH  19  34
BRANCH  20  40
HETATM   40  O   UNL     1      -8.556  11.882  68.456  1.00  0.00    -0.162 OA 
BRANCH  40  41
HETATM   41  C   UNL     1      -7.130  11.882  68.587  1.00  0.00    -0.102 C  
BRANCH  41  42
HETATM   42  C   UNL     1      -6.530  13.020  67.756  1.00  0.00    -0.148 C  
HETATM   43  C   UNL     1      -5.432  13.767  68.485  1.00  0.00    -0.093 C  
HETATM   44  O   UNL     1      -5.985  12.487  66.545  1.00  0.00    -0.389 OA 
HETATM   45  H   UNL     1      -5.613  13.193  66.030  1.00  0.00     0.000 HD 
ENDBRANCH  41  42
ENDBRANCH  40  41
ENDBRANCH  20  40
ENDBRANCH  14  15
ENDBRANCH  10  14
BRANCH  11  46
HETATM   46  O   UNL     1      -8.657   7.505  64.781  1.00  0.00     0.010 OA 
BRANCH  46  47
HETATM   47  C   UNL     1      -7.689   8.089  63.902  1.00  0.00    -0.138 C  
BRANCH  47  48
HETATM   48  C   UNL     1      -6.913   7.084  63.029  1.00  0.00    -0.057 C  
HETATM   49  C   UNL     1      -5.417   7.145  63.282  1.00  0.00    -0.033 C  
HETATM   50  O   UNL     1      -7.282   5.726  63.306  1.00  0.00    -0.047 OA 
HETATM   51  H   UNL     1      -6.804   5.106  62.768  1.00  0.00     0.000 HD 
ENDBRANCH  47  48
ENDBRANCH  46  47
ENDBRANCH  11  46
BRANCH  12  52
HETATM   52  O   UNL     1      -6.703   5.932  66.288  1.00  0.00    -0.056 OA 
BRANCH  52  53
HETATM   53  C   UNL     1      -6.004   4.988  67.104  1.00  0.00    -0.026 C  
BRANCH  53  54
HETATM   54  C   UNL     1      -5.791   3.647  66.377  1.00  0.00    -0.023 C  
HETATM   55  O   UNL     1      -6.024   3.799  64.975  1.00  0.00    -0.021 OA 
HETATM   56  C   UNL     1      -6.665   2.511  66.879  1.00  0.00    -0.040 C  
HETATM   57  H   UNL     1      -5.893   2.972  64.526  1.00  0.00     0.000 HD 
ENDBRANCH  53  54
ENDBRANCH  52  53
ENDBRANCH  12  52
BRANCH  13  58
HETATM   58  O   UNL     1      -9.443   4.889  65.551  1.00  0.00    -0.160 OA 
BRANCH  58  59
HETATM   59  C   UNL     1      -9.910   3.535  65.471  1.00  0.00    -0.012 C  
BRANCH  59  60
HETATM   60  C   UNL     1      -9.810   3.022  64.021  1.00  0.00    -0.159 C  
HETATM   61  O   UNL     1     -11.071   2.466  63.633  1.00  0.00    -0.473 OA 
HETATM   62  H   UNL     1     -11.010   2.149  62.740  1.00  0.00     0.000 HD 
HETATM   63  C   UNL     1      -8.743   1.964  63.843  1.00  0.00    -0.089 C  
ENDBRANCH  59  60
ENDBRANCH  58  59
ENDBRANCH  13  58
ENDBRANCH   7   8
ENDBRANCH   6   7
ENDBRANCH   5   6
ENDBRANCH   2   5
TORSDOF 28
ENDMDL
MODEL       13
REMARK 921   NORMALIZED FREE ENERGY PREDICTED BY IDOCK:   -3.85 KCAL/MOL
REMARK 922        TOTAL FREE ENERGY PREDICTED BY IDOCK:  -15.85 KCAL/MOL
REMARK 923 INTER-LIGAND FREE ENERGY PREDICTED BY IDOCK:  -11.47 KCAL/MOL
REMARK 924 INTRA-LIGAND FREE ENERGY PREDICTED BY IDOCK:   -4.37 KCAL/MOL
REMARK 927      BINDING AFFINITY PREDICTED BY RF-SCORE:    0.00 PKD
ROOT
HETATM    1  C   UNL     1     -12.176  15.014  64.337  1.00  0.00    -0.353 C  
HETATM    2  C   UNL     1     -11.970  13.523  64.129  1.00  0.00    -0.448 C  
HETATM    3  O   UNL     1     -10.603  13.295  63.782  1.00  0.00    -0.493 OA 
HETATM    4  H   UNL     1     -10.474  12.363  63.652  1.00  0.00     0.000 HD 
ENDROOT
BRANCH   2   5
HETATM    5  C   UNL     1     -12.347  12.693  65.366  1.00  0.00    -0.436 C  
BRANCH   5   6
HETATM    6  O   UNL     1     -11.356  11.688  65.643  1.00  0.00    -0.274 OA 
BRANCH   6   7
HETATM    7  C   UNL     1     -11.197  11.490  67.059  1.00  0.00    -0.300 C  
BRANCH   7   8
HETATM    8  C   UNL     1      -9.900  12.167  67.571  1.00  0.00    -0.191 C  
HETATM    9  O   UNL     1      -9.388  11.531  68.766  1.00  0.00    -0.169 OA 
HETATM   10  C   UNL     1      -8.916  10.201  68.604  1.00  0.00    -0.136 C  
HETATM   11  C   UNL     1      -7.748  10.192  67.562  1.00  0.00    -0.091 C  
HETATM   12  C   UNL     1      -8.228  10.833  66.228  1.00  0.00    -0.162 C  
HETATM   13  C   UNL     1      -8.785  12.261  66.488  1.00  0.00    -0.084 C  
BRANCH  10  14
HETATM   14  O   UNL     1      -8.489   9.596  69.851  1.00  0.00    -0.162 OA 
BRANCH  14  15
HETATM   15  C   UNL     1      -8.804   8.197  70.064  1.00  0.00    -0.139 C  
HETATM   16  C   UNL     1      -8.280   7.738  71.471  1.00  0.00    -0.105 C  
HETATM   17  C   UNL     1     -10.253   8.460  72.585  1.00  0.00    -0.249 C  
HETATM   18  O   UNL     1      -8.837   8.624  72.467  1.00  0.00    -0.356 OA 
HETATM   19  C   UNL     1     -10.975   8.754  71.239  1.00  0.00    -0.275 C  
HETATM   20  C   UNL     1     -10.340   7.903  70.090  1.00  0.00    -0.215 C  
BRANCH  16  21
HETATM   21  C   UNL     1      -6.756   7.651  71.690  1.00  0.00    -0.045 C  
BRANCH  21  22
HETATM   22  O   UNL     1      -6.139   7.222  70.444  1.00  0.00    -0.027 OA 
BRANCH  22  23
HETATM   23  C   UNL     1      -5.352   6.035  70.584  1.00  0.00    -0.013 C  
BRANCH  23  24
HETATM   24  C   UNL     1      -5.817   4.898  69.647  1.00  0.00    -0.017 C  
HETATM   25  H   UNL     1      -7.442   4.484  68.644  1.00  0.00     0.000 HD 
HETATM   26  C   UNL     1      -5.796   3.510  70.279  1.00  0.00    -0.018 C  
HETATM   27  O   UNL     1      -7.156   5.184  69.220  1.00  0.00    -0.054 OA 
ENDBRANCH  23  24
ENDBRANCH  22  23
ENDBRANCH  21  22
ENDBRANCH  16  21
BRANCH  17  28
HETATM   28  O   UNL     1     -10.596   7.160  73.075  1.00  0.00    -0.249 OA 
BRANCH  28  29
HETATM   29  C   UNL     1      -9.966   6.828  74.312  1.00  0.00    -0.323 C  
BRANCH  29  30
HETATM   30  C   UNL     1      -9.814   5.316  74.527  1.00  0.00    -0.206 C  
HETATM   31  O   UNL     1      -8.528   4.877  74.094  1.00  0.00    -0.105 OA 
HETATM   32  C   UNL     1     -10.888   4.532  73.786  1.00  0.00    -0.360 C  
HETATM   33  H   UNL     1      -8.434   3.941  74.226  1.00  0.00     0.000 HD 
ENDBRANCH  29  30
ENDBRANCH  28  29
ENDBRANCH  17  28
BRANCH  19  34
HETATM   34  O   UNL     1     -12.401   8.559  71.255  1.00  0.00    -0.307 OA 
BRANCH  34  35
HETATM   35  C   UNL     1     -13.141   9.459  72.080  1.00  0.00    -0.433 C  
BRANCH  35  36
HETATM   36  C   UNL     1     -13.438  10.734  71.273  1.00  0.00     0.076 C  
HETATM   37  H   UNL     1     -12.903  11.495  69.537  1.00  0.00     0.000 HD 
HETATM   38  C   UNL     1     -13.059  12.002  72.022  1.00  0.00    -0.456 C  
HETATM   39  O   UNL     1     -12.719  10.707  70.035  1.00  0.00    -0.278 OA 
ENDBRANCH  35  36
ENDBRANCH  34  35
ENDBRANCH  19  34
BRANCH  20  40
HETATM   40  O   UNL     1     -10.497   6.469  70.234  1.00  0.00    -0.201 OA 
BRANCH  40  41
HETATM   41  C   UNL     1     -11.161   5.849  69.126  1.00  0.00    -0.258 C  
BRANCH  41  42
HETATM   42  C   UNL     1     -10.434   6.196  67.824  1.00  0.00    -0.231 C  
HETATM   43  C   UNL     1     -10.079   4.972  67.004  1.00  0.00    -0.251 C  
HETATM   44  O   UNL     1     -11.267   7.045  67.028  1.00  0.00    -0.564 OA 
HETATM   45  H   UNL     1     -10.816   7.260  66.220  1.00  0.00     0.000 HD 
ENDBRANCH  41  42
ENDBRANCH  40  41
ENDBRANCH  20  40
ENDBRANCH  14  15
ENDBRANCH  10  14
BRANCH  11  46
HETATM   46  O   UNL     1      -6.544  10.862  67.987  1.00  0.00    -0.061 OA 
BRANCH  46  47
HETATM   47  C   UNL     1      -5.721  10.210  68.960  1.00  0.00    -0.038 C  
BRANCH  47  48
HETATM   48  C   UNL     1      -5.344  11.076  70.178  1.00  0.00    -0.063 C  
HETATM   49  C   UNL     1      -5.531  12.558  69.905  1.00  0.00    -0.101 C  
HETATM   50  O   UNL     1      -6.170  10.800  71.317  1.00  0.00    -0.326 OA 
HETATM   51  H   UNL     1      -5.937  11.333  72.068  1.00  0.00     0.000 HD 
ENDBRANCH  47  48
ENDBRANCH  46  47
ENDBRANCH  11  46
BRANCH  12  52
HETATM   52  O   UNL     1      -7.258  10.869  65.149  1.00  0.00     0.089 OA 
BRANCH  52  53
HETATM   53  C   UNL     1      -7.239   9.712  64.307  1.00  0.00    -0.122 C  
BRANCH  53  54
HETATM   54  C   UNL     1      -8.620   9.431  63.687  1.00  0.00    -0.208 C  
HETATM   55  O   UNL     1      -8.744   8.046  63.356  1.00  0.00    -0.381 OA 
HETATM   56  C   UNL     1      -8.928  10.242  62.440  1.00  0.00    -0.288 C  
HETATM   57  H   UNL     1      -9.596   7.872  62.973  1.00  0.00     0.000 HD 
ENDBRANCH  53  54
ENDBRANCH  52  53
ENDBRANCH  12  52
BRANCH  13  58
HETATM   58  O   UNL     1      -7.806  13.202  66.993  1.00  0.00    -0.094 OA 
BRANCH  58  59
HETATM   59  C   UNL     1      -8.266  14.552  67.140  1.00  0.00    -0.188 C  
BRANCH  59  60
HETATM   60  C   UNL     1      -7.794  15.132  68.488  1.00  0.00    -0.135 C  
HETATM   61  O   UNL     1      -8.485  14.466  69.551  1.00  0.00    -0.362 OA 
HETATM   62  H   UNL     1      -8.194  14.824  70.382  1.00  0.00     0.000 HD 
HETATM   63  C   UNL     1      -8.044  16.619  68.610  1.00  0.00    -0.237 C  
ENDBRANCH  59  60
ENDBRANCH  58  59
ENDBRANCH  13  58
ENDBRANCH   7   8
ENDBRANCH   6   7
ENDBRANCH   5   6
ENDBRANCH   2   5
TORSDOF 28
ENDMDL
MODEL       14
REMARK 921   NORMALIZED FREE ENERGY PREDICTED BY IDOCK:   -3.83 KCAL/MOL
REMARK 922        TOTAL FREE ENERGY PREDICTED BY IDOCK:  -15.78 KCAL/MOL
REMARK 923 INTER-LIGAND FREE ENERGY PREDICTED BY IDOCK:  -11.80 KCAL/MOL
REMARK 924 INTRA-LIGAND FREE ENERGY PREDICTED BY IDOCK:   -3.98 KCAL/MOL
REMARK 927      BINDING AFFINITY PREDICTED BY RF-SCORE:    0.00 PKD
ROOT
HETATM    1  C   UNL     1      -8.286   3.535  64.293  1.00  0.00    -0.090 C  
HETATM    2  C   UNL     1      -9.376   4.293  65.032  1.00  0.00    -0.165 C  
HETATM    3  O   UNL     1     -10.628   4.024  64.399  1.00  0.00    -0.343 OA 
HETATM    4  H   UNL     1     -11.309   4.497  64.860  1.00  0.00     0.000 HD 
ENDROOT
BRANCH   2   5
HETATM    5  C   UNL     1      -9.447   3.929  66.523  1.00  0.00    -0.195 C  
BRANCH   5   6
HETATM    6  O   UNL     1      -9.748   5.083  67.328  1.00  0.00    -0.142 OA 
BRANCH   6   7
HETATM    7  C   UNL     1      -8.979   6.224  66.911  1.00  0.00    -0.120 C  
BRANCH   7   8
HETATM    8  C   UNL     1      -8.296   6.906  68.123  1.00  0.00    -0.118 C  
HETATM    9  O   UNL     1      -8.766   8.260  68.324  1.00  0.00    -0.135 OA 
HETATM   10  C   UNL     1     -10.126   8.389  68.713  1.00  0.00    -0.196 C  
HETATM   11  C   UNL     1     -10.350   7.637  70.067  1.00  0.00    -0.223 C  
HETATM   12  C   UNL     1      -9.897   6.155  69.926  1.00  0.00    -0.168 C  
HETATM   13  C   UNL     1      -8.420   6.089  69.442  1.00  0.00    -0.115 C  
BRANCH  10  14
HETATM   14  O   UNL     1     -10.554   9.771  68.823  1.00  0.00    -0.207 OA 
BRANCH  14  15
HETATM   15  C   UNL     1      -9.773  10.776  68.130  1.00  0.00    -0.159 C  
HETATM   16  C   UNL     1     -10.356  11.011  66.692  1.00  0.00    -0.240 C  
HETATM   17  C   UNL     1     -11.937  12.616  67.455  1.00  0.00    -0.250 C  
HETATM   18  O   UNL     1     -11.755  11.344  66.825  1.00  0.00    -0.474 OA 
HETATM   19  C   UNL     1     -11.310  12.642  68.878  1.00  0.00    -0.297 C  
HETATM   20  C   UNL     1      -9.816  12.181  68.818  1.00  0.00    -0.021 C  
BRANCH  16  21
HETATM   21  C   UNL     1     -10.219   9.880  65.653  1.00  0.00    -0.159 C  
BRANCH  21  22
HETATM   22  O   UNL     1     -10.386  10.454  64.327  1.00  0.00    -0.282 OA 
BRANCH  22  23
HETATM   23  C   UNL     1      -9.149  10.844  63.722  1.00  0.00    -0.174 C  
BRANCH  23  24
HETATM   24  C   UNL     1      -7.981   9.902  64.091  1.00  0.00    -0.150 C  
HETATM   25  H   UNL     1      -6.033  10.038  64.141  1.00  0.00     0.000 HD 
HETATM   26  C   UNL     1      -7.919   8.618  63.270  1.00  0.00    -0.163 C  
HETATM   27  O   UNL     1      -6.751  10.617  63.913  1.00  0.00     0.038 OA 
ENDBRANCH  23  24
ENDBRANCH  22  23
ENDBRANCH  21  22
ENDBRANCH  16  21
BRANCH  17  28
HETATM   28  O   UNL     1     -11.422  13.682  66.651  1.00  0.00    -0.319 OA 
BRANCH  28  29
HETATM   29  C   UNL     1     -12.400  14.288  65.806  1.00  0.00    -0.405 C  
BRANCH  29  30
HETATM   30  C   UNL     1     -11.896  14.534  64.377  1.00  0.00    -0.403 C  
HETATM   31  O   UNL     1     -12.659  15.562  63.749  1.00  0.00    -0.847 OA 
HETATM   32  C   UNL     1     -11.966  13.269  63.532  1.00  0.00    -0.537 C  
HETATM   33  H   UNL     1     -12.348  15.714  62.864  1.00  0.00     0.000 HD 
ENDBRANCH  29  30
ENDBRANCH  28  29
ENDBRANCH  17  28
BRANCH  19  34
HETATM   34  O   UNL     1     -11.399  13.905  69.562  1.00  0.00    -0.261 OA 
BRANCH  34  35
HETATM   35  C   UNL     1     -12.047  13.877  70.834  1.00  0.00    -0.313 C  
BRANCH  35  36
HETATM   36  C   UNL     1     -12.947  15.119  70.956  1.00  0.00    -0.431 C  
HETATM   37  H   UNL     1     -12.853  16.882  71.826  1.00  0.00     0.000 HD 
HETATM   38  C   UNL     1     -14.296  14.804  71.585  1.00  0.00    -0.645 C  
HETATM   39  O   UNL     1     -12.298  16.116  71.751  1.00  0.00    -0.455 OA 
ENDBRANCH  35  36
ENDBRANCH  34  35
ENDBRANCH  19  34
BRANCH  20  40
HETATM   40  O   UNL     1      -8.939  13.052  68.062  1.00  0.00    -0.185 OA 
BRANCH  40  41
HETATM   41  C   UNL     1      -7.690  13.315  68.714  1.00  0.00    -0.022 C  
BRANCH  41  42
HETATM   42  C   UNL     1      -6.567  12.539  68.019  1.00  0.00    -0.086 C  
HETATM   43  C   UNL     1      -6.105  11.334  68.813  1.00  0.00    -0.044 C  
HETATM   44  O   UNL     1      -7.023  12.088  66.741  1.00  0.00    -0.338 OA 
HETATM   45  H   UNL     1      -6.326  11.607  66.310  1.00  0.00     0.000 HD 
ENDBRANCH  41  42
ENDBRANCH  40  41
ENDBRANCH  20  40
ENDBRANCH  14  15
ENDBRANCH  10  14
BRANCH  11  46
HETATM   46  O   UNL     1      -9.681   8.216  71.206  1.00  0.00    -0.156 OA 
BRANCH  46  47
HETATM   47  C   UNL     1     -10.418   8.333  72.428  1.00  0.00    -0.334 C  
BRANCH  47  48
HETATM   48  C   UNL     1      -9.823   7.562  73.622  1.00  0.00    -0.293 C  
HETATM   49  C   UNL     1     -10.664   6.355  73.999  1.00  0.00    -0.061 C  
HETATM   50  O   UNL     1      -8.521   7.032  73.333  1.00  0.00    -0.123 OA 
HETATM   51  H   UNL     1      -8.155   6.557  74.069  1.00  0.00     0.000 HD 
ENDBRANCH  47  48
ENDBRANCH  46  47
ENDBRANCH  11  46
BRANCH  12  52
HETATM   52  O   UNL     1     -10.072   5.318  71.098  1.00  0.00    -0.197 OA 
BRANCH  52  53
HETATM   53  C   UNL     1      -9.772   3.931  70.908  1.00  0.00    -0.183 C  
BRANCH  53  54
HETATM   54  C   UNL     1      -9.994   3.115  72.195  1.00  0.00    -0.162 C  
HETATM   55  O   UNL     1      -9.054   3.503  73.199  1.00  0.00    -0.097 OA 
HETATM   56  C   UNL     1      -9.894   1.610  72.012  1.00  0.00    -0.200 C  
HETATM   57  H   UNL     1      -9.191   2.999  73.993  1.00  0.00     0.000 HD 
ENDBRANCH  53  54
ENDBRANCH  52  53
ENDBRANCH  12  52
BRANCH  13  58
HETATM   58  O   UNL     1      -7.462   6.658  70.367  1.00  0.00    -0.086 OA 
BRANCH  58  59
HETATM   59  C   UNL     1      -6.085   6.525  69.988  1.00  0.00    -0.030 C  
BRANCH  59  60
HETATM   60  C   UNL     1      -5.425   5.377  70.778  1.00  0.00    -0.008 C  
HETATM   61  O   UNL     1      -5.394   4.203  69.958  1.00  0.00    -0.007 OA 
HETATM   62  H   UNL     1      -4.987   3.496  70.445  1.00  0.00     0.000 HD 
HETATM   63  C   UNL     1      -6.155   5.048  72.061  1.00  0.00    -0.025 C  
ENDBRANCH  59  60
ENDBRANCH  58  59
ENDBRANCH  13  58
ENDBRANCH   7   8
ENDBRANCH   6   7
ENDBRANCH   5   6
ENDBRANCH   2   5
TORSDOF 28
ENDMDL
MODEL       15
REMARK 921   NORMALIZED FREE ENERGY PREDICTED BY IDOCK:   -3.72 KCAL/MOL
REMARK 922        TOTAL FREE ENERGY PREDICTED BY IDOCK:  -15.50 KCAL/MOL
REMARK 923 INTER-LIGAND FREE ENERGY PREDICTED BY IDOCK:  -10.77 KCAL/MOL
REMARK 924 INTRA-LIGAND FREE ENERGY PREDICTED BY IDOCK:   -4.73 KCAL/MOL
REMARK 927      BINDING AFFINITY PREDICTED BY RF-SCORE:    0.00 PKD
ROOT
HETATM    1  C   UNL     1     -13.720   9.033  71.679  1.00  0.00    -0.442 C  
HETATM    2  C   UNL     1     -12.448   8.205  71.602  1.00  0.00    -0.319 C  
HETATM    3  O   UNL     1     -11.846   8.172  72.896  1.00  0.00    -0.559 OA 
HETATM    4  H   UNL     1     -11.051   7.654  72.848  1.00  0.00     0.000 HD 
ENDROOT
BRANCH   2   5
HETATM    5  C   UNL     1     -12.700   6.776  71.097  1.00  0.00    -0.194 C  
BRANCH   5   6
HETATM    6  O   UNL     1     -11.505   6.202  70.536  1.00  0.00    -0.342 OA 
BRANCH   6   7
HETATM    7  C   UNL     1     -11.023   6.984  69.429  1.00  0.00    -0.201 C  
BRANCH   7   8
HETATM    8  C   UNL     1     -10.777   6.091  68.186  1.00  0.00    -0.278 C  
HETATM    9  O   UNL     1     -10.663   6.868  66.970  1.00  0.00    -0.310 OA 
HETATM   10  C   UNL     1      -9.526   7.716  66.884  1.00  0.00    -0.172 C  
HETATM   11  C   UNL     1      -8.227   6.848  66.980  1.00  0.00    -0.120 C  
HETATM   12  C   UNL     1      -8.256   6.000  68.285  1.00  0.00    -0.110 C  
HETATM   13  C   UNL     1      -9.552   5.143  68.340  1.00  0.00    -0.139 C  
BRANCH  10  14
HETATM   14  O   UNL     1      -9.510   8.521  65.679  1.00  0.00    -0.133 OA 
BRANCH  14  15
HETATM   15  C   UNL     1      -8.783   9.775  65.715  1.00  0.00    -0.142 C  
HETATM   16  C   UNL     1      -9.758  10.969  65.419  1.00  0.00    -0.232 C  
HETATM   17  C   UNL     1     -10.417  11.165  67.695  1.00  0.00    -0.196 C  
HETATM   18  O   UNL     1     -10.852  10.898  66.359  1.00  0.00    -0.230 OA 
HETATM   19  C   UNL     1      -9.334  10.148  68.156  1.00  0.00    -0.135 C  
HETATM   20  C   UNL     1      -8.166  10.096  67.117  1.00  0.00    -0.121 C  
BRANCH  16  21
HETATM   21  C   UNL     1     -10.341  11.101  63.997  1.00  0.00    -0.376 C  
BRANCH  21  22
HETATM   22  O   UNL     1     -10.525  12.515  63.708  1.00  0.00    -0.416 OA 
BRANCH  22  23
HETATM   23  C   UNL     1     -11.900  12.897  63.611  1.00  0.00    -0.532 C  
BRANCH  23  24
HETATM   24  C   UNL     1     -12.243  14.121  64.491  1.00  0.00    -0.445 C  
HETATM   25  H   UNL     1     -13.016  15.890  64.191  1.00  0.00     0.000 HD 
HETATM   26  C   UNL     1     -11.055  14.714  65.240  1.00  0.00    -0.363 C  
HETATM   27  O   UNL     1     -12.805  15.138  63.650  1.00  0.00    -0.473 OA 
ENDBRANCH  23  24
ENDBRANCH  22  23
ENDBRANCH  21  22
ENDBRANCH  16  21
BRANCH  17  28
HETATM   28  O   UNL     1      -9.948  12.510  67.840  1.00  0.00    -0.200 OA 
BRANCH  28  29
HETATM   29  C   UNL     1     -10.414  13.156  69.024  1.00  0.00    -0.002 C  
BRANCH  29  30
HETATM   30  C   UNL     1     -11.910  12.934  69.287  1.00  0.00    -0.309 C  
HETATM   31  O   UNL     1     -12.636  14.146  69.095  1.00  0.00    -0.491 OA 
HETATM   32  C   UNL     1     -12.162  12.415  70.696  1.00  0.00    -0.368 C  
HETATM   33  H   UNL     1     -13.561  14.009  69.258  1.00  0.00     0.000 HD 
ENDBRANCH  29  30
ENDBRANCH  28  29
ENDBRANCH  17  28
BRANCH  19  34
HETATM   34  O   UNL     1      -8.800  10.379  69.473  1.00  0.00    -0.167 OA 
BRANCH  34  35
HETATM   35  C   UNL     1      -7.820   9.441  69.918  1.00  0.00    -0.126 C  
BRANCH  35  36
HETATM   36  C   UNL     1      -8.403   8.642  71.097  1.00  0.00    -0.164 C  
HETATM   37  H   UNL     1      -9.805   8.901  72.455  1.00  0.00     0.000 HD 
HETATM   38  C   UNL     1      -7.355   8.299  72.144  1.00  0.00    -0.125 C  
HETATM   39  O   UNL     1      -9.445   9.394  71.727  1.00  0.00    -0.242 OA 
ENDBRANCH  35  36
ENDBRANCH  34  35
ENDBRANCH  19  34
BRANCH  20  40
HETATM   40  O   UNL     1      -7.415  11.327  66.980  1.00  0.00    -0.124 OA 
BRANCH  40  41
HETATM   41  C   UNL     1      -6.057  11.224  67.423  1.00  0.00    -0.066 C  
BRANCH  41  42
HETATM   42  C   UNL     1      -5.722  12.395  68.352  1.00  0.00    -0.056 C  
HETATM   43  C   UNL     1      -6.391  13.688  67.933  1.00  0.00    -0.159 C  
HETATM   44  O   UNL     1      -6.142  12.080  69.682  1.00  0.00    -0.103 OA 
HETATM   45  H   UNL     1      -5.934  12.807  70.258  1.00  0.00     0.000 HD 
ENDBRANCH  41  42
ENDBRANCH  40  41
ENDBRANCH  20  40
ENDBRANCH  14  15
ENDBRANCH  10  14
BRANCH  11  46
HETATM   46  O   UNL     1      -7.997   5.965  65.863  1.00  0.00    -0.102 OA 
BRANCH  46  47
HETATM   47  C   UNL     1      -6.975   6.320  64.926  1.00  0.00    -0.052 C  
BRANCH  47  48
HETATM   48  C   UNL     1      -6.974   5.499  63.622  1.00  0.00    -0.046 C  
HETATM   49  C   UNL     1      -5.641   4.813  63.380  1.00  0.00    -0.016 C  
HETATM   50  O   UNL     1      -7.939   4.438  63.648  1.00  0.00    -0.084 OA 
HETATM   51  H   UNL     1      -7.939   3.932  62.844  1.00  0.00     0.000 HD 
ENDBRANCH  47  48
ENDBRANCH  46  47
ENDBRANCH  11  46
BRANCH  12  52
HETATM   52  O   UNL     1      -7.097   5.161  68.529  1.00  0.00    -0.059 OA 
BRANCH  52  53
HETATM   53  C   UNL     1      -6.381   5.446  69.734  1.00  0.00    -0.030 C  
BRANCH  53  54
HETATM   54  C   UNL     1      -5.643   4.205  70.270  1.00  0.00    -0.013 C  
HETATM   55  O   UNL     1      -5.159   3.408  69.187  1.00  0.00    -0.009 OA 
HETATM   56  C   UNL     1      -6.480   3.314  71.172  1.00  0.00    -0.019 C  
HETATM   57  H   UNL     1      -4.703   2.642  69.517  1.00  0.00     0.000 HD 
ENDBRANCH  53  54
ENDBRANCH  52  53
ENDBRANCH  12  52
BRANCH  13  58
HETATM   58  O   UNL     1      -9.663   4.159  67.283  1.00  0.00    -0.197 OA 
BRANCH  58  59
HETATM   59  C   UNL     1      -9.390   2.805  67.670  1.00  0.00    -0.176 C  
BRANCH  59  60
HETATM   60  C   UNL     1      -8.356   2.176  66.715  1.00  0.00    -0.092 C  
HETATM   61  O   UNL     1      -7.390   3.169  66.352  1.00  0.00    -0.072 OA 
HETATM   62  H   UNL     1      -6.753   2.782  65.763  1.00  0.00     0.000 HD 
HETATM   63  C   UNL     1      -8.979   1.627  65.451  1.00  0.00    -0.121 C  
ENDBRANCH  59  60
ENDBRANCH  58  59
ENDBRANCH  13  58
ENDBRANCH   7   8
ENDBRANCH   6   7
ENDBRANCH   5   6
ENDBRANCH   2   5
TORSDOF 28
ENDMDL
MODEL       16
REMARK 921   NORMALIZED FREE ENERGY PREDICTED BY IDOCK:   -3.64 KCAL/MOL
REMARK 922        TOTAL FREE ENERGY PREDICTED BY IDOCK:  -15.28 KCAL/MOL
REMARK 923 INTER-LIGAND FREE ENERGY PREDICTED BY IDOCK:  -11.39 KCAL/MOL
REMARK 924 INTRA-LIGAND FREE ENERGY PREDICTED BY IDOCK:   -3.89 KCAL/MOL
REMARK 927      BINDING AFFINITY PREDICTED BY RF-SCORE:    0.00 PKD
ROOT
HETATM    1  C   UNL     1     -11.955   8.018  72.030  1.00  0.00    -0.375 C  
HETATM    2  C   UNL     1     -10.902   7.741  70.970  1.00  0.00    -0.239 C  
HETATM    3  O   UNL     1      -9.706   8.438  71.322  1.00  0.00    -0.166 OA 
HETATM    4  H   UNL     1      -9.048   8.264  70.660  1.00  0.00     0.000 HD 
ENDROOT
BRANCH   2   5
HETATM    5  C   UNL     1     -10.611   6.242  70.800  1.00  0.00    -0.243 C  
BRANCH   5   6
HETATM    6  O   UNL     1     -10.126   5.951  69.477  1.00  0.00    -0.174 OA 
BRANCH   6   7
HETATM    7  C   UNL     1     -10.586   6.928  68.528  1.00  0.00    -0.212 C  
BRANCH   7   8
HETATM    8  C   UNL     1     -10.185   6.532  67.084  1.00  0.00    -0.198 C  
HETATM    9  O   UNL     1     -10.377   7.617  66.146  1.00  0.00     0.156 OA 
HETATM   10  C   UNL     1      -9.534   8.746  66.328  1.00  0.00    -0.234 C  
HETATM   11  C   UNL     1      -8.039   8.300  66.189  1.00  0.00    -0.111 C  
HETATM   12  C   UNL     1      -7.739   7.150  67.194  1.00  0.00    -0.108 C  
HETATM   13  C   UNL     1      -8.735   5.975  66.978  1.00  0.00    -0.110 C  
BRANCH  10  14
HETATM   14  O   UNL     1      -9.828   9.826  65.406  1.00  0.00    -0.306 OA 
BRANCH  14  15
HETATM   15  C   UNL     1      -9.678  11.184  65.889  1.00  0.00    -0.229 C  
HETATM   16  C   UNL     1     -11.063  11.737  66.376  1.00  0.00    -0.307 C  
HETATM   17  C   UNL     1     -10.808  10.822  68.556  1.00  0.00    -0.228 C  
HETATM   18  O   UNL     1     -11.591  10.820  67.359  1.00  0.00    -0.485 OA 
HETATM   19  C   UNL     1      -9.335  10.412  68.274  1.00  0.00    -0.149 C  
HETATM   20  C   UNL     1      -8.737  11.300  67.134  1.00  0.00    -0.151 C  
BRANCH  16  21
HETATM   21  C   UNL     1     -12.155  12.005  65.320  1.00  0.00    -0.052 C  
BRANCH  21  22
HETATM   22  O   UNL     1     -11.650  12.995  64.382  1.00  0.00    -0.334 OA 
BRANCH  22  23
HETATM   23  C   UNL     1     -11.890  14.342  64.799  1.00  0.00    -0.433 C  
BRANCH  23  24
HETATM   24  C   UNL     1     -10.938  14.797  65.928  1.00  0.00    -0.335 C  
HETATM   25  H   UNL     1     -11.142  15.413  67.770  1.00  0.00     0.000 HD 
HETATM   26  C   UNL     1     -10.063  15.995  65.574  1.00  0.00    -0.336 C  
HETATM   27  O   UNL     1     -11.728  15.134  67.076  1.00  0.00    -0.261 OA 
ENDBRANCH  23  24
ENDBRANCH  22  23
ENDBRANCH  21  22
ENDBRANCH  16  21
BRANCH  17  28
HETATM   28  O   UNL     1     -10.867  12.086  69.224  1.00  0.00    -0.184 OA 
BRANCH  28  29
HETATM   29  C   UNL     1     -12.049  12.270  70.004  1.00  0.00    -0.273 C  
BRANCH  29  30
HETATM   30  C   UNL     1     -12.375  13.746  70.271  1.00  0.00    -0.337 C  
HETATM   31  O   UNL     1     -11.207  14.549  70.120  1.00  0.00    -0.388 OA 
HETATM   32  C   UNL     1     -12.950  13.951  71.665  1.00  0.00    -0.433 C  
HETATM   33  H   UNL     1     -11.408  15.463  70.286  1.00  0.00     0.000 HD 
ENDBRANCH  29  30
ENDBRANCH  28  29
ENDBRANCH  17  28
BRANCH  19  34
HETATM   34  O   UNL     1      -8.463  10.442  69.419  1.00  0.00    -0.161 OA 
BRANCH  34  35
HETATM   35  C   UNL     1      -7.148   9.926  69.211  1.00  0.00    -0.069 C  
BRANCH  35  36
HETATM   36  C   UNL     1      -6.382   9.975  70.544  1.00  0.00    -0.116 C  
HETATM   37  H   UNL     1      -6.747   9.531  72.428  1.00  0.00     0.000 HD 
HETATM   38  C   UNL     1      -5.908  11.377  70.895  1.00  0.00     0.042 C  
HETATM   39  O   UNL     1      -7.220   9.501  71.604  1.00  0.00    -0.307 OA 
ENDBRANCH  35  36
ENDBRANCH  34  35
ENDBRANCH  19  34
BRANCH  20  40
HETATM   40  O   UNL     1      -8.625  12.710  67.453  1.00  0.00    -0.170 OA 
BRANCH  40  41
HETATM   41  C   UNL     1      -7.274  13.188  67.475  1.00  0.00    -0.151 C  
BRANCH  41  42
HETATM   42  C   UNL     1      -7.075  14.131  68.665  1.00  0.00    -0.110 C  
HETATM   43  C   UNL     1      -6.355  15.410  68.288  1.00  0.00    -0.123 C  
HETATM   44  O   UNL     1      -8.350  14.478  69.213  1.00  0.00    -0.341 OA 
HETATM   45  H   UNL     1      -8.226  15.063  69.952  1.00  0.00     0.000 HD 
ENDBRANCH  41  42
ENDBRANCH  40  41
ENDBRANCH  20  40
ENDBRANCH  14  15
ENDBRANCH  10  14
BRANCH  11  46
HETATM   46  O   UNL     1      -7.648   7.872  64.869  1.00  0.00    -0.090 OA 
BRANCH  46  47
HETATM   47  C   UNL     1      -6.717   8.687  64.148  1.00  0.00    -0.075 C  
BRANCH  47  48
HETATM   48  C   UNL     1      -7.323   9.484  62.977  1.00  0.00    -0.108 C  
HETATM   49  C   UNL     1      -8.617   8.868  62.475  1.00  0.00    -0.195 C  
HETATM   50  O   UNL     1      -7.670  10.824  63.353  1.00  0.00    -0.354 OA 
HETATM   51  H   UNL     1      -8.043  11.315  62.631  1.00  0.00     0.000 HD 
ENDBRANCH  47  48
ENDBRANCH  46  47
ENDBRANCH  11  46
BRANCH  12  52
HETATM   52  O   UNL     1      -6.377   6.649  67.204  1.00  0.00    -0.038 OA 
BRANCH  52  53
HETATM   53  C   UNL     1      -5.726   6.679  68.478  1.00  0.00    -0.017 C  
BRANCH  53  54
HETATM   54  C   UNL     1      -6.430   5.771  69.504  1.00  0.00    -0.042 C  
HETATM   55  O   UNL     1      -7.324   6.536  70.313  1.00  0.00    -0.083 OA 
HETATM   56  C   UNL     1      -5.489   5.015  70.427  1.00  0.00    -0.008 C  
HETATM   57  H   UNL     1      -7.759   5.976  70.947  1.00  0.00     0.000 HD 
ENDBRANCH  53  54
ENDBRANCH  52  53
ENDBRANCH  12  52
BRANCH  13  58
HETATM   58  O   UNL     1      -8.637   5.339  65.681  1.00  0.00    -0.131 OA 
BRANCH  58  59
HETATM   59  C   UNL     1      -9.399   4.134  65.526  1.00  0.00    -0.162 C  
BRANCH  59  60
HETATM   60  C   UNL     1     -10.453   4.311  64.415  1.00  0.00    -0.048 C  
HETATM   61  O   UNL     1     -11.730   4.556  65.016  1.00  0.00    -1.044 OA 
HETATM   62  H   UNL     1     -12.380   4.664  64.331  1.00  0.00     0.000 HD 
HETATM   63  C   UNL     1     -10.571   3.100  63.515  1.00  0.00    -0.251 C  
ENDBRANCH  59  60
ENDBRANCH  58  59
ENDBRANCH  13  58
ENDBRANCH   7   8
ENDBRANCH   6   7
ENDBRANCH   5   6
ENDBRANCH   2   5
TORSDOF 28
ENDMDL
MODEL       17
REMARK 921   NORMALIZED FREE ENERGY PREDICTED BY IDOCK:   -3.36 KCAL/MOL
REMARK 922        TOTAL FREE ENERGY PREDICTED BY IDOCK:  -14.55 KCAL/MOL
REMARK 923 INTER-LIGAND FREE ENERGY PREDICTED BY IDOCK:  -13.12 KCAL/MOL
REMARK 924 INTRA-LIGAND FREE ENERGY PREDICTED BY IDOCK:   -1.43 KCAL/MOL
REMARK 927      BINDING AFFINITY PREDICTED BY RF-SCORE:    0.00 PKD
ROOT
HETATM    1  C   UNL     1      -9.535   2.906  64.658  1.00  0.00    -0.149 C  
HETATM    2  C   UNL     1     -10.060   4.324  64.804  1.00  0.00    -0.144 C  
HETATM    3  O   UNL     1     -11.486   4.278  64.870  1.00  0.00    -1.029 OA 
HETATM    4  H   UNL     1     -11.815   5.164  64.962  1.00  0.00     0.000 HD 
ENDROOT
BRANCH   2   5
HETATM    5  C   UNL     1      -9.496   5.043  66.039  1.00  0.00    -0.161 C  
BRANCH   5   6
HETATM    6  O   UNL     1      -8.883   6.295  65.682  1.00  0.00    -0.147 OA 
BRANCH   6   7
HETATM    7  C   UNL     1      -9.326   7.356  66.546  1.00  0.00    -0.173 C  
BRANCH   7   8
HETATM    8  C   UNL     1      -8.592   7.302  67.910  1.00  0.00    -0.120 C  
HETATM    9  O   UNL     1      -8.182   8.615  68.361  1.00  0.00    -0.119 OA 
HETATM   10  C   UNL     1      -9.234   9.510  68.691  1.00  0.00    -0.135 C  
HETATM   11  C   UNL     1     -10.094   8.894  69.844  1.00  0.00    -0.195 C  
HETATM   12  C   UNL     1     -10.605   7.485  69.424  1.00  0.00    -0.223 C  
HETATM   13  C   UNL     1      -9.408   6.578  69.021  1.00  0.00    -0.128 C  
BRANCH  10  14
HETATM   14  O   UNL     1      -8.759  10.829  69.062  1.00  0.00    -0.161 OA 
BRANCH  14  15
HETATM   15  C   UNL     1      -8.751  11.856  68.038  1.00  0.00    -0.173 C  
HETATM   16  C   UNL     1      -9.402  11.304  66.721  1.00  0.00    -0.177 C  
HETATM   17  C   UNL     1     -11.604  11.868  67.417  1.00  0.00    -0.297 C  
HETATM   18  O   UNL     1     -10.719  10.808  67.045  1.00  0.00    -0.251 OA 
HETATM   19  C   UNL     1     -11.075  12.643  68.658  1.00  0.00    -0.266 C  
HETATM   20  C   UNL     1      -9.603  13.114  68.412  1.00  0.00    -0.186 C  
BRANCH  16  21
HETATM   21  C   UNL     1      -8.647  10.212  65.935  1.00  0.00    -0.147 C  
BRANCH  21  22
HETATM   22  O   UNL     1      -7.256  10.619  65.807  1.00  0.00    -0.144 OA 
BRANCH  22  23
HETATM   23  C   UNL     1      -6.385   9.544  65.445  1.00  0.00    -0.069 C  
BRANCH  23  24
HETATM   24  C   UNL     1      -6.429   9.223  63.934  1.00  0.00    -0.091 C  
HETATM   25  H   UNL     1      -5.401   8.101  62.709  1.00  0.00     0.000 HD 
HETATM   26  C   UNL     1      -6.277  10.438  63.025  1.00  0.00    -0.128 C  
HETATM   27  O   UNL     1      -5.374   8.298  63.638  1.00  0.00    -0.051 OA 
ENDBRANCH  23  24
ENDBRANCH  22  23
ENDBRANCH  21  22
ENDBRANCH  16  21
BRANCH  17  28
HETATM   28  O   UNL     1     -11.850  12.760  66.325  1.00  0.00    -0.390 OA 
BRANCH  28  29
HETATM   29  C   UNL     1     -11.967  12.105  65.063  1.00  0.00    -0.281 C  
BRANCH  29  30
HETATM   30  C   UNL     1     -11.510  12.975  63.884  1.00  0.00    -0.435 C  
HETATM   31  O   UNL     1     -10.086  13.029  63.826  1.00  0.00    -0.710 OA 
HETATM   32  C   UNL     1     -12.064  14.389  63.982  1.00  0.00    -0.312 C  
HETATM   33  H   UNL     1      -9.803  13.568  63.097  1.00  0.00     0.000 HD 
ENDBRANCH  29  30
ENDBRANCH  28  29
ENDBRANCH  17  28
BRANCH  19  34
HETATM   34  O   UNL     1     -11.880  13.764  69.067  1.00  0.00    -0.315 OA 
BRANCH  34  35
HETATM   35  C   UNL     1     -11.686  14.210  70.410  1.00  0.00    -0.243 C  
BRANCH  35  36
HETATM   36  C   UNL     1     -13.047  14.631  70.989  1.00  0.00    -0.367 C  
HETATM   37  H   UNL     1     -13.861  16.281  71.693  1.00  0.00     0.000 HD 
HETATM   38  C   UNL     1     -13.427  13.834  72.228  1.00  0.00    -0.638 C  
HETATM   39  O   UNL     1     -13.021  16.020  71.335  1.00  0.00    -0.388 OA 
ENDBRANCH  35  36
ENDBRANCH  34  35
ENDBRANCH  19  34
BRANCH  20  40
HETATM   40  O   UNL     1      -9.440  14.073  67.338  1.00  0.00    -0.213 OA 
BRANCH  40  41
HETATM   41  C   UNL     1      -8.859  15.313  67.760  1.00  0.00    -0.173 C  
BRANCH  41  42
HETATM   42  C   UNL     1      -9.901  16.432  67.676  1.00  0.00    -0.243 C  
HETATM   43  C   UNL     1      -9.550  17.487  66.647  1.00  0.00    -0.290 C  
HETATM   44  O   UNL     1     -11.172  15.872  67.331  1.00  0.00    -0.259 OA 
HETATM   45  H   UNL     1     -11.818  16.566  67.279  1.00  0.00     0.000 HD 
ENDBRANCH  41  42
ENDBRANCH  40  41
ENDBRANCH  20  40
ENDBRANCH  14  15
ENDBRANCH  10  14
BRANCH  11  46
HETATM   46  O   UNL     1      -9.422   8.779  71.115  1.00  0.00    -0.194 OA 
BRANCH  46  47
HETATM   47  C   UNL     1     -10.228   8.647  72.290  1.00  0.00    -0.301 C  
BRANCH  47  48
HETATM   48  C   UNL     1      -9.831   7.487  73.224  1.00  0.00    -0.288 C  
HETATM   49  C   UNL     1      -8.614   7.824  74.068  1.00  0.00    -0.319 C  
HETATM   50  O   UNL     1     -10.864   7.173  74.169  1.00  0.00    -0.532 OA 
HETATM   51  H   UNL     1     -10.619   6.457  74.744  1.00  0.00     0.000 HD 
ENDBRANCH  47  48
ENDBRANCH  46  47
ENDBRANCH  11  46
BRANCH  12  52
HETATM   52  O   UNL     1     -11.446   6.796  70.384  1.00  0.00    -0.321 OA 
BRANCH  52  53
HETATM   53  C   UNL     1     -12.827   7.172  70.366  1.00  0.00     0.446 C  
BRANCH  53  54
HETATM   54  C   UNL     1     -13.405   7.303  71.787  1.00  0.00    -0.304 C  
HETATM   55  O   UNL     1     -14.084   6.103  72.162  1.00  0.00    -0.252 OA 
HETATM   56  C   UNL     1     -14.367   8.465  71.972  1.00  0.00    -0.555 C  
HETATM   57  H   UNL     1     -14.441   6.184  73.038  1.00  0.00     0.000 HD 
ENDBRANCH  53  54
ENDBRANCH  52  53
ENDBRANCH  12  52
BRANCH  13  58
HETATM   58  O   UNL     1      -8.477   6.304  70.096  1.00  0.00    -0.130 OA 
BRANCH  58  59
HETATM   59  C   UNL     1      -8.588   5.004  70.691  1.00  0.00    -0.114 C  
BRANCH  59  60
HETATM   60  C   UNL     1      -8.073   3.926  69.716  1.00  0.00    -0.054 C  
HETATM   61  O   UNL     1      -8.188   2.641  70.337  1.00  0.00    -0.042 OA 
HETATM   62  H   UNL     1      -7.870   1.976  69.737  1.00  0.00     0.000 HD 
HETATM   63  C   UNL     1      -6.631   4.138  69.312  1.00  0.00    -0.040 C  
ENDBRANCH  59  60
ENDBRANCH  58  59
ENDBRANCH  13  58
ENDBRANCH   7   8
ENDBRANCH   6   7
ENDBRANCH   5   6
ENDBRANCH   2   5
TORSDOF 28
ENDMDL
MODEL       18
REMARK 921   NORMALIZED FREE ENERGY PREDICTED BY IDOCK:   -3.30 KCAL/MOL
REMARK 922        TOTAL FREE ENERGY PREDICTED BY IDOCK:  -14.40 KCAL/MOL
REMARK 923 INTER-LIGAND FREE ENERGY PREDICTED BY IDOCK:  -11.12 KCAL/MOL
REMARK 924 INTRA-LIGAND FREE ENERGY PREDICTED BY IDOCK:   -3.28 KCAL/MOL
REMARK 927      BINDING AFFINITY PREDICTED BY RF-SCORE:    0.00 PKD
ROOT
HETATM    1  C   UNL     1     -10.985   5.098  73.015  1.00  0.00    -0.355 C  
HETATM    2  C   UNL     1     -10.008   5.326  71.874  1.00  0.00    -0.187 C  
HETATM    3  O   UNL     1      -8.755   4.734  72.220  1.00  0.00    -0.118 OA 
HETATM    4  H   UNL     1      -8.145   4.876  71.507  1.00  0.00     0.000 HD 
ENDROOT
BRANCH   2   5
HETATM    5  C   UNL     1     -10.511   4.759  70.538  1.00  0.00    -0.012 C  
BRANCH   5   6
HETATM    6  O   UNL     1     -10.453   5.748  69.495  1.00  0.00    -0.235 OA 
BRANCH   6   7
HETATM    7  C   UNL     1      -9.286   5.570  68.674  1.00  0.00    -0.122 C  
BRANCH   7   8
HETATM    8  C   UNL     1      -9.618   5.801  67.178  1.00  0.00    -0.127 C  
HETATM    9  O   UNL     1     -10.396   7.004  66.971  1.00  0.00    -0.233 OA 
HETATM   10  C   UNL     1      -9.730   8.225  67.258  1.00  0.00    -0.177 C  
HETATM   11  C   UNL     1      -8.466   8.352  66.344  1.00  0.00    -0.123 C  
HETATM   12  C   UNL     1      -7.554   7.104  66.532  1.00  0.00    -0.092 C  
HETATM   13  C   UNL     1      -8.362   5.803  66.260  1.00  0.00    -0.115 C  
BRANCH  10  14
HETATM   14  O   UNL     1     -10.586   9.386  67.103  1.00  0.00    -0.260 OA 
BRANCH  14  15
HETATM   15  C   UNL     1     -10.102  10.653  67.614  1.00  0.00    -0.177 C  
HETATM   16  C   UNL     1     -11.274  11.697  67.657  1.00  0.00    -0.281 C  
HETATM   17  C   UNL     1     -11.998  10.987  69.808  1.00  0.00    -0.356 C  
HETATM   18  O   UNL     1     -12.353  11.126  68.430  1.00  0.00    -0.556 OA 
HETATM   19  C   UNL     1     -10.756  10.069  69.988  1.00  0.00    -0.299 C  
HETATM   20  C   UNL     1      -9.579  10.572  69.086  1.00  0.00    -0.199 C  
BRANCH  16  21
HETATM   21  C   UNL     1     -11.847  12.209  66.320  1.00  0.00    -0.246 C  
BRANCH  21  22
HETATM   22  O   UNL     1     -12.378  13.547  66.534  1.00  0.00    -0.392 OA 
BRANCH  22  23
HETATM   23  C   UNL     1     -11.492  14.394  67.273  1.00  0.00    -0.359 C  
BRANCH  23  24
HETATM   24  C   UNL     1     -10.693  15.357  66.367  1.00  0.00    -0.311 C  
HETATM   25  H   UNL     1     -10.056  17.199  66.499  1.00  0.00     0.000 HD 
HETATM   26  C   UNL     1     -11.331  15.625  65.009  1.00  0.00    -0.255 C  
HETATM   27  O   UNL     1     -10.547  16.607  67.056  1.00  0.00    -0.311 OA 
ENDBRANCH  23  24
ENDBRANCH  22  23
ENDBRANCH  21  22
ENDBRANCH  16  21
BRANCH  17  28
HETATM   28  O   UNL     1     -11.787  12.259  70.431  1.00  0.00    -0.303 OA 
BRANCH  28  29
HETATM   29  C   UNL     1     -12.971  12.828  70.990  1.00  0.00    -0.083 C  
BRANCH  29  30
HETATM   30  C   UNL     1     -12.806  14.304  71.380  1.00  0.00    -0.344 C  
HETATM   31  O   UNL     1     -13.920  15.068  70.921  1.00  0.00    -0.661 OA 
HETATM   32  C   UNL     1     -11.523  14.895  70.814  1.00  0.00    -0.313 C  
HETATM   33  H   UNL     1     -13.818  15.981  71.161  1.00  0.00     0.000 HD 
ENDBRANCH  29  30
ENDBRANCH  28  29
ENDBRANCH  17  28
BRANCH  19  34
HETATM   34  O   UNL     1     -10.296   9.920  71.344  1.00  0.00     0.018 OA 
BRANCH  34  35
HETATM   35  C   UNL     1      -9.866   8.610  71.712  1.00  0.00    -0.295 C  
BRANCH  35  36
HETATM   36  C   UNL     1      -8.411   8.689  72.205  1.00  0.00    -0.057 C  
HETATM   37  H   UNL     1      -6.638   8.139  71.548  1.00  0.00     0.000 HD 
HETATM   38  C   UNL     1      -8.208   7.992  73.542  1.00  0.00    -0.271 C  
HETATM   39  O   UNL     1      -7.536   8.090  71.243  1.00  0.00    -0.072 OA 
ENDBRANCH  35  36
ENDBRANCH  34  35
ENDBRANCH  19  34
BRANCH  20  40
HETATM   40  O   UNL     1      -9.065  11.882  69.429  1.00  0.00     0.537 OA 
BRANCH  40  41
HETATM   41  C   UNL     1      -7.873  12.236  68.716  1.00  0.00     0.006 C  
BRANCH  41  42
HETATM   42  C   UNL     1      -6.651  11.633  69.414  1.00  0.00    -0.115 C  
HETATM   43  C   UNL     1      -5.465  11.468  68.485  1.00  0.00    -0.042 C  
HETATM   44  O   UNL     1      -6.258  12.480  70.498  1.00  0.00    -0.448 OA 
HETATM   45  H   UNL     1      -5.500  12.106  70.931  1.00  0.00     0.000 HD 
ENDBRANCH  41  42
ENDBRANCH  40  41
ENDBRANCH  20  40
ENDBRANCH  14  15
ENDBRANCH  10  14
BRANCH  11  46
HETATM   46  O   UNL     1      -8.741   8.512  64.937  1.00  0.00    -0.153 OA 
BRANCH  46  47
HETATM   47  C   UNL     1      -9.585   9.597  64.538  1.00  0.00    -0.024 C  
BRANCH  47  48
HETATM   48  C   UNL     1      -9.178  10.286  63.221  1.00  0.00    -0.294 C  
HETATM   49  C   UNL     1     -10.039  11.501  62.922  1.00  0.00    -0.221 C  
HETATM   50  O   UNL     1      -7.833  10.783  63.260  1.00  0.00    -0.349 OA 
HETATM   51  H   UNL     1      -7.583  11.207  62.448  1.00  0.00     0.000 HD 
ENDBRANCH  47  48
ENDBRANCH  46  47
ENDBRANCH  11  46
BRANCH  12  52
HETATM   52  O   UNL     1      -6.321   7.091  65.768  1.00  0.00    -0.044 OA 
BRANCH  52  53
HETATM   53  C   UNL     1      -6.158   8.181  64.854  1.00  0.00    -0.048 C  
BRANCH  53  54
HETATM   54  C   UNL     1      -5.988   7.693  63.404  1.00  0.00    -0.054 C  
HETATM   55  O   UNL     1      -7.264   7.490  62.794  1.00  0.00    -0.077 OA 
HETATM   56  C   UNL     1      -5.188   6.409  63.260  1.00  0.00    -0.018 C  
HETATM   57  H   UNL     1      -7.159   7.189  61.899  1.00  0.00     0.000 HD 
ENDBRANCH  53  54
ENDBRANCH  52  53
ENDBRANCH  12  52
BRANCH  13  58
HETATM   58  O   UNL     1      -8.849   5.676  64.902  1.00  0.00    -0.095 OA 
BRANCH  58  59
HETATM   59  C   UNL     1      -9.015   4.332  64.430  1.00  0.00    -0.148 C  
BRANCH  59  60
HETATM   60  C   UNL     1     -10.419   4.152  63.818  1.00  0.00    -0.045 C  
HETATM   61  O   UNL     1     -11.398   4.246  64.859  1.00  0.00    -0.996 OA 
HETATM   62  H   UNL     1     -12.263   4.135  64.482  1.00  0.00     0.000 HD 
HETATM   63  C   UNL     1     -10.590   2.823  63.116  1.00  0.00    -0.209 C  
ENDBRANCH  59  60
ENDBRANCH  58  59
ENDBRANCH  13  58
ENDBRANCH   7   8
ENDBRANCH   6   7
ENDBRANCH   5   6
ENDBRANCH   2   5
TORSDOF 28
ENDMDL
MODEL       19
REMARK 921   NORMALIZED FREE ENERGY PREDICTED BY IDOCK:   -3.22 KCAL/MOL
REMARK 922        TOTAL FREE ENERGY PREDICTED BY IDOCK:  -14.19 KCAL/MOL
REMARK 923 INTER-LIGAND FREE ENERGY PREDICTED BY IDOCK:  -11.12 KCAL/MOL
REMARK 924 INTRA-LIGAND FREE ENERGY PREDICTED BY IDOCK:   -3.07 KCAL/MOL
REMARK 927      BINDING AFFINITY PREDICTED BY RF-SCORE:    0.00 PKD
ROOT
HETATM    1  C   UNL     1      -9.708   5.820  72.158  1.00  0.00    -0.174 C  
HETATM    2  C   UNL     1      -9.595   4.797  71.040  1.00  0.00    -0.175 C  
HETATM    3  O   UNL     1      -9.984   3.521  71.548  1.00  0.00    -0.172 OA 
HETATM    4  H   UNL     1      -9.914   2.881  70.850  1.00  0.00     0.000 HD 
ENDROOT
BRANCH   2   5
HETATM    5  C   UNL     1     -10.445   5.161  69.813  1.00  0.00    -0.204 C  
BRANCH   5   6
HETATM    6  O   UNL     1     -10.294   6.549  69.466  1.00  0.00    -0.180 OA 
BRANCH   6   7
HETATM    7  C   UNL     1      -9.224   6.737  68.524  1.00  0.00    -0.128 C  
BRANCH   7   8
HETATM    8  C   UNL     1      -9.717   6.512  67.072  1.00  0.00    -0.151 C  
HETATM    9  O   UNL     1     -10.319   7.702  66.509  1.00  0.00    -0.222 OA 
HETATM   10  C   UNL     1      -9.439   8.797  66.296  1.00  0.00    -0.234 C  
HETATM   11  C   UNL     1      -8.306   8.364  65.307  1.00  0.00    -0.160 C  
HETATM   12  C   UNL     1      -7.582   7.101  65.858  1.00  0.00    -0.093 C  
HETATM   13  C   UNL     1      -8.611   5.965  66.123  1.00  0.00    -0.137 C  
BRANCH  10  14
HETATM   14  O   UNL     1     -10.118   9.980  65.804  1.00  0.00    -0.273 OA 
BRANCH  14  15
HETATM   15  C   UNL     1      -9.579  11.272  66.181  1.00  0.00    -0.214 C  
HETATM   16  C   UNL     1     -10.609  12.404  65.836  1.00  0.00    -0.258 C  
HETATM   17  C   UNL     1     -11.762  12.165  67.902  1.00  0.00    -0.336 C  
HETATM   18  O   UNL     1     -11.862  12.081  66.477  1.00  0.00    -0.585 OA 
HETATM   19  C   UNL     1     -10.685  11.189  68.456  1.00  0.00    -0.201 C  
HETATM   20  C   UNL     1      -9.323  11.414  67.719  1.00  0.00    -0.162 C  
BRANCH  16  21
HETATM   21  C   UNL     1     -10.885  12.713  64.350  1.00  0.00    -0.356 C  
BRANCH  21  22
HETATM   22  O   UNL     1     -11.261  14.114  64.237  1.00  0.00    -0.312 OA 
BRANCH  22  23
HETATM   23  C   UNL     1     -10.546  14.964  65.139  1.00  0.00    -0.428 C  
BRANCH  23  24
HETATM   24  C   UNL     1     -11.198  16.358  65.289  1.00  0.00     0.006 C  
HETATM   25  H   UNL     1     -11.903  17.713  64.072  1.00  0.00     0.000 HD 
HETATM   26  C   UNL     1     -10.333  17.386  66.010  1.00  0.00    -0.309 C  
HETATM   27  O   UNL     1     -11.503  16.857  63.979  1.00  0.00    -1.130 OA 
ENDBRANCH  23  24
ENDBRANCH  22  23
ENDBRANCH  21  22
ENDBRANCH  16  21
BRANCH  17  28
HETATM   28  O   UNL     1     -11.509  13.505  68.336  1.00  0.00    -0.270 OA 
BRANCH  28  29
HETATM   29  C   UNL     1     -12.649  14.150  68.904  1.00  0.00     0.376 C  
BRANCH  29  30
HETATM   30  C   UNL     1     -12.357  14.813  70.257  1.00  0.00    -0.345 C  
HETATM   31  O   UNL     1     -11.141  14.310  70.808  1.00  0.00    -0.478 OA 
HETATM   32  C   UNL     1     -13.489  14.587  71.250  1.00  0.00    -0.428 C  
HETATM   33  H   UNL     1     -10.961  14.720  71.645  1.00  0.00     0.000 HD 
ENDBRANCH  29  30
ENDBRANCH  28  29
ENDBRANCH  17  28
BRANCH  19  34
HETATM   34  O   UNL     1     -10.480  11.250  69.879  1.00  0.00     0.102 OA 
BRANCH  34  35
HETATM   35  C   UNL     1     -10.904  10.103  70.617  1.00  0.00    -0.235 C  
BRANCH  35  36
HETATM   36  C   UNL     1     -12.435  10.148  70.759  1.00  0.00    -0.326 C  
HETATM   37  H   UNL     1     -13.777  11.401  71.472  1.00  0.00     0.000 HD 
HETATM   38  C   UNL     1     -12.980   8.990  71.580  1.00  0.00    -0.391 C  
HETATM   39  O   UNL     1     -12.831  11.373  71.384  1.00  0.00    -0.413 OA 
ENDBRANCH  35  36
ENDBRANCH  34  35
ENDBRANCH  19  34
BRANCH  20  40
HETATM   40  O   UNL     1      -8.721  12.715  67.931  1.00  0.00    -0.163 OA 
BRANCH  40  41
HETATM   41  C   UNL     1      -7.332  12.656  68.277  1.00  0.00    -0.116 C  
BRANCH  41  42
HETATM   42  C   UNL     1      -6.745  14.070  68.319  1.00  0.00    -0.109 C  
HETATM   43  C   UNL     1      -7.380  14.939  69.385  1.00  0.00    -0.181 C  
HETATM   44  O   UNL     1      -5.341  13.992  68.579  1.00  0.00    -0.085 OA 
HETATM   45  H   UNL     1      -4.976  14.869  68.605  1.00  0.00     0.000 HD 
ENDBRANCH  41  42
ENDBRANCH  40  41
ENDBRANCH  20  40
ENDBRANCH  14  15
ENDBRANCH  10  14
BRANCH  11  46
HETATM   46  O   UNL     1      -8.741   8.093  63.959  1.00  0.00     0.126 OA 
BRANCH  46  47
HETATM   47  C   UNL     1      -8.542   9.111  62.973  1.00  0.00    -0.193 C  
BRANCH  47  48
HETATM   48  C   UNL     1      -7.323  10.022  63.216  1.00  0.00    -0.136 C  
HETATM   49  C   UNL     1      -6.042   9.423  62.662  1.00  0.00    -0.093 C  
HETATM   50  O   UNL     1      -7.454  11.291  62.560  1.00  0.00    -0.404 OA 
HETATM   51  H   UNL     1      -6.703  11.853  62.710  1.00  0.00     0.000 HD 
ENDBRANCH  47  48
ENDBRANCH  46  47
ENDBRANCH  11  46
BRANCH  12  52
HETATM   52  O   UNL     1      -6.481   6.595  65.059  1.00  0.00    -0.040 OA 
BRANCH  52  53
HETATM   53  C   UNL     1      -5.175   6.874  65.574  1.00  0.00    -0.023 C  
BRANCH  53  54
HETATM   54  C   UNL     1      -5.179   7.003  67.109  1.00  0.00    -0.013 C  
HETATM   55  O   UNL     1      -5.799   5.860  67.703  1.00  0.00    -0.015 OA 
HETATM   56  C   UNL     1      -5.879   8.245  67.635  1.00  0.00    -0.043 C  
HETATM   57  H   UNL     1      -5.802   5.940  68.650  1.00  0.00     0.000 HD 
ENDBRANCH  53  54
ENDBRANCH  52  53
ENDBRANCH  12  52
BRANCH  13  58
HETATM   58  O   UNL     1      -9.291   5.486  64.937  1.00  0.00     0.115 OA 
BRANCH  58  59
HETATM   59  C   UNL     1      -8.780   4.266  64.383  1.00  0.00    -0.139 C  
BRANCH  59  60
HETATM   60  C   UNL     1      -9.026   4.228  62.862  1.00  0.00    -0.121 C  
HETATM   61  O   UNL     1      -9.200   5.566  62.382  1.00  0.00    -0.353 OA 
HETATM   62  H   UNL     1      -9.352   5.543  61.445  1.00  0.00     0.000 HD 
HETATM   63  C   UNL     1     -10.248   3.420  62.482  1.00  0.00    -0.137 C  
ENDBRANCH  59  60
ENDBRANCH  58  59
ENDBRANCH  13  58
ENDBRANCH   7   8
ENDBRANCH   6   7
ENDBRANCH   5   6
ENDBRANCH   2   5
TORSDOF 28
ENDMDL
MODEL       20
REMARK 921   NORMALIZED FREE ENERGY PREDICTED BY IDOCK:   -3.15 KCAL/MOL
REMARK 922        TOTAL FREE ENERGY PREDICTED BY IDOCK:  -13.99 KCAL/MOL
REMARK 923 INTER-LIGAND FREE ENERGY PREDICTED BY IDOCK:  -11.85 KCAL/MOL
REMARK 924 INTRA-LIGAND FREE ENERGY PREDICTED BY IDOCK:   -2.14 KCAL/MOL
REMARK 927      BINDING AFFINITY PREDICTED BY RF-SCORE:    0.00 PKD
ROOT
HETATM    1  C   UNL     1      -9.830   2.700  63.997  1.00  0.00    -0.145 C  
HETATM    2  C   UNL     1     -10.138   4.125  64.427  1.00  0.00    -0.140 C  
HETATM    3  O   UNL     1     -11.556   4.279  64.510  1.00  0.00    -0.798 OA 
HETATM    4  H   UNL     1     -11.749   5.170  64.779  1.00  0.00     0.000 HD 
ENDROOT
BRANCH   2   5
HETATM    5  C   UNL     1      -9.484   4.496  65.766  1.00  0.00    -0.172 C  
BRANCH   5   6
HETATM    6  O   UNL     1      -8.490   5.522  65.596  1.00  0.00    -0.129 OA 
BRANCH   6   7
HETATM    7  C   UNL     1      -8.716   6.619  66.497  1.00  0.00    -0.135 C  
BRANCH   7   8
HETATM    8  C   UNL     1      -8.039   6.361  67.867  1.00  0.00    -0.115 C  
HETATM    9  O   UNL     1      -7.316   7.520  68.346  1.00  0.00    -0.093 OA 
HETATM   10  C   UNL     1      -8.112   8.648  68.682  1.00  0.00    -0.117 C  
HETATM   11  C   UNL     1      -9.116   8.251  69.816  1.00  0.00    -0.147 C  
HETATM   12  C   UNL     1      -9.961   7.024  69.364  1.00  0.00    -0.162 C  
HETATM   13  C   UNL     1      -9.026   5.850  68.956  1.00  0.00    -0.122 C  
BRANCH  10  14
HETATM   14  O   UNL     1      -7.324   9.798  69.082  1.00  0.00    -0.072 OA 
BRANCH  14  15
HETATM   15  C   UNL     1      -7.273  10.928  68.175  1.00  0.00    -0.083 C  
HETATM   16  C   UNL     1      -7.132  10.422  66.696  1.00  0.00    -0.112 C  
HETATM   17  C   UNL     1      -9.480  10.174  66.420  1.00  0.00    -0.176 C  
HETATM   18  O   UNL     1      -8.216   9.506  66.430  1.00  0.00    -0.114 OA 
HETATM   19  C   UNL     1      -9.772  10.864  67.783  1.00  0.00    -0.168 C  
HETATM   20  C   UNL     1      -8.578  11.792  68.184  1.00  0.00    -0.160 C  
BRANCH  16  21
HETATM   21  C   UNL     1      -5.808   9.751  66.276  1.00  0.00    -0.058 C  
BRANCH  21  22
HETATM   22  O   UNL     1      -5.584  10.026  64.865  1.00  0.00    -0.074 OA 
BRANCH  22  23
HETATM   23  C   UNL     1      -5.748   8.874  64.033  1.00  0.00    -0.070 C  
BRANCH  23  24
HETATM   24  C   UNL     1      -6.782   9.094  62.906  1.00  0.00    -0.093 C  
HETATM   25  H   UNL     1      -7.817  10.607  62.230  1.00  0.00     0.000 HD 
HETATM   26  C   UNL     1      -8.030   8.226  63.014  1.00  0.00    -0.156 C  
HETATM   27  O   UNL     1      -7.182  10.471  62.923  1.00  0.00    -0.128 OA 
ENDBRANCH  23  24
ENDBRANCH  22  23
ENDBRANCH  21  22
ENDBRANCH  16  21
BRANCH  17  28
HETATM   28  O   UNL     1      -9.574  11.112  65.343  1.00  0.00    -0.211 OA 
BRANCH  28  29
HETATM   29  C   UNL     1     -10.435  10.689  64.285  1.00  0.00    -0.151 C  
BRANCH  29  30
HETATM   30  C   UNL     1     -10.956  11.850  63.427  1.00  0.00    -0.395 C  
HETATM   31  O   UNL     1     -10.045  12.947  63.467  1.00  0.00    -0.661 OA 
HETATM   32  C   UNL     1     -12.328  12.319  63.890  1.00  0.00    -0.606 C  
HETATM   33  H   UNL     1     -10.368  13.666  62.937  1.00  0.00     0.000 HD 
ENDBRANCH  29  30
ENDBRANCH  28  29
ENDBRANCH  17  28
BRANCH  19  34
HETATM   34  O   UNL     1     -11.003  11.608  67.840  1.00  0.00    -0.200 OA 
BRANCH  34  35
HETATM   35  C   UNL     1     -11.355  12.127  69.123  1.00  0.00    -0.276 C  
BRANCH  35  36
HETATM   36  C   UNL     1     -11.982  13.519  68.936  1.00  0.00    -0.341 C  
HETATM   37  H   UNL     1     -12.577  14.637  67.428  1.00  0.00     0.000 HD 
HETATM   38  C   UNL     1     -11.116  14.632  69.508  1.00  0.00    -0.294 C  
HETATM   39  O   UNL     1     -12.190  13.777  67.543  1.00  0.00    -0.355 OA 
ENDBRANCH  35  36
ENDBRANCH  34  35
ENDBRANCH  19  34
BRANCH  20  40
HETATM   40  O   UNL     1      -8.351  12.914  67.295  1.00  0.00    -0.178 OA 
BRANCH  40  41
HETATM   41  C   UNL     1      -7.532  13.942  67.866  1.00  0.00    -0.152 C  
BRANCH  41  42
HETATM   42  C   UNL     1      -7.989  15.313  67.359  1.00  0.00    -0.186 C  
HETATM   43  C   UNL     1      -6.855  16.314  67.269  1.00  0.00    -0.230 C  
HETATM   44  O   UNL     1      -8.566  15.169  66.058  1.00  0.00    -0.387 OA 
HETATM   45  H   UNL     1      -8.849  16.020  65.743  1.00  0.00     0.000 HD 
ENDBRANCH  41  42
ENDBRANCH  40  41
ENDBRANCH  20  40
ENDBRANCH  14  15
ENDBRANCH  10  14
BRANCH  11  46
HETATM   46  O   UNL     1      -8.513   7.950  71.090  1.00  0.00    -0.114 OA 
BRANCH  46  47
HETATM   47  C   UNL     1      -9.214   8.344  72.274  1.00  0.00    -0.259 C  
BRANCH  47  48
HETATM   48  C   UNL     1      -9.179   7.317  73.423  1.00  0.00    -0.184 C  
HETATM   49  C   UNL     1      -8.244   7.743  74.541  1.00  0.00    -0.259 C  
HETATM   50  O   UNL     1     -10.459   7.158  74.049  1.00  0.00    -0.382 OA 
HETATM   51  H   UNL     1     -10.438   6.524  74.756  1.00  0.00     0.000 HD 
ENDBRANCH  47  48
ENDBRANCH  46  47
ENDBRANCH  11  46
BRANCH  12  52
HETATM   52  O   UNL     1     -10.962   6.556  70.304  1.00  0.00    -0.258 OA 
BRANCH  52  53
HETATM   53  C   UNL     1     -12.217   7.243  70.252  1.00  0.00     0.138 C  
BRANCH  53  54
HETATM   54  C   UNL     1     -12.889   7.316  71.635  1.00  0.00    -0.375 C  
HETATM   55  O   UNL     1     -12.494   6.203  72.439  1.00  0.00    -0.542 OA 
HETATM   56  C   UNL     1     -14.407   7.354  71.597  1.00  0.00    -0.614 C  
HETATM   57  H   UNL     1     -12.909   6.247  73.293  1.00  0.00     0.000 HD 
ENDBRANCH  53  54
ENDBRANCH  52  53
ENDBRANCH  12  52
BRANCH  13  58
HETATM   58  O   UNL     1      -8.210   5.333  70.035  1.00  0.00    -0.082 OA 
BRANCH  58  59
HETATM   59  C   UNL     1      -8.322   3.923  70.271  1.00  0.00    -0.060 C  
BRANCH  59  60
HETATM   60  C   UNL     1      -9.706   3.589  70.864  1.00  0.00    -0.143 C  
HETATM   61  O   UNL     1      -9.967   4.468  71.963  1.00  0.00    -0.176 OA 
HETATM   62  H   UNL     1     -10.820   4.263  72.329  1.00  0.00     0.000 HD 
HETATM   63  C   UNL     1      -9.809   2.162  71.354  1.00  0.00    -0.181 C  
ENDBRANCH  59  60
ENDBRANCH  58  59
ENDBRANCH  13  58
ENDBRANCH   7   8
ENDBRANCH   6   7
ENDBRANCH   5   6
ENDBRANCH   2   5
TORSDOF 28
ENDMDL
MODEL       21
REMARK 921   NORMALIZED FREE ENERGY PREDICTED BY IDOCK:   -3.14 KCAL/MOL
REMARK 922        TOTAL FREE ENERGY PREDICTED BY IDOCK:  -13.97 KCAL/MOL
REMARK 923 INTER-LIGAND FREE ENERGY PREDICTED BY IDOCK:  -12.69 KCAL/MOL
REMARK 924 INTRA-LIGAND FREE ENERGY PREDICTED BY IDOCK:   -1.28 KCAL/MOL
REMARK 927      BINDING AFFINITY PREDICTED BY RF-SCORE:    0.00 PKD
ROOT
HETATM    1  C   UNL     1     -12.326  12.115  63.383  1.00  0.00    -0.648 C  
HETATM    2  C   UNL     1     -11.681  12.821  64.564  1.00  0.00    -0.366 C  
HETATM    3  O   UNL     1     -10.487  13.463  64.116  1.00  0.00    -0.518 OA 
HETATM    4  H   UNL     1     -10.084  13.904  64.854  1.00  0.00     0.000 HD 
ENDROOT
BRANCH   2   5
HETATM    5  C   UNL     1     -12.616  13.844  65.228  1.00  0.00    -0.478 C  
BRANCH   5   6
HETATM    6  O   UNL     1     -11.908  14.661  66.176  1.00  0.00    -0.352 OA 
BRANCH   6   7
HETATM    7  C   UNL     1     -11.937  14.078  67.490  1.00  0.00    -0.395 C  
BRANCH   7   8
HETATM    8  C   UNL     1     -10.868  14.724  68.408  1.00  0.00    -0.245 C  
HETATM    9  O   UNL     1      -9.950  13.745  68.949  1.00  0.00    -0.160 OA 
HETATM   10  C   UNL     1      -9.101  13.108  68.005  1.00  0.00    -0.207 C  
HETATM   11  C   UNL     1      -8.224  14.188  67.288  1.00  0.00    -0.181 C  
HETATM   12  C   UNL     1      -9.143  15.269  66.646  1.00  0.00    -0.282 C  
HETATM   13  C   UNL     1     -10.084  15.881  67.722  1.00  0.00    -0.244 C  
BRANCH  10  14
HETATM   14  O   UNL     1      -8.260  12.086  68.600  1.00  0.00    -0.132 OA 
BRANCH  14  15
HETATM   15  C   UNL     1      -8.915  10.950  69.218  1.00  0.00     0.031 C  
HETATM   16  C   UNL     1      -9.766  10.176  68.151  1.00  0.00    -0.139 C  
HETATM   17  C   UNL     1      -7.918   8.858  67.443  1.00  0.00    -0.101 C  
HETATM   18  O   UNL     1      -8.896   9.825  67.052  1.00  0.00    -0.133 OA 
HETATM   19  C   UNL     1      -7.023   9.387  68.600  1.00  0.00    -0.065 C  
HETATM   20  C   UNL     1      -7.915   9.888  69.784  1.00  0.00    -0.174 C  
BRANCH  16  21
HETATM   21  C   UNL     1     -11.023  10.863  67.580  1.00  0.00    -0.293 C  
BRANCH  21  22
HETATM   22  O   UNL     1     -12.165  10.479  68.397  1.00  0.00    -0.251 OA 
BRANCH  22  23
HETATM   23  C   UNL     1     -12.379  11.350  69.511  1.00  0.00    -0.145 C  
BRANCH  23  24
HETATM   24  C   UNL     1     -12.970  10.617  70.736  1.00  0.00    -0.311 C  
HETATM   25  H   UNL     1     -13.358  11.082  72.594  1.00  0.00     0.000 HD 
HETATM   26  C   UNL     1     -12.202   9.369  71.158  1.00  0.00    -0.402 C  
HETATM   27  O   UNL     1     -12.995  11.532  71.841  1.00  0.00    -0.440 OA 
ENDBRANCH  23  24
ENDBRANCH  22  23
ENDBRANCH  21  22
ENDBRANCH  16  21
BRANCH  17  28
HETATM   28  O   UNL     1      -8.520   7.608  67.794  1.00  0.00    -0.121 OA 
BRANCH  28  29
HETATM   29  C   UNL     1      -9.393   7.089  66.790  1.00  0.00    -0.156 C  
BRANCH  29  30
HETATM   30  C   UNL     1     -10.547   6.255  67.363  1.00  0.00    -0.291 C  
HETATM   31  O   UNL     1     -11.769   6.573  66.701  1.00  0.00    -0.549 OA 
HETATM   32  C   UNL     1     -10.713   6.480  68.859  1.00  0.00    -0.318 C  
HETATM   33  H   UNL     1     -12.484   6.058  67.056  1.00  0.00     0.000 HD 
ENDBRANCH  29  30
ENDBRANCH  28  29
ENDBRANCH  17  28
BRANCH  19  34
HETATM   34  O   UNL     1      -6.046   8.452  69.093  1.00  0.00    -0.041 OA 
BRANCH  34  35
HETATM   35  C   UNL     1      -5.861   7.275  68.305  1.00  0.00    -0.023 C  
BRANCH  35  36
HETATM   36  C   UNL     1      -5.861   6.053  69.239  1.00  0.00    -0.023 C  
HETATM   37  H   UNL     1      -5.361   4.152  69.118  1.00  0.00     0.000 HD 
HETATM   38  C   UNL     1      -7.247   5.726  69.773  1.00  0.00    -0.069 C  
HETATM   39  O   UNL     1      -5.361   4.907  68.542  1.00  0.00    -0.006 OA 
ENDBRANCH  35  36
ENDBRANCH  34  35
ENDBRANCH  19  34
BRANCH  20  40
HETATM   40  O   UNL     1      -8.706   8.860  70.431  1.00  0.00    -0.147 OA 
BRANCH  40  41
HETATM   41  C   UNL     1      -8.626   8.888  71.861  1.00  0.00     0.010 C  
BRANCH  41  42
HETATM   42  C   UNL     1      -8.257   7.499  72.389  1.00  0.00    -0.104 C  
HETATM   43  C   UNL     1      -7.239   7.547  73.511  1.00  0.00    -0.100 C  
HETATM   44  O   UNL     1      -9.434   6.849  72.877  1.00  0.00    -0.138 OA 
HETATM   45  H   UNL     1      -9.205   5.987  73.205  1.00  0.00     0.000 HD 
ENDBRANCH  41  42
ENDBRANCH  40  41
ENDBRANCH  20  40
ENDBRANCH  14  15
ENDBRANCH  10  14
BRANCH  11  46
HETATM   46  O   UNL     1      -7.256  14.848  68.129  1.00  0.00    -0.102 OA 
BRANCH  46  47
HETATM   47  C   UNL     1      -5.943  14.284  68.210  1.00  0.00    -0.120 C  
BRANCH  47  48
HETATM   48  C   UNL     1      -5.433  14.029  69.642  1.00  0.00    -0.094 C  
HETATM   49  C   UNL     1      -5.757  15.181  70.577  1.00  0.00    -0.125 C  
HETATM   50  O   UNL     1      -6.047  12.880  70.241  1.00  0.00    -0.274 OA 
HETATM   51  H   UNL     1      -5.732  12.722  71.123  1.00  0.00     0.000 HD 
ENDBRANCH  47  48
ENDBRANCH  46  47
ENDBRANCH  11  46
BRANCH  12  52
HETATM   52  O   UNL     1      -8.472  16.327  65.915  1.00  0.00    -0.330 OA 
BRANCH  52  53
HETATM   53  C   UNL     1      -7.414  16.982  66.623  1.00  0.00    -0.265 C  
BRANCH  53  54
HETATM   54  C   UNL     1      -7.336  18.481  66.279  1.00  0.00    -0.258 C  
HETATM   55  O   UNL     1      -7.004  18.659  64.901  1.00  0.00    -0.365 OA 
HETATM   56  C   UNL     1      -6.336  19.267  67.110  1.00  0.00    -0.195 C  
HETATM   57  H   UNL     1      -6.955  19.584  64.689  1.00  0.00     0.000 HD 
ENDBRANCH  53  54
ENDBRANCH  52  53
ENDBRANCH  12  52
BRANCH  13  58
HETATM   58  O   UNL     1      -9.398  16.592  68.781  1.00  0.00    -0.230 OA 
BRANCH  58  59
HETATM   59  C   UNL     1     -10.159  17.624  69.424  1.00  0.00    -0.033 C  
BRANCH  59  60
HETATM   60  C   UNL     1      -9.933  18.973  68.714  1.00  0.00    -0.411 C  
HETATM   61  O   UNL     1     -10.339  20.034  69.586  1.00  0.00    -0.603 OA 
HETATM   62  H   UNL     1     -10.200  20.866  69.149  1.00  0.00     0.000 HD 
HETATM   63  C   UNL     1     -10.703  19.094  67.418  1.00  0.00    -0.578 C  
ENDBRANCH  59  60
ENDBRANCH  58  59
ENDBRANCH  13  58
ENDBRANCH   7   8
ENDBRANCH   6   7
ENDBRANCH   5   6
ENDBRANCH   2   5
TORSDOF 28
ENDMDL
MODEL       22
REMARK 921   NORMALIZED FREE ENERGY PREDICTED BY IDOCK:   -2.88 KCAL/MOL
REMARK 922        TOTAL FREE ENERGY PREDICTED BY IDOCK:  -13.30 KCAL/MOL
REMARK 923 INTER-LIGAND FREE ENERGY PREDICTED BY IDOCK:  -10.75 KCAL/MOL
REMARK 924 INTRA-LIGAND FREE ENERGY PREDICTED BY IDOCK:   -2.55 KCAL/MOL
REMARK 927      BINDING AFFINITY PREDICTED BY RF-SCORE:    0.00 PKD
ROOT
HETATM    1  C   UNL     1     -12.391  11.880  63.759  1.00  0.00    -0.541 C  
HETATM    2  C   UNL     1     -10.933  11.594  63.441  1.00  0.00    -0.362 C  
HETATM    3  O   UNL     1     -10.225  12.834  63.393  1.00  0.00    -0.548 OA 
HETATM    4  H   UNL     1      -9.314  12.656  63.195  1.00  0.00     0.000 HD 
ENDROOT
BRANCH   2   5
HETATM    5  C   UNL     1     -10.277  10.648  64.458  1.00  0.00    -0.329 C  
BRANCH   5   6
HETATM    6  O   UNL     1     -10.983  10.658  65.712  1.00  0.00    -0.023 OA 
BRANCH   6   7
HETATM    7  C   UNL     1     -10.321   9.836  66.688  1.00  0.00    -0.206 C  
BRANCH   7   8
HETATM    8  C   UNL     1      -8.788   9.825  66.457  1.00  0.00    -0.138 C  
HETATM    9  O   UNL     1      -8.164  11.063  66.873  1.00  0.00    -0.129 OA 
HETATM   10  C   UNL     1      -8.194  11.329  68.268  1.00  0.00    -0.143 C  
HETATM   11  C   UNL     1      -7.450  10.181  69.029  1.00  0.00    -0.091 C  
HETATM   12  C   UNL     1      -8.085   8.809  68.660  1.00  0.00    -0.116 C  
HETATM   13  C   UNL     1      -8.074   8.610  67.117  1.00  0.00    -0.100 C  
BRANCH  10  14
HETATM   14  O   UNL     1      -7.621  12.618  68.610  1.00  0.00    -0.124 OA 
BRANCH  14  15
HETATM   15  C   UNL     1      -8.511  13.630  69.144  1.00  0.00     0.450 C  
HETATM   16  C   UNL     1      -7.857  15.049  68.997  1.00  0.00    -0.170 C  
HETATM   17  C   UNL     1      -8.681  15.342  66.786  1.00  0.00    -0.269 C  
HETATM   18  O   UNL     1      -7.515  15.243  67.607  1.00  0.00    -0.141 OA 
HETATM   19  C   UNL     1      -9.556  14.060  66.880  1.00  0.00    -0.271 C  
HETATM   20  C   UNL     1      -9.871  13.730  68.376  1.00  0.00    -0.227 C  
BRANCH  16  21
HETATM   21  C   UNL     1      -6.619  15.377  69.857  1.00  0.00    -0.144 C  
BRANCH  21  22
HETATM   22  O   UNL     1      -5.570  15.870  68.977  1.00  0.00    -0.106 OA 
BRANCH  22  23
HETATM   23  C   UNL     1      -5.942  17.054  68.265  1.00  0.00    -0.134 C  
BRANCH  23  24
HETATM   24  C   UNL     1      -5.172  18.305  68.744  1.00  0.00    -0.179 C  
HETATM   25  H   UNL     1      -5.130  19.389  70.369  1.00  0.00     0.000 HD 
HETATM   26  C   UNL     1      -5.363  19.539  67.869  1.00  0.00    -0.181 C  
HETATM   27  O   UNL     1      -5.604  18.619  70.075  1.00  0.00    -0.218 OA 
ENDBRANCH  23  24
ENDBRANCH  22  23
ENDBRANCH  21  22
ENDBRANCH  16  21
BRANCH  17  28
HETATM   28  O   UNL     1      -9.450  16.508  67.098  1.00  0.00    -0.233 OA 
BRANCH  28  29
HETATM   29  C   UNL     1      -8.833  17.730  66.692  1.00  0.00    -0.264 C  
BRANCH  29  30
HETATM   30  C   UNL     1      -9.630  18.976  67.102  1.00  0.00    -0.312 C  
HETATM   31  O   UNL     1     -10.870  19.029  66.398  1.00  0.00    -0.345 OA 
HETATM   32  C   UNL     1      -8.848  20.255  66.838  1.00  0.00    -0.400 C  
HETATM   33  H   UNL     1     -11.363  19.801  66.651  1.00  0.00     0.000 HD 
ENDBRANCH  29  30
ENDBRANCH  28  29
ENDBRANCH  17  28
BRANCH  19  34
HETATM   34  O   UNL     1     -10.781  14.099  66.125  1.00  0.00    -0.290 OA 
BRANCH  34  35
HETATM   35  C   UNL     1     -11.339  15.396  65.916  1.00  0.00    -0.104 C  
BRANCH  35  36
HETATM   36  C   UNL     1     -11.432  15.654  64.402  1.00  0.00    -0.262 C  
HETATM   37  H   UNL     1     -11.408  17.218  63.206  1.00  0.00     0.000 HD 
HETATM   38  C   UNL     1     -12.724  15.126  63.797  1.00  0.00     0.855 C  
HETATM   39  O   UNL     1     -11.350  17.059  64.141  1.00  0.00    -1.164 OA 
ENDBRANCH  35  36
ENDBRANCH  34  35
ENDBRANCH  19  34
BRANCH  20  40
HETATM   40  O   UNL     1     -10.675  14.721  69.063  1.00  0.00    -0.235 OA 
BRANCH  40  41
HETATM   41  C   UNL     1     -11.968  14.242  69.451  1.00  0.00    -0.337 C  
BRANCH  41  42
HETATM   42  C   UNL     1     -12.394  14.898  70.768  1.00  0.00    -0.329 C  
HETATM   43  C   UNL     1     -13.529  14.164  71.451  1.00  0.00    -0.388 C  
HETATM   44  O   UNL     1     -11.278  14.934  71.662  1.00  0.00    -0.556 OA 
HETATM   45  H   UNL     1     -11.542  15.341  72.479  1.00  0.00     0.000 HD 
ENDBRANCH  41  42
ENDBRANCH  40  41
ENDBRANCH  20  40
ENDBRANCH  14  15
ENDBRANCH  10  14
BRANCH  11  46
HETATM   46  O   UNL     1      -6.030  10.109  68.792  1.00  0.00    -0.041 OA 
BRANCH  46  47
HETATM   47  C   UNL     1      -5.158  10.125  69.927  1.00  0.00    -0.038 C  
BRANCH  47  48
HETATM   48  C   UNL     1      -5.870  10.210  71.292  1.00  0.00     0.028 C  
HETATM   49  C   UNL     1      -5.645   8.964  72.130  1.00  0.00    -0.062 C  
HETATM   50  O   UNL     1      -5.378  11.292  72.094  1.00  0.00    -0.321 OA 
HETATM   51  H   UNL     1      -5.817  11.344  72.935  1.00  0.00     0.000 HD 
ENDBRANCH  47  48
ENDBRANCH  46  47
ENDBRANCH  11  46
BRANCH  12  52
HETATM   52  O   UNL     1      -7.519   7.644  69.314  1.00  0.00    -0.089 OA 
BRANCH  52  53
HETATM   53  C   UNL     1      -8.344   7.047  70.319  1.00  0.00    -0.133 C  
BRANCH  53  54
HETATM   54  C   UNL     1      -9.820   6.983  69.885  1.00  0.00    -0.170 C  
HETATM   55  O   UNL     1     -10.654   7.605  70.865  1.00  0.00    -0.211 OA 
HETATM   56  C   UNL     1     -10.346   5.578  69.643  1.00  0.00    -0.359 C  
HETATM   57  H   UNL     1     -11.565   7.566  70.598  1.00  0.00     0.000 HD 
ENDBRANCH  53  54
ENDBRANCH  52  53
ENDBRANCH  12  52
BRANCH  13  58
HETATM   58  O   UNL     1      -6.750   8.548  66.533  1.00  0.00    -0.065 OA 
BRANCH  58  59
HETATM   59  C   UNL     1      -6.705   8.202  65.142  1.00  0.00    -0.052 C  
BRANCH  59  60
HETATM   60  C   UNL     1      -5.751   9.150  64.388  1.00  0.00    -0.068 C  
HETATM   61  O   UNL     1      -6.240  10.491  64.497  1.00  0.00    -0.293 OA 
HETATM   62  H   UNL     1      -5.652  11.075  64.032  1.00  0.00     0.000 HD 
HETATM   63  C   UNL     1      -5.616   8.806  62.921  1.00  0.00    -0.070 C  
ENDBRANCH  59  60
ENDBRANCH  58  59
ENDBRANCH  13  58
ENDBRANCH   7   8
ENDBRANCH   6   7
ENDBRANCH   5   6
ENDBRANCH   2   5
TORSDOF 28
ENDMDL
MODEL       23
REMARK 921   NORMALIZED FREE ENERGY PREDICTED BY IDOCK:   -2.79 KCAL/MOL
REMARK 922        TOTAL FREE ENERGY PREDICTED BY IDOCK:  -13.05 KCAL/MOL
REMARK 923 INTER-LIGAND FREE ENERGY PREDICTED BY IDOCK:  -12.03 KCAL/MOL
REMARK 924 INTRA-LIGAND FREE ENERGY PREDICTED BY IDOCK:   -1.03 KCAL/MOL
REMARK 927      BINDING AFFINITY PREDICTED BY RF-SCORE:    0.00 PKD
ROOT
HETATM    1  C   UNL     1      -5.136   6.685  65.103  1.00  0.00    -0.022 C  
HETATM    2  C   UNL     1      -6.604   7.054  65.239  1.00  0.00    -0.047 C  
HETATM    3  O   UNL     1      -7.393   5.894  64.971  1.00  0.00    -0.067 OA 
HETATM    4  H   UNL     1      -8.311   6.125  65.056  1.00  0.00     0.000 HD 
ENDROOT
BRANCH   2   5
HETATM    5  C   UNL     1      -6.949   7.621  66.625  1.00  0.00    -0.078 C  
BRANCH   5   6
HETATM    6  O   UNL     1      -7.405   8.982  66.535  1.00  0.00    -0.084 OA 
BRANCH   6   7
HETATM    7  C   UNL     1      -7.095   9.715  67.732  1.00  0.00    -0.081 C  
BRANCH   7   8
HETATM    8  C   UNL     1      -8.047   9.316  68.889  1.00  0.00    -0.103 C  
HETATM    9  O   UNL     1      -8.753  10.457  69.433  1.00  0.00    -0.164 OA 
HETATM   10  C   UNL     1      -9.685  11.079  68.561  1.00  0.00    -0.189 C  
HETATM   11  C   UNL     1     -10.778  10.039  68.145  1.00  0.00    -0.239 C  
HETATM   12  C   UNL     1     -10.100   8.787  67.517  1.00  0.00    -0.222 C  
HETATM   13  C   UNL     1      -9.052   8.193  68.500  1.00  0.00    -0.136 C  
BRANCH  10  14
HETATM   14  O   UNL     1     -10.301  12.258  69.139  1.00  0.00    -0.039 OA 
BRANCH  14  15
HETATM   15  C   UNL     1     -10.829  13.257  68.230  1.00  0.00    -0.256 C  
HETATM   16  C   UNL     1     -11.445  14.449  69.044  1.00  0.00    -0.283 C  
HETATM   17  C   UNL     1      -9.357  15.572  69.229  1.00  0.00    -0.266 C  
HETATM   18  O   UNL     1     -10.431  14.951  69.941  1.00  0.00    -0.185 OA 
HETATM   19  C   UNL     1      -8.669  14.576  68.253  1.00  0.00    -0.173 C  
HETATM   20  C   UNL     1      -9.736  13.911  67.321  1.00  0.00    -0.245 C  
BRANCH  16  21
HETATM   21  C   UNL     1     -12.732  14.194  69.854  1.00  0.00    -0.029 C  
BRANCH  21  22
HETATM   22  O   UNL     1     -12.461  14.498  71.250  1.00  0.00    -0.306 OA 
BRANCH  22  23
HETATM   23  C   UNL     1     -13.521  15.218  71.887  1.00  0.00    -0.450 C  
BRANCH  23  24
HETATM   24  C   UNL     1     -13.274  15.433  73.397  1.00  0.00    -0.446 C  
HETATM   25  H   UNL     1     -13.216  16.969  74.603  1.00  0.00     0.000 HD 
HETATM   26  C   UNL     1     -11.924  14.930  73.895  1.00  0.00    -0.386 C  
HETATM   27  O   UNL     1     -13.368  16.837  73.674  1.00  0.00    -0.233 OA 
ENDBRANCH  23  24
ENDBRANCH  22  23
ENDBRANCH  21  22
ENDBRANCH  16  21
BRANCH  17  28
HETATM   28  O   UNL     1      -9.791  16.747  68.537  1.00  0.00    -0.236 OA 
BRANCH  28  29
HETATM   29  C   UNL     1     -10.373  17.733  69.390  1.00  0.00     0.054 C  
BRANCH  29  30
HETATM   30  C   UNL     1     -10.049  19.171  68.962  1.00  0.00    -0.298 C  
HETATM   31  O   UNL     1     -10.354  20.085  70.013  1.00  0.00    -0.614 OA 
HETATM   32  C   UNL     1     -10.815  19.571  67.709  1.00  0.00    -0.386 C  
HETATM   33  H   UNL     1     -10.154  20.975  69.748  1.00  0.00     0.000 HD 
ENDBRANCH  29  30
ENDBRANCH  28  29
ENDBRANCH  17  28
BRANCH  19  34
HETATM   34  O   UNL     1      -7.611  15.136  67.453  1.00  0.00    -0.172 OA 
BRANCH  34  35
HETATM   35  C   UNL     1      -6.390  14.396  67.436  1.00  0.00     0.164 C  
BRANCH  35  36
HETATM   36  C   UNL     1      -5.802  14.381  68.857  1.00  0.00    -0.086 C  
HETATM   37  H   UNL     1      -6.261  13.573  70.593  1.00  0.00     0.000 HD 
HETATM   38  C   UNL     1      -5.690  15.774  69.458  1.00  0.00    -0.126 C  
HETATM   39  O   UNL     1      -6.624  13.582  69.715  1.00  0.00    -0.089 OA 
ENDBRANCH  35  36
ENDBRANCH  34  35
ENDBRANCH  19  34
BRANCH  20  40
HETATM   40  O   UNL     1     -10.418  14.823  66.425  1.00  0.00    -0.281 OA 
BRANCH  40  41
HETATM   41  C   UNL     1     -10.253  14.498  65.039  1.00  0.00    -0.365 C  
BRANCH  41  42
HETATM   42  C   UNL     1     -11.596  14.616  64.313  1.00  0.00    -0.213 C  
HETATM   43  C   UNL     1     -12.764  14.143  65.156  1.00  0.00    -0.387 C  
HETATM   44  O   UNL     1     -11.823  15.982  63.955  1.00  0.00    -1.275 OA 
HETATM   45  H   UNL     1     -12.657  16.054  63.504  1.00  0.00     0.000 HD 
ENDBRANCH  41  42
ENDBRANCH  40  41
ENDBRANCH  20  40
ENDBRANCH  14  15
ENDBRANCH  10  14
BRANCH  11  46
HETATM   46  O   UNL     1     -11.646   9.605  69.212  1.00  0.00     0.041 OA 
BRANCH  46  47
HETATM   47  C   UNL     1     -12.643  10.519  69.679  1.00  0.00     0.128 C  
BRANCH  47  48
HETATM   48  C   UNL     1     -13.143  10.258  71.114  1.00  0.00    -0.390 C  
HETATM   49  C   UNL     1     -14.253   9.222  71.153  1.00  0.00     0.076 C  
HETATM   50  O   UNL     1     -12.112   9.732  71.961  1.00  0.00    -0.328 OA 
HETATM   51  H   UNL     1     -12.420   9.572  72.845  1.00  0.00     0.000 HD 
ENDBRANCH  47  48
ENDBRANCH  46  47
ENDBRANCH  11  46
BRANCH  12  52
HETATM   52  O   UNL     1     -10.992   7.741  67.053  1.00  0.00    -0.247 OA 
BRANCH  52  53
HETATM   53  C   UNL     1     -10.814   6.465  67.676  1.00  0.00    -0.339 C  
BRANCH  53  54
HETATM   54  C   UNL     1     -10.205   5.434  66.708  1.00  0.00    -0.241 C  
HETATM   55  O   UNL     1     -11.106   5.170  65.631  1.00  0.00    -0.763 OA 
HETATM   56  C   UNL     1      -9.836   4.107  67.350  1.00  0.00    -0.152 C  
HETATM   57  H   UNL     1     -10.731   4.533  65.034  1.00  0.00     0.000 HD 
ENDBRANCH  53  54
ENDBRANCH  52  53
ENDBRANCH  12  52
BRANCH  13  58
HETATM   58  O   UNL     1      -9.611   7.699  69.742  1.00  0.00    -0.163 OA 
BRANCH  58  59
HETATM   59  C   UNL     1      -8.673   7.092  70.642  1.00  0.00    -0.148 C  
BRANCH  59  60
HETATM   60  C   UNL     1      -9.379   6.682  71.950  1.00  0.00    -0.147 C  
HETATM   61  O   UNL     1      -9.579   7.847  72.758  1.00  0.00    -0.196 OA 
HETATM   62  H   UNL     1     -10.014   7.595  73.564  1.00  0.00     0.000 HD 
HETATM   63  C   UNL     1      -8.592   5.670  72.752  1.00  0.00    -0.119 C  
ENDBRANCH  59  60
ENDBRANCH  58  59
ENDBRANCH  13  58
ENDBRANCH   7   8
ENDBRANCH   6   7
ENDBRANCH   5   6
ENDBRANCH   2   5
TORSDOF 28
ENDMDL
MODEL       24
REMARK 921   NORMALIZED FREE ENERGY PREDICTED BY IDOCK:   -2.72 KCAL/MOL
REMARK 922        TOTAL FREE ENERGY PREDICTED BY IDOCK:  -12.87 KCAL/MOL
REMARK 923 INTER-LIGAND FREE ENERGY PREDICTED BY IDOCK:  -11.47 KCAL/MOL
REMARK 924 INTRA-LIGAND FREE ENERGY PREDICTED BY IDOCK:   -1.40 KCAL/MOL
REMARK 927      BINDING AFFINITY PREDICTED BY RF-SCORE:    0.00 PKD
ROOT
HETATM    1  C   UNL     1     -12.973  12.148  63.877  1.00  0.00    -0.323 C  
HETATM    2  C   UNL     1     -12.066  12.957  64.789  1.00  0.00    -0.422 C  
HETATM    3  O   UNL     1     -10.944  13.412  64.030  1.00  0.00    -0.526 OA 
HETATM    4  H   UNL     1     -10.377  13.918  64.599  1.00  0.00     0.000 HD 
ENDROOT
BRANCH   2   5
HETATM    5  C   UNL     1     -12.786  14.149  65.437  1.00  0.00    -0.431 C  
BRANCH   5   6
HETATM    6  O   UNL     1     -11.876  14.950  66.213  1.00  0.00    -0.264 OA 
BRANCH   6   7
HETATM    7  C   UNL     1     -11.756  14.447  67.555  1.00  0.00    -0.387 C  
BRANCH   7   8
HETATM    8  C   UNL     1     -10.665  15.219  68.340  1.00  0.00    -0.250 C  
HETATM    9  O   UNL     1      -9.780  14.330  69.063  1.00  0.00    -0.154 OA 
HETATM   10  C   UNL     1      -8.954  13.498  68.262  1.00  0.00    -0.180 C  
HETATM   11  C   UNL     1      -8.041  14.392  67.358  1.00  0.00    -0.199 C  
HETATM   12  C   UNL     1      -8.923  15.362  66.518  1.00  0.00    -0.309 C  
HETATM   13  C   UNL     1      -9.842  16.198  67.453  1.00  0.00    -0.238 C  
BRANCH  10  14
HETATM   14  O   UNL     1      -8.148  12.579  69.044  1.00  0.00     0.125 OA 
BRANCH  14  15
HETATM   15  C   UNL     1      -8.411  11.161  68.899  1.00  0.00    -0.099 C  
HETATM   16  C   UNL     1      -9.657  10.938  67.972  1.00  0.00    -0.162 C  
HETATM   17  C   UNL     1      -8.353  11.007  65.985  1.00  0.00    -0.147 C  
HETATM   18  O   UNL     1      -9.414  11.620  66.722  1.00  0.00    -0.178 OA 
HETATM   19  C   UNL     1      -7.022  11.010  66.789  1.00  0.00    -0.131 C  
HETATM   20  C   UNL     1      -7.246  10.381  68.204  1.00  0.00    -0.087 C  
BRANCH  16  21
HETATM   21  C   UNL     1     -11.044  11.360  68.498  1.00  0.00    -0.235 C  
BRANCH  21  22
HETATM   22  O   UNL     1     -11.638  10.222  69.183  1.00  0.00    -0.196 OA 
BRANCH  22  23
HETATM   23  C   UNL     1     -12.509  10.600  70.253  1.00  0.00    -0.304 C  
BRANCH  23  24
HETATM   24  C   UNL     1     -12.084   9.996  71.611  1.00  0.00    -0.334 C  
HETATM   25  H   UNL     1     -10.462   9.185  72.337  1.00  0.00     0.000 HD 
HETATM   26  C   UNL     1     -12.937   8.821  72.075  1.00  0.00    -0.437 C  
HETATM   27  O   UNL     1     -10.723   9.556  71.502  1.00  0.00    -0.340 OA 
ENDBRANCH  23  24
ENDBRANCH  22  23
ENDBRANCH  21  22
ENDBRANCH  16  21
BRANCH  17  28
HETATM   28  O   UNL     1      -8.696   9.680  65.571  1.00  0.00    -0.138 OA 
BRANCH  28  29
HETATM   29  C   UNL     1      -9.646   9.637  64.506  1.00  0.00    -0.024 C  
BRANCH  29  30
HETATM   30  C   UNL     1      -9.029   9.930  63.132  1.00  0.00    -0.258 C  
HETATM   31  O   UNL     1      -9.876  10.795  62.379  1.00  0.00    -0.579 OA 
HETATM   32  C   UNL     1      -8.785   8.652  62.342  1.00  0.00    -0.112 C  
HETATM   33  H   UNL     1      -9.495  10.976  61.528  1.00  0.00     0.000 HD 
ENDBRANCH  29  30
ENDBRANCH  28  29
ENDBRANCH  17  28
BRANCH  19  34
HETATM   34  O   UNL     1      -5.914  10.359  66.140  1.00  0.00    -0.071 OA 
BRANCH  34  35
HETATM   35  C   UNL     1      -5.829  10.542  64.727  1.00  0.00    -0.093 C  
BRANCH  35  36
HETATM   36  C   UNL     1      -5.163   9.300  64.109  1.00  0.00    -0.059 C  
HETATM   37  H   UNL     1      -5.001   8.496  62.319  1.00  0.00     0.000 HD 
HETATM   38  C   UNL     1      -5.666   8.002  64.722  1.00  0.00    -0.044 C  
HETATM   39  O   UNL     1      -5.413   9.263  62.700  1.00  0.00    -0.083 OA 
ENDBRANCH  35  36
ENDBRANCH  34  35
ENDBRANCH  19  34
BRANCH  20  40
HETATM   40  O   UNL     1      -7.616   8.980  68.198  1.00  0.00    -0.090 OA 
BRANCH  40  41
HETATM   41  C   UNL     1      -6.876   8.186  69.133  1.00  0.00    -0.055 C  
BRANCH  41  42
HETATM   42  C   UNL     1      -7.637   6.893  69.436  1.00  0.00    -0.099 C  
HETATM   43  C   UNL     1      -7.327   6.336  70.811  1.00  0.00    -0.076 C  
HETATM   44  O   UNL     1      -9.044   7.142  69.359  1.00  0.00    -0.145 OA 
HETATM   45  H   UNL     1      -9.516   6.339  69.547  1.00  0.00     0.000 HD 
ENDBRANCH  41  42
ENDBRANCH  40  41
ENDBRANCH  20  40
ENDBRANCH  14  15
ENDBRANCH  10  14
BRANCH  11  46
HETATM   46  O   UNL     1      -7.051  15.167  68.065  1.00  0.00    -0.106 OA 
BRANCH  46  47
HETATM   47  C   UNL     1      -5.895  14.484  68.562  1.00  0.00    -0.095 C  
BRANCH  47  48
HETATM   48  C   UNL     1      -5.609  14.697  70.061  1.00  0.00    -0.113 C  
HETATM   49  C   UNL     1      -5.583  16.169  70.434  1.00  0.00    -0.141 C  
HETATM   50  O   UNL     1      -6.624  14.120  70.895  1.00  0.00    -0.412 OA 
HETATM   51  H   UNL     1      -6.447  14.250  71.819  1.00  0.00     0.000 HD 
ENDBRANCH  47  48
ENDBRANCH  46  47
ENDBRANCH  11  46
BRANCH  12  52
HETATM   52  O   UNL     1      -8.216  16.240  65.604  1.00  0.00     0.077 OA 
BRANCH  52  53
HETATM   53  C   UNL     1      -8.015  17.576  66.074  1.00  0.00    -0.157 C  
BRANCH  53  54
HETATM   54  C   UNL     1      -6.520  17.931  66.172  1.00  0.00    -0.257 C  
HETATM   55  O   UNL     1      -6.144  18.136  67.535  1.00  0.00    -0.161 OA 
HETATM   56  C   UNL     1      -6.111  19.163  65.381  1.00  0.00    -0.278 C  
HETATM   57  H   UNL     1      -5.222  18.356  67.595  1.00  0.00     0.000 HD 
ENDBRANCH  53  54
ENDBRANCH  52  53
ENDBRANCH  12  52
BRANCH  13  58
HETATM   58  O   UNL     1      -9.132  17.074  68.363  1.00  0.00    -0.240 OA 
BRANCH  58  59
HETATM   59  C   UNL     1      -9.958  17.893  69.201  1.00  0.00    -0.195 C  
BRANCH  59  60
HETATM   60  C   UNL     1      -9.601  19.381  69.010  1.00  0.00    -0.370 C  
HETATM   61  O   UNL     1     -10.711  20.185  69.423  1.00  0.00    -0.458 OA 
HETATM   62  H   UNL     1     -10.491  21.102  69.305  1.00  0.00     0.000 HD 
HETATM   63  C   UNL     1      -9.264  19.727  67.576  1.00  0.00    -0.428 C  
ENDBRANCH  59  60
ENDBRANCH  58  59
ENDBRANCH  13  58
ENDBRANCH   7   8
ENDBRANCH   6   7
ENDBRANCH   5   6
ENDBRANCH   2   5
TORSDOF 28
ENDMDL
MODEL       25
REMARK 921   NORMALIZED FREE ENERGY PREDICTED BY IDOCK:   -2.63 KCAL/MOL
REMARK 922        TOTAL FREE ENERGY PREDICTED BY IDOCK:  -12.63 KCAL/MOL
REMARK 923 INTER-LIGAND FREE ENERGY PREDICTED BY IDOCK:  -10.79 KCAL/MOL
REMARK 924 INTRA-LIGAND FREE ENERGY PREDICTED BY IDOCK:   -1.84 KCAL/MOL
REMARK 927      BINDING AFFINITY PREDICTED BY RF-SCORE:    0.00 PKD
ROOT
HETATM    1  C   UNL     1     -10.593   4.671  65.739  1.00  0.00    -0.264 C  
HETATM    2  C   UNL     1     -10.320   5.911  66.574  1.00  0.00    -0.179 C  
HETATM    3  O   UNL     1     -11.559   6.384  67.107  1.00  0.00    -0.708 OA 
HETATM    4  H   UNL     1     -11.388   7.158  67.629  1.00  0.00     0.000 HD 
ENDROOT
BRANCH   2   5
HETATM    5  C   UNL     1      -9.319   5.654  67.711  1.00  0.00    -0.110 C  
BRANCH   5   6
HETATM    6  O   UNL     1      -8.010   6.147  67.375  1.00  0.00    -0.104 OA 
BRANCH   6   7
HETATM    7  C   UNL     1      -7.957   7.581  67.460  1.00  0.00    -0.116 C  
BRANCH   7   8
HETATM    8  C   UNL     1      -6.825   8.039  68.414  1.00  0.00    -0.068 C  
HETATM    9  O   UNL     1      -6.374   9.383  68.122  1.00  0.00    -0.053 OA 
HETATM   10  C   UNL     1      -7.320  10.416  68.361  1.00  0.00    -0.085 C  
HETATM   11  C   UNL     1      -7.728  10.404  69.872  1.00  0.00    -0.069 C  
HETATM   12  C   UNL     1      -8.257   8.993  70.262  1.00  0.00    -0.143 C  
HETATM   13  C   UNL     1      -7.197   7.908  69.920  1.00  0.00    -0.066 C  
BRANCH  10  14
HETATM   14  O   UNL     1      -6.835  11.728  67.977  1.00  0.00    -0.067 OA 
BRANCH  14  15
HETATM   15  C   UNL     1      -7.509  12.404  66.886  1.00  0.00     0.057 C  
HETATM   16  C   UNL     1      -8.070  11.350  65.867  1.00  0.00     0.131 C  
HETATM   17  C   UNL     1     -10.095  11.062  67.080  1.00  0.00    -0.196 C  
HETATM   18  O   UNL     1      -8.909  10.426  66.594  1.00  0.00    -0.133 OA 
HETATM   19  C   UNL     1      -9.759  12.242  68.035  1.00  0.00    -0.205 C  
HETATM   20  C   UNL     1      -8.759  13.227  67.343  1.00  0.00    -0.206 C  
BRANCH  16  21
HETATM   21  C   UNL     1      -7.063  10.539  65.026  1.00  0.00     0.006 C  
BRANCH  21  22
HETATM   22  O   UNL     1      -7.669   9.257  64.699  1.00  0.00    -0.108 OA 
BRANCH  22  23
HETATM   23  C   UNL     1      -6.758   8.345  64.079  1.00  0.00    -0.075 C  
BRANCH  23  24
HETATM   24  C   UNL     1      -7.436   7.458  63.011  1.00  0.00    -0.100 C  
HETATM   25  H   UNL     1      -8.891   7.676  61.726  1.00  0.00     0.000 HD 
HETATM   26  C   UNL     1      -8.043   6.167  63.551  1.00  0.00    -0.065 C  
HETATM   27  O   UNL     1      -8.475   8.222  62.383  1.00  0.00    -0.186 OA 
ENDBRANCH  23  24
ENDBRANCH  22  23
ENDBRANCH  21  22
ENDBRANCH  16  21
BRANCH  17  28
HETATM   28  O   UNL     1     -10.939  11.497  66.008  1.00  0.00    -0.291 OA 
BRANCH  28  29
HETATM   29  C   UNL     1     -10.700  10.816  64.776  1.00  0.00    -0.098 C  
BRANCH  29  30
HETATM   30  C   UNL     1     -10.937  11.697  63.542  1.00  0.00    -0.407 C  
HETATM   31  O   UNL     1     -10.156  12.887  63.621  1.00  0.00    -0.676 OA 
HETATM   32  C   UNL     1     -12.406  12.069  63.391  1.00  0.00    -0.635 C  
HETATM   33  H   UNL     1     -10.303  13.433  62.858  1.00  0.00     0.000 HD 
ENDBRANCH  29  30
ENDBRANCH  28  29
ENDBRANCH  17  28
BRANCH  19  34
HETATM   34  O   UNL     1     -10.896  12.974  68.526  1.00  0.00    -0.243 OA 
BRANCH  34  35
HETATM   35  C   UNL     1     -11.542  12.420  69.673  1.00  0.00    -0.260 C  
BRANCH  35  36
HETATM   36  C   UNL     1     -12.445  13.497  70.299  1.00  0.00    -0.239 C  
HETATM   37  H   UNL     1     -12.216  15.295  71.067  1.00  0.00     0.000 HD 
HETATM   38  C   UNL     1     -13.192  12.994  71.524  1.00  0.00    -0.360 C  
HETATM   39  O   UNL     1     -11.658  14.631  70.681  1.00  0.00    -0.278 OA 
ENDBRANCH  35  36
ENDBRANCH  34  35
ENDBRANCH  19  34
BRANCH  20  40
HETATM   40  O   UNL     1      -9.278  13.900  66.169  1.00  0.00    -0.157 OA 
BRANCH  40  41
HETATM   41  C   UNL     1      -9.217  15.329  66.251  1.00  0.00    -0.315 C  
BRANCH  41  42
HETATM   42  C   UNL     1      -9.172  15.765  67.718  1.00  0.00    -0.197 C  
HETATM   43  C   UNL     1      -8.395  17.049  67.927  1.00  0.00    -0.201 C  
HETATM   44  O   UNL     1     -10.506  15.963  68.196  1.00  0.00    -0.255 OA 
HETATM   45  H   UNL     1     -10.477  16.233  69.106  1.00  0.00     0.000 HD 
ENDBRANCH  41  42
ENDBRANCH  40  41
ENDBRANCH  20  40
ENDBRANCH  14  15
ENDBRANCH  10  14
BRANCH  11  46
HETATM   46  O   UNL     1      -6.679  10.772  70.791  1.00  0.00    -0.281 OA 
BRANCH  46  47
HETATM   47  C   UNL     1      -5.553  11.488  70.273  1.00  0.00    -0.135 C  
BRANCH  47  48
HETATM   48  C   UNL     1      -5.253  12.826  70.976  1.00  0.00    -0.165 C  
HETATM   49  C   UNL     1      -6.144  13.948  70.474  1.00  0.00    -0.142 C  
HETATM   50  O   UNL     1      -5.495  12.762  72.389  1.00  0.00    -0.355 OA 
HETATM   51  H   UNL     1      -5.309  13.587  72.823  1.00  0.00     0.000 HD 
ENDBRANCH  47  48
ENDBRANCH  46  47
ENDBRANCH  11  46
BRANCH  12  52
HETATM   52  O   UNL     1      -8.703   8.834  71.634  1.00  0.00    -0.195 OA 
BRANCH  52  53
HETATM   53  C   UNL     1      -9.661   7.792  71.847  1.00  0.00    -0.169 C  
BRANCH  53  54
HETATM   54  C   UNL     1     -10.935   8.316  72.536  1.00  0.00    -0.354 C  
HETATM   55  O   UNL     1     -11.790   7.229  72.893  1.00  0.00    -0.543 OA 
HETATM   56  C   UNL     1     -11.743   9.297  71.704  1.00  0.00    -0.462 C  
HETATM   57  H   UNL     1     -12.576   7.552  73.318  1.00  0.00     0.000 HD 
ENDBRANCH  53  54
ENDBRANCH  52  53
ENDBRANCH  12  52
BRANCH  13  58
HETATM   58  O   UNL     1      -5.956   8.031  70.658  1.00  0.00    -0.033 OA 
BRANCH  58  59
HETATM   59  C   UNL     1      -5.668   6.956  71.563  1.00  0.00    -0.036 C  
BRANCH  59  60
HETATM   60  C   UNL     1      -5.668   7.468  73.017  1.00  0.00    -0.044 C  
HETATM   61  O   UNL     1      -6.929   7.162  73.621  1.00  0.00    -0.069 OA 
HETATM   62  H   UNL     1      -6.930   7.479  74.517  1.00  0.00     0.000 HD 
HETATM   63  C   UNL     1      -5.437   8.960  73.116  1.00  0.00    -0.084 C  
ENDBRANCH  59  60
ENDBRANCH  58  59
ENDBRANCH  13  58
ENDBRANCH   7   8
ENDBRANCH   6   7
ENDBRANCH   5   6
ENDBRANCH   2   5
TORSDOF 28
ENDMDL
MODEL       26
REMARK 921   NORMALIZED FREE ENERGY PREDICTED BY IDOCK:   -2.49 KCAL/MOL
REMARK 922        TOTAL FREE ENERGY PREDICTED BY IDOCK:  -12.26 KCAL/MOL
REMARK 923 INTER-LIGAND FREE ENERGY PREDICTED BY IDOCK:   -9.93 KCAL/MOL
REMARK 924 INTRA-LIGAND FREE ENERGY PREDICTED BY IDOCK:   -2.33 KCAL/MOL
REMARK 927      BINDING AFFINITY PREDICTED BY RF-SCORE:    0.00 PKD
ROOT
HETATM    1  C   UNL     1     -12.796  11.622  63.031  1.00  0.00     0.255 C  
HETATM    2  C   UNL     1     -11.374  11.435  63.532  1.00  0.00    -0.162 C  
HETATM    3  O   UNL     1     -10.555  11.020  62.437  1.00  0.00    -0.414 OA 
HETATM    4  H   UNL     1      -9.666  10.903  62.750  1.00  0.00     0.000 HD 
ENDROOT
BRANCH   2   5
HETATM    5  C   UNL     1     -10.797  12.707  64.173  1.00  0.00    -0.396 C  
BRANCH   5   6
HETATM    6  O   UNL     1     -10.558  12.521  65.579  1.00  0.00    -0.263 OA 
BRANCH   6   7
HETATM    7  C   UNL     1     -11.086  11.263  66.035  1.00  0.00    -0.116 C  
BRANCH   7   8
HETATM    8  C   UNL     1      -9.962  10.367  66.613  1.00  0.00    -0.210 C  
HETATM    9  O   UNL     1      -8.899  11.143  67.216  1.00  0.00    -0.142 OA 
HETATM   10  C   UNL     1      -9.253  11.868  68.386  1.00  0.00    -0.173 C  
HETATM   11  C   UNL     1      -9.748  10.867  69.483  1.00  0.00     0.111 C  
HETATM   12  C   UNL     1     -10.919  10.009  68.922  1.00  0.00    -0.207 C  
HETATM   13  C   UNL     1     -10.482   9.293  67.613  1.00  0.00    -0.264 C  
BRANCH  10  14
HETATM   14  O   UNL     1      -8.168  12.684  68.896  1.00  0.00     0.057 OA 
BRANCH  14  15
HETATM   15  C   UNL     1      -8.511  13.934  69.543  1.00  0.00     0.839 C  
HETATM   16  C   UNL     1      -7.208  14.745  69.871  1.00  0.00    -0.044 C  
HETATM   17  C   UNL     1      -7.140  15.756  67.719  1.00  0.00    -0.151 C  
HETATM   18  O   UNL     1      -6.460  14.904  68.645  1.00  0.00    -0.080 OA 
HETATM   19  C   UNL     1      -8.539  15.189  67.345  1.00  0.00    -0.184 C  
HETATM   20  C   UNL     1      -9.363  14.888  68.641  1.00  0.00    -0.194 C  
BRANCH  16  21
HETATM   21  C   UNL     1      -6.259  14.195  70.955  1.00  0.00    -0.023 C  
BRANCH  21  22
HETATM   22  O   UNL     1      -5.384  13.209  70.340  1.00  0.00    -0.103 OA 
BRANCH  22  23
HETATM   23  C   UNL     1      -5.207  12.035  71.139  1.00  0.00    -0.115 C  
BRANCH  23  24
HETATM   24  C   UNL     1      -5.756  10.761  70.458  1.00  0.00    -0.120 C  
HETATM   25  H   UNL     1      -5.472   8.837  70.649  1.00  0.00     0.000 HD 
HETATM   26  C   UNL     1      -5.518  10.695  68.954  1.00  0.00    -0.041 C  
HETATM   27  O   UNL     1      -5.135   9.621  71.068  1.00  0.00    -0.033 OA 
ENDBRANCH  23  24
ENDBRANCH  22  23
ENDBRANCH  21  22
ENDBRANCH  16  21
BRANCH  17  28
HETATM   28  O   UNL     1      -7.248  17.095  68.214  1.00  0.00    -0.188 OA 
BRANCH  28  29
HETATM   29  C   UNL     1      -7.249  18.088  67.188  1.00  0.00    -0.194 C  
BRANCH  29  30
HETATM   30  C   UNL     1      -7.834  19.431  67.645  1.00  0.00    -0.274 C  
HETATM   31  O   UNL     1      -9.145  19.611  67.113  1.00  0.00    -0.294 OA 
HETATM   32  C   UNL     1      -6.955  20.600  67.223  1.00  0.00    -0.384 C  
HETATM   33  H   UNL     1      -9.507  20.442  67.396  1.00  0.00     0.000 HD 
ENDBRANCH  29  30
ENDBRANCH  28  29
ENDBRANCH  17  28
BRANCH  19  34
HETATM   34  O   UNL     1      -9.317  16.015  66.459  1.00  0.00    -0.227 OA 
BRANCH  34  35
HETATM   35  C   UNL     1     -10.651  15.572  66.210  1.00  0.00    -0.307 C  
BRANCH  35  36
HETATM   36  C   UNL     1     -11.021  15.918  64.757  1.00  0.00    -0.375 C  
HETATM   37  H   UNL     1     -11.294  17.551  63.693  1.00  0.00     0.000 HD 
HETATM   38  C   UNL     1     -12.367  15.341  64.344  1.00  0.00    -0.172 C  
HETATM   39  O   UNL     1     -11.066  17.339  64.590  1.00  0.00    -1.052 OA 
ENDBRANCH  35  36
ENDBRANCH  34  35
ENDBRANCH  19  34
BRANCH  20  40
HETATM   40  O   UNL     1      -9.689  16.052  69.441  1.00  0.00    -0.247 OA 
BRANCH  40  41
HETATM   41  C   UNL     1     -10.721  15.814  70.407  1.00  0.00    -0.289 C  
BRANCH  41  42
HETATM   42  C   UNL     1     -11.974  15.278  69.709  1.00  0.00    -0.347 C  
HETATM   43  C   UNL     1     -12.429  13.942  70.262  1.00  0.00    -0.380 C  
HETATM   44  O   UNL     1     -13.042  16.217  69.864  1.00  0.00    -0.471 OA 
HETATM   45  H   UNL     1     -13.819  15.883  69.431  1.00  0.00     0.000 HD 
ENDBRANCH  41  42
ENDBRANCH  40  41
ENDBRANCH  20  40
ENDBRANCH  14  15
ENDBRANCH  10  14
BRANCH  11  46
HETATM   46  O   UNL     1      -8.737   9.980  70.003  1.00  0.00    -0.191 OA 
BRANCH  46  47
HETATM   47  C   UNL     1      -9.029   9.261  71.205  1.00  0.00    -0.027 C  
BRANCH  47  48
HETATM   48  C   UNL     1      -7.824   8.543  71.843  1.00  0.00    -0.111 C  
HETATM   49  C   UNL     1      -8.126   8.063  73.252  1.00  0.00    -0.240 C  
HETATM   50  O   UNL     1      -7.450   7.362  71.120  1.00  0.00    -0.075 OA 
HETATM   51  H   UNL     1      -6.707   6.920  71.513  1.00  0.00     0.000 HD 
ENDBRANCH  47  48
ENDBRANCH  46  47
ENDBRANCH  11  46
BRANCH  12  52
HETATM   52  O   UNL     1     -11.506   9.051  69.839  1.00  0.00    -0.090 OA 
BRANCH  52  53
HETATM   53  C   UNL     1     -12.325   9.613  70.870  1.00  0.00    -0.263 C  
BRANCH  53  54
HETATM   54  C   UNL     1     -12.907   8.530  71.796  1.00  0.00    -0.348 C  
HETATM   55  O   UNL     1     -14.072   9.019  72.463  1.00  0.00    -0.539 OA 
HETATM   56  C   UNL     1     -11.941   8.016  72.851  1.00  0.00    -0.100 C  
HETATM   57  H   UNL     1     -14.432   8.350  73.035  1.00  0.00     0.000 HD 
ENDBRANCH  53  54
ENDBRANCH  52  53
ENDBRANCH  12  52
BRANCH  13  58
HETATM   58  O   UNL     1      -9.405   8.340  67.785  1.00  0.00    -0.137 OA 
BRANCH  58  59
HETATM   59  C   UNL     1      -9.746   6.971  67.530  1.00  0.00    -0.136 C  
BRANCH  59  60
HETATM   60  C   UNL     1      -8.528   6.061  67.787  1.00  0.00    -0.107 C  
HETATM   61  O   UNL     1      -7.481   6.838  68.378  1.00  0.00    -0.091 OA 
HETATM   62  H   UNL     1      -6.730   6.278  68.536  1.00  0.00     0.000 HD 
HETATM   63  C   UNL     1      -7.996   5.418  66.526  1.00  0.00    -0.105 C  
ENDBRANCH  59  60
ENDBRANCH  58  59
ENDBRANCH  13  58
ENDBRANCH   7   8
ENDBRANCH   6   7
ENDBRANCH   5   6
ENDBRANCH   2   5
TORSDOF 28
ENDMDL
MODEL       27
REMARK 921   NORMALIZED FREE ENERGY PREDICTED BY IDOCK:   -2.36 KCAL/MOL
REMARK 922        TOTAL FREE ENERGY PREDICTED BY IDOCK:  -11.90 KCAL/MOL
REMARK 923 INTER-LIGAND FREE ENERGY PREDICTED BY IDOCK:   -9.23 KCAL/MOL
REMARK 924 INTRA-LIGAND FREE ENERGY PREDICTED BY IDOCK:   -2.68 KCAL/MOL
REMARK 927      BINDING AFFINITY PREDICTED BY RF-SCORE:    0.00 PKD
ROOT
HETATM    1  C   UNL     1      -5.143  13.480  73.404  1.00  0.00    -0.125 C  
HETATM    2  C   UNL     1      -5.837  14.370  72.387  1.00  0.00     0.175 C  
HETATM    3  O   UNL     1      -5.157  15.625  72.339  1.00  0.00    -0.153 OA 
HETATM    4  H   UNL     1      -5.591  16.182  71.704  1.00  0.00     0.000 HD 
ENDROOT
BRANCH   2   5
HETATM    5  C   UNL     1      -5.890  13.742  70.985  1.00  0.00    -0.182 C  
BRANCH   5   6
HETATM    6  O   UNL     1      -6.050  14.747  69.968  1.00  0.00    -0.127 OA 
BRANCH   6   7
HETATM    7  C   UNL     1      -7.416  15.191  69.886  1.00  0.00    -0.032 C  
BRANCH   7   8
HETATM    8  C   UNL     1      -7.900  15.225  68.415  1.00  0.00    -0.122 C  
HETATM    9  O   UNL     1      -7.241  14.227  67.599  1.00  0.00    -0.158 OA 
HETATM   10  C   UNL     1      -7.539  12.875  67.918  1.00  0.00    -0.138 C  
HETATM   11  C   UNL     1      -9.078  12.634  67.756  1.00  0.00    -0.192 C  
HETATM   12  C   UNL     1      -9.864  13.653  68.631  1.00  0.00    -0.138 C  
HETATM   13  C   UNL     1      -9.446  15.106  68.271  1.00  0.00    -0.201 C  
BRANCH  10  14
HETATM   14  O   UNL     1      -6.790  11.926  67.117  1.00  0.00    -0.132 OA 
BRANCH  14  15
HETATM   15  C   UNL     1      -7.497  10.768  66.608  1.00  0.00    -0.135 C  
HETATM   16  C   UNL     1      -6.520   9.868  65.771  1.00  0.00    -0.092 C  
HETATM   17  C   UNL     1      -5.754   8.690  67.689  1.00  0.00    -0.039 C  
HETATM   18  O   UNL     1      -5.385   9.545  66.603  1.00  0.00    -0.043 OA 
HETATM   19  C   UNL     1      -6.829   9.353  68.597  1.00  0.00    -0.061 C  
HETATM   20  C   UNL     1      -8.044   9.829  67.734  1.00  0.00    -0.113 C  
BRANCH  16  21
HETATM   21  C   UNL     1      -6.001  10.411  64.424  1.00  0.00    -0.105 C  
BRANCH  21  22
HETATM   22  O   UNL     1      -6.723   9.741  63.353  1.00  0.00    -0.109 OA 
BRANCH  22  23
HETATM   23  C   UNL     1      -6.988   8.362  63.627  1.00  0.00    -0.084 C  
BRANCH  23  24
HETATM   24  C   UNL     1      -7.744   7.659  62.478  1.00  0.00    -0.117 C  
HETATM   25  H   UNL     1      -9.493   7.850  61.629  1.00  0.00     0.000 HD 
HETATM   26  C   UNL     1      -7.952   6.162  62.680  1.00  0.00    -0.101 C  
HETATM   27  O   UNL     1      -9.028   8.282  62.336  1.00  0.00     0.035 OA 
ENDBRANCH  23  24
ENDBRANCH  22  23
ENDBRANCH  21  22
ENDBRANCH  16  21
BRANCH  17  28
HETATM   28  O   UNL     1      -6.196   7.409  67.227  1.00  0.00    -0.047 OA 
BRANCH  28  29
HETATM   29  C   UNL     1      -5.319   6.338  67.575  1.00  0.00    -0.005 C  
BRANCH  29  30
HETATM   30  C   UNL     1      -6.028   5.185  68.298  1.00  0.00    -0.025 C  
HETATM   31  O   UNL     1      -7.429   5.437  68.385  1.00  0.00    -0.071 OA 
HETATM   32  C   UNL     1      -5.468   4.971  69.697  1.00  0.00    -0.008 C  
HETATM   33  H   UNL     1      -7.868   4.724  68.833  1.00  0.00     0.000 HD 
ENDBRANCH  29  30
ENDBRANCH  28  29
ENDBRANCH  17  28
BRANCH  19  34
HETATM   34  O   UNL     1      -7.299   8.536  69.685  1.00  0.00    -0.058 OA 
BRANCH  34  35
HETATM   35  C   UNL     1      -8.041   9.217  70.697  1.00  0.00    -0.172 C  
BRANCH  35  36
HETATM   36  C   UNL     1      -8.425   8.205  71.790  1.00  0.00    -0.144 C  
HETATM   37  H   UNL     1      -9.190   8.270  73.604  1.00  0.00     0.000 HD 
HETATM   38  C   UNL     1      -7.246   7.358  72.243  1.00  0.00    -0.068 C  
HETATM   39  O   UNL     1      -8.952   8.895  72.929  1.00  0.00    -0.264 OA 
ENDBRANCH  35  36
ENDBRANCH  34  35
ENDBRANCH  19  34
BRANCH  20  40
HETATM   40  O   UNL     1      -8.783   8.767  67.082  1.00  0.00    -0.119 OA 
BRANCH  40  41
HETATM   41  C   UNL     1     -10.037   8.471  67.708  1.00  0.00    -0.211 C  
BRANCH  41  42
HETATM   42  C   UNL     1     -10.570   7.129  67.199  1.00  0.00    -0.347 C  
HETATM   43  C   UNL     1      -9.796   6.603  66.007  1.00  0.00     0.204 C  
HETATM   44  O   UNL     1     -10.494   6.160  68.248  1.00  0.00    -0.181 OA 
HETATM   45  H   UNL     1     -10.825   5.327  67.932  1.00  0.00     0.000 HD 
ENDBRANCH  41  42
ENDBRANCH  40  41
ENDBRANCH  20  40
ENDBRANCH  14  15
ENDBRANCH  10  14
BRANCH  11  46
HETATM   46  O   UNL     1      -9.570  12.714  66.403  1.00  0.00    -0.243 OA 
BRANCH  46  47
HETATM   47  C   UNL     1     -10.988  12.738  66.206  1.00  0.00    -0.280 C  
BRANCH  47  48
HETATM   48  C   UNL     1     -11.442  13.188  64.804  1.00  0.00    -0.323 C  
HETATM   49  C   UNL     1     -12.856  13.742  64.812  1.00  0.00    -0.160 C  
HETATM   50  O   UNL     1     -10.629  14.249  64.284  1.00  0.00    -0.561 OA 
HETATM   51  H   UNL     1     -10.909  14.527  63.420  1.00  0.00     0.000 HD 
ENDBRANCH  47  48
ENDBRANCH  46  47
ENDBRANCH  11  46
BRANCH  12  52
HETATM   52  O   UNL     1     -11.310  13.533  68.609  1.00  0.00    -0.251 OA 
BRANCH  52  53
HETATM   53  C   UNL     1     -11.929  13.364  69.888  1.00  0.00    -0.338 C  
BRANCH  53  54
HETATM   54  C   UNL     1     -12.136  14.709  70.608  1.00  0.00    -0.317 C  
HETATM   55  O   UNL     1     -11.288  14.795  71.755  1.00  0.00    -0.502 OA 
HETATM   56  C   UNL     1     -13.564  14.970  71.057  1.00  0.00    -0.442 C  
HETATM   57  H   UNL     1     -11.416  15.625  72.200  1.00  0.00     0.000 HD 
ENDBRANCH  53  54
ENDBRANCH  52  53
ENDBRANCH  12  52
BRANCH  13  58
HETATM   58  O   UNL     1      -9.760  15.500  66.913  1.00  0.00    -0.225 OA 
BRANCH  58  59
HETATM   59  C   UNL     1      -9.258  16.781  66.510  1.00  0.00    -0.268 C  
BRANCH  59  60
HETATM   60  C   UNL     1     -10.346  17.859  66.685  1.00  0.00    -0.361 C  
HETATM   61  O   UNL     1     -10.497  18.575  65.454  1.00  0.00    -0.538 OA 
HETATM   62  H   UNL     1     -11.167  19.240  65.562  1.00  0.00     0.000 HD 
HETATM   63  C   UNL     1     -10.022  18.850  67.781  1.00  0.00    -0.411 C  
ENDBRANCH  59  60
ENDBRANCH  58  59
ENDBRANCH  13  58
ENDBRANCH   7   8
ENDBRANCH   6   7
ENDBRANCH   5   6
ENDBRANCH   2   5
TORSDOF 28
ENDMDL
MODEL       28
REMARK 921   NORMALIZED FREE ENERGY PREDICTED BY IDOCK:   -2.19 KCAL/MOL
REMARK 922        TOTAL FREE ENERGY PREDICTED BY IDOCK:  -11.46 KCAL/MOL
REMARK 923 INTER-LIGAND FREE ENERGY PREDICTED BY IDOCK:   -9.13 KCAL/MOL
REMARK 924 INTRA-LIGAND FREE ENERGY PREDICTED BY IDOCK:   -2.33 KCAL/MOL
REMARK 927      BINDING AFFINITY PREDICTED BY RF-SCORE:    0.00 PKD
ROOT
HETATM    1  C   UNL     1     -12.142  13.202  64.942  1.00  0.00    -0.448 C  
HETATM    2  C   UNL     1     -11.439  12.477  63.807  1.00  0.00    -0.469 C  
HETATM    3  O   UNL     1     -10.122  13.014  63.668  1.00  0.00    -0.699 OA 
HETATM    4  H   UNL     1      -9.683  12.561  62.958  1.00  0.00     0.000 HD 
ENDROOT
BRANCH   2   5
HETATM    5  C   UNL     1     -11.371  10.957  64.024  1.00  0.00     0.685 C  
BRANCH   5   6
HETATM    6  O   UNL     1     -10.126  10.572  64.634  1.00  0.00    -0.328 OA 
BRANCH   6   7
HETATM    7  C   UNL     1     -10.348   9.858  65.863  1.00  0.00    -0.113 C  
BRANCH   7   8
HETATM    8  C   UNL     1      -9.977  10.733  67.087  1.00  0.00    -0.194 C  
HETATM    9  O   UNL     1      -9.697   9.936  68.263  1.00  0.00    -0.142 OA 
HETATM   10  C   UNL     1      -8.537   9.119  68.192  1.00  0.00    -0.129 C  
HETATM   11  C   UNL     1      -7.281  10.024  67.962  1.00  0.00    -0.082 C  
HETATM   12  C   UNL     1      -7.488  10.896  66.689  1.00  0.00    -0.139 C  
HETATM   13  C   UNL     1      -8.803  11.717  66.809  1.00  0.00    -0.191 C  
BRANCH  10  14
HETATM   14  O   UNL     1      -8.357   8.291  69.369  1.00  0.00    -0.118 OA 
BRANCH  14  15
HETATM   15  C   UNL     1      -8.629   6.872  69.244  1.00  0.00    -0.132 C  
HETATM   16  C   UNL     1      -8.080   6.108  70.499  1.00  0.00    -0.113 C  
HETATM   17  C   UNL     1     -10.062   6.484  71.757  1.00  0.00    -0.184 C  
HETATM   18  O   UNL     1      -8.652   6.713  71.679  1.00  0.00    -0.124 OA 
HETATM   19  C   UNL     1     -10.805   7.068  70.522  1.00  0.00    -0.251 C  
HETATM   20  C   UNL     1     -10.156   6.534  69.202  1.00  0.00    -0.168 C  
BRANCH  16  21
HETATM   21  C   UNL     1      -6.552   6.016  70.689  1.00  0.00    -0.048 C  
BRANCH  21  22
HETATM   22  O   UNL     1      -6.190   4.612  70.812  1.00  0.00    -0.017 OA 
BRANCH  22  23
HETATM   23  C   UNL     1      -6.710   3.801  69.755  1.00  0.00    -0.034 C  
BRANCH  23  24
HETATM   24  C   UNL     1      -6.950   2.337  70.188  1.00  0.00    -0.033 C  
HETATM   25  H   UNL     1      -7.156   0.622  69.276  1.00  0.00     0.000 HD 
HETATM   26  C   UNL     1      -8.226   2.117  70.994  1.00  0.00    -0.064 C  
HETATM   27  O   UNL     1      -7.009   1.522  69.010  1.00  0.00    -0.035 OA 
ENDBRANCH  23  24
ENDBRANCH  22  23
ENDBRANCH  21  22
ENDBRANCH  16  21
BRANCH  17  28
HETATM   28  O   UNL     1     -10.363   5.095  71.924  1.00  0.00    -0.203 OA 
BRANCH  28  29
HETATM   29  C   UNL     1     -10.986   4.787  73.171  1.00  0.00    -0.300 C  
BRANCH  29  30
HETATM   30  C   UNL     1     -10.015   4.201  74.205  1.00  0.00    -0.151 C  
HETATM   31  O   UNL     1      -8.667   4.346  73.762  1.00  0.00    -0.104 OA 
HETATM   32  C   UNL     1     -10.300   2.730  74.473  1.00  0.00    -0.200 C  
HETATM   33  H   UNL     1      -8.066   3.983  74.401  1.00  0.00     0.000 HD 
ENDBRANCH  29  30
ENDBRANCH  28  29
ENDBRANCH  17  28
BRANCH  19  34
HETATM   34  O   UNL     1     -12.224   6.831  70.494  1.00  0.00    -0.363 OA 
BRANCH  34  35
HETATM   35  C   UNL     1     -12.959   7.336  71.609  1.00  0.00    -0.372 C  
BRANCH  35  36
HETATM   36  C   UNL     1     -13.368   8.789  71.311  1.00  0.00    -0.156 C  
HETATM   37  H   UNL     1     -12.651  10.301  70.273  1.00  0.00     0.000 HD 
HETATM   38  C   UNL     1     -13.500   9.629  72.573  1.00  0.00    -0.320 C  
HETATM   39  O   UNL     1     -12.398   9.404  70.456  1.00  0.00    -0.115 OA 
ENDBRANCH  35  36
ENDBRANCH  34  35
ENDBRANCH  19  34
BRANCH  20  40
HETATM   40  O   UNL     1     -10.270   5.103  69.001  1.00  0.00    -0.202 OA 
BRANCH  40  41
HETATM   41  C   UNL     1     -10.326   4.720  67.621  1.00  0.00     0.035 C  
BRANCH  41  42
HETATM   42  C   UNL     1      -9.638   5.780  66.757  1.00  0.00    -0.147 C  
HETATM   43  C   UNL     1      -9.074   5.214  65.470  1.00  0.00    -0.157 C  
HETATM   44  O   UNL     1     -10.579   6.805  66.425  1.00  0.00    -0.492 OA 
HETATM   45  H   UNL     1     -10.151   7.463  65.889  1.00  0.00     0.000 HD 
ENDBRANCH  41  42
ENDBRANCH  40  41
ENDBRANCH  20  40
ENDBRANCH  14  15
ENDBRANCH  10  14
BRANCH  11  46
HETATM   46  O   UNL     1      -6.942  10.891  69.063  1.00  0.00    -0.072 OA 
BRANCH  46  47
HETATM   47  C   UNL     1      -5.686  10.683  69.718  1.00  0.00    -0.050 C  
BRANCH  47  48
HETATM   48  C   UNL     1      -5.212  11.853  70.602  1.00  0.00    -0.134 C  
HETATM   49  C   UNL     1      -5.741  13.190  70.112  1.00  0.00    -0.141 C  
HETATM   50  O   UNL     1      -5.683  11.739  71.952  1.00  0.00    -0.074 OA 
HETATM   51  H   UNL     1      -5.390  12.460  72.497  1.00  0.00     0.000 HD 
ENDBRANCH  47  48
ENDBRANCH  46  47
ENDBRANCH  11  46
BRANCH  12  52
HETATM   52  O   UNL     1      -6.389  11.771  66.327  1.00  0.00     0.001 OA 
BRANCH  52  53
HETATM   53  C   UNL     1      -5.140  11.115  66.088  1.00  0.00    -0.128 C  
BRANCH  53  54
HETATM   54  C   UNL     1      -5.129  10.377  64.736  1.00  0.00    -0.129 C  
HETATM   55  O   UNL     1      -5.780  11.162  63.735  1.00  0.00    -0.368 OA 
HETATM   56  C   UNL     1      -5.786   9.007  64.761  1.00  0.00    -0.064 C  
HETATM   57  H   UNL     1      -5.774  10.706  62.901  1.00  0.00     0.000 HD 
ENDBRANCH  53  54
ENDBRANCH  52  53
ENDBRANCH  12  52
BRANCH  13  58
HETATM   58  O   UNL     1      -8.811  12.678  67.893  1.00  0.00    -0.165 OA 
BRANCH  58  59
HETATM   59  C   UNL     1      -8.124  13.909  67.631  1.00  0.00    -0.177 C  
BRANCH  59  60
HETATM   60  C   UNL     1      -8.850  15.081  68.322  1.00  0.00    -0.172 C  
HETATM   61  O   UNL     1      -9.313  14.653  69.607  1.00  0.00    -0.405 OA 
HETATM   62  H   UNL     1      -9.761  15.375  70.033  1.00  0.00     0.000 HD 
HETATM   63  C   UNL     1     -10.035  15.590  67.530  1.00  0.00    -0.230 C  
ENDBRANCH  59  60
ENDBRANCH  58  59
ENDBRANCH  13  58
ENDBRANCH   7   8
ENDBRANCH   6   7
ENDBRANCH   5   6
ENDBRANCH   2   5
TORSDOF 28
ENDMDL
MODEL       29
REMARK 921   NORMALIZED FREE ENERGY PREDICTED BY IDOCK:   -1.82 KCAL/MOL
REMARK 922        TOTAL FREE ENERGY PREDICTED BY IDOCK:  -10.49 KCAL/MOL
REMARK 923 INTER-LIGAND FREE ENERGY PREDICTED BY IDOCK:   -7.24 KCAL/MOL
REMARK 924 INTRA-LIGAND FREE ENERGY PREDICTED BY IDOCK:   -3.25 KCAL/MOL
REMARK 927      BINDING AFFINITY PREDICTED BY RF-SCORE:    0.00 PKD
ROOT
HETATM    1  C   UNL     1      -8.749  11.316  63.950  1.00  0.00     0.269 C  
HETATM    2  C   UNL     1      -9.416   9.980  63.667  1.00  0.00    -0.197 C  
HETATM    3  O   UNL     1      -9.958  10.012  62.345  1.00  0.00    -0.628 OA 
HETATM    4  H   UNL     1     -10.375   9.177  62.168  1.00  0.00     0.000 HD 
ENDROOT
BRANCH   2   5
HETATM    5  C   UNL     1      -8.454   8.791  63.816  1.00  0.00    -0.099 C  
BRANCH   5   6
HETATM    6  O   UNL     1      -7.574   8.970  64.940  1.00  0.00    -0.102 OA 
BRANCH   6   7
HETATM    7  C   UNL     1      -6.438   8.092  64.856  1.00  0.00    -0.049 C  
BRANCH   7   8
HETATM    8  C   UNL     1      -6.322   7.212  66.127  1.00  0.00    -0.044 C  
HETATM    9  O   UNL     1      -7.286   7.586  67.140  1.00  0.00    -0.081 OA 
HETATM   10  C   UNL     1      -8.648   7.352  66.811  1.00  0.00    -0.127 C  
HETATM   11  C   UNL     1      -8.859   5.825  66.542  1.00  0.00    -0.126 C  
HETATM   12  C   UNL     1      -7.875   5.346  65.434  1.00  0.00    -0.095 C  
HETATM   13  C   UNL     1      -6.411   5.687  65.831  1.00  0.00    -0.040 C  
BRANCH  10  14
HETATM   14  O   UNL     1      -9.565   7.817  67.835  1.00  0.00    -0.142 OA 
BRANCH  14  15
HETATM   15  C   UNL     1      -9.087   8.827  68.759  1.00  0.00    -0.138 C  
HETATM   16  C   UNL     1      -9.936  10.138  68.605  1.00  0.00    -0.170 C  
HETATM   17  C   UNL     1     -11.606   9.389  70.123  1.00  0.00    -0.078 C  
HETATM   18  O   UNL     1     -11.328   9.795  68.780  1.00  0.00    -0.083 OA 
HETATM   19  C   UNL     1     -10.761   8.149  70.532  1.00  0.00    -0.225 C  
HETATM   20  C   UNL     1      -9.244   8.418  70.261  1.00  0.00    -0.152 C  
BRANCH  16  21
HETATM   21  C   UNL     1      -9.792  10.954  67.304  1.00  0.00    -0.175 C  
BRANCH  21  22
HETATM   22  O   UNL     1     -11.114  11.115  66.718  1.00  0.00    -0.278 OA 
BRANCH  22  23
HETATM   23  C   UNL     1     -11.583  12.467  66.748  1.00  0.00    -0.379 C  
BRANCH  23  24
HETATM   24  C   UNL     1     -10.486  13.487  66.368  1.00  0.00    -0.287 C  
HETATM   25  H   UNL     1     -10.012  15.302  66.913  1.00  0.00     0.000 HD 
HETATM   26  C   UNL     1     -10.465  13.873  64.893  1.00  0.00    -0.446 C  
HETATM   27  O   UNL     1     -10.686  14.675  67.147  1.00  0.00    -0.282 OA 
ENDBRANCH  23  24
ENDBRANCH  22  23
ENDBRANCH  21  22
ENDBRANCH  16  21
BRANCH  17  28
HETATM   28  O   UNL     1     -11.417  10.464  71.049  1.00  0.00    -0.328 OA 
BRANCH  28  29
HETATM   29  C   UNL     1     -12.551  11.322  71.174  1.00  0.00    -0.397 C  
BRANCH  29  30
HETATM   30  C   UNL     1     -12.176  12.801  71.340  1.00  0.00     0.248 C  
HETATM   31  O   UNL     1     -12.849  13.363  72.465  1.00  0.00    -0.238 OA 
HETATM   32  C   UNL     1     -12.515  13.609  70.096  1.00  0.00    -0.305 C  
HETATM   33  H   UNL     1     -12.618  14.279  72.567  1.00  0.00     0.000 HD 
ENDBRANCH  29  30
ENDBRANCH  28  29
ENDBRANCH  17  28
BRANCH  19  34
HETATM   34  O   UNL     1     -10.940   7.709  71.890  1.00  0.00    -0.230 OA 
BRANCH  34  35
HETATM   35  C   UNL     1     -10.136   6.600  72.293  1.00  0.00    -0.174 C  
BRANCH  35  36
HETATM   36  C   UNL     1     -11.060   5.409  72.602  1.00  0.00    -0.278 C  
HETATM   37  H   UNL     1     -11.116   3.486  72.182  1.00  0.00     0.000 HD 
HETATM   38  C   UNL     1     -12.482   5.629  72.107  1.00  0.00     0.497 C  
HETATM   39  O   UNL     1     -10.546   4.221  71.991  1.00  0.00    -0.091 OA 
ENDBRANCH  35  36
ENDBRANCH  34  35
ENDBRANCH  19  34
BRANCH  20  40
HETATM   40  O   UNL     1      -8.661   9.482  71.055  1.00  0.00    -0.260 OA 
BRANCH  40  41
HETATM   41  C   UNL     1      -7.234   9.408  71.155  1.00  0.00     0.026 C  
BRANCH  41  42
HETATM   42  C   UNL     1      -6.591  10.368  70.150  1.00  0.00    -0.146 C  
HETATM   43  C   UNL     1      -5.687  11.391  70.809  1.00  0.00    -0.079 C  
HETATM   44  O   UNL     1      -5.814   9.620  69.211  1.00  0.00    -0.035 OA 
HETATM   45  H   UNL     1      -5.415  10.216  68.587  1.00  0.00     0.000 HD 
ENDBRANCH  41  42
ENDBRANCH  40  41
ENDBRANCH  20  40
ENDBRANCH  14  15
ENDBRANCH  10  14
BRANCH  11  46
HETATM   46  O   UNL     1      -8.702   4.972  67.694  1.00  0.00    -0.104 OA 
BRANCH  46  47
HETATM   47  C   UNL     1      -9.702   3.976  67.932  1.00  0.00    -0.088 C  
BRANCH  47  48
HETATM   48  C   UNL     1      -9.188   2.684  68.597  1.00  0.00    -0.179 C  
HETATM   49  C   UNL     1      -8.139   1.986  67.751  1.00  0.00    -0.065 C  
HETATM   50  O   UNL     1      -8.545   2.939  69.854  1.00  0.00    -0.052 OA 
HETATM   51  H   UNL     1      -8.228   2.143  70.263  1.00  0.00     0.000 HD 
ENDBRANCH  47  48
ENDBRANCH  46  47
ENDBRANCH  11  46
BRANCH  12  52
HETATM   52  O   UNL     1      -7.973   3.950  65.051  1.00  0.00    -0.091 OA 
BRANCH  52  53
HETATM   53  C   UNL     1      -8.007   3.705  63.641  1.00  0.00    -0.087 C  
BRANCH  53  54
HETATM   54  C   UNL     1      -9.448   3.542  63.122  1.00  0.00    -0.104 C  
HETATM   55  O   UNL     1     -10.373   4.158  64.021  1.00  0.00    -0.356 OA 
HETATM   56  C   UNL     1      -9.884   2.102  62.912  1.00  0.00    -0.091 C  
HETATM   57  H   UNL     1     -11.262   4.057  63.701  1.00  0.00     0.000 HD 
ENDBRANCH  53  54
ENDBRANCH  52  53
ENDBRANCH  12  52
BRANCH  13  58
HETATM   58  O   UNL     1      -5.944   5.012  67.025  1.00  0.00    -0.025 OA 
BRANCH  58  59
HETATM   59  C   UNL     1      -5.139   5.806  67.907  1.00  0.00    -0.004 C  
BRANCH  59  60
HETATM   60  C   UNL     1      -5.299   5.317  69.360  1.00  0.00    -0.003 C  
HETATM   61  O   UNL     1      -5.192   3.889  69.387  1.00  0.00    -0.007 OA 
HETATM   62  H   UNL     1      -5.291   3.587  70.283  1.00  0.00     0.000 HD 
HETATM   63  C   UNL     1      -6.625   5.712  69.973  1.00  0.00    -0.043 C  
ENDBRANCH  59  60
ENDBRANCH  58  59
ENDBRANCH  13  58
ENDBRANCH   7   8
ENDBRANCH   6   7
ENDBRANCH   5   6
ENDBRANCH   2   5
TORSDOF 28
ENDMDL
MODEL       30
REMARK 921   NORMALIZED FREE ENERGY PREDICTED BY IDOCK:   -1.61 KCAL/MOL
REMARK 922        TOTAL FREE ENERGY PREDICTED BY IDOCK:   -9.93 KCAL/MOL
REMARK 923 INTER-LIGAND FREE ENERGY PREDICTED BY IDOCK:   -9.21 KCAL/MOL
REMARK 924 INTRA-LIGAND FREE ENERGY PREDICTED BY IDOCK:   -0.72 KCAL/MOL
REMARK 927      BINDING AFFINITY PREDICTED BY RF-SCORE:    0.00 PKD
ROOT
HETATM    1  C   UNL     1     -11.596  11.108  63.876  1.00  0.00     0.321 C  
HETATM    2  C   UNL     1     -10.180  10.646  63.574  1.00  0.00    -0.134 C  
HETATM    3  O   UNL     1      -9.386  11.789  63.251  1.00  0.00    -0.545 OA 
HETATM    4  H   UNL     1      -8.502  11.501  63.063  1.00  0.00     0.000 HD 
ENDROOT
BRANCH   2   5
HETATM    5  C   UNL     1      -9.546   9.874  64.742  1.00  0.00    -0.271 C  
BRANCH   5   6
HETATM    6  O   UNL     1     -10.487   9.679  65.812  1.00  0.00    -0.105 OA 
BRANCH   6   7
HETATM    7  C   UNL     1      -9.856   9.079  66.956  1.00  0.00    -0.209 C  
BRANCH   7   8
HETATM    8  C   UNL     1      -8.338   9.391  66.981  1.00  0.00    -0.127 C  
HETATM    9  O   UNL     1      -8.073  10.790  67.241  1.00  0.00    -0.114 OA 
HETATM   10  C   UNL     1      -8.434  11.257  68.533  1.00  0.00    -0.156 C  
HETATM   11  C   UNL     1      -7.642  10.448  69.614  1.00  0.00    -0.153 C  
HETATM   12  C   UNL     1      -7.900   8.925  69.424  1.00  0.00    -0.098 C  
HETATM   13  C   UNL     1      -7.540   8.496  67.973  1.00  0.00    -0.098 C  
BRANCH  10  14
HETATM   14  O   UNL     1      -8.214  12.680  68.703  1.00  0.00    -0.104 OA 
BRANCH  14  15
HETATM   15  C   UNL     1      -9.378  13.528  68.867  1.00  0.00     0.193 C  
HETATM   16  C   UNL     1      -8.949  15.038  68.852  1.00  0.00    -0.202 C  
HETATM   17  C   UNL     1      -9.052  15.177  66.480  1.00  0.00    -0.294 C  
HETATM   18  O   UNL     1      -8.212  15.282  67.634  1.00  0.00    -0.143 OA 
HETATM   19  C   UNL     1      -9.692  13.765  66.367  1.00  0.00    -0.294 C  
HETATM   20  C   UNL     1     -10.415  13.392  67.703  1.00  0.00    -0.241 C  
BRANCH  16  21
HETATM   21  C   UNL     1      -8.124  15.575  70.039  1.00  0.00     0.373 C  
BRANCH  21  22
HETATM   22  O   UNL     1      -6.902  16.166  69.515  1.00  0.00    -0.201 OA 
BRANCH  22  23
HETATM   23  C   UNL     1      -7.134  17.347  68.741  1.00  0.00    -0.246 C  
BRANCH  23  24
HETATM   24  C   UNL     1      -6.039  18.418  68.943  1.00  0.00    -0.217 C  
HETATM   25  H   UNL     1      -5.927  20.160  69.821  1.00  0.00     0.000 HD 
HETATM   26  C   UNL     1      -5.457  18.979  67.650  1.00  0.00    -0.171 C  
HETATM   27  O   UNL     1      -6.601  19.501  69.697  1.00  0.00    -0.316 OA 
ENDBRANCH  23  24
ENDBRANCH  22  23
ENDBRANCH  21  22
ENDBRANCH  16  21
BRANCH  17  28
HETATM   28  O   UNL     1     -10.057  16.196  66.464  1.00  0.00    -0.266 OA 
BRANCH  28  29
HETATM   29  C   UNL     1      -9.751  17.319  67.290  1.00  0.00    -0.262 C  
BRANCH  29  30
HETATM   30  C   UNL     1     -10.152  18.661  66.662  1.00  0.00    -0.385 C  
HETATM   31  O   UNL     1      -9.135  19.120  65.774  1.00  0.00    -0.385 OA 
HETATM   32  C   UNL     1     -10.411  19.723  67.721  1.00  0.00    -0.555 C  
HETATM   33  H   UNL     1      -9.383  19.950  65.385  1.00  0.00     0.000 HD 
ENDBRANCH  29  30
ENDBRANCH  28  29
ENDBRANCH  17  28
BRANCH  19  34
HETATM   34  O   UNL     1     -10.598  13.591  65.262  1.00  0.00    -0.301 OA 
BRANCH  34  35
HETATM   35  C   UNL     1     -10.876  14.765  64.498  1.00  0.00    -0.159 C  
BRANCH  35  36
HETATM   36  C   UNL     1     -12.357  14.742  64.081  1.00  0.00    -0.231 C  
HETATM   37  H   UNL     1     -13.773  16.065  63.736  1.00  0.00     0.000 HD 
HETATM   38  C   UNL     1     -13.226  13.964  65.057  1.00  0.00     0.171 C  
HETATM   39  O   UNL     1     -12.859  16.079  63.993  1.00  0.00    -0.376 OA 
ENDBRANCH  35  36
ENDBRANCH  34  35
ENDBRANCH  19  34
BRANCH  20  40
HETATM   40  O   UNL     1     -11.546  14.233  68.040  1.00  0.00    -0.295 OA 
BRANCH  40  41
HETATM   41  C   UNL     1     -12.524  13.580  68.859  1.00  0.00     0.252 C  
BRANCH  41  42
HETATM   42  C   UNL     1     -12.072  13.595  70.322  1.00  0.00    -0.357 C  
HETATM   43  C   UNL     1     -13.108  14.195  71.252  1.00  0.00    -0.420 C  
HETATM   44  O   UNL     1     -11.805  12.256  70.750  1.00  0.00    -0.455 OA 
HETATM   45  H   UNL     1     -11.525  12.266  71.658  1.00  0.00     0.000 HD 
ENDBRANCH  41  42
ENDBRANCH  40  41
ENDBRANCH  20  40
ENDBRANCH  14  15
ENDBRANCH  10  14
BRANCH  11  46
HETATM   46  O   UNL     1      -6.218  10.674  69.626  1.00  0.00    -0.050 OA 
BRANCH  46  47
HETATM   47  C   UNL     1      -5.616  11.089  70.857  1.00  0.00    -0.083 C  
BRANCH  47  48
HETATM   48  C   UNL     1      -5.151  12.558  70.891  1.00  0.00    -0.141 C  
HETATM   49  C   UNL     1      -5.226  13.212  69.523  1.00  0.00    -0.077 C  
HETATM   50  O   UNL     1      -5.979  13.369  71.737  1.00  0.00    -0.544 OA 
HETATM   51  H   UNL     1      -5.692  14.274  71.759  1.00  0.00     0.000 HD 
ENDBRANCH  47  48
ENDBRANCH  46  47
ENDBRANCH  11  46
BRANCH  12  52
HETATM   52  O   UNL     1      -7.253   8.042  70.376  1.00  0.00    -0.048 OA 
BRANCH  52  53
HETATM   53  C   UNL     1      -7.935   7.885  71.624  1.00  0.00    -0.101 C  
BRANCH  53  54
HETATM   54  C   UNL     1      -7.016   8.186  72.822  1.00  0.00    -0.096 C  
HETATM   55  O   UNL     1      -6.087   7.118  73.018  1.00  0.00    -0.055 OA 
HETATM   56  C   UNL     1      -7.747   8.421  74.134  1.00  0.00    -0.231 C  
HETATM   57  H   UNL     1      -5.521   7.303  73.758  1.00  0.00     0.000 HD 
ENDBRANCH  53  54
ENDBRANCH  52  53
ENDBRANCH  12  52
BRANCH  13  58
HETATM   58  O   UNL     1      -6.142   8.657  67.632  1.00  0.00    -0.047 OA 
BRANCH  58  59
HETATM   59  C   UNL     1      -5.501   7.492  67.093  1.00  0.00    -0.030 C  
BRANCH  59  60
HETATM   60  C   UNL     1      -6.489   6.697  66.218  1.00  0.00    -0.043 C  
HETATM   61  O   UNL     1      -6.762   5.439  66.846  1.00  0.00    -0.058 OA 
HETATM   62  H   UNL     1      -7.371   4.948  66.307  1.00  0.00     0.000 HD 
HETATM   63  C   UNL     1      -5.964   6.433  64.824  1.00  0.00    -0.026 C  
ENDBRANCH  59  60
ENDBRANCH  58  59
ENDBRANCH  13  58
ENDBRANCH   7   8
ENDBRANCH   6   7
ENDBRANCH   5   6
ENDBRANCH   2   5
TORSDOF 28
ENDMDL
MODEL       31
REMARK 921   NORMALIZED FREE ENERGY PREDICTED BY IDOCK:   -1.57 KCAL/MOL
REMARK 922        TOTAL FREE ENERGY PREDICTED BY IDOCK:   -9.82 KCAL/MOL
REMARK 923 INTER-LIGAND FREE ENERGY PREDICTED BY IDOCK:   -8.92 KCAL/MOL
REMARK 924 INTRA-LIGAND FREE ENERGY PREDICTED BY IDOCK:   -0.90 KCAL/MOL
REMARK 927      BINDING AFFINITY PREDICTED BY RF-SCORE:    0.00 PKD
ROOT
HETATM    1  C   UNL     1     -11.094  11.757  63.357  1.00  0.00    -0.448 C  
HETATM    2  C   UNL     1      -9.887  10.891  63.034  1.00  0.00    -0.321 C  
HETATM    3  O   UNL     1      -8.862  11.723  62.488  1.00  0.00    -0.540 OA 
HETATM    4  H   UNL     1      -8.108  11.182  62.287  1.00  0.00     0.000 HD 
ENDROOT
BRANCH   2   5
HETATM    5  C   UNL     1      -9.356  10.130  64.259  1.00  0.00    -0.295 C  
BRANCH   5   6
HETATM    6  O   UNL     1     -10.318  10.127  65.329  1.00  0.00    -0.266 OA 
BRANCH   6   7
HETATM    7  C   UNL     1      -9.676   9.958  66.604  1.00  0.00    -0.198 C  
BRANCH   7   8
HETATM    8  C   UNL     1      -8.232  10.521  66.578  1.00  0.00    -0.133 C  
HETATM    9  O   UNL     1      -8.173  11.895  67.028  1.00  0.00    -0.161 OA 
HETATM   10  C   UNL     1      -8.487  12.109  68.397  1.00  0.00    -0.145 C  
HETATM   11  C   UNL     1      -7.482  11.307  69.289  1.00  0.00    -0.040 C  
HETATM   12  C   UNL     1      -7.509   9.803  68.888  1.00  0.00    -0.075 C  
HETATM   13  C   UNL     1      -7.215   9.647  67.369  1.00  0.00    -0.086 C  
BRANCH  10  14
HETATM   14  O   UNL     1      -8.484  13.512  68.765  1.00  0.00    -0.065 OA 
BRANCH  14  15
HETATM   15  C   UNL     1      -9.748  14.221  68.730  1.00  0.00    -0.173 C  
HETATM   16  C   UNL     1      -9.666  15.508  69.624  1.00  0.00    -0.274 C  
HETATM   17  C   UNL     1      -8.756  16.828  67.868  1.00  0.00    -0.203 C  
HETATM   18  O   UNL     1      -8.539  16.294  69.177  1.00  0.00    -0.248 OA 
HETATM   19  C   UNL     1      -8.987  15.701  66.822  1.00  0.00    -0.261 C  
HETATM   20  C   UNL     1     -10.128  14.744  67.304  1.00  0.00    -0.236 C  
BRANCH  16  21
HETATM   21  C   UNL     1      -9.563  15.331  71.153  1.00  0.00     2.099 C  
BRANCH  21  22
HETATM   22  O   UNL     1     -10.792  14.711  71.625  1.00  0.00     0.452 OA 
BRANCH  22  23
HETATM   23  C   UNL     1     -11.822  15.658  71.921  1.00  0.00    -0.452 C  
BRANCH  23  24
HETATM   24  C   UNL     1     -12.917  15.078  72.846  1.00  0.00    -0.463 C  
HETATM   25  H   UNL     1     -13.097  14.736  74.761  1.00  0.00     0.000 HD 
HETATM   26  C   UNL     1     -13.348  13.656  72.502  1.00  0.00    -0.638 C  
HETATM   27  O   UNL     1     -12.424  15.092  74.193  1.00  0.00    -0.580 OA 
ENDBRANCH  23  24
ENDBRANCH  22  23
ENDBRANCH  21  22
ENDBRANCH  16  21
BRANCH  17  28
HETATM   28  O   UNL     1      -9.836  17.767  67.853  1.00  0.00    -0.284 OA 
BRANCH  28  29
HETATM   29  C   UNL     1      -9.424  19.121  68.047  1.00  0.00    -0.330 C  
BRANCH  29  30
HETATM   30  C   UNL     1      -9.011  19.821  66.746  1.00  0.00    -0.359 C  
HETATM   31  O   UNL     1      -7.841  20.610  66.954  1.00  0.00    -0.484 OA 
HETATM   32  C   UNL     1     -10.125  20.706  66.205  1.00  0.00     0.006 C  
HETATM   33  H   UNL     1      -7.585  21.044  66.149  1.00  0.00     0.000 HD 
ENDBRANCH  29  30
ENDBRANCH  28  29
ENDBRANCH  17  28
BRANCH  19  34
HETATM   34  O   UNL     1      -9.270  16.155  65.486  1.00  0.00    -0.377 OA 
BRANCH  34  35
HETATM   35  C   UNL     1     -10.614  16.572  65.244  1.00  0.00    -0.253 C  
BRANCH  35  36
HETATM   36  C   UNL     1     -11.170  15.774  64.052  1.00  0.00     0.366 C  
HETATM   37  H   UNL     1     -12.823  15.752  62.982  1.00  0.00     0.000 HD 
HETATM   38  C   UNL     1     -11.251  14.282  64.334  1.00  0.00    -0.262 C  
HETATM   39  O   UNL     1     -12.480  16.245  63.718  1.00  0.00    -0.703 OA 
ENDBRANCH  35  36
ENDBRANCH  34  35
ENDBRANCH  19  34
BRANCH  20  40
HETATM   40  O   UNL     1     -11.436  15.359  67.411  1.00  0.00    -0.303 OA 
BRANCH  40  41
HETATM   41  C   UNL     1     -12.486  14.428  67.703  1.00  0.00     0.228 C  
BRANCH  41  42
HETATM   42  C   UNL     1     -11.902  13.025  67.887  1.00  0.00    -0.343 C  
HETATM   43  C   UNL     1     -12.264  12.408  69.223  1.00  0.00    -0.088 C  
HETATM   44  O   UNL     1     -12.387  12.169  66.849  1.00  0.00    -0.402 OA 
HETATM   45  H   UNL     1     -12.024  11.298  66.964  1.00  0.00     0.000 HD 
ENDBRANCH  41  42
ENDBRANCH  40  41
ENDBRANCH  20  40
ENDBRANCH  14  15
ENDBRANCH  10  14
BRANCH  11  46
HETATM   46  O   UNL     1      -6.118  11.771  69.243  1.00  0.00    -0.068 OA 
BRANCH  46  47
HETATM   47  C   UNL     1      -5.707  12.741  70.212  1.00  0.00    -0.165 C  
BRANCH  47  48
HETATM   48  C   UNL     1      -5.209  14.076  69.625  1.00  0.00    -0.091 C  
HETATM   49  C   UNL     1      -5.588  14.233  68.163  1.00  0.00    -0.124 C  
HETATM   50  O   UNL     1      -5.792  15.210  70.284  1.00  0.00    -0.138 OA 
HETATM   51  H   UNL     1      -5.485  16.033  69.922  1.00  0.00     0.000 HD 
ENDBRANCH  47  48
ENDBRANCH  46  47
ENDBRANCH  11  46
BRANCH  12  52
HETATM   52  O   UNL     1      -6.646   8.922  69.652  1.00  0.00    -0.041 OA 
BRANCH  52  53
HETATM   53  C   UNL     1      -7.212   8.413  70.864  1.00  0.00    -0.059 C  
BRANCH  53  54
HETATM   54  C   UNL     1      -8.450   7.539  70.595  1.00  0.00    -0.132 C  
HETATM   55  O   UNL     1      -9.249   7.432  71.776  1.00  0.00    -0.140 OA 
HETATM   56  C   UNL     1      -8.137   6.133  70.110  1.00  0.00    -0.116 C  
HETATM   57  H   UNL     1     -10.013   6.892  71.610  1.00  0.00     0.000 HD 
ENDBRANCH  53  54
ENDBRANCH  52  53
ENDBRANCH  12  52
BRANCH  13  58
HETATM   58  O   UNL     1      -5.897  10.092  66.966  1.00  0.00    -0.050 OA 
BRANCH  58  59
HETATM   59  C   UNL     1      -5.130   9.143  66.213  1.00  0.00    -0.032 C  
BRANCH  59  60
HETATM   60  C   UNL     1      -5.211   9.467  64.708  1.00  0.00    -0.049 C  
HETATM   61  O   UNL     1      -5.594  10.836  64.544  1.00  0.00    -0.311 OA 
HETATM   62  H   UNL     1      -5.644  11.036  63.617  1.00  0.00     0.000 HD 
HETATM   63  C   UNL     1      -6.206   8.598  63.970  1.00  0.00    -0.072 C  
ENDBRANCH  59  60
ENDBRANCH  58  59
ENDBRANCH  13  58
ENDBRANCH   7   8
ENDBRANCH   6   7
ENDBRANCH   5   6
ENDBRANCH   2   5
TORSDOF 28
ENDMDL
MODEL       32
REMARK 921   NORMALIZED FREE ENERGY PREDICTED BY IDOCK:   -1.43 KCAL/MOL
REMARK 922        TOTAL FREE ENERGY PREDICTED BY IDOCK:   -9.46 KCAL/MOL
REMARK 923 INTER-LIGAND FREE ENERGY PREDICTED BY IDOCK:   -8.35 KCAL/MOL
REMARK 924 INTRA-LIGAND FREE ENERGY PREDICTED BY IDOCK:   -1.11 KCAL/MOL
REMARK 927      BINDING AFFINITY PREDICTED BY RF-SCORE:    0.00 PKD
ROOT
HETATM    1  C   UNL     1      -8.530  11.073  64.983  1.00  0.00     0.074 C  
HETATM    2  C   UNL     1      -8.978   9.667  64.620  1.00  0.00    -0.231 C  
HETATM    3  O   UNL     1      -9.403   9.661  63.256  1.00  0.00    -0.422 OA 
HETATM    4  H   UNL     1      -9.683   8.783  63.029  1.00  0.00     0.000 HD 
ENDROOT
BRANCH   2   5
HETATM    5  C   UNL     1      -7.877   8.617  64.837  1.00  0.00    -0.116 C  
BRANCH   5   6
HETATM    6  O   UNL     1      -7.082   8.926  65.996  1.00  0.00    -0.085 OA 
BRANCH   6   7
HETATM    7  C   UNL     1      -5.860   8.169  66.004  1.00  0.00    -0.040 C  
BRANCH   7   8
HETATM    8  C   UNL     1      -5.841   7.160  67.180  1.00  0.00    -0.029 C  
HETATM    9  O   UNL     1      -6.937   7.373  68.101  1.00  0.00    -0.070 OA 
HETATM   10  C   UNL     1      -8.235   7.113  67.585  1.00  0.00    -0.114 C  
HETATM   11  C   UNL     1      -8.321   5.618  67.132  1.00  0.00    -0.104 C  
HETATM   12  C   UNL     1      -7.188   5.312  66.109  1.00  0.00    -0.073 C  
HETATM   13  C   UNL     1      -5.803   5.674  66.717  1.00  0.00    -0.018 C  
BRANCH  10  14
HETATM   14  O   UNL     1      -9.291   7.419  68.531  1.00  0.00    -0.142 OA 
BRANCH  14  15
HETATM   15  C   UNL     1      -8.967   8.284  69.647  1.00  0.00    -0.149 C  
HETATM   16  C   UNL     1      -9.511   9.732  69.380  1.00  0.00    -0.201 C  
HETATM   17  C   UNL     1     -11.661   9.226  70.261  1.00  0.00    -0.114 C  
HETATM   18  O   UNL     1     -10.925   9.635  69.104  1.00  0.00    -0.218 OA 
HETATM   19  C   UNL     1     -11.187   7.838  70.777  1.00  0.00    -0.271 C  
HETATM   20  C   UNL     1      -9.637   7.843  70.991  1.00  0.00    -0.159 C  
BRANCH  16  21
HETATM   21  C   UNL     1      -8.851  10.566  68.263  1.00  0.00    -0.139 C  
BRANCH  21  22
HETATM   22  O   UNL     1      -7.650  11.184  68.805  1.00  0.00    -0.113 OA 
BRANCH  22  23
HETATM   23  C   UNL     1      -6.675  11.493  67.804  1.00  0.00    -0.072 C  
BRANCH  23  24
HETATM   24  C   UNL     1      -5.446  12.235  68.377  1.00  0.00    -0.055 C  
HETATM   25  H   UNL     1      -4.604  12.405  70.131  1.00  0.00     0.000 HD 
HETATM   26  C   UNL     1      -5.479  13.748  68.192  1.00  0.00    -0.116 C  
HETATM   27  O   UNL     1      -5.360  11.949  69.779  1.00  0.00    -0.070 OA 
ENDBRANCH  23  24
ENDBRANCH  22  23
ENDBRANCH  21  22
ENDBRANCH  16  21
BRANCH  17  28
HETATM   28  O   UNL     1     -11.597  10.206  71.301  1.00  0.00    -0.364 OA 
BRANCH  28  29
HETATM   29  C   UNL     1     -12.869  10.749  71.659  1.00  0.00    -0.457 C  
BRANCH  29  30
HETATM   30  C   UNL     1     -13.033  12.221  71.257  1.00  0.00    -0.204 C  
HETATM   31  O   UNL     1     -11.812  12.732  70.726  1.00  0.00    -0.484 OA 
HETATM   32  C   UNL     1     -13.468  13.080  72.435  1.00  0.00    -0.615 C  
HETATM   33  H   UNL     1     -11.914  13.644  70.478  1.00  0.00     0.000 HD 
ENDBRANCH  29  30
ENDBRANCH  28  29
ENDBRANCH  17  28
BRANCH  19  34
HETATM   34  O   UNL     1     -11.838   7.376  71.975  1.00  0.00    -0.284 OA 
BRANCH  34  35
HETATM   35  C   UNL     1     -11.012   6.660  72.894  1.00  0.00    -0.253 C  
BRANCH  35  36
HETATM   36  C   UNL     1     -11.050   5.166  72.529  1.00  0.00    -0.194 C  
HETATM   37  H   UNL     1     -11.928   3.541  73.211  1.00  0.00     0.000 HD 
HETATM   38  C   UNL     1      -9.673   4.521  72.567  1.00  0.00    -0.200 C  
HETATM   39  O   UNL     1     -11.905   4.464  73.436  1.00  0.00    -0.188 OA 
ENDBRANCH  35  36
ENDBRANCH  34  35
ENDBRANCH  19  34
BRANCH  20  40
HETATM   40  O   UNL     1      -9.165   8.749  72.019  1.00  0.00    -0.268 OA 
BRANCH  40  41
HETATM   41  C   UNL     1      -7.750   8.686  72.235  1.00  0.00     0.003 C  
BRANCH  41  42
HETATM   42  C   UNL     1      -7.462   8.274  73.681  1.00  0.00    -0.131 C  
HETATM   43  C   UNL     1      -6.028   8.541  74.094  1.00  0.00    -0.135 C  
HETATM   44  O   UNL     1      -8.326   8.998  74.562  1.00  0.00    -0.195 OA 
HETATM   45  H   UNL     1      -8.146   8.742  75.459  1.00  0.00     0.000 HD 
ENDBRANCH  41  42
ENDBRANCH  40  41
ENDBRANCH  20  40
ENDBRANCH  14  15
ENDBRANCH  10  14
BRANCH  11  46
HETATM   46  O   UNL     1      -8.250   4.650  68.199  1.00  0.00    -0.091 OA 
BRANCH  46  47
HETATM   47  C   UNL     1      -9.388   3.811  68.420  1.00  0.00    -0.166 C  
BRANCH  47  48
HETATM   48  C   UNL     1      -9.068   2.316  68.607  1.00  0.00    -0.149 C  
HETATM   49  C   UNL     1      -9.477   1.811  69.980  1.00  0.00    -0.134 C  
HETATM   50  O   UNL     1      -9.781   1.487  67.678  1.00  0.00    -0.398 OA 
HETATM   51  H   UNL     1      -9.583   0.565  67.793  1.00  0.00     0.000 HD 
ENDBRANCH  47  48
ENDBRANCH  46  47
ENDBRANCH  11  46
BRANCH  12  52
HETATM   52  O   UNL     1      -7.157   3.965  65.572  1.00  0.00    -0.060 OA 
BRANCH  52  53
HETATM   53  C   UNL     1      -8.114   3.695  64.543  1.00  0.00    -0.086 C  
BRANCH  53  54
HETATM   54  C   UNL     1      -7.696   4.311  63.195  1.00  0.00    -0.066 C  
HETATM   55  O   UNL     1      -8.848   4.586  62.395  1.00  0.00    -0.106 OA 
HETATM   56  C   UNL     1      -6.748   3.450  62.376  1.00  0.00    -0.026 C  
HETATM   57  H   UNL     1      -8.590   4.965  61.563  1.00  0.00     0.000 HD 
ENDBRANCH  53  54
ENDBRANCH  52  53
ENDBRANCH  12  52
BRANCH  13  58
HETATM   58  O   UNL     1      -5.440   4.893  67.882  1.00  0.00    -0.011 OA 
BRANCH  58  59
HETATM   59  C   UNL     1      -5.692   5.519  69.147  1.00  0.00    -0.012 C  
BRANCH  59  60
HETATM   60  C   UNL     1      -5.175   4.628  70.294  1.00  0.00     0.000 C  
HETATM   61  O   UNL     1      -5.643   3.290  70.095  1.00  0.00    -0.015 OA 
HETATM   62  H   UNL     1      -5.325   2.741  70.802  1.00  0.00     0.000 HD 
HETATM   63  C   UNL     1      -5.631   5.099  71.658  1.00  0.00    -0.008 C  
ENDBRANCH  59  60
ENDBRANCH  58  59
ENDBRANCH  13  58
ENDBRANCH   7   8
ENDBRANCH   6   7
ENDBRANCH   5   6
ENDBRANCH   2   5
TORSDOF 28
ENDMDL
MODEL       33
REMARK 921   NORMALIZED FREE ENERGY PREDICTED BY IDOCK:   -0.91 KCAL/MOL
REMARK 922        TOTAL FREE ENERGY PREDICTED BY IDOCK:   -8.09 KCAL/MOL
REMARK 923 INTER-LIGAND FREE ENERGY PREDICTED BY IDOCK:   -8.84 KCAL/MOL
REMARK 924 INTRA-LIGAND FREE ENERGY PREDICTED BY IDOCK:    0.75 KCAL/MOL
REMARK 927      BINDING AFFINITY PREDICTED BY RF-SCORE:    0.00 PKD
ROOT
HETATM    1  C   UNL     1     -12.438   7.940  72.020  1.00  0.00    -0.338 C  
HETATM    2  C   UNL     1     -11.841   8.194  70.645  1.00  0.00    -0.088 C  
HETATM    3  O   UNL     1     -11.420   9.557  70.576  1.00  0.00    -0.262 OA 
HETATM    4  H   UNL     1     -11.047   9.717  69.718  1.00  0.00     0.000 HD 
ENDROOT
BRANCH   2   5
HETATM    5  C   UNL     1     -10.665   7.259  70.326  1.00  0.00    -0.236 C  
BRANCH   5   6
HETATM    6  O   UNL     1      -9.951   7.698  69.157  1.00  0.00    -0.172 OA 
BRANCH   6   7
HETATM    7  C   UNL     1     -10.564   7.200  67.955  1.00  0.00    -0.196 C  
BRANCH   7   8
HETATM    8  C   UNL     1      -9.536   6.434  67.084  1.00  0.00    -0.134 C  
HETATM    9  O   UNL     1      -8.988   7.262  66.031  1.00  0.00    -0.165 OA 
HETATM   10  C   UNL     1      -8.177   8.347  66.459  1.00  0.00    -0.105 C  
HETATM   11  C   UNL     1      -6.956   7.792  67.267  1.00  0.00    -0.078 C  
HETATM   12  C   UNL     1      -7.463   6.911  68.446  1.00  0.00    -0.098 C  
HETATM   13  C   UNL     1      -8.390   5.782  67.912  1.00  0.00    -0.104 C  
BRANCH  10  14
HETATM   14  O   UNL     1      -7.722   9.180  65.362  1.00  0.00    -0.096 OA 
BRANCH  14  15
HETATM   15  C   UNL     1      -7.934  10.610  65.469  1.00  0.00    -0.116 C  
HETATM   16  C   UNL     1      -9.446  10.949  65.220  1.00  0.00    -0.217 C  
HETATM   17  C   UNL     1     -10.036  10.585  67.495  1.00  0.00    -0.189 C  
HETATM   18  O   UNL     1     -10.238  10.168  66.141  1.00  0.00    -0.242 OA 
HETATM   19  C   UNL     1      -8.547  10.445  67.919  1.00  0.00    -0.118 C  
HETATM   20  C   UNL     1      -7.622  11.180  66.893  1.00  0.00    -0.145 C  
BRANCH  16  21
HETATM   21  C   UNL     1     -10.014  10.755  63.800  1.00  0.00    -0.351 C  
BRANCH  21  22
HETATM   22  O   UNL     1      -9.918  12.023  63.092  1.00  0.00    -0.407 OA 
BRANCH  22  23
HETATM   23  C   UNL     1     -10.917  12.967  63.490  1.00  0.00    -0.058 C  
BRANCH  23  24
HETATM   24  C   UNL     1     -12.011  12.339  64.382  1.00  0.00    -0.394 C  
HETATM   25  H   UNL     1     -13.799  11.606  64.100  1.00  0.00     0.000 HD 
HETATM   26  C   UNL     1     -12.506  13.242  65.507  1.00  0.00    -0.531 C  
HETATM   27  O   UNL     1     -13.127  11.992  63.551  1.00  0.00    -0.764 OA 
ENDBRANCH  23  24
ENDBRANCH  22  23
ENDBRANCH  21  22
ENDBRANCH  16  21
BRANCH  17  28
HETATM   28  O   UNL     1     -10.505  11.920  67.711  1.00  0.00    -0.195 OA 
BRANCH  28  29
HETATM   29  C   UNL     1     -10.710  12.241  69.088  1.00  0.00    -0.043 C  
BRANCH  29  30
HETATM   30  C   UNL     1     -12.095  12.840  69.370  1.00  0.00    -0.192 C  
HETATM   31  O   UNL     1     -12.331  13.967  68.528  1.00  0.00    -0.533 OA 
HETATM   32  C   UNL     1     -12.239  13.260  70.825  1.00  0.00    -0.390 C  
HETATM   33  H   UNL     1     -13.187  14.339  68.703  1.00  0.00     0.000 HD 
ENDBRANCH  29  30
ENDBRANCH  28  29
ENDBRANCH  17  28
BRANCH  19  34
HETATM   34  O   UNL     1      -8.246  10.897  69.252  1.00  0.00    -0.130 OA 
BRANCH  34  35
HETATM   35  C   UNL     1      -7.755   9.900  70.149  1.00  0.00    -0.175 C  
BRANCH  35  36
HETATM   36  C   UNL     1      -6.229  10.048  70.263  1.00  0.00    -0.094 C  
HETATM   37  H   UNL     1      -4.837   9.614  71.587  1.00  0.00     0.000 HD 
HETATM   38  C   UNL     1      -5.773  11.495  70.156  1.00  0.00    -0.137 C  
HETATM   39  O   UNL     1      -5.780   9.523  71.517  1.00  0.00    -0.071 OA 
ENDBRANCH  35  36
ENDBRANCH  34  35
ENDBRANCH  19  34
BRANCH  20  40
HETATM   40  O   UNL     1      -7.805  12.616  66.827  1.00  0.00    -0.010 OA 
BRANCH  40  41
HETATM   41  C   UNL     1      -7.240  13.319  67.940  1.00  0.00    -0.137 C  
BRANCH  41  42
HETATM   42  C   UNL     1      -6.627  14.639  67.466  1.00  0.00    -0.087 C  
HETATM   43  C   UNL     1      -7.344  15.854  68.019  1.00  0.00    -0.140 C  
HETATM   44  O   UNL     1      -5.258  14.700  67.876  1.00  0.00    -0.180 OA 
HETATM   45  H   UNL     1      -4.877  15.519  67.582  1.00  0.00     0.000 HD 
ENDBRANCH  41  42
ENDBRANCH  40  41
ENDBRANCH  20  40
ENDBRANCH  14  15
ENDBRANCH  10  14
BRANCH  11  46
HETATM   46  O   UNL     1      -6.009   7.027  66.496  1.00  0.00    -0.032 OA 
BRANCH  46  47
HETATM   47  C   UNL     1      -5.217   7.721  65.525  1.00  0.00    -0.029 C  
BRANCH  47  48
HETATM   48  C   UNL     1      -5.149   7.048  64.140  1.00  0.00    -0.028 C  
HETATM   49  C   UNL     1      -5.798   5.675  64.140  1.00  0.00    -0.021 C  
HETATM   50  O   UNL     1      -5.856   7.794  63.139  1.00  0.00    -0.053 OA 
HETATM   51  H   UNL     1      -5.814   7.379  62.286  1.00  0.00     0.000 HD 
ENDBRANCH  47  48
ENDBRANCH  46  47
ENDBRANCH  11  46
BRANCH  12  52
HETATM   52  O   UNL     1      -6.442   6.348  69.309  1.00  0.00    -0.039 OA 
BRANCH  52  53
HETATM   53  C   UNL     1      -6.921   5.788  70.536  1.00  0.00    -0.058 C  
BRANCH  53  54
HETATM   54  C   UNL     1      -6.285   6.468  71.762  1.00  0.00    -0.042 C  
HETATM   55  O   UNL     1      -5.543   5.517  72.529  1.00  0.00    -0.020 OA 
HETATM   56  C   UNL     1      -7.276   7.150  72.690  1.00  0.00    -0.072 C  
HETATM   57  H   UNL     1      -5.150   5.936  73.286  1.00  0.00     0.000 HD 
ENDBRANCH  53  54
ENDBRANCH  52  53
ENDBRANCH  12  52
BRANCH  13  58
HETATM   58  O   UNL     1      -7.736   4.839  67.030  1.00  0.00    -0.090 OA 
BRANCH  58  59
HETATM   59  C   UNL     1      -8.375   3.560  66.910  1.00  0.00    -0.100 C  
BRANCH  59  60
HETATM   60  C   UNL     1      -7.317   2.444  66.799  1.00  0.00    -0.061 C  
HETATM   61  O   UNL     1      -6.017   3.010  67.001  1.00  0.00    -0.022 OA 
HETATM   62  H   UNL     1      -5.365   2.323  66.932  1.00  0.00     0.000 HD 
HETATM   63  C   UNL     1      -7.335   1.746  65.457  1.00  0.00    -0.057 C  
ENDBRANCH  59  60
ENDBRANCH  58  59
ENDBRANCH  13  58
ENDBRANCH   7   8
ENDBRANCH   6   7
ENDBRANCH   5   6
ENDBRANCH   2   5
TORSDOF 28
ENDMDL
MODEL       34
REMARK 921   NORMALIZED FREE ENERGY PREDICTED BY IDOCK:   -0.70 KCAL/MOL
REMARK 922        TOTAL FREE ENERGY PREDICTED BY IDOCK:   -7.54 KCAL/MOL
REMARK 923 INTER-LIGAND FREE ENERGY PREDICTED BY IDOCK:   -8.59 KCAL/MOL
REMARK 924 INTRA-LIGAND FREE ENERGY PREDICTED BY IDOCK:    1.04 KCAL/MOL
REMARK 927      BINDING AFFINITY PREDICTED BY RF-SCORE:    0.00 PKD
ROOT
HETATM    1  C   UNL     1     -11.841  12.638  64.065  1.00  0.00    -0.507 C  
HETATM    2  C   UNL     1     -10.947  13.568  64.867  1.00  0.00    -0.352 C  
HETATM    3  O   UNL     1      -9.651  13.585  64.266  1.00  0.00    -0.417 OA 
HETATM    4  H   UNL     1      -9.092  14.167  64.767  1.00  0.00     0.000 HD 
ENDROOT
BRANCH   2   5
HETATM    5  C   UNL     1     -11.507  14.996  64.961  1.00  0.00    -0.364 C  
BRANCH   5   6
HETATM    6  O   UNL     1     -10.609  15.862  65.678  1.00  0.00    -0.346 OA 
BRANCH   6   7
HETATM    7  C   UNL     1     -10.550  15.513  67.071  1.00  0.00    -0.311 C  
BRANCH   7   8
HETATM    8  C   UNL     1      -9.680  16.524  67.860  1.00  0.00    -0.236 C  
HETATM    9  O   UNL     1      -8.768  15.865  68.771  1.00  0.00    -0.186 OA 
HETATM   10  C   UNL     1      -7.743  15.091  68.165  1.00  0.00    -0.113 C  
HETATM   11  C   UNL     1      -6.868  16.016  67.253  1.00  0.00    -0.201 C  
HETATM   12  C   UNL     1      -7.775  16.741  66.217  1.00  0.00    -0.275 C  
HETATM   13  C   UNL     1      -8.908  17.519  66.946  1.00  0.00    -0.251 C  
BRANCH  10  14
HETATM   14  O   UNL     1      -6.911  14.398  69.130  1.00  0.00    -0.112 OA 
BRANCH  14  15
HETATM   15  C   UNL     1      -7.303  13.057  69.517  1.00  0.00     0.479 C  
HETATM   16  C   UNL     1      -8.725  12.726  68.942  1.00  0.00     0.335 C  
HETATM   17  C   UNL     1      -7.852  11.983  66.859  1.00  0.00    -0.095 C  
HETATM   18  O   UNL     1      -8.691  12.938  67.514  1.00  0.00    -0.169 OA 
HETATM   19  C   UNL     1      -6.389  12.057  67.380  1.00  0.00    -0.138 C  
HETATM   20  C   UNL     1      -6.366  11.944  68.940  1.00  0.00    -0.073 C  
BRANCH  16  21
HETATM   21  C   UNL     1      -9.941  13.480  69.520  1.00  0.00     0.803 C  
BRANCH  21  22
HETATM   22  O   UNL     1     -11.136  12.699  69.243  1.00  0.00    -0.215 OA 
BRANCH  22  23
HETATM   23  C   UNL     1     -12.345  13.454  69.369  1.00  0.00    -0.077 C  
BRANCH  23  24
HETATM   24  C   UNL     1     -12.443  14.202  70.718  1.00  0.00    -0.366 C  
HETATM   25  H   UNL     1     -13.851  14.556  72.025  1.00  0.00     0.000 HD 
HETATM   26  C   UNL     1     -12.068  15.679  70.650  1.00  0.00    -0.443 C  
HETATM   27  O   UNL     1     -13.791  14.096  71.196  1.00  0.00    -0.251 OA 
ENDBRANCH  23  24
ENDBRANCH  22  23
ENDBRANCH  21  22
ENDBRANCH  16  21
BRANCH  17  28
HETATM   28  O   UNL     1      -8.370  10.654  66.980  1.00  0.00    -0.123 OA 
BRANCH  28  29
HETATM   29  C   UNL     1      -9.773  10.559  66.730  1.00  0.00    -0.179 C  
BRANCH  29  30
HETATM   30  C   UNL     1     -10.416   9.311  67.352  1.00  0.00    -0.273 C  
HETATM   31  O   UNL     1     -10.154   9.262  68.753  1.00  0.00    -0.182 OA 
HETATM   32  C   UNL     1      -9.907   8.033  66.700  1.00  0.00    -0.322 C  
HETATM   33  H   UNL     1     -10.551   8.490  69.138  1.00  0.00     0.000 HD 
ENDBRANCH  29  30
ENDBRANCH  28  29
ENDBRANCH  17  28
BRANCH  19  34
HETATM   34  O   UNL     1      -5.488  11.088  66.812  1.00  0.00    -0.059 OA 
BRANCH  34  35
HETATM   35  C   UNL     1      -5.989  10.358  65.692  1.00  0.00    -0.118 C  
BRANCH  35  36
HETATM   36  C   UNL     1      -5.468   8.912  65.773  1.00  0.00    -0.041 C  
HETATM   37  H   UNL     1      -5.795   7.211  64.837  1.00  0.00     0.000 HD 
HETATM   38  C   UNL     1      -5.699   8.284  67.139  1.00  0.00    -0.038 C  
HETATM   39  O   UNL     1      -6.117   8.104  64.787  1.00  0.00    -0.048 OA 
ENDBRANCH  35  36
ENDBRANCH  34  35
ENDBRANCH  19  34
BRANCH  20  40
HETATM   40  O   UNL     1      -6.833  10.678  69.468  1.00  0.00    -0.080 OA 
BRANCH  40  41
HETATM   41  C   UNL     1      -5.939  10.087  70.419  1.00  0.00    -0.085 C  
BRANCH  41  42
HETATM   42  C   UNL     1      -6.731   9.255  71.431  1.00  0.00    -0.001 C  
HETATM   43  C   UNL     1      -6.644   7.766  71.165  1.00  0.00    -0.038 C  
HETATM   44  O   UNL     1      -6.230   9.507  72.747  1.00  0.00    -0.287 OA 
HETATM   45  H   UNL     1      -6.722   8.990  73.375  1.00  0.00     0.000 HD 
ENDBRANCH  41  42
ENDBRANCH  40  41
ENDBRANCH  20  40
ENDBRANCH  14  15
ENDBRANCH  10  14
BRANCH  11  46
HETATM   46  O   UNL     1      -6.088  17.005  67.954  1.00  0.00    -0.126 OA 
BRANCH  46  47
HETATM   47  C   UNL     1      -5.471  16.622  69.187  1.00  0.00    -0.135 C  
BRANCH  47  48
HETATM   48  C   UNL     1      -5.285  17.766  70.204  1.00  0.00    -0.224 C  
HETATM   49  C   UNL     1      -6.459  18.729  70.201  1.00  0.00     0.094 C  
HETATM   50  O   UNL     1      -5.201  17.285  71.553  1.00  0.00    -0.343 OA 
HETATM   51  H   UNL     1      -5.086  17.990  72.179  1.00  0.00     0.000 HD 
ENDBRANCH  47  48
ENDBRANCH  46  47
ENDBRANCH  11  46
BRANCH  12  52
HETATM   52  O   UNL     1      -7.100  17.616  65.277  1.00  0.00    -0.127 OA 
BRANCH  52  53
HETATM   53  C   UNL     1      -7.216  19.015  65.553  1.00  0.00    -0.078 C  
BRANCH  53  54
HETATM   54  C   UNL     1      -5.848  19.660  65.840  1.00  0.00    -0.164 C  
HETATM   55  O   UNL     1      -5.714  19.945  67.234  1.00  0.00    -0.167 OA 
HETATM   56  C   UNL     1      -5.581  20.942  65.069  1.00  0.00    -0.262 C  
HETATM   57  H   UNL     1      -4.869  20.343  67.411  1.00  0.00     0.000 HD 
ENDBRANCH  53  54
ENDBRANCH  52  53
ENDBRANCH  12  52
BRANCH  13  58
HETATM   58  O   UNL     1      -8.441  18.586  67.807  1.00  0.00    -0.263 OA 
BRANCH  58  59
HETATM   59  C   UNL     1      -9.402  19.083  68.748  1.00  0.00    -0.357 C  
BRANCH  59  60
HETATM   60  C   UNL     1     -10.294  20.152  68.085  1.00  0.00    -0.300 C  
HETATM   61  O   UNL     1     -11.117  19.525  67.095  1.00  0.00    -0.446 OA 
HETATM   62  H   UNL     1     -11.667  20.183  66.686  1.00  0.00     0.000 HD 
HETATM   63  C   UNL     1      -9.498  21.254  67.420  1.00  0.00     0.069 C  
ENDBRANCH  59  60
ENDBRANCH  58  59
ENDBRANCH  13  58
ENDBRANCH   7   8
ENDBRANCH   6   7
ENDBRANCH   5   6
ENDBRANCH   2   5
TORSDOF 28
ENDMDL
MODEL       35
REMARK 921   NORMALIZED FREE ENERGY PREDICTED BY IDOCK:   -0.64 KCAL/MOL
REMARK 922        TOTAL FREE ENERGY PREDICTED BY IDOCK:   -7.39 KCAL/MOL
REMARK 923 INTER-LIGAND FREE ENERGY PREDICTED BY IDOCK:   -5.39 KCAL/MOL
REMARK 924 INTRA-LIGAND FREE ENERGY PREDICTED BY IDOCK:   -2.00 KCAL/MOL
REMARK 927      BINDING AFFINITY PREDICTED BY RF-SCORE:    0.00 PKD
ROOT
HETATM    1  C   UNL     1      -8.953   8.938  74.018  1.00  0.00     1.691 C  
HETATM    2  C   UNL     1      -9.571   8.125  72.892  1.00  0.00    -0.275 C  
HETATM    3  O   UNL     1     -10.479   7.179  73.457  1.00  0.00    -0.328 OA 
HETATM    4  H   UNL     1     -10.865   6.671  72.754  1.00  0.00     0.000 HD 
ENDROOT
BRANCH   2   5
HETATM    5  C   UNL     1     -10.293   9.000  71.856  1.00  0.00    -0.287 C  
BRANCH   5   6
HETATM    6  O   UNL     1     -11.176   8.215  71.035  1.00  0.00    -0.250 OA 
BRANCH   6   7
HETATM    7  C   UNL     1     -10.541   7.838  69.801  1.00  0.00    -0.241 C  
BRANCH   7   8
HETATM    8  C   UNL     1      -9.372   8.798  69.463  1.00  0.00    -0.157 C  
HETATM    9  O   UNL     1      -8.293   8.122  68.773  1.00  0.00    -0.123 OA 
HETATM   10  C   UNL     1      -8.597   7.647  67.469  1.00  0.00    -0.119 C  
HETATM   11  C   UNL     1      -9.014   8.855  66.564  1.00  0.00    -0.155 C  
HETATM   12  C   UNL     1     -10.199   9.620  67.223  1.00  0.00    -0.233 C  
HETATM   13  C   UNL     1      -9.819  10.058  68.666  1.00  0.00    -0.160 C  
BRANCH  10  14
HETATM   14  O   UNL     1      -7.501   6.915  66.864  1.00  0.00    -0.080 OA 
BRANCH  14  15
HETATM   15  C   UNL     1      -7.745   5.543  66.466  1.00  0.00    -0.100 C  
HETATM   16  C   UNL     1      -6.508   4.650  66.832  1.00  0.00    -0.041 C  
HETATM   17  C   UNL     1      -7.284   4.256  69.045  1.00  0.00    -0.051 C  
HETATM   18  O   UNL     1      -6.239   4.813  68.242  1.00  0.00    -0.032 OA 
HETATM   19  C   UNL     1      -8.653   4.929  68.747  1.00  0.00    -0.089 C  
HETATM   20  C   UNL     1      -8.953   4.885  67.212  1.00  0.00    -0.111 C  
BRANCH  16  21
HETATM   21  C   UNL     1      -5.194   4.868  66.055  1.00  0.00    -0.009 C  
BRANCH  21  22
HETATM   22  O   UNL     1      -5.373   4.360  64.703  1.00  0.00    -0.012 OA 
BRANCH  22  23
HETATM   23  C   UNL     1      -5.638   5.389  63.745  1.00  0.00    -0.014 C  
BRANCH  23  24
HETATM   24  C   UNL     1      -6.349   4.858  62.480  1.00  0.00    -0.025 C  
HETATM   25  H   UNL     1      -8.057   5.187  61.591  1.00  0.00     0.000 HD 
HETATM   26  C   UNL     1      -6.578   3.351  62.469  1.00  0.00    -0.022 C  
HETATM   27  O   UNL     1      -7.620   5.513  62.369  1.00  0.00    -0.053 OA 
ENDBRANCH  23  24
ENDBRANCH  22  23
ENDBRANCH  21  22
ENDBRANCH  16  21
BRANCH  17  28
HETATM   28  O   UNL     1      -7.369   2.836  68.891  1.00  0.00    -0.047 OA 
BRANCH  28  29
HETATM   29  C   UNL     1      -6.177   2.144  69.264  1.00  0.00    -0.025 C  
BRANCH  29  30
HETATM   30  C   UNL     1      -6.183   1.671  70.724  1.00  0.00    -0.019 C  
HETATM   31  O   UNL     1      -7.521   1.484  71.182  1.00  0.00    -0.032 OA 
HETATM   32  C   UNL     1      -5.473   2.660  71.638  1.00  0.00    -0.008 C  
HETATM   33  H   UNL     1      -7.525   1.192  72.086  1.00  0.00     0.000 HD 
ENDBRANCH  29  30
ENDBRANCH  28  29
ENDBRANCH  17  28
BRANCH  19  34
HETATM   34  O   UNL     1      -9.772   4.389  69.474  1.00  0.00    -0.190 OA 
BRANCH  34  35
HETATM   35  C   UNL     1      -9.993   4.940  70.772  1.00  0.00    -0.222 C  
BRANCH  35  36
HETATM   36  C   UNL     1      -9.550   3.911  71.827  1.00  0.00    -0.158 C  
HETATM   37  H   UNL     1     -10.383   2.933  73.319  1.00  0.00     0.000 HD 
HETATM   38  C   UNL     1      -8.418   4.423  72.704  1.00  0.00    -0.109 C  
HETATM   39  O   UNL     1     -10.657   3.569  72.668  1.00  0.00    -0.143 OA 
ENDBRANCH  35  36
ENDBRANCH  34  35
ENDBRANCH  19  34
BRANCH  20  40
HETATM   40  O   UNL     1      -9.120   3.555  66.661  1.00  0.00    -0.140 OA 
BRANCH  40  41
HETATM   41  C   UNL     1      -9.556   3.549  65.296  1.00  0.00    -0.140 C  
BRANCH  41  42
HETATM   42  C   UNL     1      -8.623   2.672  64.456  1.00  0.00    -0.093 C  
HETATM   43  C   UNL     1      -7.631   1.894  65.296  1.00  0.00    -0.070 C  
HETATM   44  O   UNL     1      -9.402   1.740  63.701  1.00  0.00    -0.095 OA 
HETATM   45  H   UNL     1      -8.824   1.195  63.179  1.00  0.00     0.000 HD 
ENDBRANCH  41  42
ENDBRANCH  40  41
ENDBRANCH  20  40
ENDBRANCH  14  15
ENDBRANCH  10  14
BRANCH  11  46
HETATM   46  O   UNL     1      -7.961   9.797  66.277  1.00  0.00    -0.107 OA 
BRANCH  46  47
HETATM   47  C   UNL     1      -6.887   9.365  65.436  1.00  0.00    -0.079 C  
BRANCH  47  48
HETATM   48  C   UNL     1      -7.233   9.266  63.937  1.00  0.00    -0.098 C  
HETATM   49  C   UNL     1      -8.232  10.328  63.511  1.00  0.00    -0.159 C  
HETATM   50  O   UNL     1      -6.087   9.477  63.100  1.00  0.00    -0.093 OA 
HETATM   51  H   UNL     1      -6.301   9.415  62.176  1.00  0.00     0.000 HD 
ENDBRANCH  47  48
ENDBRANCH  46  47
ENDBRANCH  11  46
BRANCH  12  52
HETATM   52  O   UNL     1     -10.719  10.754  66.482  1.00  0.00    -0.240 OA 
BRANCH  52  53
HETATM   53  C   UNL     1     -11.465  11.699  67.256  1.00  0.00    -0.277 C  
BRANCH  53  54
HETATM   54  C   UNL     1     -11.699  13.013  66.488  1.00  0.00    -0.382 C  
HETATM   55  O   UNL     1     -12.164  14.032  67.375  1.00  0.00    -0.500 OA 
HETATM   56  C   UNL     1     -12.685  12.904  65.338  1.00  0.00    -0.313 C  
HETATM   57  H   UNL     1     -12.309  14.842  66.902  1.00  0.00     0.000 HD 
ENDBRANCH  53  54
ENDBRANCH  52  53
ENDBRANCH  12  52
BRANCH  13  58
HETATM   58  O   UNL     1      -8.717  10.996  68.736  1.00  0.00    -0.157 OA 
BRANCH  58  59
HETATM   59  C   UNL     1      -7.673  10.654  69.658  1.00  0.00    -0.070 C  
BRANCH  59  60
HETATM   60  C   UNL     1      -6.312  11.150  69.129  1.00  0.00    -0.064 C  
HETATM   61  O   UNL     1      -6.528  11.953  67.964  1.00  0.00    -0.050 OA 
HETATM   62  H   UNL     1      -5.689  12.258  67.638  1.00  0.00     0.000 HD 
HETATM   63  C   UNL     1      -5.373  10.020  68.768  1.00  0.00    -0.035 C  
ENDBRANCH  59  60
ENDBRANCH  58  59
ENDBRANCH  13  58
ENDBRANCH   7   8
ENDBRANCH   6   7
ENDBRANCH   5   6
ENDBRANCH   2   5
TORSDOF 28
ENDMDL
MODEL       36
REMARK 921   NORMALIZED FREE ENERGY PREDICTED BY IDOCK:   -0.63 KCAL/MOL
REMARK 922        TOTAL FREE ENERGY PREDICTED BY IDOCK:   -7.34 KCAL/MOL
REMARK 923 INTER-LIGAND FREE ENERGY PREDICTED BY IDOCK:   -8.06 KCAL/MOL
REMARK 924 INTRA-LIGAND FREE ENERGY PREDICTED BY IDOCK:    0.72 KCAL/MOL
REMARK 927      BINDING AFFINITY PREDICTED BY RF-SCORE:    0.00 PKD
ROOT
HETATM    1  C   UNL     1     -13.179   9.944  70.026  1.00  0.00     0.686 C  
HETATM    2  C   UNL     1     -12.025   9.899  69.038  1.00  0.00     0.593 C  
HETATM    3  O   UNL     1     -11.084  10.915  69.389  1.00  0.00    -0.223 OA 
HETATM    4  H   UNL     1     -10.363  10.887  68.772  1.00  0.00     0.000 HD 
ENDROOT
BRANCH   2   5
HETATM    5  C   UNL     1     -11.333   8.528  68.995  1.00  0.00     0.575 C  
BRANCH   5   6
HETATM    6  O   UNL     1      -9.917   8.664  68.780  1.00  0.00    -0.172 OA 
BRANCH   6   7
HETATM    7  C   UNL     1      -9.609   8.749  67.378  1.00  0.00    -0.161 C  
BRANCH   7   8
HETATM    8  C   UNL     1      -8.169   9.276  67.158  1.00  0.00    -0.117 C  
HETATM    9  O   UNL     1      -8.113  10.722  67.133  1.00  0.00    -0.119 OA 
HETATM   10  C   UNL     1      -8.420  11.371  68.359  1.00  0.00    -0.155 C  
HETATM   11  C   UNL     1      -7.405  10.908  69.457  1.00  0.00    -0.093 C  
HETATM   12  C   UNL     1      -7.426   9.355  69.570  1.00  0.00    -0.083 C  
HETATM   13  C   UNL     1      -7.142   8.712  68.183  1.00  0.00    -0.082 C  
BRANCH  10  14
HETATM   14  O   UNL     1      -8.422  12.817  68.248  1.00  0.00    -0.168 OA 
BRANCH  14  15
HETATM   15  C   UNL     1      -9.504  13.436  67.508  1.00  0.00    -0.219 C  
HETATM   16  C   UNL     1     -10.417  14.261  68.482  1.00  0.00    -0.253 C  
HETATM   17  C   UNL     1      -9.056  16.204  68.319  1.00  0.00    -0.190 C  
HETATM   18  O   UNL     1      -9.581  15.200  69.192  1.00  0.00    -0.217 OA 
HETATM   19  C   UNL     1      -8.200  15.580  67.182  1.00  0.00    -0.215 C  
HETATM   20  C   UNL     1      -9.015  14.470  66.440  1.00  0.00    -0.118 C  
BRANCH  16  21
HETATM   21  C   UNL     1     -11.273  13.491  69.509  1.00  0.00    -0.132 C  
BRANCH  21  22
HETATM   22  O   UNL     1     -12.042  14.458  70.278  1.00  0.00    -0.289 OA 
BRANCH  22  23
HETATM   23  C   UNL     1     -11.960  14.247  71.691  1.00  0.00    -0.085 C  
BRANCH  23  24
HETATM   24  C   UNL     1     -12.567  15.413  72.504  1.00  0.00    -0.385 C  
HETATM   25  H   UNL     1     -14.090  16.620  72.302  1.00  0.00     0.000 HD 
HETATM   26  C   UNL     1     -11.614  16.579  72.745  1.00  0.00    -0.090 C  
HETATM   27  O   UNL     1     -13.717  15.903  71.801  1.00  0.00    -0.375 OA 
ENDBRANCH  23  24
ENDBRANCH  22  23
ENDBRANCH  21  22
ENDBRANCH  16  21
BRANCH  17  28
HETATM   28  O   UNL     1     -10.093  17.031  67.782  1.00  0.00    -0.280 OA 
BRANCH  28  29
HETATM   29  C   UNL     1     -10.658  17.935  68.733  1.00  0.00    -0.082 C  
BRANCH  29  30
HETATM   30  C   UNL     1     -10.032  19.335  68.683  1.00  0.00    -0.431 C  
HETATM   31  O   UNL     1     -10.276  20.034  69.902  1.00  0.00    -0.502 OA 
HETATM   32  C   UNL     1     -10.573  20.152  67.519  1.00  0.00    -0.336 C  
HETATM   33  H   UNL     1      -9.889  20.901  69.872  1.00  0.00     0.000 HD 
ENDBRANCH  29  30
ENDBRANCH  28  29
ENDBRANCH  17  28
BRANCH  19  34
HETATM   34  O   UNL     1      -7.679  16.519  66.224  1.00  0.00    -0.291 OA 
BRANCH  34  35
HETATM   35  C   UNL     1      -6.777  17.497  66.742  1.00  0.00    -0.202 C  
BRANCH  35  36
HETATM   36  C   UNL     1      -7.009  18.824  65.997  1.00  0.00    -0.267 C  
HETATM   37  H   UNL     1      -8.481  19.679  65.009  1.00  0.00     0.000 HD 
HETATM   38  C   UNL     1      -6.029  19.030  64.852  1.00  0.00    -0.318 C  
HETATM   39  O   UNL     1      -8.339  18.860  65.469  1.00  0.00    -0.226 OA 
ENDBRANCH  35  36
ENDBRANCH  34  35
ENDBRANCH  19  34
BRANCH  20  40
HETATM   40  O   UNL     1     -10.191  14.943  65.736  1.00  0.00    -0.294 OA 
BRANCH  40  41
HETATM   41  C   UNL     1     -11.378  14.200  66.038  1.00  0.00    -0.330 C  
BRANCH  41  42
HETATM   42  C   UNL     1     -12.324  14.219  64.834  1.00  0.00    -0.425 C  
HETATM   43  C   UNL     1     -11.777  13.456  63.644  1.00  0.00    -0.376 C  
HETATM   44  O   UNL     1     -13.576  13.636  65.205  1.00  0.00    -0.365 OA 
HETATM   45  H   UNL     1     -14.163  13.647  64.458  1.00  0.00     0.000 HD 
ENDBRANCH  41  42
ENDBRANCH  40  41
ENDBRANCH  20  40
ENDBRANCH  14  15
ENDBRANCH  10  14
BRANCH  11  46
HETATM   46  O   UNL     1      -6.044  11.335  69.251  1.00  0.00    -0.052 OA 
BRANCH  46  47
HETATM   47  C   UNL     1      -5.763  12.737  69.320  1.00  0.00    -0.081 C  
BRANCH  47  48
HETATM   48  C   UNL     1      -5.245  13.230  70.686  1.00  0.00    -0.131 C  
HETATM   49  C   UNL     1      -5.544  14.702  70.911  1.00  0.00    -0.160 C  
HETATM   50  O   UNL     1      -5.873  12.551  71.782  1.00  0.00    -0.309 OA 
HETATM   51  H   UNL     1      -5.553  12.854  72.623  1.00  0.00     0.000 HD 
ENDBRANCH  47  48
ENDBRANCH  46  47
ENDBRANCH  11  46
BRANCH  12  52
HETATM   52  O   UNL     1      -6.554   8.775  70.573  1.00  0.00    -0.036 OA 
BRANCH  52  53
HETATM   53  C   UNL     1      -7.145   8.591  71.864  1.00  0.00    -0.089 C  
BRANCH  53  54
HETATM   54  C   UNL     1      -6.263   7.723  72.780  1.00  0.00    -0.062 C  
HETATM   55  O   UNL     1      -5.145   8.475  73.253  1.00  0.00    -0.045 OA 
HETATM   56  C   UNL     1      -5.736   6.454  72.131  1.00  0.00    -0.037 C  
HETATM   57  H   UNL     1      -4.600   7.940  73.819  1.00  0.00     0.000 HD 
ENDBRANCH  53  54
ENDBRANCH  52  53
ENDBRANCH  12  52
BRANCH  13  58
HETATM   58  O   UNL     1      -5.828   9.004  67.647  1.00  0.00    -0.042 OA 
BRANCH  58  59
HETATM   59  C   UNL     1      -5.807   9.496  66.300  1.00  0.00    -0.058 C  
BRANCH  59  60
HETATM   60  C   UNL     1      -6.236   8.386  65.320  1.00  0.00    -0.049 C  
HETATM   61  O   UNL     1      -5.490   7.198  65.604  1.00  0.00    -0.026 OA 
HETATM   62  H   UNL     1      -5.754   6.514  64.999  1.00  0.00     0.000 HD 
HETATM   63  C   UNL     1      -6.013   8.760  63.871  1.00  0.00    -0.072 C  
ENDBRANCH  59  60
ENDBRANCH  58  59
ENDBRANCH  13  58
ENDBRANCH   7   8
ENDBRANCH   6   7
ENDBRANCH   5   6
ENDBRANCH   2   5
TORSDOF 28
ENDMDL
MODEL       37
REMARK 921   NORMALIZED FREE ENERGY PREDICTED BY IDOCK:   -0.49 KCAL/MOL
REMARK 922        TOTAL FREE ENERGY PREDICTED BY IDOCK:   -6.99 KCAL/MOL
REMARK 923 INTER-LIGAND FREE ENERGY PREDICTED BY IDOCK:   -7.14 KCAL/MOL
REMARK 924 INTRA-LIGAND FREE ENERGY PREDICTED BY IDOCK:    0.15 KCAL/MOL
REMARK 927      BINDING AFFINITY PREDICTED BY RF-SCORE:    0.00 PKD
ROOT
HETATM    1  C   UNL     1      -6.272  13.835  73.324  1.00  0.00     1.189 C  
HETATM    2  C   UNL     1      -6.291  14.498  71.956  1.00  0.00     0.844 C  
HETATM    3  O   UNL     1      -5.125  15.313  71.827  1.00  0.00    -0.169 OA 
HETATM    4  H   UNL     1      -5.137  15.726  70.973  1.00  0.00     0.000 HD 
ENDROOT
BRANCH   2   5
HETATM    5  C   UNL     1      -6.358  13.482  70.805  1.00  0.00     0.282 C  
BRANCH   5   6
HETATM    6  O   UNL     1      -7.356  13.854  69.837  1.00  0.00     0.267 OA 
BRANCH   6   7
HETATM    7  C   UNL     1      -7.803  12.713  69.086  1.00  0.00     0.386 C  
BRANCH   7   8
HETATM    8  C   UNL     1      -8.716  13.145  67.911  1.00  0.00    -0.192 C  
HETATM    9  O   UNL     1      -8.857  12.102  66.917  1.00  0.00    -0.192 OA 
HETATM   10  C   UNL     1      -9.549  10.936  67.341  1.00  0.00    -0.163 C  
HETATM   11  C   UNL     1     -10.999  11.327  67.781  1.00  0.00    -0.252 C  
HETATM   12  C   UNL     1     -10.936  12.429  68.879  1.00  0.00    -0.223 C  
HETATM   13  C   UNL     1     -10.116  13.648  68.370  1.00  0.00    -0.241 C  
BRANCH  10  14
HETATM   14  O   UNL     1      -9.589   9.902  66.324  1.00  0.00    -0.182 OA 
BRANCH  14  15
HETATM   15  C   UNL     1      -8.868   8.672  66.586  1.00  0.00    -0.133 C  
HETATM   16  C   UNL     1      -7.428   8.997  67.118  1.00  0.00    -0.087 C  
HETATM   17  C   UNL     1      -8.161   9.169  69.374  1.00  0.00    -0.118 C  
HETATM   18  O   UNL     1      -7.561   9.856  68.272  1.00  0.00    -0.080 OA 
HETATM   19  C   UNL     1      -9.580   8.644  69.014  1.00  0.00    -0.163 C  
HETATM   20  C   UNL     1      -9.523   7.793  67.703  1.00  0.00    -0.144 C  
BRANCH  16  21
HETATM   21  C   UNL     1      -6.416   9.636  66.146  1.00  0.00    -0.071 C  
BRANCH  21  22
HETATM   22  O   UNL     1      -6.833   9.329  64.786  1.00  0.00    -0.084 OA 
BRANCH  22  23
HETATM   23  C   UNL     1      -6.775  10.459  63.910  1.00  0.00     0.004 C  
BRANCH  23  24
HETATM   24  C   UNL     1      -7.744  10.337  62.712  1.00  0.00    -0.146 C  
HETATM   25  H   UNL     1      -9.279  11.343  62.043  1.00  0.00     0.000 HD 
HETATM   26  C   UNL     1      -8.519   9.024  62.657  1.00  0.00    -0.210 C  
HETATM   27  O   UNL     1      -8.683  11.418  62.780  1.00  0.00    -0.188 OA 
ENDBRANCH  23  24
ENDBRANCH  22  23
ENDBRANCH  21  22
ENDBRANCH  16  21
BRANCH  17  28
HETATM   28  O   UNL     1      -7.329   8.107  69.852  1.00  0.00    -0.062 OA 
BRANCH  28  29
HETATM   29  C   UNL     1      -6.865   8.297  71.188  1.00  0.00    -0.052 C  
BRANCH  29  30
HETATM   30  C   UNL     1      -5.963   7.158  71.683  1.00  0.00    -0.037 C  
HETATM   31  O   UNL     1      -5.272   6.558  70.589  1.00  0.00    -0.017 OA 
HETATM   32  C   UNL     1      -6.758   6.091  72.421  1.00  0.00    -0.069 C  
HETATM   33  H   UNL     1      -4.714   5.853  70.895  1.00  0.00     0.000 HD 
ENDBRANCH  29  30
ENDBRANCH  28  29
ENDBRANCH  17  28
BRANCH  19  34
HETATM   34  O   UNL     1     -10.234   7.891  70.052  1.00  0.00    -0.200 OA 
BRANCH  34  35
HETATM   35  C   UNL     1     -11.661   7.869  69.997  1.00  0.00     0.154 C  
BRANCH  35  36
HETATM   36  C   UNL     1     -12.178   6.858  71.034  1.00  0.00    -0.377 C  
HETATM   37  H   UNL     1     -13.923   6.135  71.591  1.00  0.00     0.000 HD 
HETATM   38  C   UNL     1     -11.805   7.239  72.459  1.00  0.00    -0.195 C  
HETATM   39  O   UNL     1     -13.604   6.760  70.950  1.00  0.00     0.052 OA 
ENDBRANCH  35  36
ENDBRANCH  34  35
ENDBRANCH  19  34
BRANCH  20  40
HETATM   40  O   UNL     1      -8.742   6.575  67.799  1.00  0.00    -0.117 OA 
BRANCH  40  41
HETATM   41  C   UNL     1      -9.484   5.391  67.482  1.00  0.00    -0.121 C  
BRANCH  41  42
HETATM   42  C   UNL     1      -8.582   4.391  66.754  1.00  0.00    -0.107 C  
HETATM   43  C   UNL     1      -7.282   4.128  67.487  1.00  0.00    -0.068 C  
HETATM   44  O   UNL     1      -9.275   3.148  66.606  1.00  0.00    -0.159 OA 
HETATM   45  H   UNL     1      -8.715   2.528  66.153  1.00  0.00     0.000 HD 
ENDBRANCH  41  42
ENDBRANCH  40  41
ENDBRANCH  20  40
ENDBRANCH  14  15
ENDBRANCH  10  14
BRANCH  11  46
HETATM   46  O   UNL     1     -11.859  11.787  66.718  1.00  0.00    -0.586 OA 
BRANCH  46  47
HETATM   47  C   UNL     1     -11.249  12.162  65.478  1.00  0.00    -0.334 C  
BRANCH  47  48
HETATM   48  C   UNL     1     -12.042  11.764  64.218  1.00  0.00    -0.158 C  
HETATM   49  C   UNL     1     -12.588  12.974  63.481  1.00  0.00    -0.262 C  
HETATM   50  O   UNL     1     -11.226  11.080  63.256  1.00  0.00    -0.715 OA 
HETATM   51  H   UNL     1     -11.714  10.835  62.480  1.00  0.00     0.000 HD 
ENDBRANCH  47  48
ENDBRANCH  46  47
ENDBRANCH  11  46
BRANCH  12  52
HETATM   52  O   UNL     1     -12.210  12.875  69.411  1.00  0.00    -0.221 OA 
BRANCH  52  53
HETATM   53  C   UNL     1     -12.215  13.173  70.811  1.00  0.00    -0.290 C  
BRANCH  53  54
HETATM   54  C   UNL     1     -12.776  14.578  71.097  1.00  0.00    -0.338 C  
HETATM   55  O   UNL     1     -13.026  15.272  69.873  1.00  0.00    -0.625 OA 
HETATM   56  C   UNL     1     -11.879  15.452  71.958  1.00  0.00    -0.523 C  
HETATM   57  H   UNL     1     -13.371  16.140  70.049  1.00  0.00     0.000 HD 
ENDBRANCH  53  54
ENDBRANCH  52  53
ENDBRANCH  12  52
BRANCH  13  58
HETATM   58  O   UNL     1     -10.699  14.326  67.231  1.00  0.00    -0.273 OA 
BRANCH  58  59
HETATM   59  C   UNL     1      -9.810  15.184  66.503  1.00  0.00    -0.262 C  
BRANCH  59  60
HETATM   60  C   UNL     1     -10.333  16.634  66.523  1.00  0.00    -0.299 C  
HETATM   61  O   UNL     1     -10.814  16.976  65.219  1.00  0.00    -0.545 OA 
HETATM   62  H   UNL     1     -11.136  17.870  65.231  1.00  0.00     0.000 HD 
HETATM   63  C   UNL     1      -9.273  17.638  66.923  1.00  0.00    -0.270 C  
ENDBRANCH  59  60
ENDBRANCH  58  59
ENDBRANCH  13  58
ENDBRANCH   7   8
ENDBRANCH   6   7
ENDBRANCH   5   6
ENDBRANCH   2   5
TORSDOF 28
ENDMDL
MODEL       38
REMARK 921   NORMALIZED FREE ENERGY PREDICTED BY IDOCK:   -0.29 KCAL/MOL
REMARK 922        TOTAL FREE ENERGY PREDICTED BY IDOCK:   -6.44 KCAL/MOL
REMARK 923 INTER-LIGAND FREE ENERGY PREDICTED BY IDOCK:   -6.58 KCAL/MOL
REMARK 924 INTRA-LIGAND FREE ENERGY PREDICTED BY IDOCK:    0.14 KCAL/MOL
REMARK 927      BINDING AFFINITY PREDICTED BY RF-SCORE:    0.00 PKD
ROOT
HETATM    1  C   UNL     1      -6.013  13.561  73.935  1.00  0.00     0.584 C  
HETATM    2  C   UNL     1      -6.147  14.599  72.833  1.00  0.00     0.684 C  
HETATM    3  O   UNL     1      -5.129  15.586  73.011  1.00  0.00     0.162 OA 
HETATM    4  H   UNL     1      -5.213  16.235  72.323  1.00  0.00     0.000 HD 
ENDROOT
BRANCH   2   5
HETATM    5  C   UNL     1      -6.052  13.989  71.427  1.00  0.00     0.032 C  
BRANCH   5   6
HETATM    6  O   UNL     1      -7.193  14.343  70.626  1.00  0.00     0.413 OA 
BRANCH   6   7
HETATM    7  C   UNL     1      -7.519  13.299  69.692  1.00  0.00     0.700 C  
BRANCH   7   8
HETATM    8  C   UNL     1      -8.319  13.860  68.489  1.00  0.00    -0.132 C  
HETATM    9  O   UNL     1      -8.244  12.993  67.332  1.00  0.00    -0.167 OA 
HETATM   10  C   UNL     1      -8.872  11.727  67.468  1.00  0.00    -0.162 C  
HETATM   11  C   UNL     1     -10.395  11.935  67.767  1.00  0.00    -0.198 C  
HETATM   12  C   UNL     1     -10.565  12.836  69.025  1.00  0.00    -0.045 C  
HETATM   13  C   UNL     1      -9.804  14.179  68.831  1.00  0.00    -0.105 C  
BRANCH  10  14
HETATM   14  O   UNL     1      -8.696  10.880  66.304  1.00  0.00    -0.159 OA 
BRANCH  14  15
HETATM   15  C   UNL     1      -8.312   9.500  66.527  1.00  0.00    -0.119 C  
HETATM   16  C   UNL     1      -6.755   9.397  66.699  1.00  0.00    -0.072 C  
HETATM   17  C   UNL     1      -6.853   9.856  69.031  1.00  0.00    -0.054 C  
HETATM   18  O   UNL     1      -6.362  10.294  67.761  1.00  0.00    -0.057 OA 
HETATM   19  C   UNL     1      -8.406   9.767  69.042  1.00  0.00    -0.127 C  
HETATM   20  C   UNL     1      -8.904   8.894  67.843  1.00  0.00    -0.133 C  
BRANCH  16  21
HETATM   21  C   UNL     1      -5.864   9.672  65.471  1.00  0.00    -0.061 C  
BRANCH  21  22
HETATM   22  O   UNL     1      -6.099   8.621  64.492  1.00  0.00    -0.064 OA 
BRANCH  22  23
HETATM   23  C   UNL     1      -5.625   7.339  64.916  1.00  0.00    -0.033 C  
BRANCH  23  24
HETATM   24  C   UNL     1      -5.268   6.413  63.732  1.00  0.00    -0.018 C  
HETATM   25  H   UNL     1      -5.785   6.278  61.853  1.00  0.00     0.000 HD 
HETATM   26  C   UNL     1      -5.567   4.937  63.970  1.00  0.00    -0.017 C  
HETATM   27  O   UNL     1      -6.005   6.848  62.581  1.00  0.00    -0.038 OA 
ENDBRANCH  23  24
ENDBRANCH  22  23
ENDBRANCH  21  22
ENDBRANCH  16  21
BRANCH  17  28
HETATM   28  O   UNL     1      -6.268   8.610  69.422  1.00  0.00    -0.040 OA 
BRANCH  28  29
HETATM   29  C   UNL     1      -6.674   8.166  70.717  1.00  0.00    -0.037 C  
BRANCH  29  30
HETATM   30  C   UNL     1      -5.968   8.908  71.860  1.00  0.00    -0.069 C  
HETATM   31  O   UNL     1      -6.907   9.281  72.867  1.00  0.00    -0.200 OA 
HETATM   32  C   UNL     1      -5.245  10.151  71.361  1.00  0.00    -0.077 C  
HETATM   33  H   UNL     1      -6.470   9.741  73.574  1.00  0.00     0.000 HD 
ENDBRANCH  29  30
ENDBRANCH  28  29
ENDBRANCH  17  28
BRANCH  19  34
HETATM   34  O   UNL     1      -8.981   9.278  70.267  1.00  0.00    -0.189 OA 
BRANCH  34  35
HETATM   35  C   UNL     1     -10.250   9.830  70.620  1.00  0.00    -0.220 C  
BRANCH  35  36
HETATM   36  C   UNL     1     -10.836   9.014  71.785  1.00  0.00    -0.367 C  
HETATM   37  H   UNL     1     -10.588   7.215  72.547  1.00  0.00     0.000 HD 
HETATM   38  C   UNL     1     -12.342   8.834  71.673  1.00  0.00    -0.394 C  
HETATM   39  O   UNL     1     -10.226   7.719  71.828  1.00  0.00    -0.185 OA 
ENDBRANCH  35  36
ENDBRANCH  34  35
ENDBRANCH  19  34
BRANCH  20  40
HETATM   40  O   UNL     1      -8.500   7.503  67.890  1.00  0.00    -0.122 OA 
BRANCH  40  41
HETATM   41  C   UNL     1      -9.586   6.597  68.120  1.00  0.00    -0.120 C  
BRANCH  41  42
HETATM   42  C   UNL     1      -9.044   5.192  68.396  1.00  0.00    -0.112 C  
HETATM   43  C   UNL     1      -9.602   4.149  67.449  1.00  0.00    -0.222 C  
HETATM   44  O   UNL     1      -7.619   5.200  68.266  1.00  0.00    -0.078 OA 
HETATM   45  H   UNL     1      -7.282   4.328  68.438  1.00  0.00     0.000 HD 
ENDBRANCH  41  42
ENDBRANCH  40  41
ENDBRANCH  20  40
ENDBRANCH  14  15
ENDBRANCH  10  14
BRANCH  11  46
HETATM   46  O   UNL     1     -11.158  12.508  66.685  1.00  0.00    -0.260 OA 
BRANCH  46  47
HETATM   47  C   UNL     1     -10.598  12.456  65.369  1.00  0.00    -0.284 C  
BRANCH  47  48
HETATM   48  C   UNL     1     -11.181  13.479  64.374  1.00  0.00    -0.379 C  
HETATM   49  C   UNL     1     -12.019  12.814  63.297  1.00  0.00    -0.522 C  
HETATM   50  O   UNL     1     -12.064  14.413  65.010  1.00  0.00    -0.390 OA 
HETATM   51  H   UNL     1     -12.423  15.044  64.397  1.00  0.00     0.000 HD 
ENDBRANCH  47  48
ENDBRANCH  46  47
ENDBRANCH  11  46
BRANCH  12  52
HETATM   52  O   UNL     1     -11.928  13.096  69.446  1.00  0.00    -0.307 OA 
BRANCH  52  53
HETATM   53  C   UNL     1     -12.134  14.347  70.111  1.00  0.00    -0.335 C  
BRANCH  53  54
HETATM   54  C   UNL     1     -12.880  14.171  71.446  1.00  0.00    -0.355 C  
HETATM   55  O   UNL     1     -12.080  14.649  72.530  1.00  0.00    -0.260 OA 
HETATM   56  C   UNL     1     -13.287  12.740  71.757  1.00  0.00    -0.436 C  
HETATM   57  H   UNL     1     -12.540  14.540  73.354  1.00  0.00     0.000 HD 
ENDBRANCH  53  54
ENDBRANCH  52  53
ENDBRANCH  12  52
BRANCH  13  58
HETATM   58  O   UNL     1     -10.304  14.998  67.747  1.00  0.00    -0.242 OA 
BRANCH  58  59
HETATM   59  C   UNL     1      -9.786  16.334  67.693  1.00  0.00    -0.238 C  
BRANCH  59  60
HETATM   60  C   UNL     1      -8.986  16.544  66.392  1.00  0.00    -0.305 C  
HETATM   61  O   UNL     1      -9.025  15.339  65.620  1.00  0.00    -0.349 OA 
HETATM   62  H   UNL     1      -8.531  15.468  64.818  1.00  0.00     0.000 HD 
HETATM   63  C   UNL     1      -7.540  16.909  66.642  1.00  0.00    -0.301 C  
ENDBRANCH  59  60
ENDBRANCH  58  59
ENDBRANCH  13  58
ENDBRANCH   7   8
ENDBRANCH   6   7
ENDBRANCH   5   6
ENDBRANCH   2   5
TORSDOF 28
ENDMDL
MODEL       39
REMARK 921   NORMALIZED FREE ENERGY PREDICTED BY IDOCK:   -0.06 KCAL/MOL
REMARK 922        TOTAL FREE ENERGY PREDICTED BY IDOCK:   -5.86 KCAL/MOL
REMARK 923 INTER-LIGAND FREE ENERGY PREDICTED BY IDOCK:   -7.57 KCAL/MOL
REMARK 924 INTRA-LIGAND FREE ENERGY PREDICTED BY IDOCK:    1.71 KCAL/MOL
REMARK 927      BINDING AFFINITY PREDICTED BY RF-SCORE:    0.00 PKD
ROOT
HETATM    1  C   UNL     1      -9.632  17.297  66.353  1.00  0.00    -0.290 C  
HETATM    2  C   UNL     1      -9.248  15.841  66.556  1.00  0.00    -0.283 C  
HETATM    3  O   UNL     1      -9.021  15.247  65.277  1.00  0.00     0.110 OA 
HETATM    4  H   UNL     1      -8.781  14.337  65.404  1.00  0.00     0.000 HD 
ENDROOT
BRANCH   2   5
HETATM    5  C   UNL     1      -8.007  15.673  67.446  1.00  0.00    -0.178 C  
BRANCH   5   6
HETATM    6  O   UNL     1      -8.370  15.556  68.833  1.00  0.00    -0.171 OA 
BRANCH   6   7
HETATM    7  C   UNL     1      -8.483  14.178  69.228  1.00  0.00     0.328 C  
BRANCH   7   8
HETATM    8  C   UNL     1      -9.504  13.427  68.336  1.00  0.00    -0.176 C  
HETATM    9  O   UNL     1      -9.281  11.997  68.337  1.00  0.00    -0.189 OA 
HETATM   10  C   UNL     1      -9.514  11.337  69.573  1.00  0.00     0.545 C  
HETATM   11  C   UNL     1     -11.004  11.554  70.002  1.00  0.00     0.245 C  
HETATM   12  C   UNL     1     -11.318  13.078  70.057  1.00  0.00     0.113 C  
HETATM   13  C   UNL     1     -10.985  13.745  68.692  1.00  0.00    -0.266 C  
BRANCH  10  14
HETATM   14  O   UNL     1      -9.201   9.922  69.527  1.00  0.00    -0.195 OA 
BRANCH  14  15
HETATM   15  C   UNL     1      -8.324   9.459  68.470  1.00  0.00    -0.118 C  
HETATM   16  C   UNL     1      -7.250   8.476  69.055  1.00  0.00    -0.073 C  
HETATM   17  C   UNL     1      -8.676   6.586  68.842  1.00  0.00    -0.127 C  
HETATM   18  O   UNL     1      -7.944   7.416  69.748  1.00  0.00    -0.119 OA 
HETATM   19  C   UNL     1      -9.737   7.402  68.051  1.00  0.00    -0.144 C  
HETATM   20  C   UNL     1      -9.065   8.636  67.364  1.00  0.00    -0.133 C  
BRANCH  16  21
HETATM   21  C   UNL     1      -6.169   9.050  69.994  1.00  0.00    -0.037 C  
BRANCH  21  22
HETATM   22  O   UNL     1      -6.769  10.112  70.786  1.00  0.00    -0.298 OA 
BRANCH  22  23
HETATM   23  C   UNL     1      -6.161  11.389  70.570  1.00  0.00    -0.044 C  
BRANCH  23  24
HETATM   24  C   UNL     1      -5.477  11.498  69.189  1.00  0.00    -0.047 C  
HETATM   25  H   UNL     1      -5.933  12.278  67.457  1.00  0.00     0.000 HD 
HETATM   26  C   UNL     1      -5.129  10.159  68.548  1.00  0.00    -0.035 C  
HETATM   27  O   UNL     1      -6.354  12.211  68.306  1.00  0.00    -0.050 OA 
ENDBRANCH  23  24
ENDBRANCH  22  23
ENDBRANCH  21  22
ENDBRANCH  16  21
BRANCH  17  28
HETATM   28  O   UNL     1      -7.807   5.880  67.951  1.00  0.00    -0.102 OA 
BRANCH  28  29
HETATM   29  C   UNL     1      -7.418   4.591  68.428  1.00  0.00    -0.065 C  
BRANCH  29  30
HETATM   30  C   UNL     1      -5.897   4.388  68.452  1.00  0.00    -0.025 C  
HETATM   31  O   UNL     1      -5.357   4.816  69.701  1.00  0.00    -0.007 OA 
HETATM   32  C   UNL     1      -5.211   5.144  67.323  1.00  0.00    -0.008 C  
HETATM   33  H   UNL     1      -4.416   4.692  69.716  1.00  0.00     0.000 HD 
ENDBRANCH  29  30
ENDBRANCH  28  29
ENDBRANCH  17  28
BRANCH  19  34
HETATM   34  O   UNL     1     -10.483   6.652  67.075  1.00  0.00    -0.231 OA 
BRANCH  34  35
HETATM   35  C   UNL     1     -10.542   5.241  67.290  1.00  0.00    -0.127 C  
BRANCH  35  36
HETATM   36  C   UNL     1      -9.936   4.531  66.067  1.00  0.00    -0.248 C  
HETATM   37  H   UNL     1     -10.525   4.033  64.256  1.00  0.00     0.000 HD 
HETATM   38  C   UNL     1      -9.477   3.115  66.382  1.00  0.00    -0.061 C  
HETATM   39  O   UNL     1     -10.900   4.472  65.011  1.00  0.00    -0.196 OA 
ENDBRANCH  35  36
ENDBRANCH  34  35
ENDBRANCH  19  34
BRANCH  20  40
HETATM   40  O   UNL     1      -8.084   8.310  66.348  1.00  0.00    -0.101 OA 
BRANCH  40  41
HETATM   41  C   UNL     1      -8.655   8.069  65.055  1.00  0.00    -0.011 C  
BRANCH  41  42
HETATM   42  C   UNL     1      -8.240   9.181  64.088  1.00  0.00    -0.162 C  
HETATM   43  C   UNL     1      -6.783   9.571  64.229  1.00  0.00    -0.101 C  
HETATM   44  O   UNL     1      -8.462   8.747  62.743  1.00  0.00    -0.229 OA 
HETATM   45  H   UNL     1      -8.205   9.437  62.143  1.00  0.00     0.000 HD 
ENDBRANCH  41  42
ENDBRANCH  40  41
ENDBRANCH  20  40
ENDBRANCH  14  15
ENDBRANCH  10  14
BRANCH  11  46
HETATM   46  O   UNL     1     -11.983  10.914  69.158  1.00  0.00    -0.326 OA 
BRANCH  46  47
HETATM   47  C   UNL     1     -12.824   9.916  69.746  1.00  0.00     0.818 C  
BRANCH  47  48
HETATM   48  C   UNL     1     -12.345   9.383  71.110  1.00  0.00    -0.308 C  
HETATM   49  C   UNL     1     -13.044  10.070  72.270  1.00  0.00    -0.385 C  
HETATM   50  O   UNL     1     -12.630   7.987  71.279  1.00  0.00    -0.386 OA 
HETATM   51  H   UNL     1     -12.334   7.659  72.120  1.00  0.00     0.000 HD 
ENDBRANCH  47  48
ENDBRANCH  46  47
ENDBRANCH  11  46
BRANCH  12  52
HETATM   52  O   UNL     1     -12.661  13.440  70.470  1.00  0.00    -0.286 OA 
BRANCH  52  53
HETATM   53  C   UNL     1     -12.830  13.653  71.875  1.00  0.00    -0.287 C  
BRANCH  53  54
HETATM   54  C   UNL     1     -13.178  15.119  72.195  1.00  0.00    -0.376 C  
HETATM   55  O   UNL     1     -12.711  15.980  71.155  1.00  0.00    -0.552 OA 
HETATM   56  C   UNL     1     -12.618  15.627  73.513  1.00  0.00    -0.677 C  
HETATM   57  H   UNL     1     -12.926  16.884  71.352  1.00  0.00     0.000 HD 
ENDBRANCH  53  54
ENDBRANCH  52  53
ENDBRANCH  12  52
BRANCH  13  58
HETATM   58  O   UNL     1     -11.783  13.266  67.582  1.00  0.00    -0.326 OA 
BRANCH  58  59
HETATM   59  C   UNL     1     -12.230  14.272  66.664  1.00  0.00    -0.381 C  
BRANCH  59  60
HETATM   60  C   UNL     1     -12.804  13.616  65.392  1.00  0.00    -0.389 C  
HETATM   61  O   UNL     1     -12.906  12.204  65.600  1.00  0.00     0.062 OA 
HETATM   62  H   UNL     1     -13.259  11.799  64.816  1.00  0.00     0.000 HD 
HETATM   63  C   UNL     1     -11.950  13.861  64.167  1.00  0.00    -0.464 C  
ENDBRANCH  59  60
ENDBRANCH  58  59
ENDBRANCH  13  58
ENDBRANCH   7   8
ENDBRANCH   6   7
ENDBRANCH   5   6
ENDBRANCH   2   5
TORSDOF 28
ENDMDL
MODEL       40
REMARK 921   NORMALIZED FREE ENERGY PREDICTED BY IDOCK:    0.32 KCAL/MOL
REMARK 922        TOTAL FREE ENERGY PREDICTED BY IDOCK:   -4.84 KCAL/MOL
REMARK 923 INTER-LIGAND FREE ENERGY PREDICTED BY IDOCK:   -5.84 KCAL/MOL
REMARK 924 INTRA-LIGAND FREE ENERGY PREDICTED BY IDOCK:    1.01 KCAL/MOL
REMARK 927      BINDING AFFINITY PREDICTED BY RF-SCORE:    0.00 PKD
ROOT
HETATM    1  C   UNL     1      -5.125  12.497  73.252  1.00  0.00     0.343 C  
HETATM    2  C   UNL     1      -5.853  13.441  72.310  1.00  0.00     0.650 C  
HETATM    3  O   UNL     1      -5.243  14.730  72.395  1.00  0.00    -0.152 OA 
HETATM    4  H   UNL     1      -5.698  15.321  71.807  1.00  0.00     0.000 HD 
ENDROOT
BRANCH   2   5
HETATM    5  C   UNL     1      -5.850  12.949  70.855  1.00  0.00    -0.006 C  
BRANCH   5   6
HETATM    6  O   UNL     1      -7.184  12.896  70.318  1.00  0.00     0.952 OA 
BRANCH   6   7
HETATM    7  C   UNL     1      -7.417  11.657  69.626  1.00  0.00     0.418 C  
BRANCH   7   8
HETATM    8  C   UNL     1      -7.905  11.915  68.177  1.00  0.00    -0.134 C  
HETATM    9  O   UNL     1      -7.886  10.713  67.372  1.00  0.00    -0.108 OA 
HETATM   10  C   UNL     1      -8.803   9.698  67.757  1.00  0.00    -0.125 C  
HETATM   11  C   UNL     1     -10.261  10.263  67.674  1.00  0.00    -0.205 C  
HETATM   12  C   UNL     1     -10.376  11.548  68.545  1.00  0.00    -0.210 C  
HETATM   13  C   UNL     1      -9.306  12.589  68.110  1.00  0.00    -0.210 C  
BRANCH  10  14
HETATM   14  O   UNL     1      -8.681   8.493  66.959  1.00  0.00    -0.122 OA 
BRANCH  14  15
HETATM   15  C   UNL     1      -8.064   7.336  67.577  1.00  0.00    -0.114 C  
HETATM   16  C   UNL     1      -6.507   7.526  67.638  1.00  0.00    -0.057 C  
HETATM   17  C   UNL     1      -6.602   8.707  69.699  1.00  0.00    -0.039 C  
HETATM   18  O   UNL     1      -6.234   8.770  68.319  1.00  0.00    -0.052 OA 
HETATM   19  C   UNL     1      -8.116   8.400  69.873  1.00  0.00    -0.119 C  
HETATM   20  C   UNL     1      -8.502   7.117  69.064  1.00  0.00    -0.129 C  
BRANCH  16  21
HETATM   21  C   UNL     1      -5.717   7.508  66.314  1.00  0.00    -0.036 C  
BRANCH  21  22
HETATM   22  O   UNL     1      -6.236   6.430  65.486  1.00  0.00    -0.035 OA 
BRANCH  22  23
HETATM   23  C   UNL     1      -7.048   6.892  64.402  1.00  0.00    -0.062 C  
BRANCH  23  24
HETATM   24  C   UNL     1      -6.581   8.257  63.847  1.00  0.00    -0.071 C  
HETATM   25  H   UNL     1      -7.072  10.127  64.130  1.00  0.00     0.000 HD 
HETATM   26  C   UNL     1      -6.709   8.402  62.335  1.00  0.00    -0.095 C  
HETATM   27  O   UNL     1      -7.360   9.288  64.472  1.00  0.00    -0.097 OA 
ENDBRANCH  23  24
ENDBRANCH  22  23
ENDBRANCH  21  22
ENDBRANCH  16  21
BRANCH  17  28
HETATM   28  O   UNL     1      -5.803   7.760  70.417  1.00  0.00    -0.026 OA 
BRANCH  28  29
HETATM   29  C   UNL     1      -6.057   7.742  71.822  1.00  0.00    -0.035 C  
BRANCH  29  30
HETATM   30  C   UNL     1      -5.863   6.356  72.453  1.00  0.00    -0.038 C  
HETATM   31  O   UNL     1      -6.075   5.332  71.484  1.00  0.00    -0.027 OA 
HETATM   32  C   UNL     1      -6.805   6.138  73.629  1.00  0.00    -0.080 C  
HETATM   33  H   UNL     1      -5.956   4.475  71.874  1.00  0.00     0.000 HD 
ENDBRANCH  29  30
ENDBRANCH  28  29
ENDBRANCH  17  28
BRANCH  19  34
HETATM   34  O   UNL     1      -8.560   8.264  71.235  1.00  0.00    -0.125 OA 
BRANCH  34  35
HETATM   35  C   UNL     1      -9.698   9.046  71.598  1.00  0.00    -0.276 C  
BRANCH  35  36
HETATM   36  C   UNL     1     -10.866   8.097  71.919  1.00  0.00    -0.270 C  
HETATM   37  H   UNL     1     -12.823   8.231  72.085  1.00  0.00     0.000 HD 
HETATM   38  C   UNL     1     -10.727   7.440  73.283  1.00  0.00    -0.441 C  
HETATM   39  O   UNL     1     -12.103   8.817  71.886  1.00  0.00    -0.315 OA 
ENDBRANCH  35  36
ENDBRANCH  34  35
ENDBRANCH  19  34
BRANCH  20  40
HETATM   40  O   UNL     1      -7.870   5.895  69.519  1.00  0.00    -0.094 OA 
BRANCH  40  41
HETATM   41  C   UNL     1      -8.743   4.759  69.510  1.00  0.00    -0.086 C  
BRANCH  41  42
HETATM   42  C   UNL     1      -8.110   3.610  70.299  1.00  0.00    -0.049 C  
HETATM   43  C   UNL     1      -9.103   2.518  70.647  1.00  0.00    -0.186 C  
HETATM   44  O   UNL     1      -7.055   3.029  69.527  1.00  0.00    -0.040 OA 
HETATM   45  H   UNL     1      -6.662   2.316  70.018  1.00  0.00     0.000 HD 
ENDBRANCH  41  42
ENDBRANCH  40  41
ENDBRANCH  20  40
ENDBRANCH  14  15
ENDBRANCH  10  14
BRANCH  11  46
HETATM   46  O   UNL     1     -10.726  10.566  66.344  1.00  0.00    -0.191 OA 
BRANCH  46  47
HETATM   47  C   UNL     1     -10.130   9.862  65.249  1.00  0.00    -0.156 C  
BRANCH  47  48
HETATM   48  C   UNL     1     -10.085  10.643  63.921  1.00  0.00    -0.289 C  
HETATM   49  C   UNL     1     -11.157  11.717  63.854  1.00  0.00    -0.482 C  
HETATM   50  O   UNL     1      -8.846  11.342  63.743  1.00  0.00    -0.398 OA 
HETATM   51  H   UNL     1      -8.818  11.823  62.925  1.00  0.00     0.000 HD 
ENDBRANCH  47  48
ENDBRANCH  46  47
ENDBRANCH  11  46
BRANCH  12  52
HETATM   52  O   UNL     1     -11.685  12.173  68.593  1.00  0.00    -0.294 OA 
BRANCH  52  53
HETATM   53  C   UNL     1     -11.759  13.375  69.365  1.00  0.00    -0.325 C  
BRANCH  53  54
HETATM   54  C   UNL     1     -11.935  13.083  70.867  1.00  0.00     0.085 C  
HETATM   55  O   UNL     1     -12.154  11.686  71.079  1.00  0.00    -0.321 OA 
HETATM   56  C   UNL     1     -13.073  13.843  71.528  1.00  0.00    -0.441 C  
HETATM   57  H   UNL     1     -12.263  11.505  72.006  1.00  0.00     0.000 HD 
ENDBRANCH  53  54
ENDBRANCH  52  53
ENDBRANCH  12  52
BRANCH  13  58
HETATM   58  O   UNL     1      -9.460  13.073  66.753  1.00  0.00    -0.238 OA 
BRANCH  58  59
HETATM   59  C   UNL     1      -9.880  14.439  66.629  1.00  0.00    -0.278 C  
BRANCH  59  60
HETATM   60  C   UNL     1     -10.957  14.569  65.534  1.00  0.00    -0.335 C  
HETATM   61  O   UNL     1     -10.534  15.544  64.575  1.00  0.00    -0.605 OA 
HETATM   62  H   UNL     1     -11.198  15.624  63.900  1.00  0.00     0.000 HD 
HETATM   63  C   UNL     1     -12.305  14.985  66.080  1.00  0.00     0.332 C  
ENDBRANCH  59  60
ENDBRANCH  58  59
ENDBRANCH  13  58
ENDBRANCH   7   8
ENDBRANCH   6   7
ENDBRANCH   5   6
ENDBRANCH   2   5
TORSDOF 28
ENDMDL
MODEL       41
REMARK 921   NORMALIZED FREE ENERGY PREDICTED BY IDOCK:    0.44 KCAL/MOL
REMARK 922        TOTAL FREE ENERGY PREDICTED BY IDOCK:   -4.54 KCAL/MOL
REMARK 923 INTER-LIGAND FREE ENERGY PREDICTED BY IDOCK:   -6.72 KCAL/MOL
REMARK 924 INTRA-LIGAND FREE ENERGY PREDICTED BY IDOCK:    2.19 KCAL/MOL
REMARK 927      BINDING AFFINITY PREDICTED BY RF-SCORE:    0.00 PKD
ROOT
HETATM    1  C   UNL     1      -8.517   3.626  65.428  1.00  0.00    -0.106 C  
HETATM    2  C   UNL     1      -9.794   2.945  65.891  1.00  0.00     0.406 C  
HETATM    3  O   UNL     1      -9.904   1.683  65.231  1.00  0.00    -0.319 OA 
HETATM    4  H   UNL     1     -10.702   1.257  65.520  1.00  0.00     0.000 HD 
ENDROOT
BRANCH   2   5
HETATM    5  C   UNL     1      -9.846   2.753  67.414  1.00  0.00     0.554 C  
BRANCH   5   6
HETATM    6  O   UNL     1      -9.779   4.015  68.103  1.00  0.00    -0.149 OA 
BRANCH   6   7
HETATM    7  C   UNL     1      -9.483   5.088  67.193  1.00  0.00    -0.136 C  
BRANCH   7   8
HETATM    8  C   UNL     1      -8.373   6.008  67.762  1.00  0.00    -0.112 C  
HETATM    9  O   UNL     1      -8.840   7.362  67.972  1.00  0.00    -0.127 OA 
HETATM   10  C   UNL     1      -9.827   7.524  68.982  1.00  0.00    -0.170 C  
HETATM   11  C   UNL     1      -9.248   7.038  70.352  1.00  0.00    -0.156 C  
HETATM   12  C   UNL     1      -8.749   5.569  70.221  1.00  0.00    -0.130 C  
HETATM   13  C   UNL     1      -7.719   5.454  69.061  1.00  0.00    -0.089 C  
BRANCH  10  14
HETATM   14  O   UNL     1     -10.307   8.888  69.090  1.00  0.00    -0.212 OA 
BRANCH  14  15
HETATM   15  C   UNL     1      -9.595   9.914  68.352  1.00  0.00    -0.148 C  
HETATM   16  C   UNL     1     -10.227  10.085  66.926  1.00  0.00    -0.238 C  
HETATM   17  C   UNL     1     -11.864  11.628  67.695  1.00  0.00    -0.143 C  
HETATM   18  O   UNL     1     -11.637  10.353  67.090  1.00  0.00    -0.166 OA 
HETATM   19  C   UNL     1     -11.203  11.719  69.100  1.00  0.00    -0.264 C  
HETATM   20  C   UNL     1      -9.690  11.331  69.009  1.00  0.00    -0.054 C  
BRANCH  16  21
HETATM   21  C   UNL     1     -10.061   8.937  65.910  1.00  0.00     0.116 C  
BRANCH  21  22
HETATM   22  O   UNL     1      -9.075   9.342  64.919  1.00  0.00    -0.219 OA 
BRANCH  22  23
HETATM   23  C   UNL     1      -7.727   9.213  65.380  1.00  0.00    -0.098 C  
BRANCH  23  24
HETATM   24  C   UNL     1      -6.688   9.428  64.256  1.00  0.00    -0.095 C  
HETATM   25  H   UNL     1      -6.691  10.253  62.485  1.00  0.00     0.000 HD 
HETATM   26  C   UNL     1      -6.072   8.145  63.710  1.00  0.00    -0.067 C  
HETATM   27  O   UNL     1      -7.330  10.121  63.176  1.00  0.00    -0.140 OA 
ENDBRANCH  23  24
ENDBRANCH  22  23
ENDBRANCH  21  22
ENDBRANCH  16  21
BRANCH  17  28
HETATM   28  O   UNL     1     -11.424  12.699  66.854  1.00  0.00    -0.303 OA 
BRANCH  28  29
HETATM   29  C   UNL     1     -11.006  13.860  67.572  1.00  0.00    -0.276 C  
BRANCH  29  30
HETATM   30  C   UNL     1     -10.427  14.956  66.666  1.00  0.00    -0.292 C  
HETATM   31  O   UNL     1      -9.328  14.449  65.911  1.00  0.00    -0.505 OA 
HETATM   32  C   UNL     1      -9.970  16.165  67.470  1.00  0.00    -0.243 C  
HETATM   33  H   UNL     1      -8.969  15.127  65.351  1.00  0.00     0.000 HD 
ENDBRANCH  29  30
ENDBRANCH  28  29
ENDBRANCH  17  28
BRANCH  19  34
HETATM   34  O   UNL     1     -11.336  12.993  69.757  1.00  0.00    -0.174 OA 
BRANCH  34  35
HETATM   35  C   UNL     1     -11.986  12.969  71.029  1.00  0.00     0.226 C  
BRANCH  35  36
HETATM   36  C   UNL     1     -12.519  14.380  71.336  1.00  0.00    -0.359 C  
HETATM   37  H   UNL     1     -14.147  15.416  70.950  1.00  0.00     0.000 HD 
HETATM   38  C   UNL     1     -11.611  15.476  70.800  1.00  0.00    -0.399 C  
HETATM   39  O   UNL     1     -13.819  14.545  70.760  1.00  0.00    -0.129 OA 
ENDBRANCH  35  36
ENDBRANCH  34  35
ENDBRANCH  19  34
BRANCH  20  40
HETATM   40  O   UNL     1      -8.877  12.226  68.210  1.00  0.00    -0.185 OA 
BRANCH  40  41
HETATM   41  C   UNL     1      -7.519  12.322  68.657  1.00  0.00    -0.100 C  
BRANCH  41  42
HETATM   42  C   UNL     1      -6.845  13.540  68.020  1.00  0.00    -0.136 C  
HETATM   43  C   UNL     1      -6.175  14.441  69.038  1.00  0.00    -0.094 C  
HETATM   44  O   UNL     1      -5.854  13.100  67.087  1.00  0.00    -0.410 OA 
HETATM   45  H   UNL     1      -5.437  13.857  66.692  1.00  0.00     0.000 HD 
ENDBRANCH  41  42
ENDBRANCH  40  41
ENDBRANCH  20  40
ENDBRANCH  14  15
ENDBRANCH  10  14
BRANCH  11  46
HETATM   46  O   UNL     1      -8.174   7.842  70.883  1.00  0.00    -0.103 OA 
BRANCH  46  47
HETATM   47  C   UNL     1      -8.467   8.709  71.984  1.00  0.00    -0.122 C  
BRANCH  47  48
HETATM   48  C   UNL     1      -7.411   8.714  73.106  1.00  0.00     0.106 C  
HETATM   49  C   UNL     1      -7.910   8.023  74.363  1.00  0.00    -0.287 C  
HETATM   50  O   UNL     1      -6.222   8.002  72.736  1.00  0.00    -0.061 OA 
HETATM   51  H   UNL     1      -5.571   8.005  73.428  1.00  0.00     0.000 HD 
ENDBRANCH  47  48
ENDBRANCH  46  47
ENDBRANCH  11  46
BRANCH  12  52
HETATM   52  O   UNL     1      -8.209   4.966  71.425  1.00  0.00    -0.106 OA 
BRANCH  52  53
HETATM   53  C   UNL     1      -8.979   5.179  72.612  1.00  0.00    -0.125 C  
BRANCH  53  54
HETATM   54  C   UNL     1     -10.315   4.414  72.575  1.00  0.00    -0.188 C  
HETATM   55  O   UNL     1     -10.443   3.696  71.346  1.00  0.00     0.174 OA 
HETATM   56  C   UNL     1     -11.547   5.288  72.740  1.00  0.00    -0.270 C  
HETATM   57  H   UNL     1     -11.267   3.224  71.322  1.00  0.00     0.000 HD 
ENDBRANCH  53  54
ENDBRANCH  52  53
ENDBRANCH  12  52
BRANCH  13  58
HETATM   58  O   UNL     1      -6.504   6.216  69.263  1.00  0.00    -0.039 OA 
BRANCH  58  59
HETATM   59  C   UNL     1      -5.963   6.837  68.089  1.00  0.00    -0.031 C  
BRANCH  59  60
HETATM   60  C   UNL     1      -5.127   5.820  67.287  1.00  0.00    -0.005 C  
HETATM   61  O   UNL     1      -5.403   5.985  65.892  1.00  0.00    -0.012 OA 
HETATM   62  H   UNL     1      -4.888   5.358  65.397  1.00  0.00     0.000 HD 
HETATM   63  C   UNL     1      -5.418   4.385  67.668  1.00  0.00    -0.016 C  
ENDBRANCH  59  60
ENDBRANCH  58  59
ENDBRANCH  13  58
ENDBRANCH   7   8
ENDBRANCH   6   7
ENDBRANCH   5   6
ENDBRANCH   2   5
TORSDOF 28
ENDMDL
MODEL       42
REMARK 921   NORMALIZED FREE ENERGY PREDICTED BY IDOCK:    0.55 KCAL/MOL
REMARK 922        TOTAL FREE ENERGY PREDICTED BY IDOCK:   -4.24 KCAL/MOL
REMARK 923 INTER-LIGAND FREE ENERGY PREDICTED BY IDOCK:   -4.00 KCAL/MOL
REMARK 924 INTRA-LIGAND FREE ENERGY PREDICTED BY IDOCK:   -0.24 KCAL/MOL
REMARK 927      BINDING AFFINITY PREDICTED BY RF-SCORE:    0.00 PKD
ROOT
HETATM    1  C   UNL     1      -5.161  14.251  73.248  1.00  0.00    -0.357 C  
HETATM    2  C   UNL     1      -5.692  15.449  72.479  1.00  0.00     0.842 C  
HETATM    3  O   UNL     1      -5.325  16.639  73.178  1.00  0.00     1.246 OA 
HETATM    4  H   UNL     1      -5.657  17.388  72.698  1.00  0.00     0.000 HD 
ENDROOT
BRANCH   2   5
HETATM    5  C   UNL     1      -5.174  15.504  71.033  1.00  0.00    -0.127 C  
BRANCH   5   6
HETATM    6  O   UNL     1      -5.190  16.849  70.523  1.00  0.00    -0.202 OA 
BRANCH   6   7
HETATM    7  C   UNL     1      -6.409  17.121  69.810  1.00  0.00    -0.152 C  
BRANCH   7   8
HETATM    8  C   UNL     1      -6.468  16.317  68.486  1.00  0.00    -0.129 C  
HETATM    9  O   UNL     1      -6.615  14.895  68.717  1.00  0.00    -0.083 OA 
HETATM   10  C   UNL     1      -7.846  14.489  69.299  1.00  0.00    -0.023 C  
HETATM   11  C   UNL     1      -9.025  14.910  68.359  1.00  0.00    -0.183 C  
HETATM   12  C   UNL     1      -8.958  16.441  68.085  1.00  0.00    -0.197 C  
HETATM   13  C   UNL     1      -7.567  16.823  67.506  1.00  0.00    -0.158 C  
BRANCH  10  14
HETATM   14  O   UNL     1      -7.900  13.066  69.573  1.00  0.00     0.573 OA 
BRANCH  14  15
HETATM   15  C   UNL     1      -7.996  12.165  68.442  1.00  0.00    -0.152 C  
HETATM   16  C   UNL     1      -6.706  11.275  68.355  1.00  0.00    -0.061 C  
HETATM   17  C   UNL     1      -7.570   9.648  69.859  1.00  0.00    -0.138 C  
HETATM   18  O   UNL     1      -6.535  10.607  69.624  1.00  0.00    -0.068 OA 
HETATM   19  C   UNL     1      -8.975  10.314  69.863  1.00  0.00     0.046 C  
HETATM   20  C   UNL     1      -9.180  11.148  68.556  1.00  0.00    -0.183 C  
BRANCH  16  21
HETATM   21  C   UNL     1      -5.374  11.953  67.976  1.00  0.00    -0.049 C  
BRANCH  21  22
HETATM   22  O   UNL     1      -5.154  11.763  66.550  1.00  0.00    -0.260 OA 
BRANCH  22  23
HETATM   23  C   UNL     1      -5.878  10.653  66.011  1.00  0.00    -0.127 C  
BRANCH  23  24
HETATM   24  C   UNL     1      -5.569  10.407  64.517  1.00  0.00    -0.135 C  
HETATM   25  H   UNL     1      -6.500  10.703  62.826  1.00  0.00     0.000 HD 
HETATM   26  C   UNL     1      -5.286   8.951  64.161  1.00  0.00    -0.055 C  
HETATM   27  O   UNL     1      -6.691  10.855  63.744  1.00  0.00     0.261 OA 
ENDBRANCH  23  24
ENDBRANCH  22  23
ENDBRANCH  21  22
ENDBRANCH  16  21
BRANCH  17  28
HETATM   28  O   UNL     1      -7.518   8.573  68.915  1.00  0.00    -0.087 OA 
BRANCH  28  29
HETATM   29  C   UNL     1      -7.971   7.325  69.440  1.00  0.00    -0.125 C  
BRANCH  29  30
HETATM   30  C   UNL     1      -7.719   6.143  68.493  1.00  0.00    -0.100 C  
HETATM   31  O   UNL     1      -8.864   5.295  68.439  1.00  0.00    -0.101 OA 
HETATM   32  C   UNL     1      -6.508   5.327  68.923  1.00  0.00    -0.042 C  
HETATM   33  H   UNL     1      -8.708   4.563  67.853  1.00  0.00     0.000 HD 
ENDBRANCH  29  30
ENDBRANCH  28  29
ENDBRANCH  17  28
BRANCH  19  34
HETATM   34  O   UNL     1     -10.080   9.408  70.037  1.00  0.00    -0.196 OA 
BRANCH  34  35
HETATM   35  C   UNL     1     -11.001   9.745  71.076  1.00  0.00    -0.332 C  
BRANCH  35  36
HETATM   36  C   UNL     1     -12.221  10.438  70.446  1.00  0.00    -0.303 C  
HETATM   37  H   UNL     1     -12.858  12.285  70.203  1.00  0.00     0.000 HD 
HETATM   38  C   UNL     1     -13.533   9.996  71.076  1.00  0.00    -0.253 C  
HETATM   39  O   UNL     1     -12.104  11.857  70.591  1.00  0.00    -0.373 OA 
ENDBRANCH  35  36
ENDBRANCH  34  35
ENDBRANCH  19  34
BRANCH  20  40
HETATM   40  O   UNL     1      -9.194  10.372  67.332  1.00  0.00    -0.141 OA 
BRANCH  40  41
HETATM   41  C   UNL     1     -10.002   9.191  67.410  1.00  0.00    -0.206 C  
BRANCH  41  42
HETATM   42  C   UNL     1     -10.010   8.476  66.056  1.00  0.00     0.035 C  
HETATM   43  C   UNL     1      -8.647   8.451  65.395  1.00  0.00    -0.193 C  
HETATM   44  O   UNL     1     -10.449   7.126  66.236  1.00  0.00    -0.442 OA 
HETATM   45  H   UNL     1     -10.454   6.683  65.395  1.00  0.00     0.000 HD 
ENDBRANCH  41  42
ENDBRANCH  40  41
ENDBRANCH  20  40
ENDBRANCH  14  15
ENDBRANCH  10  14
BRANCH  11  46
HETATM   46  O   UNL     1      -9.076  14.219  67.094  1.00  0.00    -0.207 OA 
BRANCH  46  47
HETATM   47  C   UNL     1     -10.348  14.095  66.449  1.00  0.00    -0.287 C  
BRANCH  47  48
HETATM   48  C   UNL     1     -10.301  13.495  65.030  1.00  0.00    -0.362 C  
HETATM   49  C   UNL     1     -11.041  12.171  64.946  1.00  0.00    -0.367 C  
HETATM   50  O   UNL     1     -10.938  14.339  64.061  1.00  0.00    -0.518 OA 
HETATM   51  H   UNL     1     -10.909  13.969  63.187  1.00  0.00     0.000 HD 
ENDBRANCH  47  48
ENDBRANCH  46  47
ENDBRANCH  11  46
BRANCH  12  52
HETATM   52  O   UNL     1     -10.010  16.988  67.249  1.00  0.00    -0.261 OA 
BRANCH  52  53
HETATM   53  C   UNL     1      -9.835  18.355  66.864  1.00  0.00    -0.338 C  
BRANCH  53  54
HETATM   54  C   UNL     1     -10.222  19.324  67.998  1.00  0.00    -0.408 C  
HETATM   55  O   UNL     1     -11.643  19.428  68.100  1.00  0.00     0.387 OA 
HETATM   56  C   UNL     1      -9.657  20.726  67.849  1.00  0.00    -0.184 C  
HETATM   57  H   UNL     1     -11.882  20.025  68.799  1.00  0.00     0.000 HD 
ENDBRANCH  53  54
ENDBRANCH  52  53
ENDBRANCH  12  52
BRANCH  13  58
HETATM   58  O   UNL     1      -7.271  16.227  66.219  1.00  0.00    -0.078 OA 
BRANCH  58  59
HETATM   59  C   UNL     1      -6.811  17.135  65.210  1.00  0.00     1.985 C  
BRANCH  59  60
HETATM   60  C   UNL     1      -5.924  18.227  65.840  1.00  0.00    -0.212 C  
HETATM   61  O   UNL     1      -6.716  19.015  66.735  1.00  0.00    -0.190 OA 
HETATM   62  H   UNL     1      -6.169  19.688  67.123  1.00  0.00     0.000 HD 
HETATM   63  C   UNL     1      -5.302  19.147  64.812  1.00  0.00    -0.233 C  
ENDBRANCH  59  60
ENDBRANCH  58  59
ENDBRANCH  13  58
ENDBRANCH   7   8
ENDBRANCH   6   7
ENDBRANCH   5   6
ENDBRANCH   2   5
TORSDOF 28
ENDMDL
MODEL       43
REMARK 921   NORMALIZED FREE ENERGY PREDICTED BY IDOCK:    0.66 KCAL/MOL
REMARK 922        TOTAL FREE ENERGY PREDICTED BY IDOCK:   -3.95 KCAL/MOL
REMARK 923 INTER-LIGAND FREE ENERGY PREDICTED BY IDOCK:   -7.18 KCAL/MOL
REMARK 924 INTRA-LIGAND FREE ENERGY PREDICTED BY IDOCK:    3.23 KCAL/MOL
REMARK 927      BINDING AFFINITY PREDICTED BY RF-SCORE:    0.00 PKD
ROOT
HETATM    1  C   UNL     1      -9.716  16.475  66.355  1.00  0.00    -0.305 C  
HETATM    2  C   UNL     1      -9.889  14.968  66.272  1.00  0.00    -0.285 C  
HETATM    3  O   UNL     1      -8.860  14.435  65.437  1.00  0.00     0.399 OA 
HETATM    4  H   UNL     1      -8.968  13.494  65.385  1.00  0.00     0.000 HD 
ENDROOT
BRANCH   2   5
HETATM    5  C   UNL     1      -9.858  14.289  67.650  1.00  0.00    -0.224 C  
BRANCH   5   6
HETATM    6  O   UNL     1      -8.548  14.364  68.239  1.00  0.00    -0.156 OA 
BRANCH   6   7
HETATM    7  C   UNL     1      -7.828  13.131  68.065  1.00  0.00    -0.147 C  
BRANCH   7   8
HETATM    8  C   UNL     1      -8.702  12.076  67.340  1.00  0.00    -0.170 C  
HETATM    9  O   UNL     1      -8.299  10.722  67.655  1.00  0.00    -0.118 OA 
HETATM   10  C   UNL     1      -8.501  10.316  69.001  1.00  0.00    -0.150 C  
HETATM   11  C   UNL     1     -10.025  10.416  69.346  1.00  0.00    -0.218 C  
HETATM   12  C   UNL     1     -10.534  11.859  69.064  1.00  0.00    -0.070 C  
HETATM   13  C   UNL     1     -10.227  12.259  67.593  1.00  0.00    -0.203 C  
BRANCH  10  14
HETATM   14  O   UNL     1      -8.007   8.979  69.269  1.00  0.00    -0.092 OA 
BRANCH  14  15
HETATM   15  C   UNL     1      -7.306   8.293  68.202  1.00  0.00    -0.096 C  
HETATM   16  C   UNL     1      -6.511   7.071  68.781  1.00  0.00    -0.032 C  
HETATM   17  C   UNL     1      -8.384   5.614  68.627  1.00  0.00    -0.106 C  
HETATM   18  O   UNL     1      -7.440   6.235  69.505  1.00  0.00    -0.088 OA 
HETATM   19  C   UNL     1      -9.214   6.671  67.844  1.00  0.00    -0.111 C  
HETATM   20  C   UNL     1      -8.260   7.680  67.124  1.00  0.00    -0.118 C  
BRANCH  16  21
HETATM   21  C   UNL     1      -5.296   7.353  69.689  1.00  0.00    -0.022 C  
BRANCH  21  22
HETATM   22  O   UNL     1      -5.552   6.757  70.992  1.00  0.00    -0.026 OA 
BRANCH  22  23
HETATM   23  C   UNL     1      -5.899   7.718  71.993  1.00  0.00    -0.036 C  
BRANCH  23  24
HETATM   24  C   UNL     1      -6.653   7.090  73.187  1.00  0.00    -0.065 C  
HETATM   25  H   UNL     1      -6.173   6.457  74.972  1.00  0.00     0.000 HD 
HETATM   26  C   UNL     1      -7.373   5.784  72.865  1.00  0.00    -0.091 C  
HETATM   27  O   UNL     1      -5.709   6.842  74.238  1.00  0.00    -0.054 OA 
ENDBRANCH  23  24
ENDBRANCH  22  23
ENDBRANCH  21  22
ENDBRANCH  16  21
BRANCH  17  28
HETATM   28  O   UNL     1      -7.749   4.697  67.731  1.00  0.00    -0.081 OA 
BRANCH  28  29
HETATM   29  C   UNL     1      -7.816   3.336  68.158  1.00  0.00    -0.063 C  
BRANCH  29  30
HETATM   30  C   UNL     1      -9.090   3.012  68.950  1.00  0.00    -0.149 C  
HETATM   31  O   UNL     1      -9.205   3.871  70.083  1.00  0.00    -0.114 OA 
HETATM   32  C   UNL     1      -9.110   1.563  69.413  1.00  0.00    -0.150 C  
HETATM   33  H   UNL     1      -9.993   3.670  70.573  1.00  0.00     0.000 HD 
ENDBRANCH  29  30
ENDBRANCH  28  29
ENDBRANCH  17  28
BRANCH  19  34
HETATM   34  O   UNL     1     -10.152   6.130  66.895  1.00  0.00    -0.154 OA 
BRANCH  34  35
HETATM   35  C   UNL     1     -10.084   4.718  66.692  1.00  0.00    -0.245 C  
BRANCH  35  36
HETATM   36  C   UNL     1     -10.024   4.440  65.181  1.00  0.00    -0.177 C  
HETATM   37  H   UNL     1     -11.303   4.007  63.747  1.00  0.00     0.000 HD 
HETATM   38  C   UNL     1      -9.135   3.255  64.839  1.00  0.00    -0.141 C  
HETATM   39  O   UNL     1     -11.340   4.179  64.681  1.00  0.00    -0.309 OA 
ENDBRANCH  35  36
ENDBRANCH  34  35
ENDBRANCH  19  34
BRANCH  20  40
HETATM   40  O   UNL     1      -7.422   7.099  66.094  1.00  0.00    -0.076 OA 
BRANCH  40  41
HETATM   41  C   UNL     1      -7.931   7.284  64.767  1.00  0.00    -0.122 C  
BRANCH  41  42
HETATM   42  C   UNL     1      -7.615   8.701  64.281  1.00  0.00    -0.120 C  
HETATM   43  C   UNL     1      -7.307   8.759  62.798  1.00  0.00    -0.098 C  
HETATM   44  O   UNL     1      -8.735   9.552  64.541  1.00  0.00    -0.181 OA 
HETATM   45  H   UNL     1      -8.539  10.431  64.239  1.00  0.00     0.000 HD 
ENDBRANCH  41  42
ENDBRANCH  40  41
ENDBRANCH  20  40
ENDBRANCH  14  15
ENDBRANCH  10  14
BRANCH  11  46
HETATM   46  O   UNL     1     -10.874   9.484  68.646  1.00  0.00    -0.209 OA 
BRANCH  46  47
HETATM   47  C   UNL     1     -11.687   8.601  69.425  1.00  0.00     0.906 C  
BRANCH  47  48
HETATM   48  C   UNL     1     -11.851   9.003  70.904  1.00  0.00    -0.253 C  
HETATM   49  C   UNL     1     -13.228   9.574  71.191  1.00  0.00    -0.332 C  
HETATM   50  O   UNL     1     -11.720   7.882  71.790  1.00  0.00    -0.265 OA 
HETATM   51  H   UNL     1     -11.821   8.130  72.701  1.00  0.00     0.000 HD 
ENDBRANCH  47  48
ENDBRANCH  46  47
ENDBRANCH  11  46
BRANCH  12  52
HETATM   52  O   UNL     1     -11.930  12.116  69.366  1.00  0.00    -0.303 OA 
BRANCH  52  53
HETATM   53  C   UNL     1     -12.168  12.871  70.558  1.00  0.00    -0.314 C  
BRANCH  53  54
HETATM   54  C   UNL     1     -12.771  14.254  70.251  1.00  0.00    -0.249 C  
HETATM   55  O   UNL     1     -12.750  14.505  68.844  1.00  0.00    -0.444 OA 
HETATM   56  C   UNL     1     -12.078  15.414  70.946  1.00  0.00    -0.413 C  
HETATM   57  H   UNL     1     -13.122  15.358  68.654  1.00  0.00     0.000 HD 
ENDBRANCH  53  54
ENDBRANCH  52  53
ENDBRANCH  12  52
BRANCH  13  58
HETATM   58  O   UNL     1     -10.905  11.451  66.600  1.00  0.00    -0.269 OA 
BRANCH  58  59
HETATM   59  C   UNL     1     -11.445  12.171  65.484  1.00  0.00    -0.343 C  
BRANCH  59  60
HETATM   60  C   UNL     1     -11.826  11.193  64.354  1.00  0.00     0.692 C  
HETATM   61  O   UNL     1     -10.689  10.993  63.507  1.00  0.00    -0.548 OA 
HETATM   62  H   UNL     1     -10.923  10.391  62.810  1.00  0.00     0.000 HD 
HETATM   63  C   UNL     1     -12.975  11.691  63.505  1.00  0.00    -0.068 C  
ENDBRANCH  59  60
ENDBRANCH  58  59
ENDBRANCH  13  58
ENDBRANCH   7   8
ENDBRANCH   6   7
ENDBRANCH   5   6
ENDBRANCH   2   5
TORSDOF 28
ENDMDL
MODEL       44
REMARK 921   NORMALIZED FREE ENERGY PREDICTED BY IDOCK:    1.30 KCAL/MOL
REMARK 922        TOTAL FREE ENERGY PREDICTED BY IDOCK:   -2.26 KCAL/MOL
REMARK 923 INTER-LIGAND FREE ENERGY PREDICTED BY IDOCK:   -4.37 KCAL/MOL
REMARK 924 INTRA-LIGAND FREE ENERGY PREDICTED BY IDOCK:    2.11 KCAL/MOL
REMARK 927      BINDING AFFINITY PREDICTED BY RF-SCORE:    0.00 PKD
ROOT
HETATM    1  C   UNL     1      -5.137  12.448  73.365  1.00  0.00     0.388 C  
HETATM    2  C   UNL     1      -5.897  13.298  72.360  1.00  0.00     0.878 C  
HETATM    3  O   UNL     1      -5.426  14.644  72.452  1.00  0.00    -0.080 OA 
HETATM    4  H   UNL     1      -5.900  15.175  71.824  1.00  0.00     0.000 HD 
ENDROOT
BRANCH   2   5
HETATM    5  C   UNL     1      -5.754  12.784  70.919  1.00  0.00    -0.086 C  
BRANCH   5   6
HETATM    6  O   UNL     1      -7.040  12.585  70.306  1.00  0.00     0.695 OA 
BRANCH   6   7
HETATM    7  C   UNL     1      -7.101  11.320  69.625  1.00  0.00    -0.007 C  
BRANCH   7   8
HETATM    8  C   UNL     1      -7.423  11.513  68.122  1.00  0.00    -0.101 C  
HETATM    9  O   UNL     1      -7.374  10.267  67.388  1.00  0.00    -0.091 OA 
HETATM   10  C   UNL     1      -8.373   9.314  67.725  1.00  0.00    -0.116 C  
HETATM   11  C   UNL     1      -9.786   9.931  67.457  1.00  0.00    -0.169 C  
HETATM   12  C   UNL     1      -9.933  11.268  68.241  1.00  0.00    -0.195 C  
HETATM   13  C   UNL     1      -8.777  12.238  67.869  1.00  0.00    -0.177 C  
BRANCH  10  14
HETATM   14  O   UNL     1      -8.223   8.061  67.010  1.00  0.00    -0.113 OA 
BRANCH  14  15
HETATM   15  C   UNL     1      -8.012   6.859  67.793  1.00  0.00    -0.114 C  
HETATM   16  C   UNL     1      -6.492   6.715  68.156  1.00  0.00    -0.053 C  
HETATM   17  C   UNL     1      -6.694   8.072  70.098  1.00  0.00    -0.037 C  
HETATM   18  O   UNL     1      -6.073   7.929  68.818  1.00  0.00    -0.037 OA 
HETATM   19  C   UNL     1      -8.244   8.113  69.979  1.00  0.00    -0.120 C  
HETATM   20  C   UNL     1      -8.756   6.876  69.170  1.00  0.00    -0.135 C  
BRANCH  16  21
HETATM   21  C   UNL     1      -5.495   6.409  67.020  1.00  0.00    -0.012 C  
BRANCH  21  22
HETATM   22  O   UNL     1      -6.253   6.124  65.811  1.00  0.00    -0.035 OA 
BRANCH  22  23
HETATM   23  C   UNL     1      -6.963   4.884  65.869  1.00  0.00    -0.066 C  
BRANCH  23  24
HETATM   24  C   UNL     1      -6.028   3.670  66.069  1.00  0.00    -0.023 C  
HETATM   25  H   UNL     1      -5.307   2.254  64.932  1.00  0.00     0.000 HD 
HETATM   26  C   UNL     1      -6.516   2.658  67.101  1.00  0.00    -0.036 C  
HETATM   27  O   UNL     1      -5.882   3.001  64.809  1.00  0.00    -0.017 OA 
ENDBRANCH  23  24
ENDBRANCH  22  23
ENDBRANCH  21  22
ENDBRANCH  16  21
BRANCH  17  28
HETATM   28  O   UNL     1      -6.280   7.045  71.005  1.00  0.00    -0.036 OA 
BRANCH  28  29
HETATM   29  C   UNL     1      -6.871   7.148  72.300  1.00  0.00    -0.060 C  
BRANCH  29  30
HETATM   30  C   UNL     1      -6.736   5.865  73.132  1.00  0.00    -0.074 C  
HETATM   31  O   UNL     1      -6.452   4.751  72.287  1.00  0.00    -0.034 OA 
HETATM   32  C   UNL     1      -7.998   5.579  73.933  1.00  0.00    -0.107 C  
HETATM   33  H   UNL     1      -6.368   3.957  72.802  1.00  0.00     0.000 HD 
ENDBRANCH  29  30
ENDBRANCH  28  29
ENDBRANCH  17  28
BRANCH  19  34
HETATM   34  O   UNL     1      -8.952   8.200  71.229  1.00  0.00    -0.132 OA 
BRANCH  34  35
HETATM   35  C   UNL     1      -9.914   9.250  71.326  1.00  0.00    -0.271 C  
BRANCH  35  36
HETATM   36  C   UNL     1     -11.218   8.787  70.654  1.00  0.00    -0.257 C  
HETATM   37  H   UNL     1     -12.960   9.582  70.196  1.00  0.00     0.000 HD 
HETATM   38  C   UNL     1     -11.865   7.617  71.379  1.00  0.00    -0.320 C  
HETATM   39  O   UNL     1     -12.155   9.868  70.611  1.00  0.00    -0.275 OA 
ENDBRANCH  35  36
ENDBRANCH  34  35
ENDBRANCH  19  34
BRANCH  20  40
HETATM   40  O   UNL     1      -8.514   5.593  69.799  1.00  0.00    -0.105 OA 
BRANCH  40  41
HETATM   41  C   UNL     1      -9.592   5.151  70.634  1.00  0.00    -0.180 C  
BRANCH  41  42
HETATM   42  C   UNL     1      -9.825   3.651  70.432  1.00  0.00    -0.026 C  
HETATM   43  C   UNL     1      -8.591   2.925  69.935  1.00  0.00    -0.108 C  
HETATM   44  O   UNL     1     -10.224   3.062  71.673  1.00  0.00    -0.079 OA 
HETATM   45  H   UNL     1     -10.369   2.131  71.548  1.00  0.00     0.000 HD 
ENDBRANCH  41  42
ENDBRANCH  40  41
ENDBRANCH  20  40
ENDBRANCH  14  15
ENDBRANCH  10  14
BRANCH  11  46
HETATM   46  O   UNL     1     -10.095  10.175  66.070  1.00  0.00    -0.246 OA 
BRANCH  46  47
HETATM   47  C   UNL     1      -9.014  10.500  65.190  1.00  0.00    -0.191 C  
BRANCH  47  48
HETATM   48  C   UNL     1      -8.919   9.624  63.926  1.00  0.00    -0.218 C  
HETATM   49  C   UNL     1      -7.779  10.053  63.018  1.00  0.00    -0.143 C  
HETATM   50  O   UNL     1      -8.650   8.250  64.236  1.00  0.00    -0.385 OA 
HETATM   51  H   UNL     1      -8.592   7.710  63.457  1.00  0.00     0.000 HD 
ENDBRANCH  47  48
ENDBRANCH  46  47
ENDBRANCH  11  46
BRANCH  12  52
HETATM   52  O   UNL     1     -11.209  11.946  68.116  1.00  0.00    -0.221 OA 
BRANCH  52  53
HETATM   53  C   UNL     1     -11.211  13.321  68.512  1.00  0.00    -0.271 C  
BRANCH  53  54
HETATM   54  C   UNL     1     -10.817  13.492  69.991  1.00  0.00     0.614 C  
HETATM   55  O   UNL     1     -11.711  12.761  70.832  1.00  0.00    -0.323 OA 
HETATM   56  C   UNL     1     -10.788  14.933  70.473  1.00  0.00    -0.078 C  
HETATM   57  H   UNL     1     -11.469  12.867  71.745  1.00  0.00     0.000 HD 
ENDBRANCH  53  54
ENDBRANCH  52  53
ENDBRANCH  12  52
BRANCH  13  58
HETATM   58  O   UNL     1      -8.766  12.649  66.480  1.00  0.00    -0.135 OA 
BRANCH  58  59
HETATM   59  C   UNL     1      -9.230  13.982  66.227  1.00  0.00    -0.102 C  
BRANCH  59  60
HETATM   60  C   UNL     1     -10.364  13.962  65.183  1.00  0.00    -0.383 C  
HETATM   61  O   UNL     1     -10.066  14.908  64.150  1.00  0.00    -0.007 OA 
HETATM   62  H   UNL     1     -10.765  14.896  63.507  1.00  0.00     0.000 HD 
HETATM   63  C   UNL     1     -11.715  14.305  65.772  1.00  0.00    -0.359 C  
ENDBRANCH  59  60
ENDBRANCH  58  59
ENDBRANCH  13  58
ENDBRANCH   7   8
ENDBRANCH   6   7
ENDBRANCH   5   6
ENDBRANCH   2   5
TORSDOF 28
ENDMDL
MODEL       45
REMARK 921   NORMALIZED FREE ENERGY PREDICTED BY IDOCK:    1.38 KCAL/MOL
REMARK 922        TOTAL FREE ENERGY PREDICTED BY IDOCK:   -2.06 KCAL/MOL
REMARK 923 INTER-LIGAND FREE ENERGY PREDICTED BY IDOCK:   -5.53 KCAL/MOL
REMARK 924 INTRA-LIGAND FREE ENERGY PREDICTED BY IDOCK:    3.47 KCAL/MOL
REMARK 927      BINDING AFFINITY PREDICTED BY RF-SCORE:    0.00 PKD
ROOT
HETATM    1  C   UNL     1     -10.519  11.657  62.492  1.00  0.00     0.825 C  
HETATM    2  C   UNL     1      -9.995  11.891  63.899  1.00  0.00    -0.329 C  
HETATM    3  O   UNL     1      -8.617  12.260  63.816  1.00  0.00     0.613 OA 
HETATM    4  H   UNL     1      -8.289  12.406  64.695  1.00  0.00     0.000 HD 
ENDROOT
BRANCH   2   5
HETATM    5  C   UNL     1     -10.787  12.967  64.657  1.00  0.00    -0.354 C  
BRANCH   5   6
HETATM    6  O   UNL     1     -11.496  12.403  65.775  1.00  0.00    -0.335 OA 
BRANCH   6   7
HETATM    7  C   UNL     1     -11.564  10.970  65.678  1.00  0.00     0.723 C  
BRANCH   7   8
HETATM    8  C   UNL     1     -10.204  10.324  66.046  1.00  0.00    -0.228 C  
HETATM    9  O   UNL     1      -9.288  11.278  66.635  1.00  0.00    -0.173 OA 
HETATM   10  C   UNL     1      -9.663  11.788  67.907  1.00  0.00    -0.185 C  
HETATM   11  C   UNL     1      -9.783  10.603  68.923  1.00  0.00    -0.202 C  
HETATM   12  C   UNL     1     -10.781   9.541  68.377  1.00  0.00    -0.186 C  
HETATM   13  C   UNL     1     -10.343   9.072  66.960  1.00  0.00    -0.269 C  
BRANCH  10  14
HETATM   14  O   UNL     1      -8.744  12.793  68.406  1.00  0.00    -0.178 OA 
BRANCH  14  15
HETATM   15  C   UNL     1      -9.301  13.905  69.151  1.00  0.00     0.323 C  
HETATM   16  C   UNL     1      -8.151  14.858  69.632  1.00  0.00     0.018 C  
HETATM   17  C   UNL     1      -8.145  16.089  67.597  1.00  0.00    -0.149 C  
HETATM   18  O   UNL     1      -7.383  15.254  68.474  1.00  0.00    -0.112 OA 
HETATM   19  C   UNL     1      -9.424  15.365  67.088  1.00  0.00    -0.213 C  
HETATM   20  C   UNL     1     -10.248  14.813  68.298  1.00  0.00    -0.227 C  
BRANCH  16  21
HETATM   21  C   UNL     1      -7.178  14.343  70.712  1.00  0.00     1.124 C  
BRANCH  21  22
HETATM   22  O   UNL     1      -5.901  14.055  70.076  1.00  0.00    -0.114 OA 
BRANCH  22  23
HETATM   23  C   UNL     1      -5.929  12.877  69.264  1.00  0.00    -0.093 C  
BRANCH  23  24
HETATM   24  C   UNL     1      -5.162  13.050  67.934  1.00  0.00    -0.109 C  
HETATM   25  H   UNL     1      -5.171  14.343  66.469  1.00  0.00     0.000 HD 
HETATM   26  C   UNL     1      -5.303  11.881  66.966  1.00  0.00    -0.112 C  
HETATM   27  O   UNL     1      -5.643  14.237  67.287  1.00  0.00    -0.290 OA 
ENDBRANCH  23  24
ENDBRANCH  22  23
ENDBRANCH  21  22
ENDBRANCH  16  21
BRANCH  17  28
HETATM   28  O   UNL     1      -8.475  17.338  68.211  1.00  0.00    -0.227 OA 
BRANCH  28  29
HETATM   29  C   UNL     1      -7.502  18.360  67.996  1.00  0.00    -0.253 C  
BRANCH  29  30
HETATM   30  C   UNL     1      -6.470  17.997  66.919  1.00  0.00    -0.180 C  
HETATM   31  O   UNL     1      -5.147  18.095  67.442  1.00  0.00    -0.135 OA 
HETATM   32  C   UNL     1      -6.595  18.894  65.696  1.00  0.00    -0.303 C  
HETATM   33  H   UNL     1      -4.509  17.871  66.776  1.00  0.00     0.000 HD 
ENDBRANCH  29  30
ENDBRANCH  28  29
ENDBRANCH  17  28
BRANCH  19  34
HETATM   34  O   UNL     1     -10.278  16.156  66.242  1.00  0.00    -0.289 OA 
BRANCH  34  35
HETATM   35  C   UNL     1      -9.701  17.357  65.727  1.00  0.00     0.049 C  
BRANCH  35  36
HETATM   36  C   UNL     1     -10.734  18.491  65.848  1.00  0.00    -0.198 C  
HETATM   37  H   UNL     1     -10.851  20.389  65.336  1.00  0.00     0.000 HD 
HETATM   38  C   UNL     1     -11.112  18.786  67.291  1.00  0.00    -0.066 C  
HETATM   39  O   UNL     1     -10.213  19.689  65.262  1.00  0.00    -0.224 OA 
ENDBRANCH  35  36
ENDBRANCH  34  35
ENDBRANCH  19  34
BRANCH  20  40
HETATM   40  O   UNL     1     -10.781  15.826  69.186  1.00  0.00    -0.218 OA 
BRANCH  40  41
HETATM   41  C   UNL     1     -10.845  15.412  70.557  1.00  0.00    -0.300 C  
BRANCH  41  42
HETATM   42  C   UNL     1     -12.091  14.551  70.783  1.00  0.00    -0.329 C  
HETATM   43  C   UNL     1     -13.011  15.116  71.846  1.00  0.00    -0.443 C  
HETATM   44  O   UNL     1     -12.825  14.448  69.560  1.00  0.00    -0.494 OA 
HETATM   45  H   UNL     1     -13.598  13.914  69.701  1.00  0.00     0.000 HD 
ENDBRANCH  41  42
ENDBRANCH  40  41
ENDBRANCH  20  40
ENDBRANCH  14  15
ENDBRANCH  10  14
BRANCH  11  46
HETATM   46  O   UNL     1      -8.541   9.944  69.244  1.00  0.00    -0.141 OA 
BRANCH  46  47
HETATM   47  C   UNL     1      -7.514  10.718  69.873  1.00  0.00     0.074 C  
BRANCH  47  48
HETATM   48  C   UNL     1      -6.194   9.964  70.127  1.00  0.00    -0.073 C  
HETATM   49  C   UNL     1      -5.856   9.886  71.605  1.00  0.00     0.096 C  
HETATM   50  O   UNL     1      -6.255   8.600  69.687  1.00  0.00    -0.035 OA 
HETATM   51  H   UNL     1      -5.441   8.135  69.842  1.00  0.00     0.000 HD 
ENDBRANCH  47  48
ENDBRANCH  46  47
ENDBRANCH  11  46
BRANCH  12  52
HETATM   52  O   UNL     1     -11.021   8.391  69.227  1.00  0.00    -0.112 OA 
BRANCH  52  53
HETATM   53  C   UNL     1     -11.044   8.664  70.632  1.00  0.00    -0.249 C  
BRANCH  53  54
HETATM   54  C   UNL     1     -10.918   7.378  71.469  1.00  0.00    -0.230 C  
HETATM   55  O   UNL     1      -9.740   7.423  72.276  1.00  0.00    -0.151 OA 
HETATM   56  C   UNL     1     -10.882   6.096  70.654  1.00  0.00    -0.355 C  
HETATM   57  H   UNL     1      -9.662   6.630  72.793  1.00  0.00     0.000 HD 
ENDBRANCH  53  54
ENDBRANCH  52  53
ENDBRANCH  12  52
BRANCH  13  58
HETATM   58  O   UNL     1      -9.063   8.396  66.923  1.00  0.00    -0.137 OA 
BRANCH  58  59
HETATM   59  C   UNL     1      -9.120   6.964  66.945  1.00  0.00    -0.139 C  
BRANCH  59  60
HETATM   60  C   UNL     1      -7.715   6.370  66.721  1.00  0.00    -0.100 C  
HETATM   61  O   UNL     1      -7.494   5.321  67.670  1.00  0.00    -0.081 OA 
HETATM   62  H   UNL     1      -6.628   4.955  67.533  1.00  0.00     0.000 HD 
HETATM   63  C   UNL     1      -6.612   7.395  66.872  1.00  0.00    -0.057 C  
ENDBRANCH  59  60
ENDBRANCH  58  59
ENDBRANCH  13  58
ENDBRANCH   7   8
ENDBRANCH   6   7
ENDBRANCH   5   6
ENDBRANCH   2   5
TORSDOF 28
ENDMDL
MODEL       46
REMARK 921   NORMALIZED FREE ENERGY PREDICTED BY IDOCK:    1.73 KCAL/MOL
REMARK 922        TOTAL FREE ENERGY PREDICTED BY IDOCK:   -1.14 KCAL/MOL
REMARK 923 INTER-LIGAND FREE ENERGY PREDICTED BY IDOCK:   -9.80 KCAL/MOL
REMARK 924 INTRA-LIGAND FREE ENERGY PREDICTED BY IDOCK:    8.66 KCAL/MOL
REMARK 927      BINDING AFFINITY PREDICTED BY RF-SCORE:    0.00 PKD
ROOT
HETATM    1  C   UNL     1     -12.602  12.370  64.132  1.00  0.00    -0.498 C  
HETATM    2  C   UNL     1     -11.164  11.910  64.304  1.00  0.00    -0.357 C  
HETATM    3  O   UNL     1     -10.791  11.140  63.161  1.00  0.00    -0.775 OA 
HETATM    4  H   UNL     1      -9.892  10.852  63.268  1.00  0.00     0.000 HD 
ENDROOT
BRANCH   2   5
HETATM    5  C   UNL     1     -10.185  13.079  64.498  1.00  0.00    -0.308 C  
BRANCH   5   6
HETATM    6  O   UNL     1     -10.505  13.838  65.677  1.00  0.00    -0.287 OA 
BRANCH   6   7
HETATM    7  C   UNL     1      -9.937  15.158  65.616  1.00  0.00    -0.354 C  
BRANCH   7   8
HETATM    8  C   UNL     1      -9.389  15.590  67.000  1.00  0.00    -0.224 C  
HETATM    9  O   UNL     1      -8.293  14.753  67.440  1.00  0.00    -0.172 OA 
HETATM   10  C   UNL     1      -7.102  14.843  66.672  1.00  0.00     1.328 C  
HETATM   11  C   UNL     1      -6.575  16.317  66.708  1.00  0.00     0.025 C  
HETATM   12  C   UNL     1      -7.690  17.286  66.216  1.00  0.00    -0.318 C  
HETATM   13  C   UNL     1      -8.981  17.091  67.060  1.00  0.00    -0.221 C  
BRANCH  10  14
HETATM   14  O   UNL     1      -6.071  13.925  67.117  1.00  0.00    -0.213 OA 
BRANCH  14  15
HETATM   15  C   UNL     1      -6.351  13.112  68.284  1.00  0.00    -0.096 C  
HETATM   16  C   UNL     1      -7.770  13.462  68.853  1.00  0.00     0.049 C  
HETATM   17  C   UNL     1      -8.872  11.938  67.397  1.00  0.00    -0.171 C  
HETATM   18  O   UNL     1      -8.732  13.307  67.786  1.00  0.00    -0.170 OA 
HETATM   19  C   UNL     1      -7.523  11.344  66.903  1.00  0.00    -0.147 C  
HETATM   20  C   UNL     1      -6.406  11.579  67.974  1.00  0.00    -0.050 C  
BRANCH  16  21
HETATM   21  C   UNL     1      -7.977  14.845  69.502  1.00  0.00    -0.084 C  
BRANCH  21  22
HETATM   22  O   UNL     1      -6.966  15.022  70.533  1.00  0.00     0.055 OA 
BRANCH  22  23
HETATM   23  C   UNL     1      -5.965  14.000  70.522  1.00  0.00    -0.177 C  
BRANCH  23  24
HETATM   24  C   UNL     1      -5.222  13.877  71.872  1.00  0.00    -0.200 C  
HETATM   25  H   UNL     1      -4.952  12.470  73.200  1.00  0.00     0.000 HD 
HETATM   26  C   UNL     1      -5.683  14.863  72.940  1.00  0.00     0.369 C  
HETATM   27  O   UNL     1      -5.409  12.545  72.370  1.00  0.00    -0.358 OA 
ENDBRANCH  23  24
ENDBRANCH  22  23
ENDBRANCH  21  22
ENDBRANCH  16  21
BRANCH  17  28
HETATM   28  O   UNL     1      -9.424  11.143  68.452  1.00  0.00    -0.175 OA 
BRANCH  28  29
HETATM   29  C   UNL     1     -10.708  10.597  68.148  1.00  0.00    -0.225 C  
BRANCH  29  30
HETATM   30  C   UNL     1     -11.869  11.498  68.591  1.00  0.00    -0.318 C  
HETATM   31  O   UNL     1     -11.752  12.789  67.998  1.00  0.00    -0.324 OA 
HETATM   32  C   UNL     1     -11.922  11.643  70.105  1.00  0.00    -0.441 C  
HETATM   33  H   UNL     1     -12.470  13.347  68.272  1.00  0.00     0.000 HD 
ENDBRANCH  29  30
ENDBRANCH  28  29
ENDBRANCH  17  28
BRANCH  19  34
HETATM   34  O   UNL     1      -7.563   9.951  66.545  1.00  0.00    -0.101 OA 
BRANCH  34  35
HETATM   35  C   UNL     1      -7.060   9.629  65.247  1.00  0.00    -0.109 C  
BRANCH  35  36
HETATM   36  C   UNL     1      -7.774   8.364  64.742  1.00  0.00    -0.109 C  
HETATM   37  H   UNL     1      -9.460   7.937  63.818  1.00  0.00     0.000 HD 
HETATM   38  C   UNL     1      -8.051   7.366  65.855  1.00  0.00    -0.128 C  
HETATM   39  O   UNL     1      -9.019   8.718  64.130  1.00  0.00     0.013 OA 
ENDBRANCH  35  36
ENDBRANCH  34  35
ENDBRANCH  19  34
BRANCH  20  40
HETATM   40  O   UNL     1      -6.617  10.897  69.236  1.00  0.00    -0.060 OA 
BRANCH  40  41
HETATM   41  C   UNL     1      -5.608   9.927  69.540  1.00  0.00    -0.037 C  
BRANCH  41  42
HETATM   42  C   UNL     1      -6.249   8.688  70.170  1.00  0.00    -0.034 C  
HETATM   43  C   UNL     1      -6.946   8.989  71.482  1.00  0.00    -0.045 C  
HETATM   44  O   UNL     1      -7.212   8.140  69.265  1.00  0.00    -0.068 OA 
HETATM   45  H   UNL     1      -7.610   7.371  69.656  1.00  0.00     0.000 HD 
ENDBRANCH  41  42
ENDBRANCH  40  41
ENDBRANCH  20  40
ENDBRANCH  14  15
ENDBRANCH  10  14
BRANCH  11  46
HETATM   46  O   UNL     1      -6.108  16.769  67.995  1.00  0.00    -0.125 OA 
BRANCH  46  47
HETATM   47  C   UNL     1      -5.147  17.828  68.026  1.00  0.00    -0.138 C  
BRANCH  47  48
HETATM   48  C   UNL     1      -5.229  18.746  69.261  1.00  0.00    -0.198 C  
HETATM   49  C   UNL     1      -5.603  20.171  68.890  1.00  0.00    -0.279 C  
HETATM   50  O   UNL     1      -6.243  18.324  70.184  1.00  0.00    -0.127 OA 
HETATM   51  H   UNL     1      -6.293  18.890  70.946  1.00  0.00     0.000 HD 
ENDBRANCH  47  48
ENDBRANCH  46  47
ENDBRANCH  11  46
BRANCH  12  52
HETATM   52  O   UNL     1      -7.338  18.692  66.164  1.00  0.00    -0.242 OA 
BRANCH  52  53
HETATM   53  C   UNL     1      -6.474  19.067  65.087  1.00  0.00    -0.241 C  
BRANCH  53  54
HETATM   54  C   UNL     1      -6.129  20.567  65.123  1.00  0.00    -0.254 C  
HETATM   55  O   UNL     1      -7.081  21.277  65.917  1.00  0.00    -0.386 OA 
HETATM   56  C   UNL     1      -6.065  21.232  63.758  1.00  0.00    -0.301 C  
HETATM   57  H   UNL     1      -6.868  22.203  65.939  1.00  0.00     0.000 HD 
ENDBRANCH  53  54
ENDBRANCH  52  53
ENDBRANCH  12  52
BRANCH  13  58
HETATM   58  O   UNL     1      -8.832  17.417  68.464  1.00  0.00    -0.266 OA 
BRANCH  58  59
HETATM   59  C   UNL     1      -9.974  18.027  69.080  1.00  0.00    -0.284 C  
BRANCH  59  60
HETATM   60  C   UNL     1      -9.976  19.545  68.813  1.00  0.00    -0.463 C  
HETATM   61  O   UNL     1     -10.569  20.215  69.932  1.00  0.00    -0.556 OA 
HETATM   62  H   UNL     1     -10.571  21.151  69.767  1.00  0.00     0.000 HD 
HETATM   63  C   UNL     1     -10.743  19.924  67.565  1.00  0.00    -0.428 C  
ENDBRANCH  59  60
ENDBRANCH  58  59
ENDBRANCH  13  58
ENDBRANCH   7   8
ENDBRANCH   6   7
ENDBRANCH   5   6
ENDBRANCH   2   5
TORSDOF 28
ENDMDL
MODEL       47
REMARK 921   NORMALIZED FREE ENERGY PREDICTED BY IDOCK:    2.03 KCAL/MOL
REMARK 922        TOTAL FREE ENERGY PREDICTED BY IDOCK:   -0.34 KCAL/MOL
REMARK 923 INTER-LIGAND FREE ENERGY PREDICTED BY IDOCK:   -0.27 KCAL/MOL
REMARK 924 INTRA-LIGAND FREE ENERGY PREDICTED BY IDOCK:   -0.08 KCAL/MOL
REMARK 927      BINDING AFFINITY PREDICTED BY RF-SCORE:    0.00 PKD
ROOT
HETATM    1  C   UNL     1      -8.564  10.951  64.806  1.00  0.00    -0.006 C  
HETATM    2  C   UNL     1      -9.069   9.557  64.475  1.00  0.00    -0.197 C  
HETATM    3  O   UNL     1      -9.511   9.542  63.116  1.00  0.00    -0.514 OA 
HETATM    4  H   UNL     1      -9.827   8.671  62.909  1.00  0.00     0.000 HD 
ENDROOT
BRANCH   2   5
HETATM    5  C   UNL     1      -8.005   8.471  64.698  1.00  0.00    -0.143 C  
BRANCH   5   6
HETATM    6  O   UNL     1      -7.251   8.717  65.898  1.00  0.00    -0.075 OA 
BRANCH   6   7
HETATM    7  C   UNL     1      -6.010   7.991  65.890  1.00  0.00    -0.038 C  
BRANCH   7   8
HETATM    8  C   UNL     1      -5.935   7.005  67.083  1.00  0.00    -0.025 C  
HETATM    9  O   UNL     1      -7.042   7.174  68.000  1.00  0.00    -0.080 OA 
HETATM   10  C   UNL     1      -8.324   6.834  67.489  1.00  0.00    -0.122 C  
HETATM   11  C   UNL     1      -8.326   5.327  67.063  1.00  0.00    -0.107 C  
HETATM   12  C   UNL     1      -7.177   5.067  66.045  1.00  0.00    -0.076 C  
HETATM   13  C   UNL     1      -5.815   5.516  66.647  1.00  0.00    -0.018 C  
BRANCH  10  14
HETATM   14  O   UNL     1      -9.396   7.096  68.429  1.00  0.00    -0.136 OA 
BRANCH  14  15
HETATM   15  C   UNL     1      -9.106   7.958  69.559  1.00  0.00    -0.149 C  
HETATM   16  C   UNL     1      -9.858   9.326  69.397  1.00  0.00    -0.174 C  
HETATM   17  C   UNL     1     -11.847   8.499  70.404  1.00  0.00     0.086 C  
HETATM   18  O   UNL     1     -11.264   9.046  69.218  1.00  0.00    -0.019 OA 
HETATM   19  C   UNL     1     -11.153   7.171  70.822  1.00  0.00    -0.269 C  
HETATM   20  C   UNL     1      -9.606   7.381  70.925  1.00  0.00    -0.166 C  
BRANCH  16  21
HETATM   21  C   UNL     1      -9.403  10.282  68.276  1.00  0.00    -0.138 C  
BRANCH  21  22
HETATM   22  O   UNL     1     -10.346  11.388  68.208  1.00  0.00    -0.180 OA 
BRANCH  22  23
HETATM   23  C   UNL     1     -10.719  11.890  69.495  1.00  0.00     0.150 C  
BRANCH  23  24
HETATM   24  C   UNL     1     -12.025  12.715  69.459  1.00  0.00    -0.270 C  
HETATM   25  H   UNL     1     -13.190  13.434  68.065  1.00  0.00     0.000 HD 
HETATM   26  C   UNL     1     -11.936  14.071  70.150  1.00  0.00    -0.399 C  
HETATM   27  O   UNL     1     -12.386  12.927  68.087  1.00  0.00    -0.077 OA 
ENDBRANCH  23  24
ENDBRANCH  22  23
ENDBRANCH  21  22
ENDBRANCH  16  21
BRANCH  17  28
HETATM   28  O   UNL     1     -11.836   9.441  71.481  1.00  0.00    -0.333 OA 
BRANCH  28  29
HETATM   29  C   UNL     1     -12.935   9.298  72.381  1.00  0.00    -0.377 C  
BRANCH  29  30
HETATM   30  C   UNL     1     -14.099  10.251  72.073  1.00  0.00     0.402 C  
HETATM   31  O   UNL     1     -14.358  10.283  70.671  1.00  0.00     0.976 OA 
HETATM   32  C   UNL     1     -13.814  11.663  72.564  1.00  0.00     0.643 C  
HETATM   33  H   UNL     1     -15.077  10.873  70.480  1.00  0.00     0.000 HD 
ENDBRANCH  29  30
ENDBRANCH  28  29
ENDBRANCH  17  28
BRANCH  19  34
HETATM   34  O   UNL     1     -11.644   6.582  72.040  1.00  0.00    -0.281 OA 
BRANCH  34  35
HETATM   35  C   UNL     1     -10.703   6.499  73.111  1.00  0.00    -0.269 C  
BRANCH  35  36
HETATM   36  C   UNL     1     -10.722   5.067  73.673  1.00  0.00    -0.293 C  
HETATM   37  H   UNL     1     -10.048   3.299  73.127  1.00  0.00     0.000 HD 
HETATM   38  C   UNL     1     -12.134   4.540  73.881  1.00  0.00     1.541 C  
HETATM   39  O   UNL     1     -10.036   4.183  72.780  1.00  0.00    -0.139 OA 
ENDBRANCH  35  36
ENDBRANCH  34  35
ENDBRANCH  19  34
BRANCH  20  40
HETATM   40  O   UNL     1      -9.183   8.306  71.958  1.00  0.00    -0.160 OA 
BRANCH  40  41
HETATM   41  C   UNL     1      -7.931   8.945  71.679  1.00  0.00    -0.021 C  
BRANCH  41  42
HETATM   42  C   UNL     1      -7.255   9.359  72.989  1.00  0.00     1.266 C  
HETATM   43  C   UNL     1      -6.524   8.213  73.660  1.00  0.00    -0.130 C  
HETATM   44  O   UNL     1      -6.312  10.402  72.726  1.00  0.00     0.958 OA 
HETATM   45  H   UNL     1      -5.892  10.658  73.539  1.00  0.00     0.000 HD 
ENDBRANCH  41  42
ENDBRANCH  40  41
ENDBRANCH  20  40
ENDBRANCH  14  15
ENDBRANCH  10  14
BRANCH  11  46
HETATM   46  O   UNL     1      -8.202   4.384  68.147  1.00  0.00    -0.089 OA 
BRANCH  46  47
HETATM   47  C   UNL     1      -9.403   3.920  68.772  1.00  0.00    -0.166 C  
BRANCH  47  48
HETATM   48  C   UNL     1      -9.200   3.217  70.128  1.00  0.00    -0.156 C  
HETATM   49  C   UNL     1      -8.561   1.849  69.973  1.00  0.00    -0.096 C  
HETATM   50  O   UNL     1      -8.315   3.946  70.990  1.00  0.00    -0.066 OA 
HETATM   51  H   UNL     1      -8.190   3.513  71.826  1.00  0.00     0.000 HD 
ENDBRANCH  47  48
ENDBRANCH  46  47
ENDBRANCH  11  46
BRANCH  12  52
HETATM   52  O   UNL     1      -7.071   3.714  65.533  1.00  0.00    -0.063 OA 
BRANCH  52  53
HETATM   53  C   UNL     1      -6.991   3.605  64.108  1.00  0.00    -0.046 C  
BRANCH  53  54
HETATM   54  C   UNL     1      -7.757   2.377  63.583  1.00  0.00    -0.067 C  
HETATM   55  O   UNL     1      -6.972   1.678  62.615  1.00  0.00    -0.021 OA 
HETATM   56  C   UNL     1      -9.104   2.695  62.955  1.00  0.00    -0.091 C  
HETATM   57  H   UNL     1      -7.445   0.920  62.290  1.00  0.00     0.000 HD 
ENDBRANCH  53  54
ENDBRANCH  52  53
ENDBRANCH  12  52
BRANCH  13  58
HETATM   58  O   UNL     1      -5.410   4.777  67.825  1.00  0.00    -0.010 OA 
BRANCH  58  59
HETATM   59  C   UNL     1      -5.157   5.570  68.993  1.00  0.00     0.000 C  
BRANCH  59  60
HETATM   60  C   UNL     1      -5.151   4.678  70.251  1.00  0.00     0.000 C  
HETATM   61  O   UNL     1      -5.478   3.336  69.874  1.00  0.00    -0.014 OA 
HETATM   62  H   UNL     1      -5.475   2.786  70.649  1.00  0.00     0.000 HD 
HETATM   63  C   UNL     1      -6.137   5.136  71.303  1.00  0.00    -0.022 C  
ENDBRANCH  59  60
ENDBRANCH  58  59
ENDBRANCH  13  58
ENDBRANCH   7   8
ENDBRANCH   6   7
ENDBRANCH   5   6
ENDBRANCH   2   5
TORSDOF 28
ENDMDL
MODEL       48
REMARK 921   NORMALIZED FREE ENERGY PREDICTED BY IDOCK:    2.35 KCAL/MOL
REMARK 922        TOTAL FREE ENERGY PREDICTED BY IDOCK:    0.51 KCAL/MOL
REMARK 923 INTER-LIGAND FREE ENERGY PREDICTED BY IDOCK:   -1.68 KCAL/MOL
REMARK 924 INTRA-LIGAND FREE ENERGY PREDICTED BY IDOCK:    2.20 KCAL/MOL
REMARK 927      BINDING AFFINITY PREDICTED BY RF-SCORE:    0.00 PKD
ROOT
HETATM    1  C   UNL     1      -5.200   9.159  66.408  1.00  0.00    -0.036 C  
HETATM    2  C   UNL     1      -6.581   8.943  65.811  1.00  0.00    -0.064 C  
HETATM    3  O   UNL     1      -6.811   7.538  65.691  1.00  0.00    -0.054 OA 
HETATM    4  H   UNL     1      -7.673   7.402  65.318  1.00  0.00     0.000 HD 
ENDROOT
BRANCH   2   5
HETATM    5  C   UNL     1      -7.696   9.593  66.643  1.00  0.00    -0.098 C  
BRANCH   5   6
HETATM    6  O   UNL     1      -7.932  10.951  66.231  1.00  0.00    -0.155 OA 
BRANCH   6   7
HETATM    7  C   UNL     1      -8.016  11.832  67.365  1.00  0.00    -0.155 C  
BRANCH   7   8
HETATM    8  C   UNL     1      -8.717  11.134  68.558  1.00  0.00    -0.161 C  
HETATM    9  O   UNL     1      -9.759  11.956  69.136  1.00  0.00     0.089 OA 
HETATM   10  C   UNL     1     -10.885  12.199  68.306  1.00  0.00    -0.223 C  
HETATM   11  C   UNL     1     -11.555  10.834  67.932  1.00  0.00    -0.128 C  
HETATM   12  C   UNL     1     -10.503   9.897  67.270  1.00  0.00    -0.258 C  
HETATM   13  C   UNL     1      -9.274   9.723  68.207  1.00  0.00    -0.129 C  
BRANCH  10  14
HETATM   14  O   UNL     1     -11.855  13.090  68.914  1.00  0.00    -0.302 OA 
BRANCH  14  15
HETATM   15  C   UNL     1     -12.037  14.398  68.316  1.00  0.00    -0.225 C  
HETATM   16  C   UNL     1     -12.411  15.446  69.423  1.00  0.00    -0.126 C  
HETATM   17  C   UNL     1     -10.136  15.889  69.955  1.00  0.00    -0.190 C  
HETATM   18  O   UNL     1     -11.389  15.404  70.443  1.00  0.00    -0.273 OA 
HETATM   19  C   UNL     1      -9.629  15.048  68.748  1.00  0.00    -0.220 C  
HETATM   20  C   UNL     1     -10.738  14.962  67.648  1.00  0.00    -0.270 C  
BRANCH  16  21
HETATM   21  C   UNL     1     -13.789  15.329  70.104  1.00  0.00     1.025 C  
BRANCH  21  22
HETATM   22  O   UNL     1     -13.578  15.056  71.518  1.00  0.00    -0.382 OA 
BRANCH  22  23
HETATM   23  C   UNL     1     -13.247  16.225  72.274  1.00  0.00     0.290 C  
BRANCH  23  24
HETATM   24  C   UNL     1     -13.188  15.955  73.795  1.00  0.00    -0.277 C  
HETATM   25  H   UNL     1     -12.220  16.709  75.315  1.00  0.00     0.000 HD 
HETATM   26  C   UNL     1     -12.768  14.537  74.170  1.00  0.00     0.724 C  
HETATM   27  O   UNL     1     -12.257  16.875  74.380  1.00  0.00    -0.597 OA 
ENDBRANCH  23  24
ENDBRANCH  22  23
ENDBRANCH  21  22
ENDBRANCH  16  21
BRANCH  17  28
HETATM   28  O   UNL     1     -10.203  17.278  69.616  1.00  0.00    -0.121 OA 
BRANCH  28  29
HETATM   29  C   UNL     1      -8.933  17.931  69.614  1.00  0.00     0.943 C  
BRANCH  29  30
HETATM   30  C   UNL     1      -9.030  19.444  69.375  1.00  0.00     0.128 C  
HETATM   31  O   UNL     1      -7.945  20.120  70.008  1.00  0.00     0.450 OA 
HETATM   32  C   UNL     1     -10.345  20.011  69.892  1.00  0.00     0.393 C  
HETATM   33  H   UNL     1      -8.006  21.057  69.861  1.00  0.00     0.000 HD 
ENDBRANCH  29  30
ENDBRANCH  28  29
ENDBRANCH  17  28
BRANCH  19  34
HETATM   34  O   UNL     1      -8.398  15.505  68.159  1.00  0.00    -0.142 OA 
BRANCH  34  35
HETATM   35  C   UNL     1      -7.274  15.561  69.037  1.00  0.00    -0.156 C  
BRANCH  35  36
HETATM   36  C   UNL     1      -6.056  16.069  68.246  1.00  0.00    -0.104 C  
HETATM   37  H   UNL     1      -5.496  17.752  67.392  1.00  0.00     0.000 HD 
HETATM   38  C   UNL     1      -5.805  15.263  66.980  1.00  0.00     0.758 C  
HETATM   39  O   UNL     1      -6.248  17.439  67.880  1.00  0.00    -0.145 OA 
ENDBRANCH  35  36
ENDBRANCH  34  35
ENDBRANCH  19  34
BRANCH  20  40
HETATM   40  O   UNL     1     -11.090  16.227  67.035  1.00  0.00    -0.158 OA 
BRANCH  40  41
HETATM   41  C   UNL     1     -10.057  16.770  66.205  1.00  0.00    -0.345 C  
BRANCH  41  42
HETATM   42  C   UNL     1     -10.325  18.255  65.943  1.00  0.00    -0.284 C  
HETATM   43  C   UNL     1      -9.071  19.025  65.584  1.00  0.00     0.622 C  
HETATM   44  O   UNL     1     -11.257  18.385  64.865  1.00  0.00    -0.433 OA 
HETATM   45  H   UNL     1     -11.423  19.306  64.702  1.00  0.00     0.000 HD 
ENDBRANCH  41  42
ENDBRANCH  40  41
ENDBRANCH  20  40
ENDBRANCH  14  15
ENDBRANCH  10  14
BRANCH  11  46
HETATM   46  O   UNL     1     -12.169  10.132  69.032  1.00  0.00     0.075 OA 
BRANCH  46  47
HETATM   47  C   UNL     1     -13.111  10.845  69.840  1.00  0.00     0.393 C  
BRANCH  47  48
HETATM   48  C   UNL     1     -12.574  11.308  71.208  1.00  0.00    -0.382 C  
HETATM   49  C   UNL     1     -13.365  10.717  72.362  1.00  0.00     0.032 C  
HETATM   50  O   UNL     1     -11.221  10.889  71.431  1.00  0.00     0.302 OA 
HETATM   51  H   UNL     1     -10.890  11.175  72.275  1.00  0.00     0.000 HD 
ENDBRANCH  47  48
ENDBRANCH  46  47
ENDBRANCH  11  46
BRANCH  12  52
HETATM   52  O   UNL     1     -10.985   8.598  66.839  1.00  0.00    -0.065 OA 
BRANCH  52  53
HETATM   53  C   UNL     1     -10.382   7.476  67.491  1.00  0.00    -0.252 C  
BRANCH  53  54
HETATM   54  C   UNL     1     -10.380   6.224  66.595  1.00  0.00    -0.170 C  
HETATM   55  O   UNL     1     -11.507   5.398  66.891  1.00  0.00     0.123 OA 
HETATM   56  C   UNL     1      -9.128   5.371  66.707  1.00  0.00    -0.116 C  
HETATM   57  H   UNL     1     -11.506   4.625  66.338  1.00  0.00     0.000 HD 
ENDBRANCH  53  54
ENDBRANCH  52  53
ENDBRANCH  12  52
BRANCH  13  58
HETATM   58  O   UNL     1      -9.571   9.077  69.469  1.00  0.00    -0.160 OA 
BRANCH  58  59
HETATM   59  C   UNL     1      -8.543   9.167  70.464  1.00  0.00    -0.219 C  
BRANCH  59  60
HETATM   60  C   UNL     1      -8.838   8.195  71.624  1.00  0.00    -0.156 C  
HETATM   61  O   UNL     1      -9.604   8.878  72.623  1.00  0.00    -0.208 OA 
HETATM   62  H   UNL     1      -9.786   8.280  73.339  1.00  0.00     0.000 HD 
HETATM   63  C   UNL     1      -7.584   7.649  72.270  1.00  0.00    -0.092 C  
ENDBRANCH  59  60
ENDBRANCH  58  59
ENDBRANCH  13  58
ENDBRANCH   7   8
ENDBRANCH   6   7
ENDBRANCH   5   6
ENDBRANCH   2   5
TORSDOF 28
ENDMDL
MODEL       49
REMARK 921   NORMALIZED FREE ENERGY PREDICTED BY IDOCK:    3.15 KCAL/MOL
REMARK 922        TOTAL FREE ENERGY PREDICTED BY IDOCK:    2.62 KCAL/MOL
REMARK 923 INTER-LIGAND FREE ENERGY PREDICTED BY IDOCK:   -5.47 KCAL/MOL
REMARK 924 INTRA-LIGAND FREE ENERGY PREDICTED BY IDOCK:    8.08 KCAL/MOL
REMARK 927      BINDING AFFINITY PREDICTED BY RF-SCORE:    0.00 PKD
ROOT
HETATM    1  C   UNL     1      -8.814   6.185  69.731  1.00  0.00    -0.135 C  
HETATM    2  C   UNL     1     -10.141   5.455  69.609  1.00  0.00    -0.249 C  
HETATM    3  O   UNL     1     -10.321   4.640  70.769  1.00  0.00    -0.177 OA 
HETATM    4  H   UNL     1     -11.151   4.184  70.693  1.00  0.00     0.000 HD 
ENDROOT
BRANCH   2   5
HETATM    5  C   UNL     1     -11.332   6.410  69.442  1.00  0.00    -0.377 C  
BRANCH   5   6
HETATM    6  O   UNL     1     -10.891   7.752  69.166  1.00  0.00    -0.171 OA 
BRANCH   6   7
HETATM    7  C   UNL     1      -9.761   7.755  68.276  1.00  0.00    -0.159 C  
BRANCH   7   8
HETATM    8  C   UNL     1     -10.161   7.238  66.870  1.00  0.00    -0.269 C  
HETATM    9  O   UNL     1     -10.597   8.308  65.999  1.00  0.00     0.610 OA 
HETATM   10  C   UNL     1      -9.599   9.250  65.632  1.00  0.00    -0.254 C  
HETATM   11  C   UNL     1      -8.442   8.511  64.881  1.00  0.00    -0.147 C  
HETATM   12  C   UNL     1      -7.892   7.357  65.769  1.00  0.00    -0.108 C  
HETATM   13  C   UNL     1      -9.045   6.399  66.181  1.00  0.00    -0.131 C  
BRANCH  10  14
HETATM   14  O   UNL     1     -10.116  10.337  64.822  1.00  0.00    -0.344 OA 
BRANCH  14  15
HETATM   15  C   UNL     1      -9.826  11.692  65.248  1.00  0.00    -0.248 C  
HETATM   16  C   UNL     1     -11.067  12.297  65.994  1.00  0.00    -0.309 C  
HETATM   17  C   UNL     1     -10.413  11.387  68.091  1.00  0.00    -0.187 C  
HETATM   18  O   UNL     1     -11.419  11.405  67.074  1.00  0.00    -0.452 OA 
HETATM   19  C   UNL     1      -9.040  10.923  67.527  1.00  0.00    -0.140 C  
HETATM   20  C   UNL     1      -8.652  11.782  66.278  1.00  0.00    -0.062 C  
BRANCH  16  21
HETATM   21  C   UNL     1     -12.338  12.597  65.174  1.00  0.00    -0.484 C  
BRANCH  21  22
HETATM   22  O   UNL     1     -12.993  13.760  65.755  1.00  0.00    -0.477 OA 
BRANCH  22  23
HETATM   23  C   UNL     1     -12.748  14.967  65.026  1.00  0.00     0.156 C  
BRANCH  23  24
HETATM   24  C   UNL     1     -11.429  15.656  65.439  1.00  0.00     0.025 C  
HETATM   25  H   UNL     1     -10.722  16.468  67.070  1.00  0.00     0.000 HD 
HETATM   26  C   UNL     1     -11.074  16.889  64.614  1.00  0.00     0.200 C  
HETATM   27  O   UNL     1     -11.534  16.044  66.816  1.00  0.00     0.113 OA 
ENDBRANCH  23  24
ENDBRANCH  22  23
ENDBRANCH  21  22
ENDBRANCH  16  21
BRANCH  17  28
HETATM   28  O   UNL     1     -10.295  12.657  68.741  1.00  0.00    -0.202 OA 
BRANCH  28  29
HETATM   29  C   UNL     1     -11.126  12.792  69.894  1.00  0.00     0.318 C  
BRANCH  29  30
HETATM   30  C   UNL     1     -11.688  14.210  70.071  1.00  0.00    -0.291 C  
HETATM   31  O   UNL     1     -11.284  15.046  68.989  1.00  0.00    -0.241 OA 
HETATM   32  C   UNL     1     -11.235  14.833  71.384  1.00  0.00    -0.011 C  
HETATM   33  H   UNL     1     -11.631  15.923  69.099  1.00  0.00     0.000 HD 
ENDBRANCH  29  30
ENDBRANCH  28  29
ENDBRANCH  17  28
BRANCH  19  34
HETATM   34  O   UNL     1      -7.956  10.930  68.474  1.00  0.00    -0.117 OA 
BRANCH  34  35
HETATM   35  C   UNL     1      -8.081  10.017  69.566  1.00  0.00    -0.161 C  
BRANCH  35  36
HETATM   36  C   UNL     1      -6.834  10.143  70.457  1.00  0.00    -0.077 C  
HETATM   37  H   UNL     1      -4.888  10.296  70.195  1.00  0.00     0.000 HD 
HETATM   38  C   UNL     1      -6.681   8.973  71.417  1.00  0.00    -0.076 C  
HETATM   39  O   UNL     1      -5.658  10.218  69.644  1.00  0.00    -0.037 OA 
ENDBRANCH  35  36
ENDBRANCH  34  35
ENDBRANCH  19  34
BRANCH  20  40
HETATM   40  O   UNL     1      -8.431  13.189  66.550  1.00  0.00     0.042 OA 
BRANCH  40  41
HETATM   41  C   UNL     1      -8.074  13.462  67.910  1.00  0.00    -0.162 C  
BRANCH  41  42
HETATM   42  C   UNL     1      -7.149  14.680  67.971  1.00  0.00    -0.138 C  
HETATM   43  C   UNL     1      -7.870  15.982  67.687  1.00  0.00    -0.161 C  
HETATM   44  O   UNL     1      -6.562  14.765  69.273  1.00  0.00    -0.109 OA 
HETATM   45  H   UNL     1      -5.988  15.521  69.311  1.00  0.00     0.000 HD 
ENDBRANCH  41  42
ENDBRANCH  40  41
ENDBRANCH  20  40
ENDBRANCH  14  15
ENDBRANCH  10  14
BRANCH  11  46
HETATM   46  O   UNL     1      -8.797   7.969  63.592  1.00  0.00     0.357 OA 
BRANCH  46  47
HETATM   47  C   UNL     1      -7.741   7.490  62.752  1.00  0.00    -0.123 C  
BRANCH  47  48
HETATM   48  C   UNL     1      -6.326   7.623  63.347  1.00  0.00    -0.055 C  
HETATM   49  C   UNL     1      -5.248   7.248  62.345  1.00  0.00    -0.037 C  
HETATM   50  O   UNL     1      -6.023   8.971  63.732  1.00  0.00    -0.075 OA 
HETATM   51  H   UNL     1      -5.151   9.053  64.099  1.00  0.00     0.000 HD 
ENDBRANCH  47  48
ENDBRANCH  46  47
ENDBRANCH  11  46
BRANCH  12  52
HETATM   52  O   UNL     1      -6.788   6.594  65.216  1.00  0.00    -0.052 OA 
BRANCH  52  53
HETATM   53  C   UNL     1      -5.637   6.486  66.060  1.00  0.00    -0.017 C  
BRANCH  53  54
HETATM   54  C   UNL     1      -5.486   7.710  66.982  1.00  0.00    -0.031 C  
HETATM   55  O   UNL     1      -6.411   7.632  68.069  1.00  0.00    -0.046 OA 
HETATM   56  C   UNL     1      -5.683   9.049  66.291  1.00  0.00    -0.053 C  
HETATM   57  H   UNL     1      -6.318   8.387  68.638  1.00  0.00     0.000 HD 
ENDBRANCH  53  54
ENDBRANCH  52  53
ENDBRANCH  12  52
BRANCH  13  58
HETATM   58  O   UNL     1      -9.677   5.713  65.073  1.00  0.00     0.389 OA 
BRANCH  58  59
HETATM   59  C   UNL     1     -10.009   4.338  65.307  1.00  0.00    -0.219 C  
BRANCH  59  60
HETATM   60  C   UNL     1      -9.062   3.419  64.510  1.00  0.00    -0.130 C  
HETATM   61  O   UNL     1      -7.722   3.910  64.630  1.00  0.00    -0.079 OA 
HETATM   62  H   UNL     1      -7.138   3.344  64.139  1.00  0.00     0.000 HD 
HETATM   63  C   UNL     1      -9.415   3.339  63.041  1.00  0.00    -0.095 C  
ENDBRANCH  59  60
ENDBRANCH  58  59
ENDBRANCH  13  58
ENDBRANCH   7   8
ENDBRANCH   6   7
ENDBRANCH   5   6
ENDBRANCH   2   5
TORSDOF 28
ENDMDL
MODEL       50
REMARK 921   NORMALIZED FREE ENERGY PREDICTED BY IDOCK:    3.62 KCAL/MOL
REMARK 922        TOTAL FREE ENERGY PREDICTED BY IDOCK:    3.86 KCAL/MOL
REMARK 923 INTER-LIGAND FREE ENERGY PREDICTED BY IDOCK:   -1.55 KCAL/MOL
REMARK 924 INTRA-LIGAND FREE ENERGY PREDICTED BY IDOCK:    5.41 KCAL/MOL
REMARK 927      BINDING AFFINITY PREDICTED BY RF-SCORE:    0.00 PKD
ROOT
HETATM    1  C   UNL     1      -8.355   9.640  73.824  1.00  0.00     3.929 C  
HETATM    2  C   UNL     1      -9.081   8.751  72.829  1.00  0.00     0.199 C  
HETATM    3  O   UNL     1      -9.678   7.665  73.538  1.00  0.00    -0.281 OA 
HETATM    4  H   UNL     1     -10.132   7.109  72.916  1.00  0.00     0.000 HD 
ENDROOT
BRANCH   2   5
HETATM    5  C   UNL     1     -10.148   9.509  72.024  1.00  0.00     0.905 C  
BRANCH   5   6
HETATM    6  O   UNL     1     -11.057   8.601  71.377  1.00  0.00    -0.241 OA 
BRANCH   6   7
HETATM    7  C   UNL     1     -10.596   8.253  70.060  1.00  0.00    -0.235 C  
BRANCH   7   8
HETATM    8  C   UNL     1      -9.707   9.376  69.469  1.00  0.00    -0.183 C  
HETATM    9  O   UNL     1      -8.625   8.850  68.664  1.00  0.00    -0.130 OA 
HETATM   10  C   UNL     1      -9.012   8.196  67.464  1.00  0.00    -0.137 C  
HETATM   11  C   UNL     1      -9.792   9.204  66.554  1.00  0.00    -0.264 C  
HETATM   12  C   UNL     1     -10.998   9.795  67.340  1.00  0.00    -0.106 C  
HETATM   13  C   UNL     1     -10.510  10.442  68.667  1.00  0.00    -0.196 C  
BRANCH  10  14
HETATM   14  O   UNL     1      -7.890   7.626  66.743  1.00  0.00    -0.103 OA 
BRANCH  14  15
HETATM   15  C   UNL     1      -7.802   6.181  66.666  1.00  0.00    -0.104 C  
HETATM   16  C   UNL     1      -6.565   5.674  67.488  1.00  0.00    -0.053 C  
HETATM   17  C   UNL     1      -7.788   5.596  69.526  1.00  0.00    -0.092 C  
HETATM   18  O   UNL     1      -6.683   6.184  68.834  1.00  0.00    -0.055 OA 
HETATM   19  C   UNL     1      -9.133   5.879  68.797  1.00  0.00    -0.116 C  
HETATM   20  C   UNL     1      -9.033   5.448  67.296  1.00  0.00    -0.111 C  
BRANCH  16  21
HETATM   21  C   UNL     1      -5.153   6.003  66.962  1.00  0.00    -0.005 C  
BRANCH  21  22
HETATM   22  O   UNL     1      -5.169   5.889  65.511  1.00  0.00    -0.009 OA 
BRANCH  22  23
HETATM   23  C   UNL     1      -5.850   4.720  65.045  1.00  0.00    -0.014 C  
BRANCH  23  24
HETATM   24  C   UNL     1      -6.680   4.983  63.768  1.00  0.00    -0.042 C  
HETATM   25  H   UNL     1      -6.710   4.276  61.947  1.00  0.00     0.000 HD 
HETATM   26  C   UNL     1      -6.623   6.420  63.261  1.00  0.00    -0.036 C  
HETATM   27  O   UNL     1      -6.200   4.115  62.732  1.00  0.00    -0.017 OA 
ENDBRANCH  23  24
ENDBRANCH  22  23
ENDBRANCH  21  22
ENDBRANCH  16  21
BRANCH  17  28
HETATM   28  O   UNL     1      -7.601   4.191  69.724  1.00  0.00    -0.052 OA 
BRANCH  28  29
HETATM   29  C   UNL     1      -6.273   3.837  70.111  1.00  0.00    -0.027 C  
BRANCH  29  30
HETATM   30  C   UNL     1      -6.215   3.050  71.427  1.00  0.00    -0.015 C  
HETATM   31  O   UNL     1      -6.985   1.853  71.326  1.00  0.00    -0.030 OA 
HETATM   32  C   UNL     1      -6.724   3.877  72.600  1.00  0.00    -0.041 C  
HETATM   33  H   UNL     1      -6.950   1.366  72.141  1.00  0.00     0.000 HD 
ENDBRANCH  29  30
ENDBRANCH  28  29
ENDBRANCH  17  28
BRANCH  19  34
HETATM   34  O   UNL     1     -10.292   5.274  69.398  1.00  0.00    -0.247 OA 
BRANCH  34  35
HETATM   35  C   UNL     1     -10.860   5.981  70.501  1.00  0.00    -0.314 C  
BRANCH  35  36
HETATM   36  C   UNL     1     -10.860   5.058  71.731  1.00  0.00    -0.024 C  
HETATM   37  H   UNL     1     -10.475   5.227  73.655  1.00  0.00     0.000 HD 
HETATM   38  C   UNL     1      -9.914   3.877  71.575  1.00  0.00    -0.209 C  
HETATM   39  O   UNL     1     -10.475   5.797  72.895  1.00  0.00    -0.193 OA 
ENDBRANCH  35  36
ENDBRANCH  34  35
ENDBRANCH  19  34
BRANCH  20  40
HETATM   40  O   UNL     1      -8.841   4.028  67.080  1.00  0.00    -0.112 OA 
BRANCH  40  41
HETATM   41  C   UNL     1      -9.977   3.376  66.500  1.00  0.00     0.409 C  
BRANCH  41  42
HETATM   42  C   UNL     1     -10.490   4.187  65.306  1.00  0.00    -0.136 C  
HETATM   43  C   UNL     1     -11.032   3.314  64.192  1.00  0.00     0.153 C  
HETATM   44  O   UNL     1     -11.533   5.063  65.741  1.00  0.00    -0.754 OA 
HETATM   45  H   UNL     1     -11.851   5.565  64.999  1.00  0.00     0.000 HD 
ENDBRANCH  41  42
ENDBRANCH  40  41
ENDBRANCH  20  40
ENDBRANCH  14  15
ENDBRANCH  10  14
BRANCH  11  46
HETATM   46  O   UNL     1      -9.004  10.293  66.033  1.00  0.00    -0.146 OA 
BRANCH  46  47
HETATM   47  C   UNL     1      -7.897   9.974  65.184  1.00  0.00    -0.136 C  
BRANCH  47  48
HETATM   48  C   UNL     1      -6.595  10.736  65.500  1.00  0.00     0.006 C  
HETATM   49  C   UNL     1      -6.081  10.435  66.897  1.00  0.00    -0.061 C  
HETATM   50  O   UNL     1      -5.523  10.366  64.621  1.00  0.00    -0.113 OA 
HETATM   51  H   UNL     1      -4.721  10.836  64.816  1.00  0.00     0.000 HD 
ENDBRANCH  47  48
ENDBRANCH  46  47
ENDBRANCH  11  46
BRANCH  12  52
HETATM   52  O   UNL     1     -11.839  10.729  66.614  1.00  0.00     0.187 OA 
BRANCH  52  53
HETATM   53  C   UNL     1     -11.254  12.012  66.368  1.00  0.00    -0.337 C  
BRANCH  53  54
HETATM   54  C   UNL     1     -12.322  13.114  66.243  1.00  0.00    -0.276 C  
HETATM   55  O   UNL     1     -12.996  13.015  64.987  1.00  0.00    -0.723 OA 
HETATM   56  C   UNL     1     -11.786  14.530  66.379  1.00  0.00    -0.372 C  
HETATM   57  H   UNL     1     -13.655  13.695  64.910  1.00  0.00     0.000 HD 
ENDBRANCH  53  54
ENDBRANCH  52  53
ENDBRANCH  12  52
BRANCH  13  58
HETATM   58  O   UNL     1      -9.622  11.573  68.490  1.00  0.00    -0.184 OA 
BRANCH  58  59
HETATM   59  C   UNL     1      -9.940  12.734  69.270  1.00  0.00     0.594 C  
BRANCH  59  60
HETATM   60  C   UNL     1     -11.467  12.864  69.434  1.00  0.00    -0.260 C  
HETATM   61  O   UNL     1     -11.783  14.206  69.822  1.00  0.00    -0.276 OA 
HETATM   62  H   UNL     1     -12.724  14.286  69.924  1.00  0.00     0.000 HD 
HETATM   63  C   UNL     1     -12.032  11.918  70.471  1.00  0.00    -0.360 C  
ENDBRANCH  59  60
ENDBRANCH  58  59
ENDBRANCH  13  58
ENDBRANCH   7   8
ENDBRANCH   6   7
ENDBRANCH   5   6
ENDBRANCH   2   5
TORSDOF 28
ENDMDL
MODEL       51
REMARK 921   NORMALIZED FREE ENERGY PREDICTED BY IDOCK:    4.01 KCAL/MOL
REMARK 922        TOTAL FREE ENERGY PREDICTED BY IDOCK:    4.87 KCAL/MOL
REMARK 923 INTER-LIGAND FREE ENERGY PREDICTED BY IDOCK:   -2.19 KCAL/MOL
REMARK 924 INTRA-LIGAND FREE ENERGY PREDICTED BY IDOCK:    7.06 KCAL/MOL
REMARK 927      BINDING AFFINITY PREDICTED BY RF-SCORE:    0.00 PKD
ROOT
HETATM    1  C   UNL     1      -9.041  18.166  66.321  1.00  0.00    -0.199 C  
HETATM    2  C   UNL     1      -8.681  16.844  66.978  1.00  0.00    -0.209 C  
HETATM    3  O   UNL     1      -8.511  15.858  65.958  1.00  0.00    -0.311 OA 
HETATM    4  H   UNL     1      -8.286  15.032  66.369  1.00  0.00     0.000 HD 
ENDROOT
BRANCH   2   5
HETATM    5  C   UNL     1      -7.414  16.936  67.843  1.00  0.00    -0.169 C  
BRANCH   5   6
HETATM    6  O   UNL     1      -7.739  16.981  69.243  1.00  0.00    -0.174 OA 
BRANCH   6   7
HETATM    7  C   UNL     1      -8.306  15.736  69.686  1.00  0.00    -0.013 C  
BRANCH   7   8
HETATM    8  C   UNL     1      -9.316  15.186  68.647  1.00  0.00    -0.199 C  
HETATM    9  O   UNL     1      -9.246  13.745  68.526  1.00  0.00    -0.195 OA 
HETATM   10  C   UNL     1      -9.656  13.010  69.671  1.00  0.00     1.729 C  
HETATM   11  C   UNL     1     -11.147  13.355  69.999  1.00  0.00     0.329 C  
HETATM   12  C   UNL     1     -11.304  14.893  70.177  1.00  0.00    -0.260 C  
HETATM   13  C   UNL     1     -10.782  15.636  68.914  1.00  0.00    -0.238 C  
BRANCH  10  14
HETATM   14  O   UNL     1      -9.490  11.578  69.513  1.00  0.00     0.402 OA 
BRANCH  14  15
HETATM   15  C   UNL     1      -8.758  11.109  68.353  1.00  0.00    -0.157 C  
HETATM   16  C   UNL     1      -7.456  10.358  68.807  1.00  0.00    -0.093 C  
HETATM   17  C   UNL     1      -8.588   8.282  69.064  1.00  0.00    -0.135 C  
HETATM   18  O   UNL     1      -7.841   9.309  69.722  1.00  0.00    -0.081 OA 
HETATM   19  C   UNL     1      -9.887   8.845  68.422  1.00  0.00    -0.174 C  
HETATM   20  C   UNL     1      -9.550  10.063  67.499  1.00  0.00    -0.153 C  
BRANCH  16  21
HETATM   21  C   UNL     1      -6.325  11.183  69.454  1.00  0.00    -0.088 C  
BRANCH  21  22
HETATM   22  O   UNL     1      -6.497  12.576  69.069  1.00  0.00    -0.085 OA 
BRANCH  22  23
HETATM   23  C   UNL     1      -5.858  12.901  67.831  1.00  0.00    -0.123 C  
BRANCH  23  24
HETATM   24  C   UNL     1      -5.275  11.661  67.116  1.00  0.00    -0.096 C  
HETATM   25  H   UNL     1      -5.745  10.600  65.544  1.00  0.00     0.000 HD 
HETATM   26  C   UNL     1      -5.181  10.414  67.989  1.00  0.00    -0.034 C  
HETATM   27  O   UNL     1      -6.103  11.362  65.983  1.00  0.00    -0.055 OA 
ENDBRANCH  23  24
ENDBRANCH  22  23
ENDBRANCH  21  22
ENDBRANCH  16  21
BRANCH  17  28
HETATM   28  O   UNL     1      -7.795   7.593  68.091  1.00  0.00    -0.117 OA 
BRANCH  28  29
HETATM   29  C   UNL     1      -7.311   6.326  68.538  1.00  0.00    -0.086 C  
BRANCH  29  30
HETATM   30  C   UNL     1      -5.812   6.124  68.275  1.00  0.00    -0.013 C  
HETATM   31  O   UNL     1      -5.268   7.255  67.597  1.00  0.00    -0.018 OA 
HETATM   32  C   UNL     1      -5.550   4.871  67.452  1.00  0.00    -0.013 C  
HETATM   33  H   UNL     1      -4.341   7.130  67.434  1.00  0.00     0.000 HD 
ENDBRANCH  29  30
ENDBRANCH  28  29
ENDBRANCH  17  28
BRANCH  19  34
HETATM   34  O   UNL     1     -10.672   7.886  67.689  1.00  0.00    -0.221 OA 
BRANCH  34  35
HETATM   35  C   UNL     1     -10.420   6.514  67.997  1.00  0.00    -0.216 C  
BRANCH  35  36
HETATM   36  C   UNL     1     -11.083   6.182  69.345  1.00  0.00    -0.409 C  
HETATM   37  H   UNL     1     -12.816   6.518  70.216  1.00  0.00     0.000 HD 
HETATM   38  C   UNL     1     -10.303   6.732  70.530  1.00  0.00    -0.226 C  
HETATM   39  O   UNL     1     -12.407   6.723  69.384  1.00  0.00     0.593 OA 
ENDBRANCH  35  36
ENDBRANCH  34  35
ENDBRANCH  19  34
BRANCH  20  40
HETATM   40  O   UNL     1      -8.731   9.746  66.346  1.00  0.00    -0.129 OA 
BRANCH  40  41
HETATM   41  C   UNL     1      -9.459   9.724  65.113  1.00  0.00    -0.273 C  
BRANCH  41  42
HETATM   42  C   UNL     1      -8.581   9.147  63.999  1.00  0.00    -0.166 C  
HETATM   43  C   UNL     1      -8.432  10.088  62.820  1.00  0.00    -0.178 C  
HETATM   44  O   UNL     1      -7.278   8.868  64.520  1.00  0.00    -0.094 OA 
HETATM   45  H   UNL     1      -6.733   8.509  63.828  1.00  0.00     0.000 HD 
ENDBRANCH  41  42
ENDBRANCH  40  41
ENDBRANCH  20  40
ENDBRANCH  14  15
ENDBRANCH  10  14
BRANCH  11  46
HETATM   46  O   UNL     1     -12.108  12.905  69.023  1.00  0.00    -0.267 OA 
BRANCH  46  47
HETATM   47  C   UNL     1     -12.972  11.822  69.382  1.00  0.00     1.291 C  
BRANCH  47  48
HETATM   48  C   UNL     1     -12.459  10.934  70.532  1.00  0.00    -0.351 C  
HETATM   49  C   UNL     1     -13.596  10.320  71.330  1.00  0.00    -0.176 C  
HETATM   50  O   UNL     1     -11.692   9.819  70.058  1.00  0.00    -0.402 OA 
HETATM   51  H   UNL     1     -11.375   9.272  70.767  1.00  0.00     0.000 HD 
ENDBRANCH  47  48
ENDBRANCH  46  47
ENDBRANCH  11  46
BRANCH  12  52
HETATM   52  O   UNL     1     -12.633  15.366  70.516  1.00  0.00    -0.394 OA 
BRANCH  52  53
HETATM   53  C   UNL     1     -13.215  14.770  71.680  1.00  0.00    -0.349 C  
BRANCH  53  54
HETATM   54  C   UNL     1     -12.641  15.367  72.978  1.00  0.00    -0.434 C  
HETATM   55  O   UNL     1     -12.267  16.731  72.775  1.00  0.00    -0.348 OA 
HETATM   56  C   UNL     1     -11.436  14.626  73.534  1.00  0.00     0.563 C  
HETATM   57  H   UNL     1     -11.912  17.100  73.576  1.00  0.00     0.000 HD 
ENDBRANCH  53  54
ENDBRANCH  52  53
ENDBRANCH  12  52
BRANCH  13  58
HETATM   58  O   UNL     1     -11.524  15.349  67.703  1.00  0.00    -0.326 OA 
BRANCH  58  59
HETATM   59  C   UNL     1     -11.414  16.332  66.665  1.00  0.00     0.578 C  
BRANCH  59  60
HETATM   60  C   UNL     1     -11.968  15.772  65.340  1.00  0.00     0.667 C  
HETATM   61  O   UNL     1     -12.234  14.374  65.498  1.00  0.00    -0.382 OA 
HETATM   62  H   UNL     1     -12.575  14.029  64.681  1.00  0.00     0.000 HD 
HETATM   63  C   UNL     1     -11.015  15.952  64.180  1.00  0.00     0.486 C  
ENDBRANCH  59  60
ENDBRANCH  58  59
ENDBRANCH  13  58
ENDBRANCH   7   8
ENDBRANCH   6   7
ENDBRANCH   5   6
ENDBRANCH   2   5
TORSDOF 28
ENDMDL
MODEL       52
REMARK 921   NORMALIZED FREE ENERGY PREDICTED BY IDOCK:    4.19 KCAL/MOL
REMARK 922        TOTAL FREE ENERGY PREDICTED BY IDOCK:    5.37 KCAL/MOL
REMARK 923 INTER-LIGAND FREE ENERGY PREDICTED BY IDOCK:   -2.49 KCAL/MOL
REMARK 924 INTRA-LIGAND FREE ENERGY PREDICTED BY IDOCK:    7.86 KCAL/MOL
REMARK 927      BINDING AFFINITY PREDICTED BY RF-SCORE:    0.00 PKD
ROOT
HETATM    1  C   UNL     1      -5.125  12.415  73.434  1.00  0.00     0.388 C  
HETATM    2  C   UNL     1      -5.919  13.178  72.387  1.00  0.00     1.417 C  
HETATM    3  O   UNL     1      -5.573  14.561  72.470  1.00  0.00    -0.075 OA 
HETATM    4  H   UNL     1      -6.069  15.038  71.815  1.00  0.00     0.000 HD 
ENDROOT
BRANCH   2   5
HETATM    5  C   UNL     1      -5.678  12.656  70.962  1.00  0.00     0.001 C  
BRANCH   5   6
HETATM    6  O   UNL     1      -6.917  12.321  70.312  1.00  0.00     0.425 OA 
BRANCH   6   7
HETATM    7  C   UNL     1      -6.818  11.067  69.615  1.00  0.00    -0.129 C  
BRANCH   7   8
HETATM    8  C   UNL     1      -7.131  11.243  68.108  1.00  0.00    -0.071 C  
HETATM    9  O   UNL     1      -7.069   9.989  67.387  1.00  0.00    -0.083 OA 
HETATM   10  C   UNL     1      -8.063   9.033  67.728  1.00  0.00    -0.109 C  
HETATM   11  C   UNL     1      -9.479   9.638  67.445  1.00  0.00    -0.142 C  
HETATM   12  C   UNL     1      -9.640  10.981  68.214  1.00  0.00    -0.171 C  
HETATM   13  C   UNL     1      -8.488  11.956  67.839  1.00  0.00    -0.154 C  
BRANCH  10  14
HETATM   14  O   UNL     1      -7.901   7.774  67.027  1.00  0.00    -0.108 OA 
BRANCH  14  15
HETATM   15  C   UNL     1      -7.703   6.579  67.824  1.00  0.00    -0.107 C  
HETATM   16  C   UNL     1      -6.195   6.457  68.242  1.00  0.00    -0.036 C  
HETATM   17  C   UNL     1      -6.484   7.822  70.168  1.00  0.00    -0.034 C  
HETATM   18  O   UNL     1      -5.815   7.679  68.912  1.00  0.00    -0.026 OA 
HETATM   19  C   UNL     1      -8.029   7.843  69.993  1.00  0.00    -0.111 C  
HETATM   20  C   UNL     1      -8.495   6.594  69.174  1.00  0.00    -0.124 C  
BRANCH  16  21
HETATM   21  C   UNL     1      -5.154   6.157  67.144  1.00  0.00    -0.005 C  
BRANCH  21  22
HETATM   22  O   UNL     1      -5.857   6.002  65.879  1.00  0.00    -0.022 OA 
BRANCH  22  23
HETATM   23  C   UNL     1      -6.473   4.719  65.730  1.00  0.00    -0.040 C  
BRANCH  23  24
HETATM   24  C   UNL     1      -6.336   4.155  64.298  1.00  0.00    -0.030 C  
HETATM   25  H   UNL     1      -5.156   4.470  62.774  1.00  0.00     0.000 HD 
HETATM   26  C   UNL     1      -7.579   4.322  63.431  1.00  0.00    -0.059 C  
HETATM   27  O   UNL     1      -5.239   4.818  63.654  1.00  0.00    -0.009 OA 
ENDBRANCH  23  24
ENDBRANCH  22  23
ENDBRANCH  21  22
ENDBRANCH  16  21
BRANCH  17  28
HETATM   28  O   UNL     1      -6.089   6.805  71.095  1.00  0.00    -0.035 OA 
BRANCH  28  29
HETATM   29  C   UNL     1      -6.752   6.889  72.357  1.00  0.00    -0.061 C  
BRANCH  29  30
HETATM   30  C   UNL     1      -6.682   8.287  72.985  1.00  0.00    -0.099 C  
HETATM   31  O   UNL     1      -5.423   8.897  72.707  1.00  0.00    -0.067 OA 
HETATM   32  C   UNL     1      -6.894   8.238  74.492  1.00  0.00    -0.191 C  
HETATM   33  H   UNL     1      -5.379   9.762  73.097  1.00  0.00     0.000 HD 
ENDBRANCH  29  30
ENDBRANCH  28  29
ENDBRANCH  17  28
BRANCH  19  34
HETATM   34  O   UNL     1      -8.782   7.927  71.217  1.00  0.00    -0.127 OA 
BRANCH  34  35
HETATM   35  C   UNL     1     -10.202   7.960  71.070  1.00  0.00    -0.197 C  
BRANCH  35  36
HETATM   36  C   UNL     1     -10.844   7.717  72.447  1.00  0.00    -0.289 C  
HETATM   37  H   UNL     1     -10.306   7.881  74.333  1.00  0.00     0.000 HD 
HETATM   38  C   UNL     1     -11.303   6.278  72.632  1.00  0.00    -0.283 C  
HETATM   39  O   UNL     1      -9.909   8.031  73.484  1.00  0.00    -0.250 OA 
ENDBRANCH  35  36
ENDBRANCH  34  35
ENDBRANCH  19  34
BRANCH  20  40
HETATM   40  O   UNL     1      -8.261   5.318  69.819  1.00  0.00    -0.095 OA 
BRANCH  40  41
HETATM   41  C   UNL     1      -9.462   4.649  70.223  1.00  0.00    -0.170 C  
BRANCH  41  42
HETATM   42  C   UNL     1      -9.309   3.139  70.024  1.00  0.00    -0.156 C  
HETATM   43  C   UNL     1      -8.717   2.779  68.676  1.00  0.00    -0.134 C  
HETATM   44  O   UNL     1      -8.458   2.610  71.045  1.00  0.00    -0.056 OA 
HETATM   45  H   UNL     1      -8.363   1.672  70.922  1.00  0.00     0.000 HD 
ENDBRANCH  41  42
ENDBRANCH  40  41
ENDBRANCH  20  40
ENDBRANCH  14  15
ENDBRANCH  10  14
BRANCH  11  46
HETATM   46  O   UNL     1      -9.781   9.866  66.054  1.00  0.00    -0.209 OA 
BRANCH  46  47
HETATM   47  C   UNL     1      -8.862  10.653  65.289  1.00  0.00    -0.189 C  
BRANCH  47  48
HETATM   48  C   UNL     1      -8.547  10.103  63.884  1.00  0.00    -0.193 C  
HETATM   49  C   UNL     1      -8.037  11.186  62.949  1.00  0.00     0.144 C  
HETATM   50  O   UNL     1      -7.508   9.114  63.909  1.00  0.00    -0.105 OA 
HETATM   51  H   UNL     1      -7.314   8.775  63.043  1.00  0.00     0.000 HD 
ENDBRANCH  47  48
ENDBRANCH  46  47
ENDBRANCH  11  46
BRANCH  12  52
HETATM   52  O   UNL     1     -10.920  11.650  68.074  1.00  0.00    -0.199 OA 
BRANCH  52  53
HETATM   53  C   UNL     1     -11.402  11.770  66.732  1.00  0.00    -0.320 C  
BRANCH  53  54
HETATM   54  C   UNL     1     -12.028  13.152  66.468  1.00  0.00    -0.398 C  
HETATM   55  O   UNL     1     -13.260  13.284  67.179  1.00  0.00     0.974 OA 
HETATM   56  C   UNL     1     -12.295  13.454  65.003  1.00  0.00    -0.481 C  
HETATM   57  H   UNL     1     -13.646  14.137  67.017  1.00  0.00     0.000 HD 
ENDBRANCH  53  54
ENDBRANCH  52  53
ENDBRANCH  12  52
BRANCH  13  58
HETATM   58  O   UNL     1      -8.471  12.353  66.446  1.00  0.00    -0.027 OA 
BRANCH  58  59
HETATM   59  C   UNL     1      -8.747  13.738  66.195  1.00  0.00     0.578 C  
BRANCH  59  60
HETATM   60  C   UNL     1      -7.902  14.626  67.130  1.00  0.00    -0.124 C  
HETATM   61  O   UNL     1      -7.787  13.987  68.406  1.00  0.00    -0.130 OA 
HETATM   62  H   UNL     1      -7.267  14.534  68.982  1.00  0.00     0.000 HD 
HETATM   63  C   UNL     1      -8.498  16.002  67.334  1.00  0.00    -0.187 C  
ENDBRANCH  59  60
ENDBRANCH  58  59
ENDBRANCH  13  58
ENDBRANCH   7   8
ENDBRANCH   6   7
ENDBRANCH   5   6
ENDBRANCH   2   5
TORSDOF 28
ENDMDL
MODEL       53
REMARK 921   NORMALIZED FREE ENERGY PREDICTED BY IDOCK:    5.74 KCAL/MOL
REMARK 922        TOTAL FREE ENERGY PREDICTED BY IDOCK:    9.46 KCAL/MOL
REMARK 923 INTER-LIGAND FREE ENERGY PREDICTED BY IDOCK:    1.73 KCAL/MOL
REMARK 924 INTRA-LIGAND FREE ENERGY PREDICTED BY IDOCK:    7.72 KCAL/MOL
REMARK 927      BINDING AFFINITY PREDICTED BY RF-SCORE:    0.00 PKD
ROOT
HETATM    1  C   UNL     1      -8.213   9.376  74.222  1.00  0.00     2.201 C  
HETATM    2  C   UNL     1      -8.952   8.495  73.228  1.00  0.00     0.019 C  
HETATM    3  O   UNL     1      -9.548   7.408  73.938  1.00  0.00    -0.270 OA 
HETATM    4  H   UNL     1     -10.011   6.858  73.317  1.00  0.00     0.000 HD 
ENDROOT
BRANCH   2   5
HETATM    5  C   UNL     1     -10.023   9.262  72.437  1.00  0.00     0.964 C  
BRANCH   5   6
HETATM    6  O   UNL     1     -10.935   8.361  71.784  1.00  0.00    -0.252 OA 
BRANCH   6   7
HETATM    7  C   UNL     1     -10.474   8.019  70.465  1.00  0.00    -0.214 C  
BRANCH   7   8
HETATM    8  C   UNL     1      -9.499   9.095  69.923  1.00  0.00    -0.186 C  
HETATM    9  O   UNL     1      -8.455   8.520  69.101  1.00  0.00    -0.122 OA 
HETATM   10  C   UNL     1      -8.882   7.945  67.874  1.00  0.00    -0.123 C  
HETATM   11  C   UNL     1      -9.578   9.043  67.003  1.00  0.00    -0.176 C  
HETATM   12  C   UNL     1     -10.741   9.693  67.807  1.00  0.00    -0.257 C  
HETATM   13  C   UNL     1     -10.214  10.248  69.161  1.00  0.00    -0.218 C  
BRANCH  10  14
HETATM   14  O   UNL     1      -7.801   7.320  67.136  1.00  0.00    -0.106 OA 
BRANCH  14  15
HETATM   15  C   UNL     1      -7.806   5.875  67.027  1.00  0.00    -0.102 C  
HETATM   16  C   UNL     1      -6.797   5.257  68.057  1.00  0.00    -0.060 C  
HETATM   17  C   UNL     1      -8.401   5.234  69.812  1.00  0.00    -0.098 C  
HETATM   18  O   UNL     1      -7.141   5.747  69.372  1.00  0.00    -0.061 OA 
HETATM   19  C   UNL     1      -9.551   5.636  68.844  1.00  0.00    -0.131 C  
HETATM   20  C   UNL     1      -9.188   5.229  67.378  1.00  0.00    -0.113 C  
BRANCH  16  21
HETATM   21  C   UNL     1      -5.288   5.484  67.830  1.00  0.00    -0.004 C  
BRANCH  21  22
HETATM   22  O   UNL     1      -5.129   6.573  66.879  1.00  0.00    -0.008 OA 
BRANCH  22  23
HETATM   23  C   UNL     1      -5.831   7.761  67.259  1.00  0.00    -0.037 C  
BRANCH  23  24
HETATM   24  C   UNL     1      -5.276   9.028  66.571  1.00  0.00    -0.034 C  
HETATM   25  H   UNL     1      -4.798  10.835  67.139  1.00  0.00     0.000 HD 
HETATM   26  C   UNL     1      -6.143   9.563  65.436  1.00  0.00    -0.066 C  
HETATM   27  O   UNL     1      -5.139  10.056  67.562  1.00  0.00    -0.035 OA 
ENDBRANCH  23  24
ENDBRANCH  22  23
ENDBRANCH  21  22
ENDBRANCH  16  21
BRANCH  17  28
HETATM   28  O   UNL     1      -8.360   3.815  69.994  1.00  0.00    -0.055 OA 
BRANCH  28  29
HETATM   29  C   UNL     1      -7.621   3.404  71.145  1.00  0.00    -0.043 C  
BRANCH  29  30
HETATM   30  C   UNL     1      -6.688   2.217  70.872  1.00  0.00    -0.031 C  
HETATM   31  O   UNL     1      -5.436   2.406  71.528  1.00  0.00    -0.007 OA 
HETATM   32  C   UNL     1      -6.451   2.019  69.382  1.00  0.00    -0.029 C  
HETATM   33  H   UNL     1      -4.858   1.672  71.359  1.00  0.00     0.000 HD 
ENDBRANCH  29  30
ENDBRANCH  28  29
ENDBRANCH  17  28
BRANCH  19  34
HETATM   34  O   UNL     1     -10.847   5.113  69.185  1.00  0.00    -0.041 OA 
BRANCH  34  35
HETATM   35  C   UNL     1     -11.495   5.734  70.295  1.00  0.00     0.177 C  
BRANCH  35  36
HETATM   36  C   UNL     1     -11.485   4.755  71.482  1.00  0.00     1.230 C  
HETATM   37  H   UNL     1     -12.490   4.517  73.158  1.00  0.00     0.000 HD 
HETATM   38  C   UNL     1     -10.145   4.722  72.201  1.00  0.00    -0.252 C  
HETATM   39  O   UNL     1     -12.497   5.122  72.426  1.00  0.00     0.420 OA 
ENDBRANCH  35  36
ENDBRANCH  34  35
ENDBRANCH  19  34
BRANCH  20  40
HETATM   40  O   UNL     1      -9.060   3.803  67.154  1.00  0.00    -0.132 OA 
BRANCH  40  41
HETATM   41  C   UNL     1      -9.347   3.406  65.808  1.00  0.00    -0.144 C  
BRANCH  41  42
HETATM   42  C   UNL     1      -8.046   3.054  65.080  1.00  0.00    -0.086 C  
HETATM   43  C   UNL     1      -7.539   1.666  65.417  1.00  0.00    -0.066 C  
HETATM   44  O   UNL     1      -8.259   3.125  63.667  1.00  0.00    -0.084 OA 
HETATM   45  H   UNL     1      -7.451   2.907  63.216  1.00  0.00     0.000 HD 
ENDBRANCH  41  42
ENDBRANCH  40  41
ENDBRANCH  20  40
ENDBRANCH  14  15
ENDBRANCH  10  14
BRANCH  11  46
HETATM   46  O   UNL     1      -8.707  10.090  66.528  1.00  0.00    -0.131 OA 
BRANCH  46  47
HETATM   47  C   UNL     1      -8.985  10.664  65.247  1.00  0.00    -0.190 C  
BRANCH  47  48
HETATM   48  C   UNL     1      -9.168   9.647  64.104  1.00  0.00    -0.162 C  
HETATM   49  C   UNL     1      -8.844  10.247  62.748  1.00  0.00    -0.243 C  
HETATM   50  O   UNL     1      -8.289   8.521  64.233  1.00  0.00    -0.229 OA 
HETATM   51  H   UNL     1      -8.402   7.893  63.529  1.00  0.00     0.000 HD 
ENDBRANCH  47  48
ENDBRANCH  46  47
ENDBRANCH  11  46
BRANCH  12  52
HETATM   52  O   UNL     1     -11.504  10.716  67.116  1.00  0.00    -0.359 OA 
BRANCH  52  53
HETATM   53  C   UNL     1     -11.606  11.968  67.800  1.00  0.00    -0.330 C  
BRANCH  53  54
HETATM   54  C   UNL     1     -11.951  13.120  66.839  1.00  0.00    -0.362 C  
HETATM   55  O   UNL     1     -10.838  13.414  65.993  1.00  0.00    -0.273 OA 
HETATM   56  C   UNL     1     -12.373  14.409  67.525  1.00  0.00    -0.044 C  
HETATM   57  H   UNL     1     -11.051  14.125  65.400  1.00  0.00     0.000 HD 
ENDBRANCH  53  54
ENDBRANCH  52  53
ENDBRANCH  12  52
BRANCH  13  58
HETATM   58  O   UNL     1      -9.243  11.315  69.032  1.00  0.00    -0.111 OA 
BRANCH  58  59
HETATM   59  C   UNL     1      -9.528  12.503  69.783  1.00  0.00     2.308 C  
BRANCH  59  60
HETATM   60  C   UNL     1      -9.023  13.747  69.026  1.00  0.00     0.283 C  
HETATM   61  O   UNL     1      -8.547  13.347  67.735  1.00  0.00    -0.168 OA 
HETATM   62  H   UNL     1      -8.235  14.114  67.268  1.00  0.00     0.000 HD 
HETATM   63  C   UNL     1      -7.904  14.464  69.749  1.00  0.00     0.375 C  
ENDBRANCH  59  60
ENDBRANCH  58  59
ENDBRANCH  13  58
ENDBRANCH   7   8
ENDBRANCH   6   7
ENDBRANCH   5   6
ENDBRANCH   2   5
TORSDOF 28
ENDMDL
MODEL       54
REMARK 921   NORMALIZED FREE ENERGY PREDICTED BY IDOCK:    7.53 KCAL/MOL
REMARK 922        TOTAL FREE ENERGY PREDICTED BY IDOCK:   14.17 KCAL/MOL
REMARK 923 INTER-LIGAND FREE ENERGY PREDICTED BY IDOCK:   -2.75 KCAL/MOL
REMARK 924 INTRA-LIGAND FREE ENERGY PREDICTED BY IDOCK:   16.92 KCAL/MOL
REMARK 927      BINDING AFFINITY PREDICTED BY RF-SCORE:    0.00 PKD
ROOT
HETATM    1  C   UNL     1     -11.202  11.227  64.271  1.00  0.00    -0.214 C  
HETATM    2  C   UNL     1      -9.894  10.944  64.992  1.00  0.00    -0.281 C  
HETATM    3  O   UNL     1      -9.076  10.131  64.150  1.00  0.00    -0.208 OA 
HETATM    4  H   UNL     1      -8.259   9.954  64.599  1.00  0.00     0.000 HD 
ENDROOT
BRANCH   2   5
HETATM    5  C   UNL     1      -9.142  12.226  65.382  1.00  0.00     0.363 C  
BRANCH   5   6
HETATM    6  O   UNL     1     -10.024  13.363  65.405  1.00  0.00    -0.269 OA 
BRANCH   6   7
HETATM    7  C   UNL     1      -9.298  14.588  65.208  1.00  0.00     0.614 C  
BRANCH   7   8
HETATM    8  C   UNL     1      -9.225  15.407  66.522  1.00  0.00    -0.292 C  
HETATM    9  O   UNL     1      -8.147  14.967  67.381  1.00  0.00    -0.167 OA 
HETATM   10  C   UNL     1      -6.834  15.190  66.887  1.00  0.00     0.621 C  
HETATM   11  C   UNL     1      -6.622  16.725  66.661  1.00  0.00    -0.181 C  
HETATM   12  C   UNL     1      -7.729  17.275  65.715  1.00  0.00     0.213 C  
HETATM   13  C   UNL     1      -9.137  16.944  66.287  1.00  0.00    -0.267 C  
BRANCH  10  14
HETATM   14  O   UNL     1      -5.803  14.659  67.757  1.00  0.00    -0.221 OA 
BRANCH  14  15
HETATM   15  C   UNL     1      -6.227  13.968  68.960  1.00  0.00    -0.092 C  
HETATM   16  C   UNL     1      -6.809  14.997  69.992  1.00  0.00    -0.126 C  
HETATM   17  C   UNL     1      -8.989  14.908  69.047  1.00  0.00    -0.174 C  
HETATM   18  O   UNL     1      -7.863  15.739  69.339  1.00  0.00    -0.222 OA 
HETATM   19  C   UNL     1      -8.599  13.726  68.114  1.00  0.00    -0.175 C  
HETATM   20  C   UNL     1      -7.384  12.944  68.714  1.00  0.00    -0.066 C  
BRANCH  16  21
HETATM   21  C   UNL     1      -5.840  16.000  70.650  1.00  0.00     0.085 C  
BRANCH  21  22
HETATM   22  O   UNL     1      -5.195  15.340  71.776  1.00  0.00    -0.116 OA 
BRANCH  22  23
HETATM   23  C   UNL     1      -5.449  13.933  71.825  1.00  0.00    -0.225 C  
BRANCH  23  24
HETATM   24  C   UNL     1      -5.870  13.452  73.232  1.00  0.00     0.857 C  
HETATM   25  H   UNL     1      -5.762  14.165  75.048  1.00  0.00     0.000 HD 
HETATM   26  C   UNL     1      -5.243  12.130  73.662  1.00  0.00     0.607 C  
HETATM   27  O   UNL     1      -5.503  14.461  74.183  1.00  0.00    -0.210 OA 
ENDBRANCH  23  24
ENDBRANCH  22  23
ENDBRANCH  21  22
ENDBRANCH  16  21
BRANCH  17  28
HETATM   28  O   UNL     1      -9.617  14.430  70.241  1.00  0.00     0.934 OA 
BRANCH  28  29
HETATM   29  C   UNL     1     -11.044  14.421  70.176  1.00  0.00    -0.024 C  
BRANCH  29  30
HETATM   30  C   UNL     1     -11.703  15.314  71.236  1.00  0.00    -0.372 C  
HETATM   31  O   UNL     1     -10.819  15.516  72.337  1.00  0.00     0.087 OA 
HETATM   32  C   UNL     1     -13.008  14.715  71.742  1.00  0.00    -0.410 C  
HETATM   33  H   UNL     1     -11.227  16.068  72.994  1.00  0.00     0.000 HD 
ENDBRANCH  29  30
ENDBRANCH  28  29
ENDBRANCH  17  28
BRANCH  19  34
HETATM   34  O   UNL     1      -9.665  12.806  67.815  1.00  0.00    -0.195 OA 
BRANCH  34  35
HETATM   35  C   UNL     1      -9.754  11.662  68.664  1.00  0.00    -0.143 C  
BRANCH  35  36
HETATM   36  C   UNL     1     -11.077  10.933  68.371  1.00  0.00    -0.262 C  
HETATM   37  H   UNL     1     -12.996  11.266  68.659  1.00  0.00     0.000 HD 
HETATM   38  C   UNL     1     -11.146   9.563  69.028  1.00  0.00    -0.060 C  
HETATM   39  O   UNL     1     -12.180  11.717  68.840  1.00  0.00    -0.377 OA 
ENDBRANCH  35  36
ENDBRANCH  34  35
ENDBRANCH  19  34
BRANCH  20  40
HETATM   40  O   UNL     1      -7.645  12.286  69.978  1.00  0.00     1.059 OA 
BRANCH  40  41
HETATM   41  C   UNL     1      -7.460  10.866  69.935  1.00  0.00     0.172 C  
BRANCH  41  42
HETATM   42  C   UNL     1      -6.019  10.516  70.316  1.00  0.00    -0.104 C  
HETATM   43  C   UNL     1      -5.858   9.074  70.751  1.00  0.00    -0.039 C  
HETATM   44  O   UNL     1      -5.163  10.746  69.194  1.00  0.00    -0.042 OA 
HETATM   45  H   UNL     1      -4.268  10.530  69.431  1.00  0.00     0.000 HD 
ENDBRANCH  41  42
ENDBRANCH  40  41
ENDBRANCH  20  40
ENDBRANCH  14  15
ENDBRANCH  10  14
BRANCH  11  46
HETATM   46  O   UNL     1      -6.604  17.523  67.862  1.00  0.00    -0.167 OA 
BRANCH  46  47
HETATM   47  C   UNL     1      -5.708  18.638  67.913  1.00  0.00    -0.175 C  
BRANCH  47  48
HETATM   48  C   UNL     1      -6.132  19.770  68.869  1.00  0.00    -0.264 C  
HETATM   49  C   UNL     1      -6.392  21.072  68.132  1.00  0.00    -0.312 C  
HETATM   50  O   UNL     1      -7.361  19.475  69.548  1.00  0.00    -0.290 OA 
HETATM   51  H   UNL     1      -7.622  20.173  70.138  1.00  0.00     0.000 HD 
ENDBRANCH  47  48
ENDBRANCH  46  47
ENDBRANCH  11  46
BRANCH  12  52
HETATM   52  O   UNL     1      -7.647  18.686  65.387  1.00  0.00    -0.433 OA 
BRANCH  52  53
HETATM   53  C   UNL     1      -6.625  19.036  64.449  1.00  0.00     0.739 C  
BRANCH  53  54
HETATM   54  C   UNL     1      -6.357  20.552  64.432  1.00  0.00    -0.291 C  
HETATM   55  O   UNL     1      -7.551  21.265  64.103  1.00  0.00     0.181 OA 
HETATM   56  C   UNL     1      -5.267  20.989  63.468  1.00  0.00    -0.244 C  
HETATM   57  H   UNL     1      -7.385  22.201  64.092  1.00  0.00     0.000 HD 
ENDBRANCH  53  54
ENDBRANCH  52  53
ENDBRANCH  12  52
BRANCH  13  58
HETATM   58  O   UNL     1      -9.426  17.568  67.562  1.00  0.00    -0.250 OA 
BRANCH  58  59
HETATM   59  C   UNL     1     -10.733  18.146  67.682  1.00  0.00    -0.343 C  
BRANCH  59  60
HETATM   60  C   UNL     1     -10.637  19.684  67.690  1.00  0.00    -0.423 C  
HETATM   61  O   UNL     1      -9.885  20.111  66.549  1.00  0.00    -0.416 OA 
HETATM   62  H   UNL     1      -9.826  21.060  66.553  1.00  0.00     0.000 HD 
HETATM   63  C   UNL     1      -9.971  20.227  68.935  1.00  0.00    -0.140 C  
ENDBRANCH  59  60
ENDBRANCH  58  59
ENDBRANCH  13  58
ENDBRANCH   7   8
ENDBRANCH   6   7
ENDBRANCH   5   6
ENDBRANCH   2   5
TORSDOF 28
ENDMDL
MODEL       55
REMARK 921   NORMALIZED FREE ENERGY PREDICTED BY IDOCK:    9.89 KCAL/MOL
REMARK 922        TOTAL FREE ENERGY PREDICTED BY IDOCK:   20.39 KCAL/MOL
REMARK 923 INTER-LIGAND FREE ENERGY PREDICTED BY IDOCK:   11.84 KCAL/MOL
REMARK 924 INTRA-LIGAND FREE ENERGY PREDICTED BY IDOCK:    8.55 KCAL/MOL
REMARK 927      BINDING AFFINITY PREDICTED BY RF-SCORE:    0.00 PKD
ROOT
HETATM    1  C   UNL     1     -12.902   9.829  68.840  1.00  0.00     3.450 C  
HETATM    2  C   UNL     1     -11.956  10.135  67.691  1.00  0.00     2.057 C  
HETATM    3  O   UNL     1     -11.229  11.325  68.003  1.00  0.00    -0.240 OA 
HETATM    4  H   UNL     1     -10.637  11.516  67.285  1.00  0.00     0.000 HD 
ENDROOT
BRANCH   2   5
HETATM    5  C   UNL     1     -10.984   8.982  67.397  1.00  0.00     0.110 C  
BRANCH   5   6
HETATM    6  O   UNL     1      -9.633   9.338  67.739  1.00  0.00    -0.138 OA 
BRANCH   6   7
HETATM    7  C   UNL     1      -8.975   9.996  66.643  1.00  0.00    -0.139 C  
BRANCH   7   8
HETATM    8  C   UNL     1      -7.597  10.557  67.078  1.00  0.00    -0.107 C  
HETATM    9  O   UNL     1      -7.640  11.983  67.320  1.00  0.00    -0.141 OA 
HETATM   10  C   UNL     1      -8.428  12.397  68.428  1.00  0.00    -0.131 C  
HETATM   11  C   UNL     1      -7.866  11.743  69.734  1.00  0.00     1.140 C  
HETATM   12  C   UNL     1      -7.817  10.196  69.568  1.00  0.00    -0.162 C  
HETATM   13  C   UNL     1      -6.991   9.817  68.306  1.00  0.00    -0.073 C  
BRANCH  10  14
HETATM   14  O   UNL     1      -8.491  13.839  68.569  1.00  0.00    -0.160 OA 
BRANCH  14  15
HETATM   15  C   UNL     1      -9.551  14.540  67.871  1.00  0.00    -0.217 C  
HETATM   16  C   UNL     1     -10.615  15.063  68.898  1.00  0.00    -0.242 C  
HETATM   17  C   UNL     1      -9.416  17.075  69.312  1.00  0.00    -0.012 C  
HETATM   18  O   UNL     1      -9.930  15.868  69.883  1.00  0.00    -0.261 OA 
HETATM   19  C   UNL     1      -8.410  16.780  68.164  1.00  0.00    -0.201 C  
HETATM   20  C   UNL     1      -9.058  15.817  67.114  1.00  0.00    -0.212 C  
BRANCH  16  21
HETATM   21  C   UNL     1     -11.491  14.029  69.635  1.00  0.00    -0.258 C  
BRANCH  21  22
HETATM   22  O   UNL     1     -11.900  14.602  70.909  1.00  0.00    -0.298 OA 
BRANCH  22  23
HETATM   23  C   UNL     1     -11.802  13.680  71.998  1.00  0.00     1.245 C  
BRANCH  23  24
HETATM   24  C   UNL     1     -13.182  13.237  72.533  1.00  0.00    -0.379 C  
HETATM   25  H   UNL     1     -14.215  11.579  72.543  1.00  0.00     0.000 HD 
HETATM   26  C   UNL     1     -14.361  14.024  71.969  1.00  0.00    -0.548 C  
HETATM   27  O   UNL     1     -13.366  11.851  72.214  1.00  0.00    -0.471 OA 
ENDBRANCH  23  24
ENDBRANCH  22  23
ENDBRANCH  21  22
ENDBRANCH  16  21
BRANCH  17  28
HETATM   28  O   UNL     1     -10.467  17.935  68.862  1.00  0.00    -0.322 OA 
BRANCH  28  29
HETATM   29  C   UNL     1     -10.757  19.008  69.759  1.00  0.00     1.589 C  
BRANCH  29  30
HETATM   30  C   UNL     1     -10.152  20.347  69.316  1.00  0.00     0.226 C  
HETATM   31  O   UNL     1      -9.561  20.224  68.024  1.00  0.00    -0.330 OA 
HETATM   32  C   UNL     1      -9.104  20.844  70.302  1.00  0.00     2.608 C  
HETATM   33  H   UNL     1      -9.186  21.053  67.750  1.00  0.00     0.000 HD 
ENDBRANCH  29  30
ENDBRANCH  28  29
ENDBRANCH  17  28
BRANCH  19  34
HETATM   34  O   UNL     1      -7.887  17.942  67.496  1.00  0.00    -0.209 OA 
BRANCH  34  35
HETATM   35  C   UNL     1      -7.074  18.803  68.295  1.00  0.00    -0.256 C  
BRANCH  35  36
HETATM   36  C   UNL     1      -5.944  19.368  67.416  1.00  0.00    -0.189 C  
HETATM   37  H   UNL     1      -4.814  20.980  67.389  1.00  0.00     0.000 HD 
HETATM   38  C   UNL     1      -6.369  19.558  65.969  1.00  0.00    -0.209 C  
HETATM   39  O   UNL     1      -5.511  20.631  67.932  1.00  0.00    -0.201 OA 
ENDBRANCH  35  36
ENDBRANCH  34  35
ENDBRANCH  19  34
BRANCH  20  40
HETATM   40  O   UNL     1     -10.201  16.363  66.410  1.00  0.00    -0.291 OA 
BRANCH  40  41
HETATM   41  C   UNL     1     -11.413  15.629  66.626  1.00  0.00     0.144 C  
BRANCH  41  42
HETATM   42  C   UNL     1     -11.789  14.858  65.358  1.00  0.00    -0.188 C  
HETATM   43  C   UNL     1     -11.633  15.687  64.098  1.00  0.00    -0.082 C  
HETATM   44  O   UNL     1     -10.956  13.701  65.241  1.00  0.00    -0.294 OA 
HETATM   45  H   UNL     1     -11.190  13.223  64.453  1.00  0.00     0.000 HD 
ENDBRANCH  41  42
ENDBRANCH  40  41
ENDBRANCH  20  40
ENDBRANCH  14  15
ENDBRANCH  10  14
BRANCH  11  46
HETATM   46  O   UNL     1      -6.560  12.204  70.136  1.00  0.00     0.007 OA 
BRANCH  46  47
HETATM   47  C   UNL     1      -6.429  13.566  70.554  1.00  0.00     0.258 C  
BRANCH  47  48
HETATM   48  C   UNL     1      -6.294  13.770  72.075  1.00  0.00     1.381 C  
HETATM   49  C   UNL     1      -5.151  12.960  72.661  1.00  0.00     0.123 C  
HETATM   50  O   UNL     1      -5.999  15.132  72.417  1.00  0.00     0.665 OA 
HETATM   51  H   UNL     1      -5.917  15.257  73.355  1.00  0.00     0.000 HD 
ENDBRANCH  47  48
ENDBRANCH  46  47
ENDBRANCH  11  46
BRANCH  12  52
HETATM   52  O   UNL     1      -7.343   9.444  70.715  1.00  0.00    -0.120 OA 
BRANCH  52  53
HETATM   53  C   UNL     1      -8.290   8.533  71.280  1.00  0.00    -0.156 C  
BRANCH  53  54
HETATM   54  C   UNL     1      -7.902   7.066  71.018  1.00  0.00    -0.096 C  
HETATM   55  O   UNL     1      -6.480   6.926  70.986  1.00  0.00    -0.043 OA 
HETATM   56  C   UNL     1      -8.462   6.485  69.731  1.00  0.00    -0.131 C  
HETATM   57  H   UNL     1      -6.240   6.021  70.824  1.00  0.00     0.000 HD 
ENDBRANCH  53  54
ENDBRANCH  52  53
ENDBRANCH  12  52
BRANCH  13  58
HETATM   58  O   UNL     1      -5.596  10.205  68.367  1.00  0.00    -0.039 OA 
BRANCH  58  59
HETATM   59  C   UNL     1      -5.129  11.002  67.270  1.00  0.00    -0.043 C  
BRANCH  59  60
HETATM   60  C   UNL     1      -6.181  11.026  66.144  1.00  0.00    -0.104 C  
HETATM   61  O   UNL     1      -6.028   9.854  65.335  1.00  0.00    -0.066 OA 
HETATM   62  H   UNL     1      -6.676   9.869  64.640  1.00  0.00     0.000 HD 
HETATM   63  C   UNL     1      -6.063  12.243  65.253  1.00  0.00     4.594 C  
ENDBRANCH  59  60
ENDBRANCH  58  59
ENDBRANCH  13  58
ENDBRANCH   7   8
ENDBRANCH   6   7
ENDBRANCH   5   6
ENDBRANCH   2   5
TORSDOF 28
ENDMDL
MODEL       56
REMARK 921   NORMALIZED FREE ENERGY PREDICTED BY IDOCK:   13.60 KCAL/MOL
REMARK 922        TOTAL FREE ENERGY PREDICTED BY IDOCK:   30.16 KCAL/MOL
REMARK 923 INTER-LIGAND FREE ENERGY PREDICTED BY IDOCK:    3.27 KCAL/MOL
REMARK 924 INTRA-LIGAND FREE ENERGY PREDICTED BY IDOCK:   26.89 KCAL/MOL
REMARK 927      BINDING AFFINITY PREDICTED BY RF-SCORE:    0.00 PKD
ROOT
HETATM    1  C   UNL     1      -8.351   9.420  74.178  1.00  0.00     2.517 C  
HETATM    2  C   UNL     1      -9.260   8.610  73.268  1.00  0.00     0.262 C  
HETATM    3  O   UNL     1      -9.865   7.569  74.036  1.00  0.00    -0.394 OA 
HETATM    4  H   UNL     1     -10.432   7.063  73.468  1.00  0.00     0.000 HD 
ENDROOT
BRANCH   2   5
HETATM    5  C   UNL     1     -10.342   9.467  72.592  1.00  0.00     1.932 C  
BRANCH   5   6
HETATM    6  O   UNL     1     -11.395   8.649  72.052  1.00  0.00    -0.318 OA 
BRANCH   6   7
HETATM    7  C   UNL     1     -11.119   8.278  70.691  1.00  0.00    -0.253 C  
BRANCH   7   8
HETATM    8  C   UNL     1     -10.073   9.230  70.057  1.00  0.00    -0.212 C  
HETATM    9  O   UNL     1      -8.842   8.546  69.724  1.00  0.00    -0.134 OA 
HETATM   10  C   UNL     1      -8.937   7.574  68.691  1.00  0.00    -0.132 C  
HETATM   11  C   UNL     1      -9.430   8.266  67.376  1.00  0.00    -0.151 C  
HETATM   12  C   UNL     1     -10.774   9.003  67.642  1.00  0.00    -0.163 C  
HETATM   13  C   UNL     1     -10.613  10.005  68.820  1.00  0.00    -0.217 C  
BRANCH  10  14
HETATM   14  O   UNL     1      -7.689   6.873  68.459  1.00  0.00    -0.108 OA 
BRANCH  14  15
HETATM   15  C   UNL     1      -7.582   5.510  68.940  1.00  0.00    -0.087 C  
HETATM   16  C   UNL     1      -6.975   5.498  70.387  1.00  0.00    -0.057 C  
HETATM   17  C   UNL     1      -9.094   5.808  71.420  1.00  0.00    -0.140 C  
HETATM   18  O   UNL     1      -7.787   6.353  71.221  1.00  0.00    -0.101 OA 
HETATM   19  C   UNL     1      -9.844   5.618  70.070  1.00  0.00    -0.186 C  
HETATM   20  C   UNL     1      -8.964   4.789  69.077  1.00  0.00    -0.104 C  
BRANCH  16  21
HETATM   21  C   UNL     1      -5.497   5.904  70.563  1.00  0.00    -0.013 C  
BRANCH  21  22
HETATM   22  O   UNL     1      -5.126   6.769  69.453  1.00  0.00    -0.013 OA 
BRANCH  22  23
HETATM   23  C   UNL     1      -6.106   7.772  69.169  1.00  0.00    -0.035 C  
BRANCH  23  24
HETATM   24  C   UNL     1      -5.543   8.930  68.314  1.00  0.00    -0.038 C  
HETATM   25  H   UNL     1      -5.815  10.863  68.220  1.00  0.00     0.000 HD 
HETATM   26  C   UNL     1      -5.769   8.777  66.814  1.00  0.00    -0.048 C  
HETATM   27  O   UNL     1      -6.161  10.151  68.746  1.00  0.00    -0.047 OA 
ENDBRANCH  23  24
ENDBRANCH  22  23
ENDBRANCH  21  22
ENDBRANCH  16  21
BRANCH  17  28
HETATM   28  O   UNL     1      -9.049   4.581  72.156  1.00  0.00    -0.123 OA 
BRANCH  28  29
HETATM   29  C   UNL     1      -9.151   4.755  73.569  1.00  0.00    -0.113 C  
BRANCH  29  30
HETATM   30  C   UNL     1     -10.600   4.877  74.061  1.00  0.00    -0.295 C  
HETATM   31  O   UNL     1     -11.217   3.592  74.115  1.00  0.00    -0.071 OA 
HETATM   32  C   UNL     1     -11.422   5.793  73.167  1.00  0.00    -0.103 C  
HETATM   33  H   UNL     1     -12.114   3.667  74.419  1.00  0.00     0.000 HD 
ENDBRANCH  29  30
ENDBRANCH  28  29
ENDBRANCH  17  28
BRANCH  19  34
HETATM   34  O   UNL     1     -11.149   5.020  70.176  1.00  0.00     0.294 OA 
BRANCH  34  35
HETATM   35  C   UNL     1     -12.064   5.678  71.053  1.00  0.00     1.259 C  
BRANCH  35  36
HETATM   36  C   UNL     1     -12.578   6.953  70.363  1.00  0.00     0.204 C  
HETATM   37  H   UNL     1     -14.327   7.768  69.968  1.00  0.00     0.000 HD 
HETATM   38  C   UNL     1     -12.127   7.055  68.914  1.00  0.00     1.548 C  
HETATM   39  O   UNL     1     -14.009   6.980  70.395  1.00  0.00     0.936 OA 
ENDBRANCH  35  36
ENDBRANCH  34  35
ENDBRANCH  19  34
BRANCH  20  40
HETATM   40  O   UNL     1      -8.695   3.426  69.492  1.00  0.00    -0.065 OA 
BRANCH  40  41
HETATM   41  C   UNL     1      -8.838   2.466  68.438  1.00  0.00    -0.111 C  
BRANCH  41  42
HETATM   42  C   UNL     1      -8.329   3.059  67.121  1.00  0.00    -0.090 C  
HETATM   43  C   UNL     1      -9.433   3.684  66.293  1.00  0.00    -0.177 C  
HETATM   44  O   UNL     1      -7.351   4.064  67.400  1.00  0.00    -0.067 OA 
HETATM   45  H   UNL     1      -7.036   4.432  66.582  1.00  0.00     0.000 HD 
ENDBRANCH  41  42
ENDBRANCH  40  41
ENDBRANCH  20  40
ENDBRANCH  14  15
ENDBRANCH  10  14
BRANCH  11  46
HETATM   46  O   UNL     1      -8.501   9.201  66.791  1.00  0.00    -0.120 OA 
BRANCH  46  47
HETATM   47  C   UNL     1      -8.730   9.619  65.442  1.00  0.00    -0.158 C  
BRANCH  47  48
HETATM   48  C   UNL     1      -8.345   8.584  64.366  1.00  0.00    -0.116 C  
HETATM   49  C   UNL     1      -7.197   9.067  63.496  1.00  0.00    -0.092 C  
HETATM   50  O   UNL     1      -7.886   7.352  64.938  1.00  0.00    -0.112 OA 
HETATM   51  H   UNL     1      -7.648   6.714  64.275  1.00  0.00     0.000 HD 
ENDBRANCH  47  48
ENDBRANCH  46  47
ENDBRANCH  11  46
BRANCH  12  52
HETATM   52  O   UNL     1     -11.374   9.671  66.502  1.00  0.00     0.546 OA 
BRANCH  52  53
HETATM   53  C   UNL     1     -11.361  11.100  66.556  1.00  0.00     0.044 C  
BRANCH  53  54
HETATM   54  C   UNL     1     -11.503  11.728  65.157  1.00  0.00    -0.183 C  
HETATM   55  O   UNL     1     -10.242  12.227  64.705  1.00  0.00    -0.279 OA 
HETATM   56  C   UNL     1     -12.514  12.859  65.073  1.00  0.00    -0.553 C  
HETATM   57  H   UNL     1     -10.330  12.615  63.842  1.00  0.00     0.000 HD 
ENDBRANCH  53  54
ENDBRANCH  52  53
ENDBRANCH  12  52
BRANCH  13  58
HETATM   58  O   UNL     1      -9.673  11.078  68.568  1.00  0.00    -0.176 OA 
BRANCH  58  59
HETATM   59  C   UNL     1      -8.521  11.101  69.422  1.00  0.00     0.268 C  
BRANCH  59  60
HETATM   60  C   UNL     1      -7.411  11.968  68.795  1.00  0.00    -0.086 C  
HETATM   61  O   UNL     1      -6.655  12.588  69.841  1.00  0.00    -0.341 OA 
HETATM   62  H   UNL     1      -5.971  13.123  69.455  1.00  0.00     0.000 HD 
HETATM   63  C   UNL     1      -7.951  13.050  67.886  1.00  0.00    -0.157 C  
ENDBRANCH  59  60
ENDBRANCH  58  59
ENDBRANCH  13  58
ENDBRANCH   7   8
ENDBRANCH   6   7
ENDBRANCH   5   6
ENDBRANCH   2   5
TORSDOF 28
ENDMDL
MODEL       57
REMARK 921   NORMALIZED FREE ENERGY PREDICTED BY IDOCK:   17.93 KCAL/MOL
REMARK 922        TOTAL FREE ENERGY PREDICTED BY IDOCK:   41.58 KCAL/MOL
REMARK 923 INTER-LIGAND FREE ENERGY PREDICTED BY IDOCK:   13.84 KCAL/MOL
REMARK 924 INTRA-LIGAND FREE ENERGY PREDICTED BY IDOCK:   27.74 KCAL/MOL
REMARK 927      BINDING AFFINITY PREDICTED BY RF-SCORE:    0.00 PKD
ROOT
HETATM    1  C   UNL     1     -12.850   9.356  68.361  1.00  0.00     6.767 C  
HETATM    2  C   UNL     1     -11.910   9.682  67.212  1.00  0.00     2.973 C  
HETATM    3  O   UNL     1     -11.235  10.906  67.508  1.00  0.00    -0.304 OA 
HETATM    4  H   UNL     1     -10.647  11.110  66.790  1.00  0.00     0.000 HD 
ENDROOT
BRANCH   2   5
HETATM    5  C   UNL     1     -10.889   8.566  66.944  1.00  0.00     0.100 C  
BRANCH   5   6
HETATM    6  O   UNL     1      -9.556   8.983  67.289  1.00  0.00    -0.147 OA 
BRANCH   6   7
HETATM    7  C   UNL     1      -8.922   9.659  66.190  1.00  0.00    -0.154 C  
BRANCH   7   8
HETATM    8  C   UNL     1      -7.597  10.327  66.639  1.00  0.00    -0.110 C  
HETATM    9  O   UNL     1      -7.745  11.752  66.841  1.00  0.00    -0.156 OA 
HETATM   10  C   UNL     1      -8.585  12.139  67.920  1.00  0.00    -0.167 C  
HETATM   11  C   UNL     1      -8.009  11.559  69.255  1.00  0.00     0.208 C  
HETATM   12  C   UNL     1      -7.848  10.016  69.132  1.00  0.00    -0.112 C  
HETATM   13  C   UNL     1      -6.969   9.664  67.899  1.00  0.00    -0.079 C  
BRANCH  10  14
HETATM   14  O   UNL     1      -8.751  13.576  68.020  1.00  0.00    -0.164 OA 
BRANCH  14  15
HETATM   15  C   UNL     1      -9.855  14.179  67.300  1.00  0.00    -0.238 C  
HETATM   16  C   UNL     1     -11.049  14.454  68.281  1.00  0.00    -0.259 C  
HETATM   17  C   UNL     1     -10.188  16.570  68.941  1.00  0.00    -0.268 C  
HETATM   18  O   UNL     1     -10.554  15.257  69.375  1.00  0.00    -0.231 OA 
HETATM   19  C   UNL     1      -9.077  16.522  67.854  1.00  0.00    -0.206 C  
HETATM   20  C   UNL     1      -9.507  15.575  66.685  1.00  0.00    -0.259 C  
BRANCH  16  21
HETATM   21  C   UNL     1     -11.809  13.246  68.864  1.00  0.00    -0.327 C  
BRANCH  21  22
HETATM   22  O   UNL     1     -12.504  13.681  70.067  1.00  0.00    -0.293 OA 
BRANCH  22  23
HETATM   23  C   UNL     1     -12.834  15.073  70.054  1.00  0.00    -0.082 C  
BRANCH  23  24
HETATM   24  C   UNL     1     -12.716  15.726  71.450  1.00  0.00    -0.447 C  
HETATM   25  H   UNL     1     -12.208  15.129  73.239  1.00  0.00     0.000 HD 
HETATM   26  C   UNL     1     -14.011  16.342  71.971  1.00  0.00     1.054 C  
HETATM   27  O   UNL     1     -12.280  14.727  72.381  1.00  0.00    -0.335 OA 
ENDBRANCH  23  24
ENDBRANCH  22  23
ENDBRANCH  21  22
ENDBRANCH  16  21
BRANCH  17  28
HETATM   28  O   UNL     1     -11.323  17.310  68.480  1.00  0.00    -0.014 OA 
BRANCH  28  29
HETATM   29  C   UNL     1     -11.279  18.697  68.816  1.00  0.00     1.630 C  
BRANCH  29  30
HETATM   30  C   UNL     1      -9.864  19.199  69.134  1.00  0.00    -0.298 C  
HETATM   31  O   UNL     1      -9.842  19.860  70.398  1.00  0.00     0.031 OA 
HETATM   32  C   UNL     1      -9.351  20.148  68.061  1.00  0.00    -0.353 C  
HETATM   33  H   UNL     1      -8.966  20.171  70.594  1.00  0.00     0.000 HD 
ENDBRANCH  29  30
ENDBRANCH  28  29
ENDBRANCH  17  28
BRANCH  19  34
HETATM   34  O   UNL     1      -8.689  17.802  67.321  1.00  0.00    -0.231 OA 
BRANCH  34  35
HETATM   35  C   UNL     1      -7.339  17.899  66.865  1.00  0.00    -0.201 C  
BRANCH  35  36
HETATM   36  C   UNL     1      -7.349  18.292  65.377  1.00  0.00     0.353 C  
HETATM   37  H   UNL     1      -8.340  17.766  63.759  1.00  0.00     0.000 HD 
HETATM   38  C   UNL     1      -6.002  18.074  64.706  1.00  0.00     0.398 C  
HETATM   39  O   UNL     1      -8.334  17.524  64.677  1.00  0.00     3.762 OA 
ENDBRANCH  35  36
ENDBRANCH  34  35
ENDBRANCH  19  34
BRANCH  20  40
HETATM   40  O   UNL     1     -10.671  16.014  65.940  1.00  0.00    -0.323 OA 
BRANCH  40  41
HETATM   41  C   UNL     1     -11.816  15.171  66.116  1.00  0.00     0.097 C  
BRANCH  41  42
HETATM   42  C   UNL     1     -12.197  14.525  64.781  1.00  0.00    -0.431 C  
HETATM   43  C   UNL     1     -11.593  15.238  63.588  1.00  0.00     0.979 C  
HETATM   44  O   UNL     1     -11.749  13.166  64.768  1.00  0.00    -0.322 OA 
HETATM   45  H   UNL     1     -11.986  12.765  63.939  1.00  0.00     0.000 HD 
ENDBRANCH  41  42
ENDBRANCH  40  41
ENDBRANCH  20  40
ENDBRANCH  14  15
ENDBRANCH  10  14
BRANCH  11  46
HETATM   46  O   UNL     1      -6.748  12.121  69.672  1.00  0.00    -0.075 OA 
BRANCH  46  47
HETATM   47  C   UNL     1      -6.722  13.499  70.057  1.00  0.00     0.214 C  
BRANCH  47  48
HETATM   48  C   UNL     1      -6.643  13.749  71.576  1.00  0.00     1.560 C  
HETATM   49  C   UNL     1      -5.463  13.035  72.211  1.00  0.00     0.292 C  
HETATM   50  O   UNL     1      -6.452  15.135  71.889  1.00  0.00     1.004 OA 
HETATM   51  H   UNL     1      -6.404  15.289  72.825  1.00  0.00     0.000 HD 
ENDBRANCH  47  48
ENDBRANCH  46  47
ENDBRANCH  11  46
BRANCH  12  52
HETATM   52  O   UNL     1      -7.350   9.329  70.309  1.00  0.00    -0.072 OA 
BRANCH  52  53
HETATM   53  C   UNL     1      -8.254   8.387  70.895  1.00  0.00    -0.119 C  
BRANCH  53  54
HETATM   54  C   UNL     1      -9.158   7.726  69.838  1.00  0.00    -0.147 C  
HETATM   55  O   UNL     1     -10.534   7.949  70.151  1.00  0.00    -0.221 OA 
HETATM   56  C   UNL     1      -8.948   6.229  69.677  1.00  0.00    -0.135 C  
HETATM   57  H   UNL     1     -11.092   7.540  69.499  1.00  0.00     0.000 HD 
ENDBRANCH  53  54
ENDBRANCH  52  53
ENDBRANCH  12  52
BRANCH  13  58
HETATM   58  O   UNL     1      -5.606  10.149  67.979  1.00  0.00    -0.039 OA 
BRANCH  58  59
HETATM   59  C   UNL     1      -5.126  10.425  69.302  1.00  0.00    -0.038 C  
BRANCH  59  60
HETATM   60  C   UNL     1      -6.167   9.982  70.349  1.00  0.00    -0.103 C  
HETATM   61  O   UNL     1      -6.538  11.112  71.146  1.00  0.00    -0.081 OA 
HETATM   62  H   UNL     1      -7.179  10.839  71.792  1.00  0.00     0.000 HD 
HETATM   63  C   UNL     1      -5.654   8.894  71.267  1.00  0.00    -0.043 C  
ENDBRANCH  59  60
ENDBRANCH  58  59
ENDBRANCH  13  58
ENDBRANCH   7   8
ENDBRANCH   6   7
ENDBRANCH   5   6
ENDBRANCH   2   5
TORSDOF 28
ENDMDL
MODEL       58
REMARK 921   NORMALIZED FREE ENERGY PREDICTED BY IDOCK:   21.45 KCAL/MOL
REMARK 922        TOTAL FREE ENERGY PREDICTED BY IDOCK:   50.86 KCAL/MOL
REMARK 923 INTER-LIGAND FREE ENERGY PREDICTED BY IDOCK:    7.53 KCAL/MOL
REMARK 924 INTRA-LIGAND FREE ENERGY PREDICTED BY IDOCK:   43.33 KCAL/MOL
REMARK 927      BINDING AFFINITY PREDICTED BY RF-SCORE:    0.00 PKD
ROOT
HETATM    1  C   UNL     1      -7.643   8.624  73.987  1.00  0.00    -0.038 C  
HETATM    2  C   UNL     1      -8.704   7.948  73.135  1.00  0.00    -0.220 C  
HETATM    3  O   UNL     1      -9.392   6.989  73.939  1.00  0.00    -0.189 OA 
HETATM    4  H   UNL     1     -10.055   6.567  73.407  1.00  0.00     0.000 HD 
ENDROOT
BRANCH   2   5
HETATM    5  C   UNL     1      -9.703   8.946  72.528  1.00  0.00     0.166 C  
BRANCH   5   6
HETATM    6  O   UNL     1     -10.921   8.290  72.132  1.00  0.00    -0.278 OA 
BRANCH   6   7
HETATM    7  C   UNL     1     -10.806   7.732  70.812  1.00  0.00    -0.239 C  
BRANCH   7   8
HETATM    8  C   UNL     1      -9.596   8.339  70.056  1.00  0.00    -0.168 C  
HETATM    9  O   UNL     1      -8.529   7.378  69.874  1.00  0.00    -0.135 OA 
HETATM   10  C   UNL     1      -8.824   6.285  69.015  1.00  0.00    -0.124 C  
HETATM   11  C   UNL     1      -9.179   6.829  67.591  1.00  0.00    -0.118 C  
HETATM   12  C   UNL     1     -10.348   7.852  67.695  1.00  0.00    -0.241 C  
HETATM   13  C   UNL     1      -9.981   8.986  68.694  1.00  0.00    -0.172 C  
BRANCH  10  14
HETATM   14  O   UNL     1      -7.743   5.322  68.935  1.00  0.00    -0.080 OA 
BRANCH  14  15
HETATM   15  C   UNL     1      -7.809   4.161  69.801  1.00  0.00    -0.052 C  
HETATM   16  C   UNL     1      -7.014   4.434  71.126  1.00  0.00    -0.036 C  
HETATM   17  C   UNL     1      -8.879   5.461  72.186  1.00  0.00    -0.130 C  
HETATM   18  O   UNL     1      -7.538   5.641  71.722  1.00  0.00    -0.092 OA 
HETATM   19  C   UNL     1      -9.834   5.056  71.026  1.00  0.00    -0.198 C  
HETATM   20  C   UNL     1      -9.263   3.814  70.266  1.00  0.00    -0.149 C  
BRANCH  16  21
HETATM   21  C   UNL     1      -5.479   4.554  71.046  1.00  0.00    -0.011 C  
BRANCH  21  22
HETATM   22  O   UNL     1      -5.126   5.028  69.717  1.00  0.00     0.000 OA 
BRANCH  22  23
HETATM   23  C   UNL     1      -5.974   6.084  69.252  1.00  0.00    -0.028 C  
BRANCH  23  24
HETATM   24  C   UNL     1      -5.367   6.854  68.058  1.00  0.00    -0.015 C  
HETATM   25  H   UNL     1      -5.456   8.684  67.380  1.00  0.00     0.000 HD 
HETATM   26  C   UNL     1      -5.718   6.279  66.690  1.00  0.00    -0.016 C  
HETATM   27  O   UNL     1      -5.829   8.211  68.114  1.00  0.00    -0.039 OA 
ENDBRANCH  23  24
ENDBRANCH  22  23
ENDBRANCH  21  22
ENDBRANCH  16  21
BRANCH  17  28
HETATM   28  O   UNL     1      -8.946   4.512  73.256  1.00  0.00    -0.115 OA 
BRANCH  28  29
HETATM   29  C   UNL     1      -8.049   4.795  74.330  1.00  0.00    -0.095 C  
BRANCH  29  30
HETATM   30  C   UNL     1      -6.580   4.861  73.891  1.00  0.00    -0.068 C  
HETATM   31  O   UNL     1      -6.302   6.115  73.270  1.00  0.00    -0.061 OA 
HETATM   32  C   UNL     1      -6.229   3.735  72.930  1.00  0.00    -0.012 C  
HETATM   33  H   UNL     1      -5.393   6.156  72.997  1.00  0.00     0.000 HD 
ENDBRANCH  29  30
ENDBRANCH  28  29
ENDBRANCH  17  28
BRANCH  19  34
HETATM   34  O   UNL     1     -11.195   4.800  71.417  1.00  0.00     0.359 OA 
BRANCH  34  35
HETATM   35  C   UNL     1     -11.848   5.858  72.121  1.00  0.00    -0.186 C  
BRANCH  35  36
HETATM   36  C   UNL     1     -12.204   6.970  71.119  1.00  0.00    -0.382 C  
HETATM   37  H   UNL     1     -13.604   8.341  70.932  1.00  0.00     0.000 HD 
HETATM   38  C   UNL     1     -12.441   6.437  69.715  1.00  0.00     1.567 C  
HETATM   39  O   UNL     1     -13.385   7.654  71.550  1.00  0.00    -0.346 OA 
ENDBRANCH  35  36
ENDBRANCH  34  35
ENDBRANCH  19  34
BRANCH  20  40
HETATM   40  O   UNL     1      -9.179   2.601  71.054  1.00  0.00    -0.104 OA 
BRANCH  40  41
HETATM   41  C   UNL     1      -9.842   1.481  70.456  1.00  0.00     0.053 C  
BRANCH  41  42
HETATM   42  C   UNL     1     -10.024   1.724  68.955  1.00  0.00     0.413 C  
HETATM   43  C   UNL     1     -11.377   2.315  68.614  1.00  0.00     9.101 C  
HETATM   44  O   UNL     1      -9.011   2.623  68.494  1.00  0.00    -0.099 OA 
HETATM   45  H   UNL     1      -9.124   2.774  67.563  1.00  0.00     0.000 HD 
ENDBRANCH  41  42
ENDBRANCH  40  41
ENDBRANCH  20  40
ENDBRANCH  14  15
ENDBRANCH  10  14
BRANCH  11  46
HETATM   46  O   UNL     1      -8.087   7.450  66.883  1.00  0.00    -0.115 OA 
BRANCH  46  47
HETATM   47  C   UNL     1      -8.224   7.639  65.471  1.00  0.00    -0.135 C  
BRANCH  47  48
HETATM   48  C   UNL     1      -8.011   6.370  64.622  1.00  0.00    -0.118 C  
HETATM   49  C   UNL     1      -6.613   5.801  64.786  1.00  0.00    -0.042 C  
HETATM   50  O   UNL     1      -8.893   5.306  65.004  1.00  0.00    -0.168 OA 
HETATM   51  H   UNL     1      -8.762   4.524  64.480  1.00  0.00     0.000 HD 
ENDBRANCH  47  48
ENDBRANCH  46  47
ENDBRANCH  11  46
BRANCH  12  52
HETATM   52  O   UNL     1     -10.811   8.423  66.445  1.00  0.00     0.248 OA 
BRANCH  52  53
HETATM   53  C   UNL     1     -10.509   9.809  66.258  1.00  0.00    -0.090 C  
BRANCH  53  54
HETATM   54  C   UNL     1     -11.342  10.430  65.122  1.00  0.00     1.509 C  
HETATM   55  O   UNL     1     -10.618  10.382  63.890  1.00  0.00    -0.379 OA 
HETATM   56  C   UNL     1     -11.764  11.870  65.363  1.00  0.00    -0.228 C  
HETATM   57  H   UNL     1     -11.132  10.765  63.189  1.00  0.00     0.000 HD 
ENDBRANCH  53  54
ENDBRANCH  52  53
ENDBRANCH  12  52
BRANCH  13  58
HETATM   58  O   UNL     1      -8.848   9.793  68.292  1.00  0.00    -0.119 OA 
BRANCH  58  59
HETATM   59  C   UNL     1      -7.697   9.708  69.143  1.00  0.00    -0.087 C  
BRANCH  59  60
HETATM   60  C   UNL     1      -6.443  10.200  68.394  1.00  0.00    -0.053 C  
HETATM   61  O   UNL     1      -5.407  10.473  69.344  1.00  0.00    -0.038 OA 
HETATM   62  H   UNL     1      -4.634  10.776  68.882  1.00  0.00     0.000 HD 
HETATM   63  C   UNL     1      -6.693  11.453  67.583  1.00  0.00    -0.075 C  
ENDBRANCH  59  60
ENDBRANCH  58  59
ENDBRANCH  13  58
ENDBRANCH   7   8
ENDBRANCH   6   7
ENDBRANCH   5   6
ENDBRANCH   2   5
TORSDOF 28
ENDMDL
MODEL       59
REMARK 921   NORMALIZED FREE ENERGY PREDICTED BY IDOCK:   27.12 KCAL/MOL
REMARK 922        TOTAL FREE ENERGY PREDICTED BY IDOCK:   65.81 KCAL/MOL
REMARK 923 INTER-LIGAND FREE ENERGY PREDICTED BY IDOCK:   14.04 KCAL/MOL
REMARK 924 INTRA-LIGAND FREE ENERGY PREDICTED BY IDOCK:   51.77 KCAL/MOL
REMARK 927      BINDING AFFINITY PREDICTED BY RF-SCORE:    0.00 PKD
ROOT
HETATM    1  C   UNL     1      -8.398  11.385  66.336  1.00  0.00    -0.140 C  
HETATM    2  C   UNL     1      -8.850  10.562  67.531  1.00  0.00    -0.131 C  
HETATM    3  O   UNL     1      -9.808   9.600  67.086  1.00  0.00    -0.168 OA 
HETATM    4  H   UNL     1     -10.090   9.085  67.833  1.00  0.00     0.000 HD 
ENDROOT
BRANCH   2   5
HETATM    5  C   UNL     1      -7.685   9.859  68.244  1.00  0.00    -0.085 C  
BRANCH   5   6
HETATM    6  O   UNL     1      -6.449  10.569  68.048  1.00  0.00    -0.058 OA 
BRANCH   6   7
HETATM    7  C   UNL     1      -5.319   9.753  68.402  1.00  0.00    -0.032 C  
BRANCH   7   8
HETATM    8  C   UNL     1      -5.775   8.355  68.892  1.00  0.00    -0.039 C  
HETATM    9  O   UNL     1      -7.157   8.353  69.324  1.00  0.00    -0.060 OA 
HETATM   10  C   UNL     1      -8.122   8.575  68.305  1.00  0.00    -0.119 C  
HETATM   11  C   UNL     1      -7.994   7.454  67.219  1.00  0.00    -0.115 C  
HETATM   12  C   UNL     1      -6.536   7.411  66.677  1.00  0.00    -0.052 C  
HETATM   13  C   UNL     1      -5.532   7.225  67.850  1.00  0.00    -0.025 C  
BRANCH  10  14
HETATM   14  O   UNL     1      -9.478   8.636  68.813  1.00  0.00    -0.142 OA 
BRANCH  14  15
HETATM   15  C   UNL     1      -9.669   8.498  70.244  1.00  0.00    -0.171 C  
HETATM   16  C   UNL     1      -9.734   9.915  70.915  1.00  0.00     0.324 C  
HETATM   17  C   UNL     1     -12.068  10.138  70.521  1.00  0.00    -0.291 C  
HETATM   18  O   UNL     1     -10.770  10.676  70.256  1.00  0.00    -0.204 OA 
HETATM   19  C   UNL     1     -12.185   8.665  70.034  1.00  0.00     0.847 C  
HETATM   20  C   UNL     1     -11.019   7.807  70.628  1.00  0.00    -0.249 C  
BRANCH  16  21
HETATM   21  C   UNL     1      -8.449  10.767  70.952  1.00  0.00     3.682 C  
BRANCH  21  22
HETATM   22  O   UNL     1      -8.687  11.986  70.194  1.00  0.00     2.609 OA 
BRANCH  22  23
HETATM   23  C   UNL     1      -9.618  11.810  69.122  1.00  0.00     0.304 C  
BRANCH  23  24
HETATM   24  C   UNL     1     -10.335  13.122  68.733  1.00  0.00    -0.130 C  
HETATM   25  H   UNL     1      -9.959  15.031  68.911  1.00  0.00     0.000 HD 
HETATM   26  C   UNL     1     -11.723  13.290  69.344  1.00  0.00    -0.383 C  
HETATM   27  O   UNL     1      -9.518  14.224  69.150  1.00  0.00    -0.056 OA 
ENDBRANCH  23  24
ENDBRANCH  22  23
ENDBRANCH  21  22
ENDBRANCH  16  21
BRANCH  17  28
HETATM   28  O   UNL     1     -12.414  10.246  71.905  1.00  0.00    -0.374 OA 
BRANCH  28  29
HETATM   29  C   UNL     1     -12.280   9.023  72.629  1.00  0.00    -0.015 C  
BRANCH  29  30
HETATM   30  C   UNL     1     -13.373   8.823  73.688  1.00  0.00     2.749 C  
HETATM   31  O   UNL     1     -14.038   7.577  73.489  1.00  0.00     1.484 OA 
HETATM   32  C   UNL     1     -14.397   9.949  73.658  1.00  0.00     3.586 C  
HETATM   33  H   UNL     1     -14.715   7.454  74.144  1.00  0.00     0.000 HD 
ENDBRANCH  29  30
ENDBRANCH  28  29
ENDBRANCH  17  28
BRANCH  19  34
HETATM   34  O   UNL     1     -13.445   8.028  70.312  1.00  0.00     1.145 OA 
BRANCH  34  35
HETATM   35  C   UNL     1     -13.526   7.332  71.557  1.00  0.00    -0.363 C  
BRANCH  35  36
HETATM   36  C   UNL     1     -13.050   5.885  71.344  1.00  0.00     1.745 C  
HETATM   37  H   UNL     1     -12.799   4.276  72.451  1.00  0.00     0.000 HD 
HETATM   38  C   UNL     1     -11.634   5.811  70.794  1.00  0.00     0.190 C  
HETATM   39  O   UNL     1     -13.093   5.170  72.583  1.00  0.00     0.514 OA 
ENDBRANCH  35  36
ENDBRANCH  34  35
ENDBRANCH  19  34
BRANCH  20  40
HETATM   40  O   UNL     1     -11.034   7.673  72.071  1.00  0.00    -0.229 OA 
BRANCH  40  41
HETATM   41  C   UNL     1      -9.756   7.894  72.681  1.00  0.00    -0.240 C  
BRANCH  41  42
HETATM   42  C   UNL     1      -9.063   6.553  72.939  1.00  0.00    -0.128 C  
HETATM   43  C   UNL     1      -7.883   6.673  73.882  1.00  0.00    -0.100 C  
HETATM   44  O   UNL     1     -10.002   5.636  73.507  1.00  0.00    -0.161 OA 
HETATM   45  H   UNL     1      -9.571   4.804  73.668  1.00  0.00     0.000 HD 
ENDBRANCH  41  42
ENDBRANCH  40  41
ENDBRANCH  20  40
ENDBRANCH  14  15
ENDBRANCH  10  14
BRANCH  11  46
HETATM   46  O   UNL     1      -8.359   6.131  67.661  1.00  0.00    -0.112 OA 
BRANCH  46  47
HETATM   47  C   UNL     1      -7.307   5.192  67.906  1.00  0.00    -0.075 C  
BRANCH  47  48
HETATM   48  C   UNL     1      -7.421   3.868  67.125  1.00  0.00    -0.072 C  
HETATM   49  C   UNL     1      -6.075   3.184  66.960  1.00  0.00    -0.024 C  
HETATM   50  O   UNL     1      -8.246   2.908  67.800  1.00  0.00    -0.077 OA 
HETATM   51  H   UNL     1      -8.317   2.093  67.318  1.00  0.00     0.000 HD 
ENDBRANCH  47  48
ENDBRANCH  46  47
ENDBRANCH  11  46
BRANCH  12  52
HETATM   52  O   UNL     1      -6.268   6.436  65.636  1.00  0.00    -0.035 OA 
BRANCH  52  53
HETATM   53  C   UNL     1      -6.703   6.808  64.325  1.00  0.00    -0.045 C  
BRANCH  53  54
HETATM   54  C   UNL     1      -6.512   8.314  64.063  1.00  0.00    -0.067 C  
HETATM   55  O   UNL     1      -7.381   9.079  64.902  1.00  0.00    -0.096 OA 
HETATM   56  C   UNL     1      -6.753   8.739  62.624  1.00  0.00    -0.094 C  
HETATM   57  H   UNL     1      -7.264  10.008  64.740  1.00  0.00     0.000 HD 
ENDBRANCH  53  54
ENDBRANCH  52  53
ENDBRANCH  12  52
BRANCH  13  58
HETATM   58  O   UNL     1      -5.673   5.974  68.565  1.00  0.00    -0.011 OA 
BRANCH  58  59
HETATM   59  C   UNL     1      -6.301   6.066  69.851  1.00  0.00    -0.031 C  
BRANCH  59  60
HETATM   60  C   UNL     1      -6.870   4.694  70.265  1.00  0.00    -0.037 C  
HETATM   61  O   UNL     1      -8.080   4.893  71.003  1.00  0.00    -0.088 OA 
HETATM   62  H   UNL     1      -8.430   4.048  71.259  1.00  0.00     0.000 HD 
HETATM   63  C   UNL     1      -5.912   3.892  71.119  1.00  0.00    -0.014 C  
ENDBRANCH  59  60
ENDBRANCH  58  59
ENDBRANCH  13  58
ENDBRANCH   7   8
ENDBRANCH   6   7
ENDBRANCH   5   6
ENDBRANCH   2   5
TORSDOF 28
ENDMDL
MODEL       60
REMARK 921   NORMALIZED FREE ENERGY PREDICTED BY IDOCK:   32.72 KCAL/MOL
REMARK 922        TOTAL FREE ENERGY PREDICTED BY IDOCK:   80.59 KCAL/MOL
REMARK 923 INTER-LIGAND FREE ENERGY PREDICTED BY IDOCK:   17.01 KCAL/MOL
REMARK 924 INTRA-LIGAND FREE ENERGY PREDICTED BY IDOCK:   63.58 KCAL/MOL
REMARK 927      BINDING AFFINITY PREDICTED BY RF-SCORE:    0.00 PKD
ROOT
HETATM    1  C   UNL     1     -12.926   9.351  68.323  1.00  0.00     8.222 C  
HETATM    2  C   UNL     1     -12.080   9.816  67.149  1.00  0.00     4.526 C  
HETATM    3  O   UNL     1     -11.427  11.034  67.512  1.00  0.00    -0.468 OA 
HETATM    4  H   UNL     1     -10.899  11.325  66.779  1.00  0.00     0.000 HD 
ENDROOT
BRANCH   2   5
HETATM    5  C   UNL     1     -11.044   8.769  66.711  1.00  0.00     0.786 C  
BRANCH   5   6
HETATM    6  O   UNL     1      -9.712   9.164  67.087  1.00  0.00    -0.161 OA 
BRANCH   6   7
HETATM    7  C   UNL     1      -9.120  10.012  66.088  1.00  0.00    -0.156 C  
BRANCH   7   8
HETATM    8  C   UNL     1      -7.778  10.604  66.588  1.00  0.00    -0.132 C  
HETATM    9  O   UNL     1      -7.915  11.980  67.017  1.00  0.00    -0.163 OA 
HETATM   10  C   UNL     1      -8.714  12.188  68.173  1.00  0.00    -0.185 C  
HETATM   11  C   UNL     1      -8.091  11.408  69.379  1.00  0.00     0.326 C  
HETATM   12  C   UNL     1      -7.939   9.903  69.008  1.00  0.00    -0.101 C  
HETATM   13  C   UNL     1      -7.105   9.753  67.704  1.00  0.00    -0.088 C  
BRANCH  10  14
HETATM   14  O   UNL     1      -8.873  13.591  68.506  1.00  0.00    -0.166 OA 
BRANCH  14  15
HETATM   15  C   UNL     1      -9.969  14.310  67.886  1.00  0.00    -0.230 C  
HETATM   16  C   UNL     1     -11.233  14.265  68.816  1.00  0.00    -0.262 C  
HETATM   17  C   UNL     1     -10.546  16.172  70.060  1.00  0.00    -0.269 C  
HETATM   18  O   UNL     1     -10.854  14.776  70.112  1.00  0.00    -0.183 OA 
HETATM   19  C   UNL     1      -9.373  16.461  69.080  1.00  0.00    -0.224 C  
HETATM   20  C   UNL     1      -9.674  15.833  67.679  1.00  0.00    -0.222 C  
BRANCH  16  21
HETATM   21  C   UNL     1     -11.948  12.913  69.012  1.00  0.00    -0.251 C  
BRANCH  21  22
HETATM   22  O   UNL     1     -12.710  12.975  70.250  1.00  0.00    -0.078 OA 
BRANCH  22  23
HETATM   23  C   UNL     1     -13.066  14.308  70.627  1.00  0.00    -0.189 C  
BRANCH  23  24
HETATM   24  C   UNL     1     -12.998  14.535  72.154  1.00  0.00    -0.346 C  
HETATM   25  H   UNL     1     -13.878  15.718  73.435  1.00  0.00     0.000 HD 
HETATM   26  C   UNL     1     -11.617  14.919  72.675  1.00  0.00    -0.201 C  
HETATM   27  O   UNL     1     -13.920  15.579  72.496  1.00  0.00    -0.538 OA 
ENDBRANCH  23  24
ENDBRANCH  22  23
ENDBRANCH  21  22
ENDBRANCH  16  21
BRANCH  17  28
HETATM   28  O   UNL     1     -11.696  16.954  69.723  1.00  0.00     0.569 OA 
BRANCH  28  29
HETATM   29  C   UNL     1     -11.772  18.196  70.425  1.00  0.00     5.949 C  
BRANCH  29  30
HETATM   30  C   UNL     1     -10.447  18.970  70.430  1.00  0.00     1.769 C  
HETATM   31  O   UNL     1     -10.076  19.314  71.763  1.00  0.00     1.631 OA 
HETATM   32  C   UNL     1     -10.533  20.236  69.590  1.00  0.00     0.315 C  
HETATM   33  H   UNL     1      -9.256  19.794  71.767  1.00  0.00     0.000 HD 
ENDBRANCH  29  30
ENDBRANCH  28  29
ENDBRANCH  17  28
BRANCH  19  34
HETATM   34  O   UNL     1      -9.036  17.851  68.925  1.00  0.00    -0.233 OA 
BRANCH  34  35
HETATM   35  C   UNL     1      -7.693  18.122  68.519  1.00  0.00    -0.297 C  
BRANCH  35  36
HETATM   36  C   UNL     1      -7.015  16.793  68.144  1.00  0.00    -0.157 C  
HETATM   37  H   UNL     1      -5.255  16.216  67.476  1.00  0.00     0.000 HD 
HETATM   38  C   UNL     1      -7.753  16.052  67.039  1.00  0.00    -0.264 C  
HETATM   39  O   UNL     1      -5.673  17.037  67.708  1.00  0.00    -0.117 OA 
ENDBRANCH  35  36
ENDBRANCH  34  35
ENDBRANCH  19  34
BRANCH  20  40
HETATM   40  O   UNL     1     -10.818  16.398  66.990  1.00  0.00    -0.267 OA 
BRANCH  40  41
HETATM   41  C   UNL     1     -10.464  17.243  65.889  1.00  0.00    -0.262 C  
BRANCH  41  42
HETATM   42  C   UNL     1     -10.110  18.643  66.399  1.00  0.00    -0.403 C  
HETATM   43  C   UNL     1      -9.922  19.647  65.280  1.00  0.00     0.686 C  
HETATM   44  O   UNL     1     -11.156  19.113  67.255  1.00  0.00    -0.417 OA 
HETATM   45  H   UNL     1     -10.936  19.982  67.572  1.00  0.00     0.000 HD 
ENDBRANCH  41  42
ENDBRANCH  40  41
ENDBRANCH  20  40
ENDBRANCH  14  15
ENDBRANCH  10  14
BRANCH  11  46
HETATM   46  O   UNL     1      -6.814  11.900  69.833  1.00  0.00     0.023 OA 
BRANCH  46  47
HETATM   47  C   UNL     1      -5.664  11.628  69.025  1.00  0.00    -0.051 C  
BRANCH  47  48
HETATM   48  C   UNL     1      -5.198  12.802  68.141  1.00  0.00    -0.077 C  
HETATM   49  C   UNL     1      -6.152  13.062  66.988  1.00  0.00     0.529 C  
HETATM   50  O   UNL     1      -5.144  14.039  68.865  1.00  0.00    -0.074 OA 
HETATM   51  H   UNL     1      -4.856  14.762  68.320  1.00  0.00     0.000 HD 
ENDBRANCH  47  48
ENDBRANCH  46  47
ENDBRANCH  11  46
BRANCH  12  52
HETATM   52  O   UNL     1      -7.399   9.041  70.043  1.00  0.00    -0.050 OA 
BRANCH  52  53
HETATM   53  C   UNL     1      -8.373   8.350  70.831  1.00  0.00    -0.135 C  
BRANCH  53  54
HETATM   54  C   UNL     1      -7.718   7.406  71.856  1.00  0.00    -0.085 C  
HETATM   55  O   UNL     1      -8.169   6.065  71.656  1.00  0.00    -0.116 OA 
HETATM   56  C   UNL     1      -7.970   7.777  73.307  1.00  0.00    -0.184 C  
HETATM   57  H   UNL     1      -7.765   5.482  72.289  1.00  0.00     0.000 HD 
ENDBRANCH  53  54
ENDBRANCH  52  53
ENDBRANCH  12  52
BRANCH  13  58
HETATM   58  O   UNL     1      -5.740  10.225  67.810  1.00  0.00    -0.044 OA 
BRANCH  58  59
HETATM   59  C   UNL     1      -5.314  10.592  69.129  1.00  0.00    -0.038 C  
BRANCH  59  60
HETATM   60  C   UNL     1      -6.486  10.459  70.123  1.00  0.00    -0.137 C  
HETATM   61  O   UNL     1      -6.737  11.735  70.722  1.00  0.00    -0.231 OA 
HETATM   62  H   UNL     1      -7.459  11.653  71.335  1.00  0.00     0.000 HD 
HETATM   63  C   UNL     1      -6.215   9.456  71.222  1.00  0.00    -0.066 C  
ENDBRANCH  59  60
ENDBRANCH  58  59
ENDBRANCH  13  58
ENDBRANCH   7   8
ENDBRANCH   6   7
ENDBRANCH   5   6
ENDBRANCH   2   5
TORSDOF 28
ENDMDL
MODEL       61
REMARK 921   NORMALIZED FREE ENERGY PREDICTED BY IDOCK:   42.54 KCAL/MOL
REMARK 922        TOTAL FREE ENERGY PREDICTED BY IDOCK:  106.48 KCAL/MOL
REMARK 923 INTER-LIGAND FREE ENERGY PREDICTED BY IDOCK:   57.55 KCAL/MOL
REMARK 924 INTRA-LIGAND FREE ENERGY PREDICTED BY IDOCK:   48.93 KCAL/MOL
REMARK 927      BINDING AFFINITY PREDICTED BY RF-SCORE:    0.00 PKD
ROOT
HETATM    1  C   UNL     1      -5.927  15.701  72.412  1.00  0.00     1.463 C  
HETATM    2  C   UNL     1      -6.924  16.644  71.759  1.00  0.00     5.822 C  
HETATM    3  O   UNL     1      -6.979  17.850  72.522  1.00  0.00     5.729 OA 
HETATM    4  H   UNL     1      -7.602  18.439  72.115  1.00  0.00     0.000 HD 
ENDROOT
BRANCH   2   5
HETATM    5  C   UNL     1      -6.575  16.958  70.296  1.00  0.00     0.687 C  
BRANCH   5   6
HETATM    6  O   UNL     1      -6.625  18.373  70.039  1.00  0.00    -0.011 OA 
BRANCH   6   7
HETATM    7  C   UNL     1      -7.730  18.706  69.181  1.00  0.00    -0.080 C  
BRANCH   7   8
HETATM    8  C   UNL     1      -7.903  17.648  68.062  1.00  0.00    -0.235 C  
HETATM    9  O   UNL     1      -8.137  16.323  68.594  1.00  0.00    -0.188 OA 
HETATM   10  C   UNL     1      -9.367  16.144  69.283  1.00  0.00    -0.227 C  
HETATM   11  C   UNL     1     -10.554  16.446  68.309  1.00  0.00    -0.318 C  
HETATM   12  C   UNL     1     -10.393  17.875  67.713  1.00  0.00    -0.387 C  
HETATM   13  C   UNL     1      -9.005  18.019  67.027  1.00  0.00    -0.258 C  
BRANCH  10  14
HETATM   14  O   UNL     1      -9.506  14.819  69.857  1.00  0.00     0.152 OA 
BRANCH  14  15
HETATM   15  C   UNL     1     -10.278  13.841  69.115  1.00  0.00     0.079 C  
HETATM   16  C   UNL     1      -9.323  12.963  68.233  1.00  0.00    -0.194 C  
HETATM   17  C   UNL     1      -8.886  11.432  70.000  1.00  0.00     2.123 C  
HETATM   18  O   UNL     1      -8.319  12.385  69.096  1.00  0.00     0.297 OA 
HETATM   19  C   UNL     1      -9.970  12.081  70.907  1.00  0.00     6.801 C  
HETATM   20  C   UNL     1     -11.034  12.822  70.030  1.00  0.00     0.681 C  
BRANCH  16  21
HETATM   21  C   UNL     1      -8.614  13.629  67.036  1.00  0.00    -0.159 C  
BRANCH  21  22
HETATM   22  O   UNL     1      -9.478  13.512  65.871  1.00  0.00    -0.167 OA 
BRANCH  22  23
HETATM   23  C   UNL     1     -10.377  12.401  65.944  1.00  0.00    -0.257 C  
BRANCH  23  24
HETATM   24  C   UNL     1     -10.815  11.895  64.552  1.00  0.00    -0.316 C  
HETATM   25  H   UNL     1     -12.496  11.799  63.561  1.00  0.00     0.000 HD 
HETATM   26  C   UNL     1     -10.524  10.421  64.294  1.00  0.00     0.130 C  
HETATM   27  O   UNL     1     -12.227  12.110  64.417  1.00  0.00    -0.385 OA 
ENDBRANCH  23  24
ENDBRANCH  22  23
ENDBRANCH  21  22
ENDBRANCH  16  21
BRANCH  17  28
HETATM   28  O   UNL     1      -9.413  10.296  69.307  1.00  0.00    -0.198 OA 
BRANCH  28  29
HETATM   29  C   UNL     1      -9.737   9.200  70.163  1.00  0.00    -0.204 C  
BRANCH  29  30
HETATM   30  C   UNL     1      -8.808   9.088  71.380  1.00  0.00    -0.150 C  
HETATM   31  O   UNL     1      -7.480   9.471  71.030  1.00  0.00    -0.300 OA 
HETATM   32  C   UNL     1      -8.792   7.675  71.946  1.00  0.00    -0.143 C  
HETATM   33  H   UNL     1      -6.905   9.402  71.783  1.00  0.00     0.000 HD 
ENDBRANCH  29  30
ENDBRANCH  28  29
ENDBRANCH  17  28
BRANCH  19  34
HETATM   34  O   UNL     1     -10.633  11.176  71.809  1.00  0.00     4.076 OA 
BRANCH  34  35
HETATM   35  C   UNL     1     -11.781  11.699  72.479  1.00  0.00     5.342 C  
BRANCH  35  36
HETATM   36  C   UNL     1     -12.505  12.670  71.530  1.00  0.00    -0.022 C  
HETATM   37  H   UNL     1     -12.144  13.516  69.789  1.00  0.00     0.000 HD 
HETATM   38  C   UNL     1     -12.821  14.003  72.190  1.00  0.00    -0.410 C  
HETATM   39  O   UNL     1     -11.696  12.916  70.375  1.00  0.00    -0.213 OA 
ENDBRANCH  35  36
ENDBRANCH  34  35
ENDBRANCH  19  34
BRANCH  20  40
HETATM   40  O   UNL     1     -11.812  11.964  69.159  1.00  0.00    -0.293 OA 
BRANCH  40  41
HETATM   41  C   UNL     1     -12.104  10.682  69.728  1.00  0.00    -0.272 C  
BRANCH  41  42
HETATM   42  C   UNL     1     -12.865   9.823  68.714  1.00  0.00     4.021 C  
HETATM   43  C   UNL     1     -12.116   9.654  67.407  1.00  0.00     4.228 C  
HETATM   44  O   UNL     1     -13.099   8.527  69.271  1.00  0.00     3.603 OA 
HETATM   45  H   UNL     1     -13.571   7.994  68.641  1.00  0.00     0.000 HD 
ENDBRANCH  41  42
ENDBRANCH  40  41
ENDBRANCH  20  40
ENDBRANCH  14  15
ENDBRANCH  10  14
BRANCH  11  46
HETATM   46  O   UNL     1     -10.707  15.510  67.223  1.00  0.00    -0.298 OA 
BRANCH  46  47
HETATM   47  C   UNL     1     -11.709  15.784  66.238  1.00  0.00     0.574 C  
BRANCH  47  48
HETATM   48  C   UNL     1     -11.167  16.218  64.862  1.00  0.00    -0.236 C  
HETATM   49  C   UNL     1     -11.562  15.249  63.761  1.00  0.00     0.638 C  
HETATM   50  O   UNL     1     -11.692  17.487  64.447  1.00  0.00     0.131 OA 
HETATM   51  H   UNL     1     -11.358  17.755  63.599  1.00  0.00     0.000 HD 
ENDBRANCH  47  48
ENDBRANCH  46  47
ENDBRANCH  11  46
BRANCH  12  52
HETATM   52  O   UNL     1     -11.440  18.313  66.808  1.00  0.00     0.701 OA 
BRANCH  52  53
HETATM   53  C   UNL     1     -11.000  18.680  65.497  1.00  0.00     0.336 C  
BRANCH  53  54
HETATM   54  C   UNL     1      -9.785  19.625  65.544  1.00  0.00     0.330 C  
HETATM   55  O   UNL     1      -9.413  19.891  66.898  1.00  0.00    -0.341 OA 
HETATM   56  C   UNL     1      -9.995  20.957  64.843  1.00  0.00     1.913 C  
HETATM   57  H   UNL     1      -8.663  20.475  66.926  1.00  0.00     0.000 HD 
ENDBRANCH  53  54
ENDBRANCH  52  53
ENDBRANCH  12  52
BRANCH  13  58
HETATM   58  O   UNL     1      -8.807  17.144  65.890  1.00  0.00    -0.520 OA 
BRANCH  58  59
HETATM   59  C   UNL     1      -7.551  16.453  65.854  1.00  0.00     0.758 C  
BRANCH  59  60
HETATM   60  C   UNL     1      -7.776  14.931  65.954  1.00  0.00     3.297 C  
HETATM   61  O   UNL     1      -6.608  14.321  66.514  1.00  0.00     0.784 OA 
HETATM   62  H   UNL     1      -6.747  13.383  66.575  1.00  0.00     0.000 HD 
HETATM   63  C   UNL     1      -8.060  14.288  64.614  1.00  0.00     9.639 C  
ENDBRANCH  59  60
ENDBRANCH  58  59
ENDBRANCH  13  58
ENDBRANCH   7   8
ENDBRANCH   6   7
ENDBRANCH   5   6
ENDBRANCH   2   5
TORSDOF 28
ENDMDL
MODEL       62
REMARK 921   NORMALIZED FREE ENERGY PREDICTED BY IDOCK:   48.24 KCAL/MOL
REMARK 922        TOTAL FREE ENERGY PREDICTED BY IDOCK:  121.52 KCAL/MOL
REMARK 923 INTER-LIGAND FREE ENERGY PREDICTED BY IDOCK:   48.43 KCAL/MOL
REMARK 924 INTRA-LIGAND FREE ENERGY PREDICTED BY IDOCK:   73.09 KCAL/MOL
REMARK 927      BINDING AFFINITY PREDICTED BY RF-SCORE:    0.00 PKD
ROOT
HETATM    1  C   UNL     1      -8.457  11.394  66.454  1.00  0.00    -0.160 C  
HETATM    2  C   UNL     1      -8.972  10.622  67.657  1.00  0.00    -0.139 C  
HETATM    3  O   UNL     1      -9.846   9.590  67.198  1.00  0.00    -0.165 OA 
HETATM    4  H   UNL     1     -10.168   9.108  67.949  1.00  0.00     0.000 HD 
ENDROOT
BRANCH   2   5
HETATM    5  C   UNL     1      -7.841  10.020  68.505  1.00  0.00    -0.093 C  
BRANCH   5   6
HETATM    6  O   UNL     1      -6.675  10.863  68.497  1.00  0.00    -0.055 OA 
BRANCH   6   7
HETATM    7  C   UNL     1      -5.492  10.119  68.835  1.00  0.00    -0.034 C  
BRANCH   7   8
HETATM    8  C   UNL     1      -5.822   8.620  69.049  1.00  0.00    -0.040 C  
HETATM    9  O   UNL     1      -7.180   8.419  69.507  1.00  0.00    -0.059 OA 
HETATM   10  C   UNL     1      -8.201   8.758  68.579  1.00  0.00    -0.117 C  
HETATM   11  C   UNL     1      -8.035   7.887  67.289  1.00  0.00    -0.118 C  
HETATM   12  C   UNL     1      -6.602   8.072  66.710  1.00  0.00    -0.056 C  
HETATM   13  C   UNL     1      -5.538   7.741  67.796  1.00  0.00    -0.036 C  
BRANCH  10  14
HETATM   14  O   UNL     1      -9.536   8.607  69.125  1.00  0.00    -0.156 OA 
BRANCH  14  15
HETATM   15  C   UNL     1      -9.664   7.987  70.429  1.00  0.00    -0.178 C  
HETATM   16  C   UNL     1      -9.859   9.088  71.530  1.00  0.00    -0.310 C  
HETATM   17  C   UNL     1     -12.215   9.166  71.219  1.00  0.00    -0.327 C  
HETATM   18  O   UNL     1     -10.991   9.903  71.153  1.00  0.00    -0.333 OA 
HETATM   19  C   UNL     1     -12.189   7.931  70.273  1.00  0.00     0.477 C  
HETATM   20  C   UNL     1     -10.920   7.062  70.557  1.00  0.00    -0.265 C  
BRANCH  16  21
HETATM   21  C   UNL     1      -8.672  10.019  71.851  1.00  0.00     3.785 C  
BRANCH  21  22
HETATM   22  O   UNL     1      -7.878   9.401  72.902  1.00  0.00     0.503 OA 
BRANCH  22  23
HETATM   23  C   UNL     1      -8.667   8.680  73.854  1.00  0.00     0.451 C  
BRANCH  23  24
HETATM   24  C   UNL     1      -7.891   7.520  74.517  1.00  0.00    -0.178 C  
HETATM   25  H   UNL     1      -6.010   7.048  74.756  1.00  0.00     0.000 HD 
HETATM   26  C   UNL     1      -8.215   6.140  73.954  1.00  0.00    -0.109 C  
HETATM   27  O   UNL     1      -6.487   7.762  74.349  1.00  0.00    -0.091 OA 
ENDBRANCH  23  24
ENDBRANCH  22  23
ENDBRANCH  21  22
ENDBRANCH  16  21
BRANCH  17  28
HETATM   28  O   UNL     1     -12.526   8.775  72.560  1.00  0.00    -0.382 OA 
BRANCH  28  29
HETATM   29  C   UNL     1     -12.166   7.426  72.863  1.00  0.00     0.393 C  
BRANCH  29  30
HETATM   30  C   UNL     1     -13.118   6.757  73.864  1.00  0.00     6.782 C  
HETATM   31  O   UNL     1     -13.656   5.556  73.314  1.00  0.00     0.687 OA 
HETATM   32  C   UNL     1     -14.259   7.683  74.260  1.00  0.00     6.930 C  
HETATM   33  H   UNL     1     -14.246   5.142  73.932  1.00  0.00     0.000 HD 
ENDBRANCH  29  30
ENDBRANCH  28  29
ENDBRANCH  17  28
BRANCH  19  34
HETATM   34  O   UNL     1     -13.364   7.101  70.319  1.00  0.00     0.646 OA 
BRANCH  34  35
HETATM   35  C   UNL     1     -13.439   6.193  71.419  1.00  0.00     1.299 C  
BRANCH  35  36
HETATM   36  C   UNL     1     -12.772   4.868  71.010  1.00  0.00     6.832 C  
HETATM   37  H   UNL     1     -11.495   4.266  69.638  1.00  0.00     0.000 HD 
HETATM   38  C   UNL     1     -13.784   3.795  70.637  1.00  0.00    20.839 C  
HETATM   39  O   UNL     1     -11.906   5.084  69.890  1.00  0.00     3.116 OA 
ENDBRANCH  35  36
ENDBRANCH  34  35
ENDBRANCH  19  34
BRANCH  20  40
HETATM   40  O   UNL     1     -10.873   6.461  71.875  1.00  0.00    -0.225 OA 
BRANCH  40  41
HETATM   41  C   UNL     1      -9.708   6.817  72.628  1.00  0.00    -0.149 C  
BRANCH  41  42
HETATM   42  C   UNL     1      -8.471   6.146  72.022  1.00  0.00    -0.121 C  
HETATM   43  C   UNL     1      -7.283   6.143  72.963  1.00  0.00    -0.085 C  
HETATM   44  O   UNL     1      -8.784   4.790  71.687  1.00  0.00    -0.119 OA 
HETATM   45  H   UNL     1      -8.016   4.374  71.312  1.00  0.00     0.000 HD 
ENDBRANCH  41  42
ENDBRANCH  40  41
ENDBRANCH  20  40
ENDBRANCH  14  15
ENDBRANCH  10  14
BRANCH  11  46
HETATM   46  O   UNL     1      -8.281   6.478  67.466  1.00  0.00    -0.119 OA 
BRANCH  46  47
HETATM   47  C   UNL     1      -7.151   5.617  67.640  1.00  0.00    -0.071 C  
BRANCH  47  48
HETATM   48  C   UNL     1      -7.087   4.423  66.667  1.00  0.00    -0.067 C  
HETATM   49  C   UNL     1      -6.158   4.691  65.496  1.00  0.00    -0.026 C  
HETATM   50  O   UNL     1      -6.569   3.240  67.291  1.00  0.00    -0.036 OA 
HETATM   51  H   UNL     1      -6.530   2.505  66.691  1.00  0.00     0.000 HD 
ENDBRANCH  47  48
ENDBRANCH  46  47
ENDBRANCH  11  46
BRANCH  12  52
HETATM   52  O   UNL     1      -6.306   7.346  65.490  1.00  0.00    -0.040 OA 
BRANCH  52  53
HETATM   53  C   UNL     1      -6.843   7.919  64.293  1.00  0.00    -0.061 C  
BRANCH  53  54
HETATM   54  C   UNL     1      -8.112   7.183  63.824  1.00  0.00    -0.000 C  
HETATM   55  O   UNL     1      -7.797   5.843  63.440  1.00  0.00    -0.089 OA 
HETATM   56  C   UNL     1      -8.834   7.847  62.664  1.00  0.00     0.462 C  
HETATM   57  H   UNL     1      -8.579   5.389  63.150  1.00  0.00     0.000 HD 
ENDBRANCH  53  54
ENDBRANCH  52  53
ENDBRANCH  12  52
BRANCH  13  58
HETATM   58  O   UNL     1      -5.556   6.366  68.250  1.00  0.00    -0.008 OA 
BRANCH  58  59
HETATM   59  C   UNL     1      -6.269   6.128  69.471  1.00  0.00    -0.033 C  
BRANCH  59  60
HETATM   60  C   UNL     1      -6.560   4.623  69.634  1.00  0.00    -0.033 C  
HETATM   61  O   UNL     1      -7.780   4.306  68.956  1.00  0.00    -0.055 OA 
HETATM   62  H   UNL     1      -7.960   3.379  69.056  1.00  0.00     0.000 HD 
HETATM   63  C   UNL     1      -6.690   4.201  71.081  1.00  0.00    -0.034 C  
ENDBRANCH  59  60
ENDBRANCH  58  59
ENDBRANCH  13  58
ENDBRANCH   7   8
ENDBRANCH   6   7
ENDBRANCH   5   6
ENDBRANCH   2   5
TORSDOF 28
ENDMDL
