MODEL        1
REMARK 921   NORMALIZED FREE ENERGY PREDICTED BY IDOCK:   -7.41 KCAL/MOL
REMARK 922        TOTAL FREE ENERGY PREDICTED BY IDOCK:   -7.60 KCAL/MOL
REMARK 923 INTER-LIGAND FREE ENERGY PREDICTED BY IDOCK:   -7.84 KCAL/MOL
REMARK 924 INTRA-LIGAND FREE ENERGY PREDICTED BY IDOCK:    0.24 KCAL/MOL
REMARK 927      BINDING AFFINITY PREDICTED BY RF-SCORE:    0.00 PKD
ROOT
HETATM    1  N   UNL     1     -12.051  15.404  63.732  1.00  0.00    -0.965 N  
HETATM    2  H2  UNL     1     -12.927  15.677  63.289  1.00  0.00     0.000 HD 
HETATM    3  H1  UNL     1     -11.122  15.721  63.453  1.00  0.00     0.000 HD 
HETATM    4  S   UNL     1     -11.903  14.362  65.036  1.00  0.00    -0.415 S  
HETATM    5  O   UNL     1     -10.859  13.441  64.655  1.00  0.00    -0.348 OA 
HETATM    6  O   UNL     1     -13.215  13.914  65.429  1.00  0.00    -0.750 OA 
ENDROOT
BRANCH   4   7
HETATM    7  C   UNL     1     -11.281  15.447  66.292  1.00  0.00    -0.162 A  
HETATM    8  C   UNL     1     -10.875  16.720  65.878  1.00  0.00    -0.053 A  
HETATM    9  C   UNL     1     -10.465  17.662  66.825  1.00  0.00    -0.289 A  
HETATM   10  C   UNL     1     -10.436  17.380  68.188  1.00  0.00    -0.389 A  
HETATM   11  C   UNL     1     -10.849  16.100  68.582  1.00  0.00    -0.311 A  
HETATM   12  N   UNL     1     -10.171  18.344  69.159  1.00  0.00    -0.434 NA 
HETATM   13  C   UNL     1     -11.254  15.103  67.657  1.00  0.00    -0.329 A  
HETATM   14  H   UNL     1     -10.496  18.222  70.118  1.00  0.00     0.000 HD 
HETATM   15  C   UNL     1      -9.427  19.520  68.778  1.00  0.00    -0.385 C  
HETATM   16  C   UNL     1     -11.621  13.756  68.243  1.00  0.00    -0.338 C  
HETATM   17  N   UNL     1     -10.091  20.183  67.676  1.00  0.00    -0.409 N  
HETATM   18  F   UNL     1     -12.614  13.873  69.171  1.00  0.00    -0.335 F  
HETATM   19  F   UNL     1     -10.567  13.212  68.918  1.00  0.00    -0.232 F  
HETATM   20  F   UNL     1     -12.043  12.791  67.392  1.00  0.00    -0.412 F  
HETATM   21  S   UNL     1     -10.015  19.265  66.276  1.00  0.00    -0.423 S  
HETATM   22  H   UNL     1     -10.546  21.093  67.742  1.00  0.00     0.000 HD 
HETATM   23  O   UNL     1      -8.623  19.218  65.886  1.00  0.00    -0.445 OA 
HETATM   24  O   UNL     1     -11.035  19.761  65.381  1.00  0.00    -0.414 OA 
ENDBRANCH   4   7
TORSDOF 1
ENDMDL
MODEL        2
REMARK 921   NORMALIZED FREE ENERGY PREDICTED BY IDOCK:   -7.31 KCAL/MOL
REMARK 922        TOTAL FREE ENERGY PREDICTED BY IDOCK:   -7.51 KCAL/MOL
REMARK 923 INTER-LIGAND FREE ENERGY PREDICTED BY IDOCK:   -7.62 KCAL/MOL
REMARK 924 INTRA-LIGAND FREE ENERGY PREDICTED BY IDOCK:    0.12 KCAL/MOL
REMARK 927      BINDING AFFINITY PREDICTED BY RF-SCORE:    0.00 PKD
ROOT
HETATM    1  N   UNL     1     -12.633  16.177  69.597  1.00  0.00    -0.461 N  
HETATM    2  H2  UNL     1     -12.046  17.003  69.708  1.00  0.00     0.000 HD 
HETATM    3  H1  UNL     1     -13.478  16.124  69.028  1.00  0.00     0.000 HD 
HETATM    4  S   UNL     1     -12.367  14.689  70.320  1.00  0.00    -0.351 S  
HETATM    5  O   UNL     1     -13.645  14.316  70.875  1.00  0.00    -0.261 OA 
HETATM    6  O   UNL     1     -11.174  14.765  71.124  1.00  0.00    -0.208 OA 
ENDROOT
BRANCH   4   7
HETATM    7  C   UNL     1     -12.031  13.663  68.914  1.00  0.00    -0.356 A  
HETATM    8  C   UNL     1     -11.865  14.314  67.686  1.00  0.00    -0.420 A  
HETATM    9  C   UNL     1     -11.503  13.582  66.554  1.00  0.00    -0.339 A  
HETATM   10  C   UNL     1     -11.302  12.204  66.593  1.00  0.00    -0.350 A  
HETATM   11  C   UNL     1     -11.471  11.573  67.832  1.00  0.00    -0.372 A  
HETATM   12  N   UNL     1     -10.802  11.477  65.514  1.00  0.00    -0.276 NA 
HETATM   13  C   UNL     1     -11.858  12.269  69.006  1.00  0.00    -0.358 A  
HETATM   14  H   UNL     1     -10.337  10.582  65.661  1.00  0.00     0.000 HD 
HETATM   15  C   UNL     1     -10.958  12.019  64.186  1.00  0.00    -0.360 C  
HETATM   16  C   UNL     1     -12.047  11.430  70.251  1.00  0.00    -0.374 C  
HETATM   17  N   UNL     1     -10.374  13.342  64.127  1.00  0.00    -0.638 N  
HETATM   18  F   UNL     1     -10.916  10.729  70.553  1.00  0.00    -0.336 F  
HETATM   19  F   UNL     1     -13.011  10.483  70.063  1.00  0.00    -0.349 F  
HETATM   20  F   UNL     1     -12.385  12.067  71.397  1.00  0.00    -0.381 F  
HETATM   21  S   UNL     1     -11.250  14.437  65.044  1.00  0.00    -0.397 S  
HETATM   22  H   UNL     1      -9.537  13.579  63.594  1.00  0.00     0.000 HD 
HETATM   23  O   UNL     1     -12.539  14.578  64.402  1.00  0.00    -0.665 OA 
HETATM   24  O   UNL     1     -10.395  15.577  65.285  1.00  0.00    -0.371 OA 
ENDBRANCH   4   7
TORSDOF 1
ENDMDL
MODEL        3
REMARK 921   NORMALIZED FREE ENERGY PREDICTED BY IDOCK:   -7.14 KCAL/MOL
REMARK 922        TOTAL FREE ENERGY PREDICTED BY IDOCK:   -7.32 KCAL/MOL
REMARK 923 INTER-LIGAND FREE ENERGY PREDICTED BY IDOCK:   -7.45 KCAL/MOL
REMARK 924 INTRA-LIGAND FREE ENERGY PREDICTED BY IDOCK:    0.13 KCAL/MOL
REMARK 927      BINDING AFFINITY PREDICTED BY RF-SCORE:    0.00 PKD
ROOT
HETATM    1  N   UNL     1     -12.159  15.610  63.707  1.00  0.00    -0.956 N  
HETATM    2  H2  UNL     1     -12.971  16.210  63.570  1.00  0.00     0.000 HD 
HETATM    3  H1  UNL     1     -11.247  15.737  63.267  1.00  0.00     0.000 HD 
HETATM    4  S   UNL     1     -12.104  14.254  64.691  1.00  0.00    -0.466 S  
HETATM    5  O   UNL     1     -11.494  13.232  63.876  1.00  0.00    -0.394 OA 
HETATM    6  O   UNL     1     -13.391  14.074  65.312  1.00  0.00    -0.741 OA 
ENDROOT
BRANCH   4   7
HETATM    7  C   UNL     1     -10.948  14.761  65.935  1.00  0.00    -0.335 A  
HETATM    8  C   UNL     1     -10.318  15.996  65.743  1.00  0.00    -0.398 A  
HETATM    9  C   UNL     1      -9.469  16.505  66.727  1.00  0.00    -0.249 A  
HETATM   10  C   UNL     1      -9.211  15.820  67.912  1.00  0.00    -0.191 A  
HETATM   11  C   UNL     1      -9.854  14.587  68.086  1.00  0.00    -0.223 A  
HETATM   12  N   UNL     1      -8.486  16.371  68.967  1.00  0.00    -0.242 NA 
HETATM   13  C   UNL     1     -10.708  14.018  67.107  1.00  0.00    -0.283 A  
HETATM   14  H   UNL     1      -8.608  16.027  69.919  1.00  0.00     0.000 HD 
HETATM   15  C   UNL     1      -7.558  17.439  68.682  1.00  0.00    -0.265 C  
HETATM   16  C   UNL     1     -11.282  12.655  67.430  1.00  0.00    -0.290 C  
HETATM   17  N   UNL     1      -8.249  18.523  68.017  1.00  0.00    -0.262 N  
HETATM   18  F   UNL     1     -11.973  12.674  68.606  1.00  0.00    -0.320 F  
HETATM   19  F   UNL     1     -10.290  11.737  67.615  1.00  0.00    -0.195 F  
HETATM   20  F   UNL     1     -12.128  12.097  66.532  1.00  0.00    -0.406 F  
HETATM   21  S   UNL     1      -8.740  18.079  66.477  1.00  0.00    -0.236 S  
HETATM   22  H   UNL     1      -8.416  19.439  68.432  1.00  0.00     0.000 HD 
HETATM   23  O   UNL     1      -7.536  17.884  65.699  1.00  0.00    -0.544 OA 
HETATM   24  O   UNL     1      -9.763  19.014  66.066  1.00  0.00    -0.450 OA 
ENDBRANCH   4   7
TORSDOF 1
ENDMDL
MODEL        4
REMARK 921   NORMALIZED FREE ENERGY PREDICTED BY IDOCK:   -6.81 KCAL/MOL
REMARK 922        TOTAL FREE ENERGY PREDICTED BY IDOCK:   -6.97 KCAL/MOL
REMARK 923 INTER-LIGAND FREE ENERGY PREDICTED BY IDOCK:   -7.02 KCAL/MOL
REMARK 924 INTRA-LIGAND FREE ENERGY PREDICTED BY IDOCK:    0.06 KCAL/MOL
REMARK 927      BINDING AFFINITY PREDICTED BY RF-SCORE:    0.00 PKD
ROOT
HETATM    1  N   UNL     1     -12.410  14.855  63.698  1.00  0.00    -1.053 N  
HETATM    2  H2  UNL     1     -13.325  15.285  63.832  1.00  0.00     0.000 HD 
HETATM    3  H1  UNL     1     -11.638  15.260  63.167  1.00  0.00     0.000 HD 
HETATM    4  S   UNL     1     -11.931  13.372  64.312  1.00  0.00    -0.442 S  
HETATM    5  O   UNL     1     -11.325  12.689  63.195  1.00  0.00    -0.397 OA 
HETATM    6  O   UNL     1     -13.021  12.800  65.060  1.00  0.00    -0.811 OA 
ENDROOT
BRANCH   4   7
HETATM    7  C   UNL     1     -10.660  13.849  65.451  1.00  0.00    -0.335 A  
HETATM    8  C   UNL     1     -10.451  15.223  65.621  1.00  0.00    -0.377 A  
HETATM    9  C   UNL     1      -9.534  15.675  66.572  1.00  0.00    -0.274 A  
HETATM   10  C   UNL     1      -8.799  14.802  67.369  1.00  0.00    -0.193 A  
HETATM   11  C   UNL     1      -9.025  13.431  67.185  1.00  0.00    -0.227 A  
HETATM   12  N   UNL     1      -7.989  15.229  68.420  1.00  0.00    -0.127 NA 
HETATM   13  C   UNL     1      -9.930  12.922  66.218  1.00  0.00    -0.271 A  
HETATM   14  H   UNL     1      -7.758  14.600  69.188  1.00  0.00     0.000 HD 
HETATM   15  C   UNL     1      -7.485  16.580  68.396  1.00  0.00    -0.186 C  
HETATM   16  C   UNL     1     -10.018  11.414  66.112  1.00  0.00    -0.227 C  
HETATM   17  N   UNL     1      -8.588  17.511  68.290  1.00  0.00    -0.259 N  
HETATM   18  F   UNL     1     -10.349  10.851  67.310  1.00  0.00    -0.211 F  
HETATM   19  F   UNL     1      -8.807  10.874  65.788  1.00  0.00    -0.169 F  
HETATM   20  F   UNL     1     -10.895  10.894  65.222  1.00  0.00    -0.320 F  
HETATM   21  S   UNL     1      -9.338  17.403  66.796  1.00  0.00    -0.277 S  
HETATM   22  H   UNL     1      -8.872  18.153  69.031  1.00  0.00     0.000 HD 
HETATM   23  O   UNL     1      -8.378  17.864  65.816  1.00  0.00    -0.521 OA 
HETATM   24  O   UNL     1     -10.642  18.013  66.923  1.00  0.00    -0.348 OA 
ENDBRANCH   4   7
TORSDOF 1
ENDMDL
MODEL        5
REMARK 921   NORMALIZED FREE ENERGY PREDICTED BY IDOCK:   -6.78 KCAL/MOL
REMARK 922        TOTAL FREE ENERGY PREDICTED BY IDOCK:   -6.93 KCAL/MOL
REMARK 923 INTER-LIGAND FREE ENERGY PREDICTED BY IDOCK:   -7.04 KCAL/MOL
REMARK 924 INTRA-LIGAND FREE ENERGY PREDICTED BY IDOCK:    0.10 KCAL/MOL
REMARK 927      BINDING AFFINITY PREDICTED BY RF-SCORE:    0.00 PKD
ROOT
HETATM    1  N   UNL     1      -9.432  11.707  68.456  1.00  0.00    -0.260 N  
HETATM    2  H2  UNL     1      -9.435  11.963  67.469  1.00  0.00     0.000 HD 
HETATM    3  H1  UNL     1      -8.888  12.168  69.186  1.00  0.00     0.000 HD 
HETATM    4  S   UNL     1     -10.318  10.461  69.142  1.00  0.00    -0.235 S  
HETATM    5  O   UNL     1      -9.372   9.746  69.964  1.00  0.00    -0.225 OA 
HETATM    6  O   UNL     1     -11.085   9.809  68.111  1.00  0.00    -0.215 OA 
ENDROOT
BRANCH   4   7
HETATM    7  C   UNL     1     -11.434  11.351  70.193  1.00  0.00    -0.214 A  
HETATM    8  C   UNL     1     -11.445  12.744  70.060  1.00  0.00    -0.082 A  
HETATM    9  C   UNL     1     -12.366  13.504  70.784  1.00  0.00    -0.363 A  
HETATM   10  C   UNL     1     -13.286  12.926  71.655  1.00  0.00    -0.324 A  
HETATM   11  C   UNL     1     -13.259  11.529  71.771  1.00  0.00    -0.456 A  
HETATM   12  N   UNL     1     -14.305  13.646  72.275  1.00  0.00    -0.595 NA 
HETATM   13  C   UNL     1     -12.330  10.716  71.073  1.00  0.00    -0.507 A  
HETATM   14  H   UNL     1     -15.150  13.178  72.601  1.00  0.00     0.000 HD 
HETATM   15  C   UNL     1     -14.137  15.069  72.446  1.00  0.00    -0.476 C  
HETATM   16  C   UNL     1     -12.401   9.229  71.350  1.00  0.00    -0.343 C  
HETATM   17  N   UNL     1     -13.885  15.689  71.163  1.00  0.00    -0.724 N  
HETATM   18  F   UNL     1     -13.646   8.735  71.089  1.00  0.00    -0.315 F  
HETATM   19  F   UNL     1     -12.185   8.966  72.671  1.00  0.00    -0.422 F  
HETATM   20  F   UNL     1     -11.550   8.420  70.676  1.00  0.00    -0.279 F  
HETATM   21  S   UNL     1     -12.390  15.242  70.552  1.00  0.00    -0.413 S  
HETATM   22  H   UNL     1     -14.534  16.319  70.690  1.00  0.00     0.000 HD 
HETATM   23  O   UNL     1     -11.395  15.813  71.434  1.00  0.00    -0.375 OA 
HETATM   24  O   UNL     1     -12.400  15.530  69.136  1.00  0.00    -0.215 OA 
ENDBRANCH   4   7
TORSDOF 1
ENDMDL
MODEL        6
REMARK 921   NORMALIZED FREE ENERGY PREDICTED BY IDOCK:   -6.64 KCAL/MOL
REMARK 922        TOTAL FREE ENERGY PREDICTED BY IDOCK:   -6.79 KCAL/MOL
REMARK 923 INTER-LIGAND FREE ENERGY PREDICTED BY IDOCK:   -6.86 KCAL/MOL
REMARK 924 INTRA-LIGAND FREE ENERGY PREDICTED BY IDOCK:    0.06 KCAL/MOL
REMARK 927      BINDING AFFINITY PREDICTED BY RF-SCORE:    0.00 PKD
ROOT
HETATM    1  N   UNL     1      -9.077  14.509  69.530  1.00  0.00    -0.360 N  
HETATM    2  H2  UNL     1      -9.551  14.117  70.343  1.00  0.00     0.000 HD 
HETATM    3  H1  UNL     1      -8.408  14.014  68.939  1.00  0.00     0.000 HD 
HETATM    4  S   UNL     1      -9.269  16.068  68.949  1.00  0.00    -0.245 S  
HETATM    5  O   UNL     1      -7.926  16.551  68.737  1.00  0.00    -0.213 OA 
HETATM    6  O   UNL     1     -10.213  16.767  69.783  1.00  0.00    -0.148 OA 
ENDROOT
BRANCH   4   7
HETATM    7  C   UNL     1     -10.026  15.772  67.373  1.00  0.00    -0.237 A  
HETATM    8  C   UNL     1     -10.358  14.445  67.075  1.00  0.00    -0.263 A  
HETATM    9  C   UNL     1     -11.044  14.149  65.895  1.00  0.00    -0.306 A  
HETATM   10  C   UNL     1     -11.413  15.133  64.982  1.00  0.00    -0.339 A  
HETATM   11  C   UNL     1     -11.073  16.455  65.302  1.00  0.00    -0.117 A  
HETATM   12  N   UNL     1     -12.220  14.880  63.875  1.00  0.00    -1.016 NA 
HETATM   13  C   UNL     1     -10.359  16.805  66.476  1.00  0.00    -0.301 A  
HETATM   14  H   UNL     1     -12.760  15.629  63.442  1.00  0.00     0.000 HD 
HETATM   15  C   UNL     1     -12.277  13.535  63.356  1.00  0.00    -0.272 C  
HETATM   16  C   UNL     1     -10.027  18.272  66.646  1.00  0.00    -0.364 C  
HETATM   17  N   UNL     1     -12.678  12.622  64.405  1.00  0.00    -0.712 N  
HETATM   18  F   UNL     1     -11.152  19.042  66.613  1.00  0.00    -0.411 F  
HETATM   19  F   UNL     1      -9.258  18.722  65.612  1.00  0.00    -0.045 F  
HETATM   20  F   UNL     1      -9.374  18.646  67.771  1.00  0.00    -0.282 F  
HETATM   21  S   UNL     1     -11.492  12.483  65.580  1.00  0.00    -0.366 S  
HETATM   22  H   UNL     1     -13.570  12.127  64.426  1.00  0.00     0.000 HD 
HETATM   23  O   UNL     1     -10.360  11.838  64.950  1.00  0.00    -0.264 OA 
HETATM   24  O   UNL     1     -12.118  11.931  66.760  1.00  0.00    -0.593 OA 
ENDBRANCH   4   7
TORSDOF 1
ENDMDL
MODEL        7
REMARK 921   NORMALIZED FREE ENERGY PREDICTED BY IDOCK:   -6.61 KCAL/MOL
REMARK 922        TOTAL FREE ENERGY PREDICTED BY IDOCK:   -6.76 KCAL/MOL
REMARK 923 INTER-LIGAND FREE ENERGY PREDICTED BY IDOCK:   -6.81 KCAL/MOL
REMARK 924 INTRA-LIGAND FREE ENERGY PREDICTED BY IDOCK:    0.05 KCAL/MOL
REMARK 927      BINDING AFFINITY PREDICTED BY RF-SCORE:    0.00 PKD
ROOT
HETATM    1  N   UNL     1      -9.699  12.135  68.897  1.00  0.00    -0.416 N  
HETATM    2  H2  UNL     1      -8.769  11.922  69.258  1.00  0.00     0.000 HD 
HETATM    3  H1  UNL     1     -10.444  12.599  69.417  1.00  0.00     0.000 HD 
HETATM    4  S   UNL     1     -10.249  11.780  67.354  1.00  0.00    -0.202 S  
HETATM    5  O   UNL     1     -11.541  11.169  67.556  1.00  0.00    -0.526 OA 
HETATM    6  O   UNL     1      -9.197  11.125  66.620  1.00  0.00    -0.167 OA 
ENDROOT
BRANCH   4   7
HETATM    7  C   UNL     1     -10.481  13.401  66.675  1.00  0.00    -0.280 A  
HETATM    8  C   UNL     1     -10.098  14.480  67.480  1.00  0.00    -0.228 A  
HETATM    9  C   UNL     1     -10.160  15.781  66.975  1.00  0.00    -0.261 A  
HETATM   10  C   UNL     1     -10.602  16.056  65.683  1.00  0.00    -0.377 A  
HETATM   11  C   UNL     1     -10.978  14.961  64.894  1.00  0.00    -0.422 A  
HETATM   12  N   UNL     1     -10.537  17.325  65.111  1.00  0.00    -0.638 NA 
HETATM   13  C   UNL     1     -10.952  13.624  65.368  1.00  0.00    -0.302 A  
HETATM   14  H   UNL     1     -10.519  17.439  64.098  1.00  0.00     0.000 HD 
HETATM   15  C   UNL     1     -10.494  18.473  65.983  1.00  0.00    -0.400 C  
HETATM   16  C   UNL     1     -11.440  12.563  64.404  1.00  0.00    -0.349 C  
HETATM   17  N   UNL     1      -9.380  18.351  66.898  1.00  0.00    -0.281 N  
HETATM   18  F   UNL     1     -10.734  12.591  63.237  1.00  0.00    -0.445 F  
HETATM   19  F   UNL     1     -12.736  12.789  64.042  1.00  0.00    -0.428 F  
HETATM   20  F   UNL     1     -11.399  11.273  64.813  1.00  0.00    -0.308 F  
HETATM   21  S   UNL     1      -9.621  17.104  67.991  1.00  0.00    -0.276 S  
HETATM   22  H   UNL     1      -8.553  18.948  66.881  1.00  0.00     0.000 HD 
HETATM   23  O   UNL     1     -10.736  17.495  68.826  1.00  0.00    -0.285 OA 
HETATM   24  O   UNL     1      -8.333  16.771  68.556  1.00  0.00    -0.222 OA 
ENDBRANCH   4   7
TORSDOF 1
ENDMDL
MODEL        8
REMARK 921   NORMALIZED FREE ENERGY PREDICTED BY IDOCK:   -6.58 KCAL/MOL
REMARK 922        TOTAL FREE ENERGY PREDICTED BY IDOCK:   -6.73 KCAL/MOL
REMARK 923 INTER-LIGAND FREE ENERGY PREDICTED BY IDOCK:   -6.78 KCAL/MOL
REMARK 924 INTRA-LIGAND FREE ENERGY PREDICTED BY IDOCK:    0.05 KCAL/MOL
REMARK 927      BINDING AFFINITY PREDICTED BY RF-SCORE:    0.00 PKD
ROOT
HETATM    1  N   UNL     1     -13.293  14.013  72.857  1.00  0.00    -0.502 N  
HETATM    2  H2  UNL     1     -14.230  13.923  73.249  1.00  0.00     0.000 HD 
HETATM    3  H1  UNL     1     -12.429  13.721  73.315  1.00  0.00     0.000 HD 
HETATM    4  S   UNL     1     -12.923  14.663  71.358  1.00  0.00    -0.358 S  
HETATM    5  O   UNL     1     -11.840  15.582  71.613  1.00  0.00    -0.332 OA 
HETATM    6  O   UNL     1     -14.143  15.075  70.712  1.00  0.00    -0.170 OA 
ENDROOT
BRANCH   4   7
HETATM    7  C   UNL     1     -12.285  13.248  70.501  1.00  0.00    -0.340 A  
HETATM    8  C   UNL     1     -12.312  12.031  71.191  1.00  0.00    -0.282 A  
HETATM    9  C   UNL     1     -11.917  10.857  70.546  1.00  0.00    -0.371 A  
HETATM   10  C   UNL     1     -11.482  10.846  69.224  1.00  0.00    -0.302 A  
HETATM   11  C   UNL     1     -11.465  12.075  68.551  1.00  0.00    -0.345 A  
HETATM   12  N   UNL     1     -11.221   9.673  68.518  1.00  0.00    -0.494 NA 
HETATM   13  C   UNL     1     -11.837  13.297  69.168  1.00  0.00    -0.378 A  
HETATM   14  H   UNL     1     -11.258   9.660  67.499  1.00  0.00     0.000 HD 
HETATM   15  C   UNL     1     -10.899   8.479  69.260  1.00  0.00    -0.056 C  
HETATM   16  C   UNL     1     -11.713  14.543  68.316  1.00  0.00    -0.335 C  
HETATM   17  N   UNL     1     -11.956   8.192  70.206  1.00  0.00    -0.410 N  
HETATM   18  F   UNL     1     -12.441  14.433  67.168  1.00  0.00    -0.412 F  
HETATM   19  F   UNL     1     -10.425  14.728  67.904  1.00  0.00    -0.237 F  
HETATM   20  F   UNL     1     -12.090  15.722  68.863  1.00  0.00    -0.376 F  
HETATM   21  S   UNL     1     -12.015   9.342  71.423  1.00  0.00    -0.396 S  
HETATM   22  H   UNL     1     -12.585   7.391  70.141  1.00  0.00     0.000 HD 
HETATM   23  O   UNL     1     -10.795   9.200  72.187  1.00  0.00    -0.297 OA 
HETATM   24  O   UNL     1     -13.315   9.241  72.048  1.00  0.00    -0.386 OA 
ENDBRANCH   4   7
TORSDOF 1
ENDMDL
MODEL        9
REMARK 921   NORMALIZED FREE ENERGY PREDICTED BY IDOCK:   -6.55 KCAL/MOL
REMARK 922        TOTAL FREE ENERGY PREDICTED BY IDOCK:   -6.70 KCAL/MOL
REMARK 923 INTER-LIGAND FREE ENERGY PREDICTED BY IDOCK:   -6.77 KCAL/MOL
REMARK 924 INTRA-LIGAND FREE ENERGY PREDICTED BY IDOCK:    0.07 KCAL/MOL
REMARK 927      BINDING AFFINITY PREDICTED BY RF-SCORE:    0.00 PKD
ROOT
HETATM    1  N   UNL     1     -12.385  14.522  67.927  1.00  0.00    -0.599 N  
HETATM    2  H2  UNL     1     -13.322  14.674  68.299  1.00  0.00     0.000 HD 
HETATM    3  H1  UNL     1     -11.521  14.546  68.470  1.00  0.00     0.000 HD 
HETATM    4  S   UNL     1     -12.014  14.195  66.326  1.00  0.00    -0.433 S  
HETATM    5  O   UNL     1     -10.930  15.093  66.009  1.00  0.00    -0.331 OA 
HETATM    6  O   UNL     1     -13.233  14.162  65.560  1.00  0.00    -0.688 OA 
ENDROOT
BRANCH   4   7
HETATM    7  C   UNL     1     -11.377  12.544  66.437  1.00  0.00    -0.329 A  
HETATM    8  C   UNL     1     -11.302  11.984  67.717  1.00  0.00    -0.370 A  
HETATM    9  C   UNL     1     -10.903  10.655  67.873  1.00  0.00    -0.277 A  
HETATM   10  C   UNL     1     -10.561   9.850  66.789  1.00  0.00    -0.144 A  
HETATM   11  C   UNL     1     -10.645  10.430  65.516  1.00  0.00    -0.088 A  
HETATM   12  N   UNL     1     -10.300   8.486  66.906  1.00  0.00    -0.302 NA 
HETATM   13  C   UNL     1     -11.025  11.781  65.308  1.00  0.00    -0.350 A  
HETATM   14  H   UNL     1     -10.407   7.865  66.105  1.00  0.00     0.000 HD 
HETATM   15  C   UNL     1      -9.875   7.973  68.186  1.00  0.00    -0.170 C  
HETATM   16  C   UNL     1     -11.016  12.266  63.874  1.00  0.00    -0.406 C  
HETATM   17  N   UNL     1     -10.850   8.318  69.199  1.00  0.00    -0.416 N  
HETATM   18  F   UNL     1     -11.817  11.495  63.084  1.00  0.00    -0.468 F  
HETATM   19  F   UNL     1      -9.769  12.157  63.329  1.00  0.00    -0.383 F  
HETATM   20  F   UNL     1     -11.404  13.541  63.636  1.00  0.00    -0.356 F  
HETATM   21  S   UNL     1     -10.873   9.969  69.486  1.00  0.00    -0.266 S  
HETATM   22  H   UNL     1     -11.446   7.643  69.678  1.00  0.00     0.000 HD 
HETATM   23  O   UNL     1      -9.597  10.304  70.080  1.00  0.00    -0.139 OA 
HETATM   24  O   UNL     1     -12.120  10.272  70.151  1.00  0.00    -0.254 OA 
ENDBRANCH   4   7
TORSDOF 1
ENDMDL
MODEL       10
REMARK 921   NORMALIZED FREE ENERGY PREDICTED BY IDOCK:   -6.45 KCAL/MOL
REMARK 922        TOTAL FREE ENERGY PREDICTED BY IDOCK:   -6.59 KCAL/MOL
REMARK 923 INTER-LIGAND FREE ENERGY PREDICTED BY IDOCK:   -6.65 KCAL/MOL
REMARK 924 INTRA-LIGAND FREE ENERGY PREDICTED BY IDOCK:    0.06 KCAL/MOL
REMARK 927      BINDING AFFINITY PREDICTED BY RF-SCORE:    0.00 PKD
ROOT
HETATM    1  N   UNL     1      -9.504  11.056  67.877  1.00  0.00    -0.162 N  
HETATM    2  H2  UNL     1      -8.744  10.407  67.678  1.00  0.00     0.000 HD 
HETATM    3  H1  UNL     1      -9.650  11.543  68.761  1.00  0.00     0.000 HD 
HETATM    4  S   UNL     1     -10.713  11.497  66.804  1.00  0.00    -0.281 S  
HETATM    5  O   UNL     1     -11.937  11.370  67.558  1.00  0.00    -0.626 OA 
HETATM    6  O   UNL     1     -10.506  10.809  65.556  1.00  0.00    -0.252 OA 
ENDROOT
BRANCH   4   7
HETATM    7  C   UNL     1     -10.366  13.218  66.560  1.00  0.00    -0.285 A  
HETATM    8  C   UNL     1      -9.212  13.720  67.174  1.00  0.00    -0.245 A  
HETATM    9  C   UNL     1      -8.822  15.041  66.947  1.00  0.00    -0.258 A  
HETATM   10  C   UNL     1      -9.549  15.900  66.127  1.00  0.00    -0.333 A  
HETATM   11  C   UNL     1     -10.699  15.377  65.520  1.00  0.00    -0.397 A  
HETATM   12  N   UNL     1      -9.104  17.172  65.772  1.00  0.00    -0.512 NA 
HETATM   13  C   UNL     1     -11.148  14.049  65.735  1.00  0.00    -0.305 A  
HETATM   14  H   UNL     1      -9.444  17.625  64.924  1.00  0.00     0.000 HD 
HETATM   15  C   UNL     1      -8.151  17.833  66.630  1.00  0.00    -0.258 C  
HETATM   16  C   UNL     1     -12.437  13.657  65.045  1.00  0.00    -0.414 C  
HETATM   17  N   UNL     1      -6.983  16.995  66.800  1.00  0.00    -0.209 N  
HETATM   18  F   UNL     1     -12.353  13.841  63.696  1.00  0.00    -0.505 F  
HETATM   19  F   UNL     1     -13.469  14.453  65.448  1.00  0.00    -0.388 F  
HETATM   20  F   UNL     1     -12.877  12.387  65.203  1.00  0.00    -0.522 F  
HETATM   21  S   UNL     1      -7.343  15.620  67.688  1.00  0.00    -0.186 S  
HETATM   22  H   UNL     1      -6.059  17.213  66.428  1.00  0.00     0.000 HD 
HETATM   23  O   UNL     1      -7.670  16.065  69.026  1.00  0.00    -0.189 OA 
HETATM   24  O   UNL     1      -6.287  14.663  67.446  1.00  0.00    -0.323 OA 
ENDBRANCH   4   7
TORSDOF 1
ENDMDL
MODEL       11
REMARK 921   NORMALIZED FREE ENERGY PREDICTED BY IDOCK:   -6.44 KCAL/MOL
REMARK 922        TOTAL FREE ENERGY PREDICTED BY IDOCK:   -6.58 KCAL/MOL
REMARK 923 INTER-LIGAND FREE ENERGY PREDICTED BY IDOCK:   -6.65 KCAL/MOL
REMARK 924 INTRA-LIGAND FREE ENERGY PREDICTED BY IDOCK:    0.07 KCAL/MOL
REMARK 927      BINDING AFFINITY PREDICTED BY RF-SCORE:    0.00 PKD
ROOT
HETATM    1  N   UNL     1     -10.985  19.029  67.127  1.00  0.00    -0.369 N  
HETATM    2  H2  UNL     1     -10.932  19.771  66.429  1.00  0.00     0.000 HD 
HETATM    3  H1  UNL     1     -11.843  18.585  67.455  1.00  0.00     0.000 HD 
HETATM    4  S   UNL     1      -9.678  18.343  67.919  1.00  0.00    -0.322 S  
HETATM    5  O   UNL     1     -10.056  18.335  69.312  1.00  0.00    -0.281 OA 
HETATM    6  O   UNL     1      -8.467  18.970  67.457  1.00  0.00    -0.277 OA 
ENDROOT
BRANCH   4   7
HETATM    7  C   UNL     1      -9.718  16.681  67.305  1.00  0.00    -0.245 A  
HETATM    8  C   UNL     1     -10.755  16.363  66.419  1.00  0.00    -0.161 A  
HETATM    9  C   UNL     1     -10.795  15.103  65.819  1.00  0.00    -0.353 A  
HETATM   10  C   UNL     1      -9.834  14.127  66.074  1.00  0.00    -0.309 A  
HETATM   11  C   UNL     1      -8.804  14.467  66.961  1.00  0.00    -0.256 A  
HETATM   12  N   UNL     1      -9.773  12.920  65.380  1.00  0.00    -0.477 NA 
HETATM   13  C   UNL     1      -8.731  15.726  67.612  1.00  0.00    -0.178 A  
HETATM   14  H   UNL     1      -8.898  12.400  65.318  1.00  0.00     0.000 HD 
HETATM   15  C   UNL     1     -10.973  12.424  64.752  1.00  0.00    -0.301 C  
HETATM   16  C   UNL     1      -7.582  15.913  68.579  1.00  0.00    -0.145 C  
HETATM   17  N   UNL     1     -11.498  13.422  63.844  1.00  0.00    -0.582 N  
HETATM   18  F   UNL     1      -6.380  15.704  67.969  1.00  0.00    -0.097 F  
HETATM   19  F   UNL     1      -7.635  14.993  69.586  1.00  0.00    -0.178 F  
HETATM   20  F   UNL     1      -7.463  17.114  69.194  1.00  0.00    -0.238 F  
HETATM   21  S   UNL     1     -12.076  14.758  64.673  1.00  0.00    -0.372 S  
HETATM   22  H   UNL     1     -11.515  13.324  62.829  1.00  0.00     0.000 HD 
HETATM   23  O   UNL     1     -13.228  14.311  65.428  1.00  0.00    -0.688 OA 
HETATM   24  O   UNL     1     -12.168  15.846  63.726  1.00  0.00    -0.817 OA 
ENDBRANCH   4   7
TORSDOF 1
ENDMDL
MODEL       12
REMARK 921   NORMALIZED FREE ENERGY PREDICTED BY IDOCK:   -6.42 KCAL/MOL
REMARK 922        TOTAL FREE ENERGY PREDICTED BY IDOCK:   -6.55 KCAL/MOL
REMARK 923 INTER-LIGAND FREE ENERGY PREDICTED BY IDOCK:   -6.61 KCAL/MOL
REMARK 924 INTRA-LIGAND FREE ENERGY PREDICTED BY IDOCK:    0.05 KCAL/MOL
REMARK 927      BINDING AFFINITY PREDICTED BY RF-SCORE:    0.00 PKD
ROOT
HETATM    1  N   UNL     1     -11.213   9.474  67.786  1.00  0.00    -0.454 N  
HETATM    2  H2  UNL     1     -11.845   8.718  67.525  1.00  0.00     0.000 HD 
HETATM    3  H1  UNL     1     -10.298   9.651  67.371  1.00  0.00     0.000 HD 
HETATM    4  S   UNL     1     -11.509  10.627  68.966  1.00  0.00    -0.259 S  
HETATM    5  O   UNL     1     -10.301  10.664  69.755  1.00  0.00    -0.205 OA 
HETATM    6  O   UNL     1     -12.800  10.377  69.552  1.00  0.00    -0.044 OA 
ENDROOT
BRANCH   4   7
HETATM    7  C   UNL     1     -11.608  12.110  68.000  1.00  0.00    -0.348 A  
HETATM    8  C   UNL     1     -11.515  11.963  66.611  1.00  0.00    -0.382 A  
HETATM    9  C   UNL     1     -11.682  13.074  65.782  1.00  0.00    -0.382 A  
HETATM   10  C   UNL     1     -11.934  14.347  66.287  1.00  0.00    -0.376 A  
HETATM   11  C   UNL     1     -12.026  14.472  67.680  1.00  0.00    -0.355 A  
HETATM   12  N   UNL     1     -12.247  15.439  65.479  1.00  0.00     0.435 NA 
HETATM   13  C   UNL     1     -11.843  13.378  68.565  1.00  0.00    -0.401 A  
HETATM   14  H   UNL     1     -12.763  16.234  65.854  1.00  0.00     0.000 HD 
HETATM   15  C   UNL     1     -11.824  15.418  64.099  1.00  0.00    -0.104 C  
HETATM   16  C   UNL     1     -11.924  13.692  70.043  1.00  0.00    -0.343 C  
HETATM   17  N   UNL     1     -12.338  14.233  63.448  1.00  0.00    -1.126 N  
HETATM   18  F   UNL     1     -13.115  14.275  70.363  1.00  0.00    -0.386 F  
HETATM   19  F   UNL     1     -10.975  14.605  70.402  1.00  0.00    -0.244 F  
HETATM   20  F   UNL     1     -11.786  12.666  70.916  1.00  0.00    -0.340 F  
HETATM   21  S   UNL     1     -11.614  12.845  64.045  1.00  0.00    -0.460 S  
HETATM   22  H   UNL     1     -13.050  14.241  62.717  1.00  0.00     0.000 HD 
HETATM   23  O   UNL     1     -10.223  12.901  63.652  1.00  0.00    -0.361 OA 
HETATM   24  O   UNL     1     -12.459  11.729  63.683  1.00  0.00    -0.472 OA 
ENDBRANCH   4   7
TORSDOF 1
ENDMDL
MODEL       13
REMARK 921   NORMALIZED FREE ENERGY PREDICTED BY IDOCK:   -6.37 KCAL/MOL
REMARK 922        TOTAL FREE ENERGY PREDICTED BY IDOCK:   -6.50 KCAL/MOL
REMARK 923 INTER-LIGAND FREE ENERGY PREDICTED BY IDOCK:   -6.61 KCAL/MOL
REMARK 924 INTRA-LIGAND FREE ENERGY PREDICTED BY IDOCK:    0.11 KCAL/MOL
REMARK 927      BINDING AFFINITY PREDICTED BY RF-SCORE:    0.00 PKD
ROOT
HETATM    1  N   UNL     1      -9.834  11.056  69.183  1.00  0.00    -0.377 N  
HETATM    2  H2  UNL     1     -10.057  10.246  69.759  1.00  0.00     0.000 HD 
HETATM    3  H1  UNL     1      -8.895  11.399  68.981  1.00  0.00     0.000 HD 
HETATM    4  S   UNL     1     -10.951  12.041  68.414  1.00  0.00    -0.255 S  
HETATM    5  O   UNL     1     -10.538  13.386  68.735  1.00  0.00    -0.245 OA 
HETATM    6  O   UNL     1     -12.277  11.557  68.700  1.00  0.00    -0.492 OA 
ENDROOT
BRANCH   4   7
HETATM    7  C   UNL     1     -10.594  11.723  66.707  1.00  0.00    -0.238 A  
HETATM    8  C   UNL     1      -9.701  10.680  66.436  1.00  0.00    -0.241 A  
HETATM    9  C   UNL     1      -9.446  10.309  65.114  1.00  0.00    -0.252 A  
HETATM   10  C   UNL     1     -10.049  10.947  64.033  1.00  0.00    -0.358 A  
HETATM   11  C   UNL     1     -10.942  11.987  64.328  1.00  0.00    -0.401 A  
HETATM   12  N   UNL     1      -9.923  10.502  62.719  1.00  0.00    -0.703 NA 
HETATM   13  C   UNL     1     -11.218  12.415  65.652  1.00  0.00    -0.360 A  
HETATM   14  H   UNL     1     -10.625  10.740  62.019  1.00  0.00     0.000 HD 
HETATM   15  C   UNL     1      -8.778   9.696  62.371  1.00  0.00    -0.230 C  
HETATM   16  C   UNL     1     -12.168  13.585  65.793  1.00  0.00    -0.461 C  
HETATM   17  N   UNL     1      -8.719   8.534  63.232  1.00  0.00    -0.421 N  
HETATM   18  F   UNL     1     -13.366  13.326  65.196  1.00  0.00    -0.363 F  
HETATM   19  F   UNL     1     -11.683  14.689  65.154  1.00  0.00    -0.340 F  
HETATM   20  F   UNL     1     -12.477  13.999  67.045  1.00  0.00    -0.445 F  
HETATM   21  S   UNL     1      -8.364   8.963  64.812  1.00  0.00    -0.175 S  
HETATM   22  H   UNL     1      -8.872   7.576  62.917  1.00  0.00     0.000 HD 
HETATM   23  O   UNL     1      -7.013   9.482  64.807  1.00  0.00    -0.095 OA 
HETATM   24  O   UNL     1      -8.745   7.852  65.655  1.00  0.00    -0.156 OA 
ENDBRANCH   4   7
TORSDOF 1
ENDMDL
MODEL       14
REMARK 921   NORMALIZED FREE ENERGY PREDICTED BY IDOCK:   -6.31 KCAL/MOL
REMARK 922        TOTAL FREE ENERGY PREDICTED BY IDOCK:   -6.45 KCAL/MOL
REMARK 923 INTER-LIGAND FREE ENERGY PREDICTED BY IDOCK:   -6.69 KCAL/MOL
REMARK 924 INTRA-LIGAND FREE ENERGY PREDICTED BY IDOCK:    0.25 KCAL/MOL
REMARK 927      BINDING AFFINITY PREDICTED BY RF-SCORE:    0.00 PKD
ROOT
HETATM    1  N   UNL     1     -12.132  12.042  66.170  1.00  0.00    -0.047 N  
HETATM    2  H2  UNL     1     -11.559  11.200  66.158  1.00  0.00     0.000 HD 
HETATM    3  H1  UNL     1     -13.065  12.119  66.577  1.00  0.00     0.000 HD 
HETATM    4  S   UNL     1     -11.696  13.526  65.524  1.00  0.00    -0.358 S  
HETATM    5  O   UNL     1     -12.842  13.942  64.751  1.00  0.00    -0.679 OA 
HETATM    6  O   UNL     1     -10.380  13.418  64.949  1.00  0.00    -0.354 OA 
ENDROOT
BRANCH   4   7
HETATM    7  C   UNL     1     -11.591  14.532  66.980  1.00  0.00    -0.386 A  
HETATM    8  C   UNL     1     -12.084  13.977  68.166  1.00  0.00    -0.307 A  
HETATM    9  C   UNL     1     -11.947  14.671  69.369  1.00  0.00    -0.313 A  
HETATM   10  C   UNL     1     -11.335  15.920  69.441  1.00  0.00    -0.349 A  
HETATM   11  C   UNL     1     -10.846  16.457  68.243  1.00  0.00    -0.347 A  
HETATM   12  N   UNL     1     -11.058  16.564  70.646  1.00  0.00    -0.372 NA 
HETATM   13  C   UNL     1     -10.979  15.800  66.992  1.00  0.00    -0.221 A  
HETATM   14  H   UNL     1     -10.321  17.266  70.704  1.00  0.00     0.000 HD 
HETATM   15  C   UNL     1     -11.838  16.215  71.808  1.00  0.00    -0.506 C  
HETATM   16  C   UNL     1     -10.441  16.541  65.787  1.00  0.00    -0.329 C  
HETATM   17  N   UNL     1     -11.750  14.790  72.047  1.00  0.00    -0.384 N  
HETATM   18  F   UNL     1      -9.121  16.848  65.942  1.00  0.00    -0.289 F  
HETATM   19  F   UNL     1     -11.070  17.742  65.629  1.00  0.00    -0.206 F  
HETATM   20  F   UNL     1     -10.523  15.929  64.582  1.00  0.00    -0.381 F  
HETATM   21  S   UNL     1     -12.528  13.921  70.844  1.00  0.00    -0.381 S  
HETATM   22  H   UNL     1     -11.276  14.368  72.845  1.00  0.00     0.000 HD 
HETATM   23  O   UNL     1     -13.938  14.223  70.961  1.00  0.00    -0.197 OA 
HETATM   24  O   UNL     1     -12.037  12.563  70.908  1.00  0.00    -0.285 OA 
ENDBRANCH   4   7
TORSDOF 1
ENDMDL
MODEL       15
REMARK 921   NORMALIZED FREE ENERGY PREDICTED BY IDOCK:   -6.27 KCAL/MOL
REMARK 922        TOTAL FREE ENERGY PREDICTED BY IDOCK:   -6.40 KCAL/MOL
REMARK 923 INTER-LIGAND FREE ENERGY PREDICTED BY IDOCK:   -6.46 KCAL/MOL
REMARK 924 INTRA-LIGAND FREE ENERGY PREDICTED BY IDOCK:    0.06 KCAL/MOL
REMARK 927      BINDING AFFINITY PREDICTED BY RF-SCORE:    0.00 PKD
ROOT
HETATM    1  N   UNL     1      -6.069  17.117  66.452  1.00  0.00    -0.204 N  
HETATM    2  H2  UNL     1      -5.230  16.948  67.007  1.00  0.00     0.000 HD 
HETATM    3  H1  UNL     1      -6.379  16.553  65.660  1.00  0.00     0.000 HD 
HETATM    4  S   UNL     1      -7.162  18.364  66.694  1.00  0.00    -0.225 S  
HETATM    5  O   UNL     1      -7.371  18.929  65.382  1.00  0.00    -0.478 OA 
HETATM    6  O   UNL     1      -6.725  19.161  67.811  1.00  0.00    -0.207 OA 
ENDROOT
BRANCH   4   7
HETATM    7  C   UNL     1      -8.619  17.476  67.174  1.00  0.00    -0.225 A  
HETATM    8  C   UNL     1      -8.516  16.081  67.224  1.00  0.00    -0.206 A  
HETATM    9  C   UNL     1      -9.593  15.321  67.687  1.00  0.00    -0.206 A  
HETATM   10  C   UNL     1     -10.788  15.901  68.102  1.00  0.00    -0.317 A  
HETATM   11  C   UNL     1     -10.869  17.299  68.046  1.00  0.00    -0.297 A  
HETATM   12  N   UNL     1     -11.818  15.178  68.701  1.00  0.00    -0.492 NA 
HETATM   13  C   UNL     1      -9.811  18.114  67.565  1.00  0.00    -0.317 A  
HETATM   14  H   UNL     1     -12.498  15.641  69.303  1.00  0.00     0.000 HD 
HETATM   15  C   UNL     1     -11.900  13.760  68.450  1.00  0.00    -0.376 C  
HETATM   16  C   UNL     1     -10.079  19.603  67.522  1.00  0.00    -0.409 C  
HETATM   17  N   UNL     1     -10.652  13.125  68.817  1.00  0.00    -0.352 N  
HETATM   18  F   UNL     1     -10.427  20.080  68.752  1.00  0.00    -0.540 F  
HETATM   19  F   UNL     1     -11.144  19.886  66.717  1.00  0.00    -0.559 F  
HETATM   20  F   UNL     1      -9.080  20.412  67.098  1.00  0.00    -0.421 F  
HETATM   21  S   UNL     1      -9.411  13.580  67.788  1.00  0.00    -0.222 S  
HETATM   22  H   UNL     1     -10.543  12.482  69.602  1.00  0.00     0.000 HD 
HETATM   23  O   UNL     1      -9.729  13.032  66.488  1.00  0.00    -0.255 OA 
HETATM   24  O   UNL     1      -8.165  13.273  68.455  1.00  0.00    -0.154 OA 
ENDBRANCH   4   7
TORSDOF 1
ENDMDL
MODEL       16
REMARK 921   NORMALIZED FREE ENERGY PREDICTED BY IDOCK:   -6.25 KCAL/MOL
REMARK 922        TOTAL FREE ENERGY PREDICTED BY IDOCK:   -6.38 KCAL/MOL
REMARK 923 INTER-LIGAND FREE ENERGY PREDICTED BY IDOCK:   -6.43 KCAL/MOL
REMARK 924 INTRA-LIGAND FREE ENERGY PREDICTED BY IDOCK:    0.05 KCAL/MOL
REMARK 927      BINDING AFFINITY PREDICTED BY RF-SCORE:    0.00 PKD
ROOT
HETATM    1  N   UNL     1      -7.966  13.182  68.941  1.00  0.00    -0.333 N  
HETATM    2  H2  UNL     1      -8.367  12.829  69.810  1.00  0.00     0.000 HD 
HETATM    3  H1  UNL     1      -7.567  12.609  68.198  1.00  0.00     0.000 HD 
HETATM    4  S   UNL     1      -7.858  14.796  68.504  1.00  0.00    -0.137 S  
HETATM    5  O   UNL     1      -6.498  14.964  68.050  1.00  0.00    -0.122 OA 
HETATM    6  O   UNL     1      -8.422  15.605  69.554  1.00  0.00    -0.252 OA 
ENDROOT
BRANCH   4   7
HETATM    7  C   UNL     1      -8.942  14.861  67.103  1.00  0.00    -0.214 A  
HETATM    8  C   UNL     1      -9.606  13.676  66.767  1.00  0.00    -0.277 A  
HETATM    9  C   UNL     1     -10.549  13.675  65.736  1.00  0.00    -0.285 A  
HETATM   10  C   UNL     1     -10.857  14.823  65.010  1.00  0.00    -0.425 A  
HETATM   11  C   UNL     1     -10.182  15.999  65.364  1.00  0.00    -0.333 A  
HETATM   12  N   UNL     1     -11.892  14.879  64.079  1.00  0.00    -0.817 NA 
HETATM   13  C   UNL     1      -9.202  16.046  66.389  1.00  0.00    -0.339 A  
HETATM   14  H   UNL     1     -12.325  15.770  63.835  1.00  0.00     0.000 HD 
HETATM   15  C   UNL     1     -12.338  13.651  63.469  1.00  0.00    -0.201 C  
HETATM   16  C   UNL     1      -8.530  17.384  66.612  1.00  0.00    -0.261 C  
HETATM   17  N   UNL     1     -12.727  12.708  64.495  1.00  0.00    -0.709 N  
HETATM   18  F   UNL     1      -9.444  18.360  66.883  1.00  0.00    -0.263 F  
HETATM   19  F   UNL     1      -7.888  17.804  65.483  1.00  0.00    -0.125 F  
HETATM   20  F   UNL     1      -7.612  17.473  67.603  1.00  0.00    -0.183 F  
HETATM   21  S   UNL     1     -11.402  12.186  65.378  1.00  0.00    -0.324 S  
HETATM   22  H   UNL     1     -13.685  12.399  64.660  1.00  0.00     0.000 HD 
HETATM   23  O   UNL     1     -10.577  11.417  64.472  1.00  0.00    -0.294 OA 
HETATM   24  O   UNL     1     -11.902  11.620  66.611  1.00  0.00    -0.533 OA 
ENDBRANCH   4   7
TORSDOF 1
ENDMDL
MODEL       17
REMARK 921   NORMALIZED FREE ENERGY PREDICTED BY IDOCK:   -6.19 KCAL/MOL
REMARK 922        TOTAL FREE ENERGY PREDICTED BY IDOCK:   -6.32 KCAL/MOL
REMARK 923 INTER-LIGAND FREE ENERGY PREDICTED BY IDOCK:   -6.46 KCAL/MOL
REMARK 924 INTRA-LIGAND FREE ENERGY PREDICTED BY IDOCK:    0.15 KCAL/MOL
REMARK 927      BINDING AFFINITY PREDICTED BY RF-SCORE:    0.00 PKD
ROOT
HETATM    1  N   UNL     1     -11.629  12.173  70.443  1.00  0.00    -0.496 N  
HETATM    2  H2  UNL     1     -11.009  12.757  71.004  1.00  0.00     0.000 HD 
HETATM    3  H1  UNL     1     -12.560  12.437  70.121  1.00  0.00     0.000 HD 
HETATM    4  S   UNL     1     -11.283  10.625  69.902  1.00  0.00    -0.314 S  
HETATM    5  O   UNL     1     -12.457   9.851  70.227  1.00  0.00    -0.116 OA 
HETATM    6  O   UNL     1      -9.968  10.252  70.358  1.00  0.00    -0.055 OA 
ENDROOT
BRANCH   4   7
HETATM    7  C   UNL     1     -11.221  10.865  68.147  1.00  0.00    -0.301 A  
HETATM    8  C   UNL     1     -11.591  12.128  67.672  1.00  0.00    -0.413 A  
HETATM    9  C   UNL     1     -11.475  12.421  66.311  1.00  0.00    -0.371 A  
HETATM   10  C   UNL     1     -11.004  11.491  65.389  1.00  0.00    -0.226 A  
HETATM   11  C   UNL     1     -10.636  10.233  65.886  1.00  0.00    -0.083 A  
HETATM   12  N   UNL     1     -10.743  11.805  64.056  1.00  0.00    -0.341 NA 
HETATM   13  C   UNL     1     -10.755   9.881  67.255  1.00  0.00    -0.304 A  
HETATM   14  H   UNL     1     -10.087  11.248  63.508  1.00  0.00     0.000 HD 
HETATM   15  C   UNL     1     -11.421  12.934  63.469  1.00  0.00    -0.412 C  
HETATM   16  C   UNL     1     -10.362   8.465  67.619  1.00  0.00    -0.252 C  
HETATM   17  N   UNL     1     -11.163  14.122  64.254  1.00  0.00    -0.604 N  
HETATM   18  F   UNL     1      -9.079   8.193  67.243  1.00  0.00    -0.131 F  
HETATM   19  F   UNL     1     -11.128   7.556  66.947  1.00  0.00    -0.425 F  
HETATM   20  F   UNL     1     -10.433   8.104  68.922  1.00  0.00    -0.210 F  
HETATM   21  S   UNL     1     -11.896  14.031  65.759  1.00  0.00    -0.402 S  
HETATM   22  H   UNL     1     -10.606  14.914  63.934  1.00  0.00     0.000 HD 
HETATM   23  O   UNL     1     -13.323  14.052  65.526  1.00  0.00    -0.673 OA 
HETATM   24  O   UNL     1     -11.253  15.006  66.610  1.00  0.00    -0.335 OA 
ENDBRANCH   4   7
TORSDOF 1
ENDMDL
MODEL       18
REMARK 921   NORMALIZED FREE ENERGY PREDICTED BY IDOCK:   -6.18 KCAL/MOL
REMARK 922        TOTAL FREE ENERGY PREDICTED BY IDOCK:   -6.31 KCAL/MOL
REMARK 923 INTER-LIGAND FREE ENERGY PREDICTED BY IDOCK:   -6.39 KCAL/MOL
REMARK 924 INTRA-LIGAND FREE ENERGY PREDICTED BY IDOCK:    0.08 KCAL/MOL
REMARK 927      BINDING AFFINITY PREDICTED BY RF-SCORE:    0.00 PKD
ROOT
HETATM    1  N   UNL     1     -11.089  19.508  66.800  1.00  0.00    -0.274 N  
HETATM    2  H2  UNL     1     -11.133  20.188  66.042  1.00  0.00     0.000 HD 
HETATM    3  H1  UNL     1     -11.886  19.008  67.194  1.00  0.00     0.000 HD 
HETATM    4  S   UNL     1      -9.697  19.032  67.601  1.00  0.00    -0.328 S  
HETATM    5  O   UNL     1     -10.035  19.106  69.002  1.00  0.00    -0.416 OA 
HETATM    6  O   UNL     1      -8.571  19.740  67.046  1.00  0.00    -0.299 OA 
ENDROOT
BRANCH   4   7
HETATM    7  C   UNL     1      -9.576  17.328  67.129  1.00  0.00    -0.257 A  
HETATM    8  C   UNL     1     -10.610  16.822  66.332  1.00  0.00    -0.192 A  
HETATM    9  C   UNL     1     -10.535  15.517  65.842  1.00  0.00    -0.342 A  
HETATM   10  C   UNL     1      -9.459  14.679  66.122  1.00  0.00    -0.276 A  
HETATM   11  C   UNL     1      -8.434  15.206  66.919  1.00  0.00    -0.278 A  
HETATM   12  N   UNL     1      -9.293  13.429  65.528  1.00  0.00    -0.371 NA 
HETATM   13  C   UNL     1      -8.474  16.517  67.458  1.00  0.00    -0.189 A  
HETATM   14  H   UNL     1      -8.369  13.003  65.460  1.00  0.00     0.000 HD 
HETATM   15  C   UNL     1     -10.457  12.751  65.011  1.00  0.00    -0.314 C  
HETATM   16  C   UNL     1      -7.310  16.914  68.342  1.00  0.00    -0.202 C  
HETATM   17  N   UNL     1     -11.133  13.601  64.055  1.00  0.00    -0.565 N  
HETATM   18  F   UNL     1      -6.122  16.784  67.685  1.00  0.00    -0.120 F  
HETATM   19  F   UNL     1      -7.211  16.086  69.422  1.00  0.00    -0.187 F  
HETATM   20  F   UNL     1      -7.300  18.170  68.847  1.00  0.00    -0.259 F  
HETATM   21  S   UNL     1     -11.820  14.934  64.802  1.00  0.00    -0.339 S  
HETATM   22  H   UNL     1     -11.185  13.413  63.053  1.00  0.00     0.000 HD 
HETATM   23  O   UNL     1     -12.877  14.433  65.653  1.00  0.00    -0.404 OA 
HETATM   24  O   UNL     1     -12.079  15.917  63.774  1.00  0.00    -0.780 OA 
ENDBRANCH   4   7
TORSDOF 1
ENDMDL
MODEL       19
REMARK 921   NORMALIZED FREE ENERGY PREDICTED BY IDOCK:   -6.17 KCAL/MOL
REMARK 922        TOTAL FREE ENERGY PREDICTED BY IDOCK:   -6.30 KCAL/MOL
REMARK 923 INTER-LIGAND FREE ENERGY PREDICTED BY IDOCK:   -6.41 KCAL/MOL
REMARK 924 INTRA-LIGAND FREE ENERGY PREDICTED BY IDOCK:    0.11 KCAL/MOL
REMARK 927      BINDING AFFINITY PREDICTED BY RF-SCORE:    0.00 PKD
ROOT
HETATM    1  N   UNL     1      -8.562  13.620  68.590  1.00  0.00    -0.338 N  
HETATM    2  H2  UNL     1      -8.079  14.517  68.567  1.00  0.00     0.000 HD 
HETATM    3  H1  UNL     1      -9.487  13.455  68.987  1.00  0.00     0.000 HD 
HETATM    4  S   UNL     1      -7.965  12.177  67.982  1.00  0.00    -0.162 S  
HETATM    5  O   UNL     1      -8.190  11.214  69.033  1.00  0.00    -0.137 OA 
HETATM    6  O   UNL     1      -6.659  12.409  67.421  1.00  0.00    -0.135 OA 
ENDROOT
BRANCH   4   7
HETATM    7  C   UNL     1      -9.095  11.853  66.655  1.00  0.00    -0.203 A  
HETATM    8  C   UNL     1      -9.994  12.875  66.332  1.00  0.00    -0.267 A  
HETATM    9  C   UNL     1     -10.848  12.730  65.236  1.00  0.00    -0.291 A  
HETATM   10  C   UNL     1     -10.848  11.587  64.441  1.00  0.00    -0.342 A  
HETATM   11  C   UNL     1      -9.938  10.577  64.781  1.00  0.00    -0.412 A  
HETATM   12  N   UNL     1     -11.585  11.479  63.263  1.00  0.00    -0.863 NA 
HETATM   13  C   UNL     1      -9.066  10.668  65.895  1.00  0.00    -0.201 A  
HETATM   14  H   UNL     1     -11.310  10.820  62.535  1.00  0.00     0.000 HD 
HETATM   15  C   UNL     1     -12.745  12.321  63.096  1.00  0.00    -0.063 C  
HETATM   16  C   UNL     1      -8.181   9.467  66.154  1.00  0.00    -0.115 C  
HETATM   17  N   UNL     1     -12.367  13.710  63.247  1.00  0.00    -1.080 N  
HETATM   18  F   UNL     1      -7.415   9.172  65.065  1.00  0.00    -0.097 F  
HETATM   19  F   UNL     1      -8.929   8.347  66.376  1.00  0.00    -0.142 F  
HETATM   20  F   UNL     1      -7.313   9.533  67.191  1.00  0.00    -0.084 F  
HETATM   21  S   UNL     1     -11.923  14.053  64.826  1.00  0.00    -0.440 S  
HETATM   22  H   UNL     1     -12.371  14.393  62.490  1.00  0.00     0.000 HD 
HETATM   23  O   UNL     1     -13.117  13.910  65.632  1.00  0.00    -0.625 OA 
HETATM   24  O   UNL     1     -11.168  15.285  64.803  1.00  0.00    -0.405 OA 
ENDBRANCH   4   7
TORSDOF 1
ENDMDL
MODEL       20
REMARK 921   NORMALIZED FREE ENERGY PREDICTED BY IDOCK:   -6.08 KCAL/MOL
REMARK 922        TOTAL FREE ENERGY PREDICTED BY IDOCK:   -6.19 KCAL/MOL
REMARK 923 INTER-LIGAND FREE ENERGY PREDICTED BY IDOCK:   -6.25 KCAL/MOL
REMARK 924 INTRA-LIGAND FREE ENERGY PREDICTED BY IDOCK:    0.05 KCAL/MOL
REMARK 927      BINDING AFFINITY PREDICTED BY RF-SCORE:    0.00 PKD
ROOT
HETATM    1  N   UNL     1     -10.150   7.938  66.383  1.00  0.00    -0.480 N  
HETATM    2  H2  UNL     1     -10.778   7.526  65.694  1.00  0.00     0.000 HD 
HETATM    3  H1  UNL     1      -9.365   8.555  66.176  1.00  0.00     0.000 HD 
HETATM    4  S   UNL     1     -10.242   7.711  68.041  1.00  0.00    -0.208 S  
HETATM    5  O   UNL     1      -8.893   7.399  68.445  1.00  0.00    -0.123 OA 
HETATM    6  O   UNL     1     -11.351   6.840  68.334  1.00  0.00    -0.116 OA 
ENDROOT
BRANCH   4   7
HETATM    7  C   UNL     1     -10.647   9.342  68.604  1.00  0.00    -0.200 A  
HETATM    8  C   UNL     1     -10.790  10.329  67.621  1.00  0.00    -0.363 A  
HETATM    9  C   UNL     1     -11.203  11.613  67.980  1.00  0.00    -0.263 A  
HETATM   10  C   UNL     1     -11.477  11.965  69.300  1.00  0.00    -0.306 A  
HETATM   11  C   UNL     1     -11.330  10.961  70.267  1.00  0.00    -0.342 A  
HETATM   12  N   UNL     1     -12.026  13.193  69.662  1.00  0.00    -0.317 NA 
HETATM   13  C   UNL     1     -10.894   9.648  69.956  1.00  0.00    -0.302 A  
HETATM   14  H   UNL     1     -12.538  13.296  70.538  1.00  0.00     0.000 HD 
HETATM   15  C   UNL     1     -11.855  14.314  68.771  1.00  0.00    -0.341 C  
HETATM   16  C   UNL     1     -10.738   8.699  71.125  1.00  0.00    -0.240 C  
HETATM   17  N   UNL     1     -12.367  13.979  67.460  1.00  0.00    -0.521 N  
HETATM   18  F   UNL     1     -11.902   8.582  71.827  1.00  0.00    -0.305 F  
HETATM   19  F   UNL     1      -9.828   9.174  72.024  1.00  0.00    -0.386 F  
HETATM   20  F   UNL     1     -10.354   7.428  70.860  1.00  0.00    -0.199 F  
HETATM   21  S   UNL     1     -11.424  12.809  66.717  1.00  0.00    -0.363 S  
HETATM   22  H   UNL     1     -13.195  14.401  67.040  1.00  0.00     0.000 HD 
HETATM   23  O   UNL     1     -10.136  13.417  66.461  1.00  0.00    -0.267 OA 
HETATM   24  O   UNL     1     -12.214  12.232  65.653  1.00  0.00    -0.605 OA 
ENDBRANCH   4   7
TORSDOF 1
ENDMDL
MODEL       21
REMARK 921   NORMALIZED FREE ENERGY PREDICTED BY IDOCK:   -6.06 KCAL/MOL
REMARK 922        TOTAL FREE ENERGY PREDICTED BY IDOCK:   -6.17 KCAL/MOL
REMARK 923 INTER-LIGAND FREE ENERGY PREDICTED BY IDOCK:   -6.24 KCAL/MOL
REMARK 924 INTRA-LIGAND FREE ENERGY PREDICTED BY IDOCK:    0.06 KCAL/MOL
REMARK 927      BINDING AFFINITY PREDICTED BY RF-SCORE:    0.00 PKD
ROOT
HETATM    1  N   UNL     1     -10.739  17.070  67.568  1.00  0.00    -0.307 N  
HETATM    2  H2  UNL     1     -11.432  17.763  67.286  1.00  0.00     0.000 HD 
HETATM    3  H1  UNL     1     -10.117  17.148  68.373  1.00  0.00     0.000 HD 
HETATM    4  S   UNL     1     -10.439  15.619  66.785  1.00  0.00    -0.298 S  
HETATM    5  O   UNL     1      -9.003  15.562  66.654  1.00  0.00    -0.239 OA 
HETATM    6  O   UNL     1     -11.317  15.509  65.649  1.00  0.00    -0.212 OA 
ENDROOT
BRANCH   4   7
HETATM    7  C   UNL     1     -10.951  14.441  68.006  1.00  0.00    -0.258 A  
HETATM    8  C   UNL     1     -11.536  14.954  69.169  1.00  0.00    -0.331 A  
HETATM    9  C   UNL     1     -12.052  14.083  70.131  1.00  0.00    -0.351 A  
HETATM   10  C   UNL     1     -12.002  12.700  69.984  1.00  0.00    -0.306 A  
HETATM   11  C   UNL     1     -11.415  12.206  68.811  1.00  0.00    -0.359 A  
HETATM   12  N   UNL     1     -12.636  11.818  70.857  1.00  0.00    -0.333 NA 
HETATM   13  C   UNL     1     -10.859  13.049  67.814  1.00  0.00    -0.257 A  
HETATM   14  H   UNL     1     -12.891  10.878  70.554  1.00  0.00     0.000 HD 
HETATM   15  C   UNL     1     -12.923  12.264  72.199  1.00  0.00    -0.186 C  
HETATM   16  C   UNL     1     -10.216  12.354  66.632  1.00  0.00    -0.224 C  
HETATM   17  N   UNL     1     -13.715  13.475  72.153  1.00  0.00    -0.528 N  
HETATM   18  F   UNL     1     -11.097  11.519  66.009  1.00  0.00    -0.330 F  
HETATM   19  F   UNL     1      -9.189  11.551  67.036  1.00  0.00    -0.165 F  
HETATM   20  F   UNL     1      -9.704  13.128  65.647  1.00  0.00    -0.263 F  
HETATM   21  S   UNL     1     -12.827  14.762  71.550  1.00  0.00    -0.360 S  
HETATM   22  H   UNL     1     -14.689  13.538  72.450  1.00  0.00     0.000 HD 
HETATM   23  O   UNL     1     -11.791  15.041  72.521  1.00  0.00    -0.366 OA 
HETATM   24  O   UNL     1     -13.768  15.777  71.134  1.00  0.00    -0.560 OA 
ENDBRANCH   4   7
TORSDOF 1
ENDMDL
MODEL       22
REMARK 921   NORMALIZED FREE ENERGY PREDICTED BY IDOCK:   -6.05 KCAL/MOL
REMARK 922        TOTAL FREE ENERGY PREDICTED BY IDOCK:   -6.17 KCAL/MOL
REMARK 923 INTER-LIGAND FREE ENERGY PREDICTED BY IDOCK:   -6.24 KCAL/MOL
REMARK 924 INTRA-LIGAND FREE ENERGY PREDICTED BY IDOCK:    0.07 KCAL/MOL
REMARK 927      BINDING AFFINITY PREDICTED BY RF-SCORE:    0.00 PKD
ROOT
HETATM    1  N   UNL     1     -11.204  11.418  63.315  1.00  0.00    -0.838 N  
HETATM    2  H2  UNL     1     -10.484  11.455  62.595  1.00  0.00     0.000 HD 
HETATM    3  H1  UNL     1     -11.857  10.648  63.461  1.00  0.00     0.000 HD 
HETATM    4  S   UNL     1     -11.506  12.612  64.452  1.00  0.00    -0.376 S  
HETATM    5  O   UNL     1     -12.936  12.800  64.417  1.00  0.00    -0.723 OA 
HETATM    6  O   UNL     1     -10.584  13.699  64.246  1.00  0.00    -0.394 OA 
ENDROOT
BRANCH   4   7
HETATM    7  C   UNL     1     -11.072  11.788  65.960  1.00  0.00    -0.312 A  
HETATM    8  C   UNL     1     -10.661  10.455  65.853  1.00  0.00    -0.114 A  
HETATM    9  C   UNL     1     -10.212   9.772  66.985  1.00  0.00    -0.229 A  
HETATM   10  C   UNL     1     -10.161  10.369  68.242  1.00  0.00    -0.160 A  
HETATM   11  C   UNL     1     -10.575  11.705  68.327  1.00  0.00    -0.232 A  
HETATM   12  N   UNL     1      -9.584   9.757  69.352  1.00  0.00    -0.194 NA 
HETATM   13  C   UNL     1     -11.058  12.435  67.211  1.00  0.00    -0.329 A  
HETATM   14  H   UNL     1      -9.239  10.314  70.134  1.00  0.00     0.000 HD 
HETATM   15  C   UNL     1      -9.485   8.318  69.373  1.00  0.00    -0.159 C  
HETATM   16  C   UNL     1     -11.514  13.853  67.484  1.00  0.00    -0.340 C  
HETATM   17  N   UNL     1      -8.767   7.860  68.202  1.00  0.00    -0.126 N  
HETATM   18  F   UNL     1     -10.517  14.593  68.049  1.00  0.00    -0.228 F  
HETATM   19  F   UNL     1     -12.531  13.873  68.393  1.00  0.00    -0.354 F  
HETATM   20  F   UNL     1     -11.951  14.589  66.435  1.00  0.00    -0.382 F  
HETATM   21  S   UNL     1      -9.652   8.120  66.803  1.00  0.00    -0.237 S  
HETATM   22  H   UNL     1      -7.841   7.434  68.225  1.00  0.00     0.000 HD 
HETATM   23  O   UNL     1     -10.811   7.256  66.880  1.00  0.00    -0.355 OA 
HETATM   24  O   UNL     1      -8.731   8.053  65.692  1.00  0.00    -0.154 OA 
ENDBRANCH   4   7
TORSDOF 1
ENDMDL
MODEL       23
REMARK 921   NORMALIZED FREE ENERGY PREDICTED BY IDOCK:   -5.98 KCAL/MOL
REMARK 922        TOTAL FREE ENERGY PREDICTED BY IDOCK:   -6.09 KCAL/MOL
REMARK 923 INTER-LIGAND FREE ENERGY PREDICTED BY IDOCK:   -6.15 KCAL/MOL
REMARK 924 INTRA-LIGAND FREE ENERGY PREDICTED BY IDOCK:    0.05 KCAL/MOL
REMARK 927      BINDING AFFINITY PREDICTED BY RF-SCORE:    0.00 PKD
ROOT
HETATM    1  N   UNL     1     -11.488  16.514  68.472  1.00  0.00    -0.243 N  
HETATM    2  H2  UNL     1     -11.585  17.476  68.148  1.00  0.00     0.000 HD 
HETATM    3  H1  UNL     1     -12.257  15.863  68.634  1.00  0.00     0.000 HD 
HETATM    4  S   UNL     1     -10.041  15.747  68.827  1.00  0.00    -0.226 S  
HETATM    5  O   UNL     1     -10.261  15.120  70.108  1.00  0.00    -0.202 OA 
HETATM    6  O   UNL     1      -8.956  16.666  68.599  1.00  0.00    -0.228 OA 
ENDROOT
BRANCH   4   7
HETATM    7  C   UNL     1      -9.985  14.492  67.576  1.00  0.00    -0.224 A  
HETATM    8  C   UNL     1     -11.034  14.481  66.650  1.00  0.00    -0.321 A  
HETATM    9  C   UNL     1     -11.008  13.584  65.580  1.00  0.00    -0.288 A  
HETATM   10  C   UNL     1      -9.966  12.678  65.395  1.00  0.00    -0.214 A  
HETATM   11  C   UNL     1      -8.925  12.708  66.332  1.00  0.00    -0.056 A  
HETATM   12  N   UNL     1      -9.846  11.877  64.261  1.00  0.00    -0.422 NA 
HETATM   13  C   UNL     1      -8.916  13.586  67.447  1.00  0.00    -0.219 A  
HETATM   14  H   UNL     1      -8.939  11.507  63.978  1.00  0.00     0.000 HD 
HETATM   15  C   UNL     1     -11.034  11.583  63.496  1.00  0.00    -0.373 C  
HETATM   16  C   UNL     1      -7.742  13.455  68.393  1.00  0.00    -0.138 C  
HETATM   17  N   UNL     1     -11.673  12.818  63.091  1.00  0.00    -0.825 N  
HETATM   18  F   UNL     1      -6.556  13.622  67.739  1.00  0.00    -0.110 F  
HETATM   19  F   UNL     1      -7.679  12.199  68.925  1.00  0.00    -0.119 F  
HETATM   20  F   UNL     1      -7.685  14.298  69.450  1.00  0.00    -0.109 F  
HETATM   21  S   UNL     1     -12.311  13.635  64.407  1.00  0.00    -0.298 S  
HETATM   22  H   UNL     1     -11.728  13.148  62.128  1.00  0.00     0.000 HD 
HETATM   23  O   UNL     1     -13.390  12.818  64.919  1.00  0.00    -0.736 OA 
HETATM   24  O   UNL     1     -12.527  15.005  64.000  1.00  0.00    -0.796 OA 
ENDBRANCH   4   7
TORSDOF 1
ENDMDL
MODEL       24
REMARK 921   NORMALIZED FREE ENERGY PREDICTED BY IDOCK:   -5.93 KCAL/MOL
REMARK 922        TOTAL FREE ENERGY PREDICTED BY IDOCK:   -6.04 KCAL/MOL
REMARK 923 INTER-LIGAND FREE ENERGY PREDICTED BY IDOCK:   -6.28 KCAL/MOL
REMARK 924 INTRA-LIGAND FREE ENERGY PREDICTED BY IDOCK:    0.24 KCAL/MOL
REMARK 927      BINDING AFFINITY PREDICTED BY RF-SCORE:    0.00 PKD
ROOT
HETATM    1  N   UNL     1     -12.407  16.124  72.184  1.00  0.00    -0.518 N  
HETATM    2  H2  UNL     1     -11.803  16.532  72.896  1.00  0.00     0.000 HD 
HETATM    3  H1  UNL     1     -12.774  16.613  71.367  1.00  0.00     0.000 HD 
HETATM    4  S   UNL     1     -12.959  14.542  72.165  1.00  0.00    -0.371 S  
HETATM    5  O   UNL     1     -14.374  14.648  71.904  1.00  0.00    -0.479 OA 
HETATM    6  O   UNL     1     -12.441  13.851  73.318  1.00  0.00    -0.102 OA 
ENDROOT
BRANCH   4   7
HETATM    7  C   UNL     1     -12.157  13.900  70.721  1.00  0.00    -0.330 A  
HETATM    8  C   UNL     1     -11.516  14.828  69.892  1.00  0.00    -0.322 A  
HETATM    9  C   UNL     1     -10.782  14.387  68.790  1.00  0.00    -0.252 A  
HETATM   10  C   UNL     1     -10.662  13.037  68.469  1.00  0.00    -0.255 A  
HETATM   11  C   UNL     1     -11.309  12.124  69.312  1.00  0.00    -0.327 A  
HETATM   12  N   UNL     1      -9.820  12.565  67.464  1.00  0.00    -0.196 NA 
HETATM   13  C   UNL     1     -12.084  12.524  70.432  1.00  0.00    -0.380 A  
HETATM   14  H   UNL     1      -9.478  11.605  67.479  1.00  0.00     0.000 HD 
HETATM   15  C   UNL     1      -9.443  13.465  66.401  1.00  0.00    -0.219 C  
HETATM   16  C   UNL     1     -12.759  11.414  71.209  1.00  0.00    -0.393 C  
HETATM   17  N   UNL     1      -8.831  14.652  66.960  1.00  0.00    -0.229 N  
HETATM   18  F   UNL     1     -11.853  10.497  71.654  1.00  0.00    -0.381 F  
HETATM   19  F   UNL     1     -13.616  10.710  70.414  1.00  0.00    -0.188 F  
HETATM   20  F   UNL     1     -13.481  11.758  72.302  1.00  0.00    -0.604 F  
HETATM   21  S   UNL     1      -9.946  15.573  67.806  1.00  0.00    -0.223 S  
HETATM   22  H   UNL     1      -7.847  14.897  66.853  1.00  0.00     0.000 HD 
HETATM   23  O   UNL     1     -10.892  16.076  66.832  1.00  0.00    -0.296 OA 
HETATM   24  O   UNL     1      -9.203  16.464  68.668  1.00  0.00    -0.213 OA 
ENDBRANCH   4   7
TORSDOF 1
ENDMDL
MODEL       25
REMARK 921   NORMALIZED FREE ENERGY PREDICTED BY IDOCK:   -5.93 KCAL/MOL
REMARK 922        TOTAL FREE ENERGY PREDICTED BY IDOCK:   -6.04 KCAL/MOL
REMARK 923 INTER-LIGAND FREE ENERGY PREDICTED BY IDOCK:   -6.09 KCAL/MOL
REMARK 924 INTRA-LIGAND FREE ENERGY PREDICTED BY IDOCK:    0.05 KCAL/MOL
REMARK 927      BINDING AFFINITY PREDICTED BY RF-SCORE:    0.00 PKD
ROOT
HETATM    1  N   UNL     1      -9.595  12.715  68.423  1.00  0.00    -0.315 N  
HETATM    2  H2  UNL     1      -9.648  12.185  69.293  1.00  0.00     0.000 HD 
HETATM    3  H1  UNL     1      -8.749  13.134  68.036  1.00  0.00     0.000 HD 
HETATM    4  S   UNL     1     -10.882  13.037  67.400  1.00  0.00    -0.256 S  
HETATM    5  O   UNL     1     -10.784  14.449  67.118  1.00  0.00    -0.278 OA 
HETATM    6  O   UNL     1     -12.075  12.445  67.947  1.00  0.00    -0.428 OA 
ENDROOT
BRANCH   4   7
HETATM    7  C   UNL     1     -10.421  12.130  65.948  1.00  0.00    -0.254 A  
HETATM    8  C   UNL     1      -9.244  11.375  66.026  1.00  0.00    -0.229 A  
HETATM    9  C   UNL     1      -8.870  10.559  64.956  1.00  0.00    -0.191 A  
HETATM   10  C   UNL     1      -9.627  10.467  63.791  1.00  0.00    -0.310 A  
HETATM   11  C   UNL     1     -10.802  11.228  63.736  1.00  0.00    -0.424 A  
HETATM   12  N   UNL     1      -9.351   9.554  62.775  1.00  0.00    -0.556 NA 
HETATM   13  C   UNL     1     -11.214  12.088  64.786  1.00  0.00    -0.373 A  
HETATM   14  H   UNL     1     -10.083   9.256  62.131  1.00  0.00     0.000 HD 
HETATM   15  C   UNL     1      -8.008   9.041  62.655  1.00  0.00    -0.136 C  
HETATM   16  C   UNL     1     -12.482  12.879  64.546  1.00  0.00    -0.400 C  
HETATM   17  N   UNL     1      -7.602   8.436  63.905  1.00  0.00    -0.126 N  
HETATM   18  F   UNL     1     -13.533  12.058  64.261  1.00  0.00    -0.417 F  
HETATM   19  F   UNL     1     -12.355  13.686  63.452  1.00  0.00    -0.548 F  
HETATM   20  F   UNL     1     -12.922  13.685  65.540  1.00  0.00    -0.521 F  
HETATM   21  S   UNL     1      -7.419   9.586  65.109  1.00  0.00    -0.114 S  
HETATM   22  H   UNL     1      -7.447   7.436  64.036  1.00  0.00     0.000 HD 
HETATM   23  O   UNL     1      -6.296  10.414  64.724  1.00  0.00    -0.127 OA 
HETATM   24  O   UNL     1      -7.448   8.891  66.376  1.00  0.00    -0.086 OA 
ENDBRANCH   4   7
TORSDOF 1
ENDMDL
MODEL       26
REMARK 921   NORMALIZED FREE ENERGY PREDICTED BY IDOCK:   -5.91 KCAL/MOL
REMARK 922        TOTAL FREE ENERGY PREDICTED BY IDOCK:   -6.02 KCAL/MOL
REMARK 923 INTER-LIGAND FREE ENERGY PREDICTED BY IDOCK:   -6.08 KCAL/MOL
REMARK 924 INTRA-LIGAND FREE ENERGY PREDICTED BY IDOCK:    0.06 KCAL/MOL
REMARK 927      BINDING AFFINITY PREDICTED BY RF-SCORE:    0.00 PKD
ROOT
HETATM    1  N   UNL     1     -11.303  11.701  70.219  1.00  0.00    -0.468 N  
HETATM    2  H2  UNL     1     -10.779  12.376  70.774  1.00  0.00     0.000 HD 
HETATM    3  H1  UNL     1     -12.268  11.811  69.908  1.00  0.00     0.000 HD 
HETATM    4  S   UNL     1     -10.717  10.230  69.668  1.00  0.00    -0.280 S  
HETATM    5  O   UNL     1     -11.746   9.276  70.003  1.00  0.00    -0.073 OA 
HETATM    6  O   UNL     1      -9.354  10.075  70.106  1.00  0.00    -0.195 OA 
ENDROOT
BRANCH   4   7
HETATM    7  C   UNL     1     -10.717  10.480  67.913  1.00  0.00    -0.260 A  
HETATM    8  C   UNL     1     -11.182  11.718  67.454  1.00  0.00    -0.357 A  
HETATM    9  C   UNL     1     -11.120  12.022  66.093  1.00  0.00    -0.322 A  
HETATM   10  C   UNL     1     -10.613  11.128  65.153  1.00  0.00    -0.253 A  
HETATM   11  C   UNL     1     -10.150   9.896  65.634  1.00  0.00    -0.307 A  
HETATM   12  N   UNL     1     -10.408  11.464  63.816  1.00  0.00    -0.354 NA 
HETATM   13  C   UNL     1     -10.210   9.532  67.004  1.00  0.00    -0.321 A  
HETATM   14  H   UNL     1      -9.732  10.954  63.249  1.00  0.00     0.000 HD 
HETATM   15  C   UNL     1     -11.175  12.548  63.253  1.00  0.00    -0.265 C  
HETATM   16  C   UNL     1      -9.716   8.143  67.350  1.00  0.00    -0.170 C  
HETATM   17  N   UNL     1     -10.975  13.748  64.038  1.00  0.00    -0.545 N  
HETATM   18  F   UNL     1      -8.428   7.959  66.940  1.00  0.00    -0.118 F  
HETATM   19  F   UNL     1     -10.438   7.189  66.694  1.00  0.00    -0.319 F  
HETATM   20  F   UNL     1      -9.730   7.774  68.652  1.00  0.00    -0.150 F  
HETATM   21  S   UNL     1     -11.661  13.603  65.559  1.00  0.00    -0.336 S  
HETATM   22  H   UNL     1     -10.480  14.576  63.707  1.00  0.00     0.000 HD 
HETATM   23  O   UNL     1     -13.092  13.531  65.363  1.00  0.00    -0.663 OA 
HETATM   24  O   UNL     1     -11.062  14.615  66.400  1.00  0.00    -0.323 OA 
ENDBRANCH   4   7
TORSDOF 1
ENDMDL
MODEL       27
REMARK 921   NORMALIZED FREE ENERGY PREDICTED BY IDOCK:   -5.89 KCAL/MOL
REMARK 922        TOTAL FREE ENERGY PREDICTED BY IDOCK:   -6.00 KCAL/MOL
REMARK 923 INTER-LIGAND FREE ENERGY PREDICTED BY IDOCK:   -6.07 KCAL/MOL
REMARK 924 INTRA-LIGAND FREE ENERGY PREDICTED BY IDOCK:    0.07 KCAL/MOL
REMARK 927      BINDING AFFINITY PREDICTED BY RF-SCORE:    0.00 PKD
ROOT
HETATM    1  N   UNL     1     -11.822  14.210  68.837  1.00  0.00    -0.331 N  
HETATM    2  H2  UNL     1     -12.760  14.537  69.069  1.00  0.00     0.000 HD 
HETATM    3  H1  UNL     1     -11.057  14.084  69.501  1.00  0.00     0.000 HD 
HETATM    4  S   UNL     1     -11.289  13.793  67.304  1.00  0.00    -0.337 S  
HETATM    5  O   UNL     1     -10.024  14.473  67.158  1.00  0.00    -0.246 OA 
HETATM    6  O   UNL     1     -12.368  13.972  66.368  1.00  0.00    -0.460 OA 
ENDROOT
BRANCH   4   7
HETATM    7  C   UNL     1     -10.989  12.056  67.490  1.00  0.00    -0.253 A  
HETATM    8  C   UNL     1     -11.211  11.512  68.760  1.00  0.00    -0.309 A  
HETATM    9  C   UNL     1     -11.089  10.135  68.958  1.00  0.00    -0.205 A  
HETATM   10  C   UNL     1     -10.743   9.264  67.928  1.00  0.00    -0.188 A  
HETATM   11  C   UNL     1     -10.527   9.829  66.664  1.00  0.00    -0.233 A  
HETATM   12  N   UNL     1     -10.756   7.878  68.067  1.00  0.00    -0.431 NA 
HETATM   13  C   UNL     1     -10.619  11.223  66.417  1.00  0.00    -0.316 A  
HETATM   14  H   UNL     1     -10.855   7.274  67.251  1.00  0.00     0.000 HD 
HETATM   15  C   UNL     1     -10.629   7.316  69.390  1.00  0.00    -0.229 C  
HETATM   16  C   UNL     1     -10.306  11.675  65.007  1.00  0.00    -0.281 C  
HETATM   17  N   UNL     1     -11.664   7.850  70.249  1.00  0.00    -0.474 N  
HETATM   18  F   UNL     1     -11.108  11.052  64.096  1.00  0.00    -0.426 F  
HETATM   19  F   UNL     1      -9.033  11.332  64.653  1.00  0.00    -0.170 F  
HETATM   20  F   UNL     1     -10.414  12.996  64.728  1.00  0.00    -0.297 F  
HETATM   21  S   UNL     1     -11.427   9.481  70.549  1.00  0.00    -0.266 S  
HETATM   22  H   UNL     1     -12.438   7.303  70.625  1.00  0.00     0.000 HD 
HETATM   23  O   UNL     1     -10.215   9.587  71.331  1.00  0.00    -0.283 OA 
HETATM   24  O   UNL     1     -12.683  10.018  71.023  1.00  0.00    -0.331 OA 
ENDBRANCH   4   7
TORSDOF 1
ENDMDL
MODEL       28
REMARK 921   NORMALIZED FREE ENERGY PREDICTED BY IDOCK:   -5.84 KCAL/MOL
REMARK 922        TOTAL FREE ENERGY PREDICTED BY IDOCK:   -5.94 KCAL/MOL
REMARK 923 INTER-LIGAND FREE ENERGY PREDICTED BY IDOCK:   -6.00 KCAL/MOL
REMARK 924 INTRA-LIGAND FREE ENERGY PREDICTED BY IDOCK:    0.06 KCAL/MOL
REMARK 927      BINDING AFFINITY PREDICTED BY RF-SCORE:    0.00 PKD
ROOT
HETATM    1  N   UNL     1      -8.336   9.615  68.084  1.00  0.00    -0.117 N  
HETATM    2  H2  UNL     1      -7.404   9.422  68.449  1.00  0.00     0.000 HD 
HETATM    3  H1  UNL     1      -8.972   8.923  67.687  1.00  0.00     0.000 HD 
HETATM    4  S   UNL     1      -9.071  11.120  68.039  1.00  0.00    -0.158 S  
HETATM    5  O   UNL     1      -9.593  11.235  66.698  1.00  0.00    -0.189 OA 
HETATM    6  O   UNL     1      -8.173  12.097  68.599  1.00  0.00    -0.124 OA 
ENDROOT
BRANCH   4   7
HETATM    7  C   UNL     1     -10.423  10.892  69.163  1.00  0.00    -0.221 A  
HETATM    8  C   UNL     1     -10.541   9.630  69.756  1.00  0.00    -0.267 A  
HETATM    9  C   UNL     1     -11.522   9.406  70.724  1.00  0.00    -0.300 A  
HETATM   10  C   UNL     1     -12.410  10.400  71.127  1.00  0.00    -0.400 A  
HETATM   11  C   UNL     1     -12.273  11.657  70.522  1.00  0.00    -0.451 A  
HETATM   12  N   UNL     1     -13.298  10.243  72.189  1.00  0.00    -0.563 NA 
HETATM   13  C   UNL     1     -11.306  11.928  69.520  1.00  0.00    -0.306 A  
HETATM   14  H   UNL     1     -13.664  11.054  72.687  1.00  0.00     0.000 HD 
HETATM   15  C   UNL     1     -13.688   8.907  72.570  1.00  0.00    -0.414 C  
HETATM   16  C   UNL     1     -11.325  13.323  68.932  1.00  0.00    -0.288 C  
HETATM   17  N   UNL     1     -12.510   8.120  72.867  1.00  0.00    -0.571 N  
HETATM   18  F   UNL     1     -11.178  14.272  69.901  1.00  0.00    -0.273 F  
HETATM   19  F   UNL     1     -12.529  13.593  68.350  1.00  0.00    -0.344 F  
HETATM   20  F   UNL     1     -10.396  13.627  67.996  1.00  0.00    -0.227 F  
HETATM   21  S   UNL     1     -11.606   7.829  71.487  1.00  0.00    -0.280 S  
HETATM   22  H   UNL     1     -12.263   7.784  73.798  1.00  0.00     0.000 HD 
HETATM   23  O   UNL     1     -12.409   6.976  70.638  1.00  0.00    -0.319 OA 
HETATM   24  O   UNL     1     -10.281   7.440  71.915  1.00  0.00    -0.186 OA 
ENDBRANCH   4   7
TORSDOF 1
ENDMDL
MODEL       29
REMARK 921   NORMALIZED FREE ENERGY PREDICTED BY IDOCK:   -5.83 KCAL/MOL
REMARK 922        TOTAL FREE ENERGY PREDICTED BY IDOCK:   -5.93 KCAL/MOL
REMARK 923 INTER-LIGAND FREE ENERGY PREDICTED BY IDOCK:   -5.99 KCAL/MOL
REMARK 924 INTRA-LIGAND FREE ENERGY PREDICTED BY IDOCK:    0.06 KCAL/MOL
REMARK 927      BINDING AFFINITY PREDICTED BY RF-SCORE:    0.00 PKD
ROOT
HETATM    1  N   UNL     1      -9.314   8.269  65.232  1.00  0.00    -0.344 N  
HETATM    2  H2  UNL     1      -9.703   7.658  64.515  1.00  0.00     0.000 HD 
HETATM    3  H1  UNL     1      -8.600   8.982  65.080  1.00  0.00     0.000 HD 
HETATM    4  S   UNL     1      -9.742   8.264  66.852  1.00  0.00    -0.249 S  
HETATM    5  O   UNL     1      -8.487   8.260  67.565  1.00  0.00    -0.127 OA 
HETATM    6  O   UNL     1     -10.749   7.257  67.068  1.00  0.00    -0.332 OA 
ENDROOT
BRANCH   4   7
HETATM    7  C   UNL     1     -10.496   9.858  67.028  1.00  0.00    -0.230 A  
HETATM    8  C   UNL     1     -10.630  10.623  65.863  1.00  0.00    -0.178 A  
HETATM    9  C   UNL     1     -11.301  11.846  65.907  1.00  0.00    -0.308 A  
HETATM   10  C   UNL     1     -11.848  12.352  67.084  1.00  0.00    -0.291 A  
HETATM   11  C   UNL     1     -11.705  11.570  68.238  1.00  0.00    -0.371 A  
HETATM   12  N   UNL     1     -12.643  13.496  67.123  1.00  0.00    -0.183 NA 
HETATM   13  C   UNL     1     -11.015  10.331  68.249  1.00  0.00    -0.315 A  
HETATM   14  H   UNL     1     -13.306  13.643  67.884  1.00  0.00     0.000 HD 
HETATM   15  C   UNL     1     -12.509  14.466  66.064  1.00  0.00    -0.283 C  
HETATM   16  C   UNL     1     -10.907   9.636  69.589  1.00  0.00    -0.244 C  
HETATM   17  N   UNL     1     -12.729  13.826  64.784  1.00  0.00    -0.684 N  
HETATM   18  F   UNL     1     -12.138   9.416  70.135  1.00  0.00    -0.149 F  
HETATM   19  F   UNL     1     -10.252  10.419  70.495  1.00  0.00    -0.240 F  
HETATM   20  F   UNL     1     -10.282   8.436  69.630  1.00  0.00    -0.189 F  
HETATM   21  S   UNL     1     -11.497  12.752  64.419  1.00  0.00    -0.381 S  
HETATM   22  H   UNL     1     -13.532  14.007  64.182  1.00  0.00     0.000 HD 
HETATM   23  O   UNL     1     -10.300  13.543  64.228  1.00  0.00    -0.406 OA 
HETATM   24  O   UNL     1     -11.990  11.866  63.389  1.00  0.00    -0.483 OA 
ENDBRANCH   4   7
TORSDOF 1
ENDMDL
MODEL       30
REMARK 921   NORMALIZED FREE ENERGY PREDICTED BY IDOCK:   -5.81 KCAL/MOL
REMARK 922        TOTAL FREE ENERGY PREDICTED BY IDOCK:   -5.91 KCAL/MOL
REMARK 923 INTER-LIGAND FREE ENERGY PREDICTED BY IDOCK:   -6.03 KCAL/MOL
REMARK 924 INTRA-LIGAND FREE ENERGY PREDICTED BY IDOCK:    0.12 KCAL/MOL
REMARK 927      BINDING AFFINITY PREDICTED BY RF-SCORE:    0.00 PKD
ROOT
HETATM    1  N   UNL     1     -11.418   9.158  69.605  1.00  0.00    -0.428 N  
HETATM    2  H2  UNL     1     -11.786   8.478  68.942  1.00  0.00     0.000 HD 
HETATM    3  H1  UNL     1     -10.430   9.362  69.759  1.00  0.00     0.000 HD 
HETATM    4  S   UNL     1     -12.338  10.124  70.620  1.00  0.00    -0.274 S  
HETATM    5  O   UNL     1     -11.717   9.991  71.916  1.00  0.00    -0.183 OA 
HETATM    6  O   UNL     1     -13.732   9.837  70.404  1.00  0.00     0.112 OA 
ENDROOT
BRANCH   4   7
HETATM    7  C   UNL     1     -11.993  11.742  69.984  1.00  0.00    -0.344 A  
HETATM    8  C   UNL     1     -11.297  11.806  68.771  1.00  0.00    -0.325 A  
HETATM    9  C   UNL     1     -11.075  13.041  68.160  1.00  0.00    -0.256 A  
HETATM   10  C   UNL     1     -11.519  14.237  68.719  1.00  0.00    -0.296 A  
HETATM   11  C   UNL     1     -12.216  14.151  69.932  1.00  0.00    -0.416 A  
HETATM   12  N   UNL     1     -11.437  15.462  68.060  1.00  0.00    -0.342 NA 
HETATM   13  C   UNL     1     -12.448  12.922  70.602  1.00  0.00    -0.333 A  
HETATM   14  H   UNL     1     -12.062  16.229  68.307  1.00  0.00     0.000 HD 
HETATM   15  C   UNL     1     -10.448  15.621  67.022  1.00  0.00    -0.303 C  
HETATM   16  C   UNL     1     -13.173  13.009  71.928  1.00  0.00    -0.430 C  
HETATM   17  N   UNL     1     -10.627  14.597  66.015  1.00  0.00    -0.298 N  
HETATM   18  F   UNL     1     -14.380  13.630  71.795  1.00  0.00    -0.415 F  
HETATM   19  F   UNL     1     -12.476  13.775  72.817  1.00  0.00    -0.221 F  
HETATM   20  F   UNL     1     -13.439  11.853  72.579  1.00  0.00    -0.548 F  
HETATM   21  S   UNL     1     -10.248  13.079  66.615  1.00  0.00    -0.261 S  
HETATM   22  H   UNL     1     -10.943  14.776  65.062  1.00  0.00     0.000 HD 
HETATM   23  O   UNL     1      -8.826  13.083  66.881  1.00  0.00    -0.214 OA 
HETATM   24  O   UNL     1     -10.850  12.105  65.733  1.00  0.00    -0.263 OA 
ENDBRANCH   4   7
TORSDOF 1
ENDMDL
MODEL       31
REMARK 921   NORMALIZED FREE ENERGY PREDICTED BY IDOCK:   -5.80 KCAL/MOL
REMARK 922        TOTAL FREE ENERGY PREDICTED BY IDOCK:   -5.90 KCAL/MOL
REMARK 923 INTER-LIGAND FREE ENERGY PREDICTED BY IDOCK:   -5.97 KCAL/MOL
REMARK 924 INTRA-LIGAND FREE ENERGY PREDICTED BY IDOCK:    0.08 KCAL/MOL
REMARK 927      BINDING AFFINITY PREDICTED BY RF-SCORE:    0.00 PKD
ROOT
HETATM    1  N   UNL     1     -10.668  14.685  70.378  1.00  0.00    -0.473 N  
HETATM    2  H2  UNL     1      -9.915  14.432  71.017  1.00  0.00     0.000 HD 
HETATM    3  H1  UNL     1     -11.410  15.358  70.574  1.00  0.00     0.000 HD 
HETATM    4  S   UNL     1     -10.888  14.066  68.837  1.00  0.00    -0.247 S  
HETATM    5  O   UNL     1     -12.285  13.709  68.779  1.00  0.00    -0.339 OA 
HETATM    6  O   UNL     1      -9.841  13.116  68.560  1.00  0.00    -0.218 OA 
ENDROOT
BRANCH   4   7
HETATM    7  C   UNL     1     -10.622  15.502  67.832  1.00  0.00    -0.274 A  
HETATM    8  C   UNL     1     -10.183  16.657  68.490  1.00  0.00    -0.282 A  
HETATM    9  C   UNL     1      -9.860  17.798  67.753  1.00  0.00    -0.295 A  
HETATM   10  C   UNL     1      -9.964  17.839  66.365  1.00  0.00    -0.344 A  
HETATM   11  C   UNL     1     -10.402  16.672  65.726  1.00  0.00    -0.338 A  
HETATM   12  N   UNL     1      -9.511  18.912  65.599  1.00  0.00    -0.198 NA 
HETATM   13  C   UNL     1     -10.762  15.495  66.432  1.00  0.00    -0.303 A  
HETATM   14  H   UNL     1      -9.267  18.785  64.617  1.00  0.00     0.000 HD 
HETATM   15  C   UNL     1      -9.396  20.206  66.227  1.00  0.00    -0.314 C  
HETATM   16  C   UNL     1     -11.265  14.339  65.594  1.00  0.00    -0.314 C  
HETATM   17  N   UNL     1      -8.541  20.111  67.390  1.00  0.00    -0.336 N  
HETATM   18  F   UNL     1     -10.352  13.978  64.648  1.00  0.00    -0.416 F  
HETATM   19  F   UNL     1     -12.382  14.691  64.893  1.00  0.00    -0.394 F  
HETATM   20  F   UNL     1     -11.587  13.190  66.233  1.00  0.00    -0.318 F  
HETATM   21  S   UNL     1      -9.261  19.208  68.605  1.00  0.00    -0.374 S  
HETATM   22  H   UNL     1      -7.618  20.539  67.463  1.00  0.00     0.000 HD 
HETATM   23  O   UNL     1     -10.409  19.964  69.058  1.00  0.00    -0.390 OA 
HETATM   24  O   UNL     1      -8.215  18.801  69.516  1.00  0.00     0.192 OA 
ENDBRANCH   4   7
TORSDOF 1
ENDMDL
MODEL       32
REMARK 921   NORMALIZED FREE ENERGY PREDICTED BY IDOCK:   -5.77 KCAL/MOL
REMARK 922        TOTAL FREE ENERGY PREDICTED BY IDOCK:   -5.87 KCAL/MOL
REMARK 923 INTER-LIGAND FREE ENERGY PREDICTED BY IDOCK:   -5.94 KCAL/MOL
REMARK 924 INTRA-LIGAND FREE ENERGY PREDICTED BY IDOCK:    0.07 KCAL/MOL
REMARK 927      BINDING AFFINITY PREDICTED BY RF-SCORE:    0.00 PKD
ROOT
HETATM    1  N   UNL     1      -8.453   7.915  70.376  1.00  0.00    -0.129 N  
HETATM    2  H2  UNL     1      -8.272   7.015  69.934  1.00  0.00     0.000 HD 
HETATM    3  H1  UNL     1      -7.807   8.704  70.400  1.00  0.00     0.000 HD 
HETATM    4  S   UNL     1      -9.861   8.340  71.179  1.00  0.00    -0.184 S  
HETATM    5  O   UNL     1      -9.415   8.930  72.418  1.00  0.00    -0.315 OA 
HETATM    6  O   UNL     1     -10.774   7.226  71.145  1.00  0.00    -0.226 OA 
ENDROOT
BRANCH   4   7
HETATM    7  C   UNL     1     -10.500   9.619  70.131  1.00  0.00    -0.273 A  
HETATM    8  C   UNL     1      -9.724   9.967  69.020  1.00  0.00    -0.195 A  
HETATM    9  C   UNL     1     -10.207  10.897  68.097  1.00  0.00    -0.176 A  
HETATM   10  C   UNL     1     -11.449  11.511  68.242  1.00  0.00    -0.299 A  
HETATM   11  C   UNL     1     -12.211  11.146  69.360  1.00  0.00    -0.329 A  
HETATM   12  N   UNL     1     -12.013  12.328  67.264  1.00  0.00    -0.559 NA 
HETATM   13  C   UNL     1     -11.755  10.223  70.336  1.00  0.00    -0.404 A  
HETATM   14  H   UNL     1     -13.022  12.468  67.220  1.00  0.00     0.000 HD 
HETATM   15  C   UNL     1     -11.137  12.973  66.316  1.00  0.00    -0.289 C  
HETATM   16  C   UNL     1     -12.679   9.978  71.510  1.00  0.00    -0.429 C  
HETATM   17  N   UNL     1     -10.331  11.979  65.640  1.00  0.00    -0.244 N  
HETATM   18  F   UNL     1     -13.907   9.553  71.095  1.00  0.00    -0.415 F  
HETATM   19  F   UNL     1     -12.917  11.134  72.195  1.00  0.00    -0.553 F  
HETATM   20  F   UNL     1     -12.289   9.078  72.444  1.00  0.00    -0.418 F  
HETATM   21  S   UNL     1      -9.233  11.268  66.688  1.00  0.00    -0.185 S  
HETATM   22  H   UNL     1     -10.420  11.741  64.652  1.00  0.00     0.000 HD 
HETATM   23  O   UNL     1      -8.294  12.301  67.066  1.00  0.00    -0.177 OA 
HETATM   24  O   UNL     1      -8.795  10.033  66.078  1.00  0.00    -0.140 OA 
ENDBRANCH   4   7
TORSDOF 1
ENDMDL
MODEL       33
REMARK 921   NORMALIZED FREE ENERGY PREDICTED BY IDOCK:   -5.75 KCAL/MOL
REMARK 922        TOTAL FREE ENERGY PREDICTED BY IDOCK:   -5.85 KCAL/MOL
REMARK 923 INTER-LIGAND FREE ENERGY PREDICTED BY IDOCK:   -5.93 KCAL/MOL
REMARK 924 INTRA-LIGAND FREE ENERGY PREDICTED BY IDOCK:    0.08 KCAL/MOL
REMARK 927      BINDING AFFINITY PREDICTED BY RF-SCORE:    0.00 PKD
ROOT
HETATM    1  N   UNL     1     -11.802  10.958  71.101  1.00  0.00    -0.235 N  
HETATM    2  H2  UNL     1     -11.326  11.681  71.640  1.00  0.00     0.000 HD 
HETATM    3  H1  UNL     1     -12.689  11.072  70.610  1.00  0.00     0.000 HD 
HETATM    4  S   UNL     1     -11.253   9.391  70.877  1.00  0.00    -0.355 S  
HETATM    5  O   UNL     1     -12.398   8.557  71.154  1.00  0.00    -0.286 OA 
HETATM    6  O   UNL     1     -10.001   9.229  71.570  1.00  0.00    -0.307 OA 
ENDROOT
BRANCH   4   7
HETATM    7  C   UNL     1     -10.936   9.368  69.133  1.00  0.00    -0.090 A  
HETATM    8  C   UNL     1     -11.054  10.587  68.457  1.00  0.00    -0.329 A  
HETATM    9  C   UNL     1     -10.725  10.666  67.102  1.00  0.00    -0.272 A  
HETATM   10  C   UNL     1     -10.284   9.560  66.379  1.00  0.00    -0.232 A  
HETATM   11  C   UNL     1     -10.170   8.350  67.076  1.00  0.00    -0.377 A  
HETATM   12  N   UNL     1      -9.814   9.645  65.070  1.00  0.00    -0.434 NA 
HETATM   13  C   UNL     1     -10.511   8.214  68.446  1.00  0.00    -0.205 A  
HETATM   14  H   UNL     1      -9.184   8.937  64.695  1.00  0.00     0.000 HD 
HETATM   15  C   UNL     1     -10.240  10.758  64.255  1.00  0.00    -0.354 C  
HETATM   16  C   UNL     1     -10.380   6.826  69.035  1.00  0.00    -0.195 C  
HETATM   17  N   UNL     1      -9.911  12.002  64.917  1.00  0.00    -0.386 N  
HETATM   18  F   UNL     1      -9.114   6.341  68.885  1.00  0.00    -0.125 F  
HETATM   19  F   UNL     1     -11.181   5.938  68.378  1.00  0.00    -0.351 F  
HETATM   20  F   UNL     1     -10.667   6.667  70.348  1.00  0.00    -0.234 F  
HETATM   21  S   UNL     1     -10.832  12.221  66.299  1.00  0.00    -0.291 S  
HETATM   22  H   UNL     1      -9.208  12.662  64.584  1.00  0.00     0.000 HD 
HETATM   23  O   UNL     1     -12.201  12.393  65.862  1.00  0.00    -0.629 OA 
HETATM   24  O   UNL     1     -10.166  13.216  67.108  1.00  0.00    -0.241 OA 
ENDBRANCH   4   7
TORSDOF 1
ENDMDL
MODEL       34
REMARK 921   NORMALIZED FREE ENERGY PREDICTED BY IDOCK:   -5.74 KCAL/MOL
REMARK 922        TOTAL FREE ENERGY PREDICTED BY IDOCK:   -5.84 KCAL/MOL
REMARK 923 INTER-LIGAND FREE ENERGY PREDICTED BY IDOCK:   -5.89 KCAL/MOL
REMARK 924 INTRA-LIGAND FREE ENERGY PREDICTED BY IDOCK:    0.05 KCAL/MOL
REMARK 927      BINDING AFFINITY PREDICTED BY RF-SCORE:    0.00 PKD
ROOT
HETATM    1  N   UNL     1      -9.419  10.982  67.080  1.00  0.00    -0.164 N  
HETATM    2  H2  UNL     1      -9.687  11.044  66.099  1.00  0.00     0.000 HD 
HETATM    3  H1  UNL     1      -8.765  11.605  67.556  1.00  0.00     0.000 HD 
HETATM    4  S   UNL     1      -9.979   9.843  68.173  1.00  0.00    -0.157 S  
HETATM    5  O   UNL     1      -8.794   9.353  68.835  1.00  0.00    -0.131 OA 
HETATM    6  O   UNL     1     -10.902   8.963  67.502  1.00  0.00    -0.218 OA 
ENDROOT
BRANCH   4   7
HETATM    7  C   UNL     1     -10.893  10.854  69.307  1.00  0.00    -0.241 A  
HETATM    8  C   UNL     1     -10.943  12.224  69.028  1.00  0.00    -0.250 A  
HETATM    9  C   UNL     1     -11.723  13.068  69.821  1.00  0.00    -0.276 A  
HETATM   10  C   UNL     1     -12.462  12.597  70.904  1.00  0.00    -0.278 A  
HETATM   11  C   UNL     1     -12.400  11.221  71.164  1.00  0.00    -0.429 A  
HETATM   12  N   UNL     1     -13.357  13.391  71.617  1.00  0.00    -0.363 NA 
HETATM   13  C   UNL     1     -11.606  10.327  70.400  1.00  0.00    -0.411 A  
HETATM   14  H   UNL     1     -14.124  12.970  72.142  1.00  0.00     0.000 HD 
HETATM   15  C   UNL     1     -13.175  14.822  71.599  1.00  0.00    -0.349 C  
HETATM   16  C   UNL     1     -11.611   8.880  70.846  1.00  0.00    -0.283 C  
HETATM   17  N   UNL     1     -13.168  15.296  70.231  1.00  0.00    -0.678 N  
HETATM   18  F   UNL     1     -12.877   8.373  70.872  1.00  0.00    -0.201 F  
HETATM   19  F   UNL     1     -11.154   8.760  72.126  1.00  0.00    -0.378 F  
HETATM   20  F   UNL     1     -10.890   7.994  70.120  1.00  0.00    -0.233 F  
HETATM   21  S   UNL     1     -11.806  14.770  69.410  1.00  0.00    -0.325 S  
HETATM   22  H   UNL     1     -13.899  15.877  69.820  1.00  0.00     0.000 HD 
HETATM   23  O   UNL     1     -10.672  15.424  70.027  1.00  0.00    -0.273 OA 
HETATM   24  O   UNL     1     -12.077  14.902  67.997  1.00  0.00    -0.252 OA 
ENDBRANCH   4   7
TORSDOF 1
ENDMDL
MODEL       35
REMARK 921   NORMALIZED FREE ENERGY PREDICTED BY IDOCK:   -5.71 KCAL/MOL
REMARK 922        TOTAL FREE ENERGY PREDICTED BY IDOCK:   -5.81 KCAL/MOL
REMARK 923 INTER-LIGAND FREE ENERGY PREDICTED BY IDOCK:   -6.06 KCAL/MOL
REMARK 924 INTRA-LIGAND FREE ENERGY PREDICTED BY IDOCK:    0.25 KCAL/MOL
REMARK 927      BINDING AFFINITY PREDICTED BY RF-SCORE:    0.00 PKD
ROOT
HETATM    1  N   UNL     1     -10.384  19.406  69.517  1.00  0.00    -0.429 N  
HETATM    2  H2  UNL     1     -11.154  20.049  69.702  1.00  0.00     0.000 HD 
HETATM    3  H1  UNL     1      -9.704  19.082  70.205  1.00  0.00     0.000 HD 
HETATM    4  S   UNL     1     -10.032  18.712  68.033  1.00  0.00    -0.371 S  
HETATM    5  O   UNL     1      -8.613  18.908  67.862  1.00  0.00    -0.283 OA 
HETATM    6  O   UNL     1     -10.992  19.169  67.062  1.00  0.00    -0.426 OA 
ENDROOT
BRANCH   4   7
HETATM    7  C   UNL     1     -10.338  16.996  68.359  1.00  0.00    -0.351 A  
HETATM    8  C   UNL     1     -11.055  16.696  69.523  1.00  0.00    -0.158 A  
HETATM    9  C   UNL     1     -11.418  15.375  69.795  1.00  0.00    -0.324 A  
HETATM   10  C   UNL     1     -11.085  14.323  68.945  1.00  0.00    -0.262 A  
HETATM   11  C   UNL     1     -10.369  14.646  67.784  1.00  0.00    -0.237 A  
HETATM   12  N   UNL     1     -11.558  13.024  69.121  1.00  0.00    -0.298 NA 
HETATM   13  C   UNL     1      -9.960  15.969  67.474  1.00  0.00    -0.240 A  
HETATM   14  H   UNL     1     -11.607  12.377  68.334  1.00  0.00     0.000 HD 
HETATM   15  C   UNL     1     -11.975  12.615  70.440  1.00  0.00    -0.248 C  
HETATM   16  C   UNL     1      -9.150  16.139  66.207  1.00  0.00    -0.338 C  
HETATM   17  N   UNL     1     -12.993  13.519  70.933  1.00  0.00    -0.208 N  
HETATM   18  F   UNL     1      -9.821  15.659  65.121  1.00  0.00    -0.325 F  
HETATM   19  F   UNL     1      -7.997  15.411  66.261  1.00  0.00    -0.182 F  
HETATM   20  F   UNL     1      -8.770  17.392  65.864  1.00  0.00    -0.234 F  
HETATM   21  S   UNL     1     -12.362  15.042  71.234  1.00  0.00    -0.358 S  
HETATM   22  H   UNL     1     -13.969  13.261  71.079  1.00  0.00     0.000 HD 
HETATM   23  O   UNL     1     -11.439  14.897  72.338  1.00  0.00    -0.286 OA 
HETATM   24  O   UNL     1     -13.474  15.963  71.293  1.00  0.00    -0.499 OA 
ENDBRANCH   4   7
TORSDOF 1
ENDMDL
MODEL       36
REMARK 921   NORMALIZED FREE ENERGY PREDICTED BY IDOCK:   -5.68 KCAL/MOL
REMARK 922        TOTAL FREE ENERGY PREDICTED BY IDOCK:   -5.78 KCAL/MOL
REMARK 923 INTER-LIGAND FREE ENERGY PREDICTED BY IDOCK:   -5.83 KCAL/MOL
REMARK 924 INTRA-LIGAND FREE ENERGY PREDICTED BY IDOCK:    0.05 KCAL/MOL
REMARK 927      BINDING AFFINITY PREDICTED BY RF-SCORE:    0.00 PKD
ROOT
HETATM    1  N   UNL     1      -9.880  11.107  69.531  1.00  0.00    -0.402 N  
HETATM    2  H2  UNL     1      -9.432  12.002  69.726  1.00  0.00     0.000 HD 
HETATM    3  H1  UNL     1      -9.445  10.320  69.049  1.00  0.00     0.000 HD 
HETATM    4  S   UNL     1     -11.448  10.691  69.950  1.00  0.00    -0.342 S  
HETATM    5  O   UNL     1     -12.010  10.119  68.751  1.00  0.00    -0.016 OA 
HETATM    6  O   UNL     1     -12.062  11.803  70.630  1.00  0.00    -0.368 OA 
ENDROOT
BRANCH   4   7
HETATM    7  C   UNL     1     -11.172   9.396  71.128  1.00  0.00    -0.357 A  
HETATM    8  C   UNL     1      -9.839   9.081  71.415  1.00  0.00    -0.381 A  
HETATM    9  C   UNL     1      -9.544   8.139  72.404  1.00  0.00    -0.265 A  
HETATM   10  C   UNL     1     -10.538   7.483  73.125  1.00  0.00    -0.388 A  
HETATM   11  C   UNL     1     -11.866   7.815  72.824  1.00  0.00    -0.247 A  
HETATM   12  N   UNL     1     -10.268   6.651  74.210  1.00  0.00    -0.362 NA 
HETATM   13  C   UNL     1     -12.217   8.749  71.815  1.00  0.00    -0.415 A  
HETATM   14  H   UNL     1     -10.977   6.477  74.922  1.00  0.00     0.000 HD 
HETATM   15  C   UNL     1      -8.964   6.041  74.303  1.00  0.00    -0.130 C  
HETATM   16  C   UNL     1     -13.698   8.956  71.580  1.00  0.00    -0.395 C  
HETATM   17  N   UNL     1      -7.942   7.066  74.275  1.00  0.00    -0.119 N  
HETATM   18  F   UNL     1     -14.333   9.341  72.725  1.00  0.00    -0.435 F  
HETATM   19  F   UNL     1     -14.304   7.789  71.214  1.00  0.00    -0.452 F  
HETATM   20  F   UNL     1     -14.069   9.863  70.647  1.00  0.00    -0.225 F  
HETATM   21  S   UNL     1      -7.863   7.809  72.775  1.00  0.00    -0.121 S  
HETATM   22  H   UNL     1      -7.345   7.305  75.067  1.00  0.00     0.000 HD 
HETATM   23  O   UNL     1      -7.399   6.806  71.841  1.00  0.00    -0.083 OA 
HETATM   24  O   UNL     1      -7.163   9.061  72.952  1.00  0.00    -0.322 OA 
ENDBRANCH   4   7
TORSDOF 1
ENDMDL
MODEL       37
REMARK 921   NORMALIZED FREE ENERGY PREDICTED BY IDOCK:   -5.65 KCAL/MOL
REMARK 922        TOTAL FREE ENERGY PREDICTED BY IDOCK:   -5.74 KCAL/MOL
REMARK 923 INTER-LIGAND FREE ENERGY PREDICTED BY IDOCK:   -5.84 KCAL/MOL
REMARK 924 INTRA-LIGAND FREE ENERGY PREDICTED BY IDOCK:    0.10 KCAL/MOL
REMARK 927      BINDING AFFINITY PREDICTED BY RF-SCORE:    0.00 PKD
ROOT
HETATM    1  N   UNL     1      -9.671  16.102  67.661  1.00  0.00    -0.231 N  
HETATM    2  H2  UNL     1     -10.164  16.884  67.231  1.00  0.00     0.000 HD 
HETATM    3  H1  UNL     1      -9.138  16.144  68.530  1.00  0.00     0.000 HD 
HETATM    4  S   UNL     1      -9.607  14.541  67.056  1.00  0.00    -0.254 S  
HETATM    5  O   UNL     1      -8.212  14.178  67.121  1.00  0.00    -0.192 OA 
HETATM    6  O   UNL     1     -10.359  14.482  65.830  1.00  0.00    -0.298 OA 
ENDROOT
BRANCH   4   7
HETATM    7  C   UNL     1     -10.491  13.638  68.300  1.00  0.00    -0.249 A  
HETATM    8  C   UNL     1     -11.134  14.394  69.287  1.00  0.00    -0.300 A  
HETATM    9  C   UNL     1     -11.930  13.758  70.242  1.00  0.00    -0.326 A  
HETATM   10  C   UNL     1     -12.108  12.377  70.260  1.00  0.00    -0.297 A  
HETATM   11  C   UNL     1     -11.458  11.639  69.261  1.00  0.00    -0.364 A  
HETATM   12  N   UNL     1     -13.008  11.736  71.110  1.00  0.00    -0.264 NA 
HETATM   13  C   UNL     1     -10.623  12.237  68.282  1.00  0.00    -0.243 A  
HETATM   14  H   UNL     1     -13.382  10.817  70.876  1.00  0.00     0.000 HD 
HETATM   15  C   UNL     1     -13.399  12.403  72.328  1.00  0.00    -0.321 C  
HETATM   16  C   UNL     1      -9.954  11.293  67.306  1.00  0.00    -0.183 C  
HETATM   17  N   UNL     1     -13.945  13.707  72.019  1.00  0.00    -0.458 N  
HETATM   18  F   UNL     1     -10.872  10.532  66.644  1.00  0.00    -0.293 F  
HETATM   19  F   UNL     1      -9.156  10.399  67.959  1.00  0.00    -0.131 F  
HETATM   20  F   UNL     1      -9.176  11.832  66.339  1.00  0.00    -0.194 F  
HETATM   21  S   UNL     1     -12.765  14.740  71.431  1.00  0.00    -0.358 S  
HETATM   22  H   UNL     1     -14.925  13.964  72.143  1.00  0.00     0.000 HD 
HETATM   23  O   UNL     1     -11.845  14.981  72.521  1.00  0.00    -0.366 OA 
HETATM   24  O   UNL     1     -13.439  15.825  70.756  1.00  0.00    -0.520 OA 
ENDBRANCH   4   7
TORSDOF 1
ENDMDL
MODEL       38
REMARK 921   NORMALIZED FREE ENERGY PREDICTED BY IDOCK:   -5.57 KCAL/MOL
REMARK 922        TOTAL FREE ENERGY PREDICTED BY IDOCK:   -5.65 KCAL/MOL
REMARK 923 INTER-LIGAND FREE ENERGY PREDICTED BY IDOCK:   -5.77 KCAL/MOL
REMARK 924 INTRA-LIGAND FREE ENERGY PREDICTED BY IDOCK:    0.12 KCAL/MOL
REMARK 927      BINDING AFFINITY PREDICTED BY RF-SCORE:    0.00 PKD
ROOT
HETATM    1  N   UNL     1     -11.364  12.334  63.062  1.00  0.00    -0.643 N  
HETATM    2  H2  UNL     1     -10.932  12.811  62.271  1.00  0.00     0.000 HD 
HETATM    3  H1  UNL     1     -11.530  11.329  63.129  1.00  0.00     0.000 HD 
HETATM    4  S   UNL     1     -11.916  13.072  64.461  1.00  0.00    -0.422 S  
HETATM    5  O   UNL     1     -13.234  12.523  64.671  1.00  0.00    -0.848 OA 
HETATM    6  O   UNL     1     -11.682  14.490  64.366  1.00  0.00    -0.404 OA 
ENDROOT
BRANCH   4   7
HETATM    7  C   UNL     1     -10.815  12.403  65.678  1.00  0.00    -0.277 A  
HETATM    8  C   UNL     1      -9.914  11.425  65.240  1.00  0.00    -0.303 A  
HETATM    9  C   UNL     1      -8.952  10.922  66.118  1.00  0.00    -0.183 A  
HETATM   10  C   UNL     1      -8.853  11.355  67.439  1.00  0.00    -0.150 A  
HETATM   11  C   UNL     1      -9.763  12.336  67.855  1.00  0.00    -0.202 A  
HETATM   12  N   UNL     1      -7.815  10.976  68.288  1.00  0.00    -0.114 NA 
HETATM   13  C   UNL     1     -10.771  12.862  67.007  1.00  0.00    -0.273 A  
HETATM   14  H   UNL     1      -7.560  11.553  69.089  1.00  0.00     0.000 HD 
HETATM   15  C   UNL     1      -7.109   9.749  68.008  1.00  0.00    -0.079 C  
HETATM   16  C   UNL     1     -11.705  13.879  67.629  1.00  0.00    -0.368 C  
HETATM   17  N   UNL     1      -6.578   9.786  66.662  1.00  0.00    -0.070 N  
HETATM   18  F   UNL     1     -11.015  14.938  68.142  1.00  0.00    -0.245 F  
HETATM   19  F   UNL     1     -12.374  13.343  68.691  1.00  0.00    -0.364 F  
HETATM   20  F   UNL     1     -12.659  14.426  66.839  1.00  0.00    -0.417 F  
HETATM   21  S   UNL     1      -7.804   9.739  65.521  1.00  0.00    -0.125 S  
HETATM   22  H   UNL     1      -5.585   9.834  66.437  1.00  0.00     0.000 HD 
HETATM   23  O   UNL     1      -8.424   8.436  65.633  1.00  0.00    -0.146 OA 
HETATM   24  O   UNL     1      -7.249  10.208  64.273  1.00  0.00    -0.135 OA 
ENDBRANCH   4   7
TORSDOF 1
ENDMDL
MODEL       39
REMARK 921   NORMALIZED FREE ENERGY PREDICTED BY IDOCK:   -5.44 KCAL/MOL
REMARK 922        TOTAL FREE ENERGY PREDICTED BY IDOCK:   -5.52 KCAL/MOL
REMARK 923 INTER-LIGAND FREE ENERGY PREDICTED BY IDOCK:   -5.58 KCAL/MOL
REMARK 924 INTRA-LIGAND FREE ENERGY PREDICTED BY IDOCK:    0.05 KCAL/MOL
REMARK 927      BINDING AFFINITY PREDICTED BY RF-SCORE:    0.00 PKD
ROOT
HETATM    1  N   UNL     1     -11.037  14.672  70.852  1.00  0.00    -0.518 N  
HETATM    2  H2  UNL     1     -11.868  14.636  71.442  1.00  0.00     0.000 HD 
HETATM    3  H1  UNL     1     -10.125  14.282  71.088  1.00  0.00     0.000 HD 
HETATM    4  S   UNL     1     -10.951  15.381  69.336  1.00  0.00    -0.300 S  
HETATM    5  O   UNL     1      -9.756  16.189  69.376  1.00  0.00    -0.245 OA 
HETATM    6  O   UNL     1     -12.239  15.932  69.002  1.00  0.00    -0.253 OA 
ENDROOT
BRANCH   4   7
HETATM    7  C   UNL     1     -10.657  13.974  68.299  1.00  0.00    -0.249 A  
HETATM    8  C   UNL     1     -10.661  12.721  68.922  1.00  0.00    -0.199 A  
HETATM    9  C   UNL     1     -10.533  11.562  68.155  1.00  0.00    -0.193 A  
HETATM   10  C   UNL     1     -10.392  11.599  66.770  1.00  0.00    -0.222 A  
HETATM   11  C   UNL     1     -10.393  12.863  66.165  1.00  0.00    -0.286 A  
HETATM   12  N   UNL     1     -10.408  10.457  65.972  1.00  0.00    -0.223 NA 
HETATM   13  C   UNL     1     -10.499  14.070  66.903  1.00  0.00    -0.276 A  
HETATM   14  H   UNL     1     -10.661  10.513  64.986  1.00  0.00     0.000 HD 
HETATM   15  C   UNL     1     -10.060   9.192  66.572  1.00  0.00    -0.287 C  
HETATM   16  C   UNL     1     -10.431  15.353  66.102  1.00  0.00    -0.316 C  
HETATM   17  N   UNL     1     -10.916   8.939  67.712  1.00  0.00    -0.487 N  
HETATM   18  F   UNL     1     -11.393  15.385  65.135  1.00  0.00    -0.340 F  
HETATM   19  F   UNL     1      -9.248  15.448  65.428  1.00  0.00    -0.282 F  
HETATM   20  F   UNL     1     -10.561  16.523  66.770  1.00  0.00    -0.300 F  
HETATM   21  S   UNL     1     -10.598  10.007  68.963  1.00  0.00    -0.225 S  
HETATM   22  H   UNL     1     -11.622   8.204  67.749  1.00  0.00     0.000 HD 
HETATM   23  O   UNL     1      -9.264   9.706  69.436  1.00  0.00    -0.165 OA 
HETATM   24  O   UNL     1     -11.739   9.983  69.850  1.00  0.00    -0.213 OA 
ENDBRANCH   4   7
TORSDOF 1
ENDMDL
MODEL       40
REMARK 921   NORMALIZED FREE ENERGY PREDICTED BY IDOCK:   -5.43 KCAL/MOL
REMARK 922        TOTAL FREE ENERGY PREDICTED BY IDOCK:   -5.51 KCAL/MOL
REMARK 923 INTER-LIGAND FREE ENERGY PREDICTED BY IDOCK:   -5.56 KCAL/MOL
REMARK 924 INTRA-LIGAND FREE ENERGY PREDICTED BY IDOCK:    0.05 KCAL/MOL
REMARK 927      BINDING AFFINITY PREDICTED BY RF-SCORE:    0.00 PKD
ROOT
HETATM    1  N   UNL     1      -9.091  15.069  67.371  1.00  0.00    -0.181 N  
HETATM    2  H2  UNL     1      -9.176  15.243  68.372  1.00  0.00     0.000 HD 
HETATM    3  H1  UNL     1      -8.217  15.042  66.846  1.00  0.00     0.000 HD 
HETATM    4  S   UNL     1     -10.366  14.778  66.322  1.00  0.00    -0.311 S  
HETATM    5  O   UNL     1     -10.119  15.645  65.195  1.00  0.00    -0.375 OA 
HETATM    6  O   UNL     1     -11.600  14.816  67.063  1.00  0.00    -0.362 OA 
ENDROOT
BRANCH   4   7
HETATM    7  C   UNL     1     -10.055  13.102  65.836  1.00  0.00    -0.290 A  
HETATM    8  C   UNL     1      -8.950  12.473  66.421  1.00  0.00    -0.077 A  
HETATM    9  C   UNL     1      -8.700  11.124  66.161  1.00  0.00    -0.186 A  
HETATM   10  C   UNL     1      -9.513  10.365  65.323  1.00  0.00    -0.237 A  
HETATM   11  C   UNL     1     -10.615  11.014  64.750  1.00  0.00    -0.350 A  
HETATM   12  N   UNL     1      -9.368   8.988  65.164  1.00  0.00    -0.448 NA 
HETATM   13  C   UNL     1     -10.900  12.387  64.966  1.00  0.00    -0.331 A  
HETATM   14  H   UNL     1     -10.152   8.414  64.854  1.00  0.00     0.000 HD 
HETATM   15  C   UNL     1      -8.084   8.393  65.446  1.00  0.00    -0.133 C  
HETATM   16  C   UNL     1     -12.099  12.946  64.231  1.00  0.00    -0.419 C  
HETATM   17  N   UNL     1      -7.680   8.720  66.797  1.00  0.00    -0.093 N  
HETATM   18  F   UNL     1     -13.233  12.248  64.528  1.00  0.00    -0.514 F  
HETATM   19  F   UNL     1     -11.947  12.821  62.881  1.00  0.00    -0.515 F  
HETATM   20  F   UNL     1     -12.418  14.245  64.440  1.00  0.00    -0.441 F  
HETATM   21  S   UNL     1      -7.339  10.353  66.954  1.00  0.00    -0.111 S  
HETATM   22  H   UNL     1      -7.611   8.042  67.556  1.00  0.00     0.000 HD 
HETATM   23  O   UNL     1      -6.164  10.609  66.151  1.00  0.00    -0.102 OA 
HETATM   24  O   UNL     1      -7.375  10.666  68.365  1.00  0.00    -0.084 OA 
ENDBRANCH   4   7
TORSDOF 1
ENDMDL
MODEL       41
REMARK 921   NORMALIZED FREE ENERGY PREDICTED BY IDOCK:   -5.42 KCAL/MOL
REMARK 922        TOTAL FREE ENERGY PREDICTED BY IDOCK:   -5.50 KCAL/MOL
REMARK 923 INTER-LIGAND FREE ENERGY PREDICTED BY IDOCK:   -5.58 KCAL/MOL
REMARK 924 INTRA-LIGAND FREE ENERGY PREDICTED BY IDOCK:    0.08 KCAL/MOL
REMARK 927      BINDING AFFINITY PREDICTED BY RF-SCORE:    0.00 PKD
ROOT
HETATM    1  N   UNL     1     -13.023   8.234  72.657  1.00  0.00    -0.608 N  
HETATM    2  H2  UNL     1     -13.361   8.695  73.501  1.00  0.00     0.000 HD 
HETATM    3  H1  UNL     1     -13.509   8.209  71.761  1.00  0.00     0.000 HD 
HETATM    4  S   UNL     1     -11.580   7.393  72.519  1.00  0.00    -0.241 S  
HETATM    5  O   UNL     1     -11.936   6.154  71.871  1.00  0.00    -0.312 OA 
HETATM    6  O   UNL     1     -10.894   7.428  73.785  1.00  0.00    -0.321 OA 
ENDROOT
BRANCH   4   7
HETATM    7  C   UNL     1     -10.686   8.404  71.369  1.00  0.00    -0.237 A  
HETATM    8  C   UNL     1     -11.359   9.518  70.856  1.00  0.00    -0.410 A  
HETATM    9  C   UNL     1     -10.687  10.413  70.021  1.00  0.00    -0.265 A  
HETATM   10  C   UNL     1      -9.353  10.238  69.664  1.00  0.00    -0.139 A  
HETATM   11  C   UNL     1      -8.696   9.118  70.191  1.00  0.00    -0.196 A  
HETATM   12  N   UNL     1      -8.623  11.190  68.954  1.00  0.00    -0.308 NA 
HETATM   13  C   UNL     1      -9.341   8.169  71.026  1.00  0.00    -0.180 A  
HETATM   14  H   UNL     1      -7.606  11.217  69.014  1.00  0.00     0.000 HD 
HETATM   15  C   UNL     1      -9.340  12.135  68.133  1.00  0.00    -0.204 C  
HETATM   16  C   UNL     1      -8.503   6.988  71.468  1.00  0.00    -0.116 C  
HETATM   17  N   UNL     1     -10.311  12.844  68.938  1.00  0.00    -0.429 N  
HETATM   18  F   UNL     1      -7.375   7.395  72.117  1.00  0.00    -0.069 F  
HETATM   19  F   UNL     1      -8.057   6.274  70.394  1.00  0.00    -0.106 F  
HETATM   20  F   UNL     1      -9.077   6.079  72.292  1.00  0.00    -0.140 F  
HETATM   21  S   UNL     1     -11.545  11.828  69.441  1.00  0.00    -0.342 S  
HETATM   22  H   UNL     1     -10.253  13.836  69.170  1.00  0.00     0.000 HD 
HETATM   23  O   UNL     1     -12.272  11.440  68.251  1.00  0.00    -0.588 OA 
HETATM   24  O   UNL     1     -12.205  12.470  70.555  1.00  0.00    -0.365 OA 
ENDBRANCH   4   7
TORSDOF 1
ENDMDL
MODEL       42
REMARK 921   NORMALIZED FREE ENERGY PREDICTED BY IDOCK:   -5.39 KCAL/MOL
REMARK 922        TOTAL FREE ENERGY PREDICTED BY IDOCK:   -5.47 KCAL/MOL
REMARK 923 INTER-LIGAND FREE ENERGY PREDICTED BY IDOCK:   -6.56 KCAL/MOL
REMARK 924 INTRA-LIGAND FREE ENERGY PREDICTED BY IDOCK:    1.09 KCAL/MOL
REMARK 927      BINDING AFFINITY PREDICTED BY RF-SCORE:    0.00 PKD
ROOT
HETATM    1  N   UNL     1     -10.087  11.487  69.278  1.00  0.00    -0.423 N  
HETATM    2  H2  UNL     1      -9.239  10.994  69.000  1.00  0.00     0.000 HD 
HETATM    3  H1  UNL     1     -10.324  11.768  70.230  1.00  0.00     0.000 HD 
HETATM    4  S   UNL     1     -11.316  11.967  68.245  1.00  0.00    -0.313 S  
HETATM    5  O   UNL     1     -12.531  11.537  68.894  1.00  0.00    -0.331 OA 
HETATM    6  O   UNL     1     -10.981  11.570  66.902  1.00  0.00    -0.269 OA 
ENDROOT
BRANCH   4   7
HETATM    7  C   UNL     1     -11.204  13.733  68.352  1.00  0.00    -0.272 A  
HETATM    8  C   UNL     1     -10.669  14.397  67.242  1.00  0.00    -0.285 A  
HETATM    9  C   UNL     1     -10.640  15.793  67.215  1.00  0.00    -0.313 A  
HETATM   10  C   UNL     1     -11.122  16.568  68.267  1.00  0.00    -0.321 A  
HETATM   11  C   UNL     1     -11.655  15.883  69.367  1.00  0.00    -0.352 A  
HETATM   12  N   UNL     1     -11.235  17.955  68.202  1.00  0.00     0.033 NA 
HETATM   13  C   UNL     1     -11.689  14.467  69.451  1.00  0.00    -0.362 A  
HETATM   14  H   UNL     1     -11.895  18.453  68.799  1.00  0.00     0.000 HD 
HETATM   15  C   UNL     1     -10.399  18.672  67.269  1.00  0.00    -0.400 C  
HETATM   16  C   UNL     1     -12.251  13.885  70.731  1.00  0.00    -0.369 C  
HETATM   17  N   UNL     1     -10.602  18.155  65.933  1.00  0.00    -0.343 N  
HETATM   18  F   UNL     1     -13.519  14.333  70.964  1.00  0.00    -0.400 F  
HETATM   19  F   UNL     1     -11.526  14.291  71.813  1.00  0.00    -0.186 F  
HETATM   20  F   UNL     1     -12.328  12.538  70.832  1.00  0.00    -0.432 F  
HETATM   21  S   UNL     1     -10.013  16.593  65.786  1.00  0.00    -0.183 S  
HETATM   22  H   UNL     1     -11.047  18.675  65.176  1.00  0.00     0.000 HD 
HETATM   23  O   UNL     1      -8.576  16.678  65.928  1.00  0.00    -0.473 OA 
HETATM   24  O   UNL     1     -10.625  16.011  64.613  1.00  0.00    -0.564 OA 
ENDBRANCH   4   7
TORSDOF 1
ENDMDL
MODEL       43
REMARK 921   NORMALIZED FREE ENERGY PREDICTED BY IDOCK:   -5.38 KCAL/MOL
REMARK 922        TOTAL FREE ENERGY PREDICTED BY IDOCK:   -5.45 KCAL/MOL
REMARK 923 INTER-LIGAND FREE ENERGY PREDICTED BY IDOCK:   -6.34 KCAL/MOL
REMARK 924 INTRA-LIGAND FREE ENERGY PREDICTED BY IDOCK:    0.88 KCAL/MOL
REMARK 927      BINDING AFFINITY PREDICTED BY RF-SCORE:    0.00 PKD
ROOT
HETATM    1  N   UNL     1      -8.465  11.105  65.153  1.00  0.00    -0.383 N  
HETATM    2  H2  UNL     1      -8.018  11.533  64.343  1.00  0.00     0.000 HD 
HETATM    3  H1  UNL     1      -8.028  10.962  66.064  1.00  0.00     0.000 HD 
HETATM    4  S   UNL     1     -10.036  10.524  65.204  1.00  0.00    -0.296 S  
HETATM    5  O   UNL     1      -9.925   9.217  65.807  1.00  0.00    -0.299 OA 
HETATM    6  O   UNL     1     -10.653  10.726  63.918  1.00  0.00    -0.314 OA 
ENDROOT
BRANCH   4   7
HETATM    7  C   UNL     1     -10.789  11.629  66.367  1.00  0.00    -0.287 A  
HETATM    8  C   UNL     1     -11.111  11.098  67.621  1.00  0.00    -0.348 A  
HETATM    9  C   UNL     1     -11.618  11.932  68.620  1.00  0.00    -0.310 A  
HETATM   10  C   UNL     1     -11.827  13.294  68.417  1.00  0.00    -0.360 A  
HETATM   11  C   UNL     1     -11.495  13.806  67.155  1.00  0.00    -0.365 A  
HETATM   12  N   UNL     1     -12.192  14.169  69.438  1.00  0.00    -0.443 NA 
HETATM   13  C   UNL     1     -10.998  12.996  66.101  1.00  0.00    -0.300 A  
HETATM   14  H   UNL     1     -11.994  15.167  69.364  1.00  0.00     0.000 HD 
HETATM   15  C   UNL     1     -12.856  13.632  70.601  1.00  0.00    -0.154 C  
HETATM   16  C   UNL     1     -10.738  13.696  64.784  1.00  0.00    -0.410 C  
HETATM   17  N   UNL     1     -12.042  12.591  71.191  1.00  0.00    -0.269 N  
HETATM   18  F   UNL     1      -9.869  14.736  64.938  1.00  0.00    -0.358 F  
HETATM   19  F   UNL     1     -11.881  14.258  64.295  1.00  0.00    -0.402 F  
HETATM   20  F   UNL     1     -10.233  12.960  63.767  1.00  0.00    -0.415 F  
HETATM   21  S   UNL     1     -11.959  11.245  70.197  1.00  0.00    -0.387 S  
HETATM   22  H   UNL     1     -11.579  12.666  72.097  1.00  0.00     0.000 HD 
HETATM   23  O   UNL     1     -13.291  10.682  70.148  1.00  0.00     0.011 OA 
HETATM   24  O   UNL     1     -10.822  10.462  70.626  1.00  0.00    -0.249 OA 
ENDBRANCH   4   7
TORSDOF 1
ENDMDL
MODEL       44
REMARK 921   NORMALIZED FREE ENERGY PREDICTED BY IDOCK:   -5.37 KCAL/MOL
REMARK 922        TOTAL FREE ENERGY PREDICTED BY IDOCK:   -5.45 KCAL/MOL
REMARK 923 INTER-LIGAND FREE ENERGY PREDICTED BY IDOCK:   -5.78 KCAL/MOL
REMARK 924 INTRA-LIGAND FREE ENERGY PREDICTED BY IDOCK:    0.33 KCAL/MOL
REMARK 927      BINDING AFFINITY PREDICTED BY RF-SCORE:    0.00 PKD
ROOT
HETATM    1  N   UNL     1      -9.356   8.723  65.306  1.00  0.00    -0.445 N  
HETATM    2  H2  UNL     1      -8.435   8.286  65.323  1.00  0.00     0.000 HD 
HETATM    3  H1  UNL     1     -10.246   8.227  65.258  1.00  0.00     0.000 HD 
HETATM    4  S   UNL     1      -9.652  10.371  65.352  1.00  0.00    -0.270 S  
HETATM    5  O   UNL     1     -10.606  10.604  64.294  1.00  0.00    -0.298 OA 
HETATM    6  O   UNL     1      -8.396  11.072  65.419  1.00  0.00    -0.114 OA 
ENDROOT
BRANCH   4   7
HETATM    7  C   UNL     1     -10.474  10.544  66.913  1.00  0.00    -0.246 A  
HETATM    8  C   UNL     1     -10.334   9.485  67.817  1.00  0.00    -0.291 A  
HETATM    9  C   UNL     1     -10.872   9.592  69.102  1.00  0.00    -0.173 A  
HETATM   10  C   UNL     1     -11.561  10.724  69.527  1.00  0.00    -0.303 A  
HETATM   11  C   UNL     1     -11.688  11.773  68.607  1.00  0.00    -0.389 A  
HETATM   12  N   UNL     1     -11.979  10.912  70.843  1.00  0.00    -0.329 NA 
HETATM   13  C   UNL     1     -11.178  11.705  67.285  1.00  0.00    -0.365 A  
HETATM   14  H   UNL     1     -12.146  11.849  71.209  1.00  0.00     0.000 HD 
HETATM   15  C   UNL     1     -12.170   9.750  71.678  1.00  0.00    -0.404 C  
HETATM   16  C   UNL     1     -11.445  12.905  66.401  1.00  0.00    -0.341 C  
HETATM   17  N   UNL     1     -10.952   8.969  71.715  1.00  0.00    -0.359 N  
HETATM   18  F   UNL     1     -10.961  14.051  66.961  1.00  0.00    -0.284 F  
HETATM   19  F   UNL     1     -12.785  13.118  66.257  1.00  0.00    -0.369 F  
HETATM   20  F   UNL     1     -10.944  12.887  65.143  1.00  0.00    -0.291 F  
HETATM   21  S   UNL     1     -10.630   8.269  70.227  1.00  0.00    -0.230 S  
HETATM   22  H   UNL     1     -10.364   8.859  72.541  1.00  0.00     0.000 HD 
HETATM   23  O   UNL     1     -11.677   7.298  69.991  1.00  0.00    -0.127 OA 
HETATM   24  O   UNL     1      -9.235   7.893  70.221  1.00  0.00    -0.151 OA 
ENDBRANCH   4   7
TORSDOF 1
ENDMDL
MODEL       45
REMARK 921   NORMALIZED FREE ENERGY PREDICTED BY IDOCK:   -5.34 KCAL/MOL
REMARK 922        TOTAL FREE ENERGY PREDICTED BY IDOCK:   -5.42 KCAL/MOL
REMARK 923 INTER-LIGAND FREE ENERGY PREDICTED BY IDOCK:   -5.48 KCAL/MOL
REMARK 924 INTRA-LIGAND FREE ENERGY PREDICTED BY IDOCK:    0.06 KCAL/MOL
REMARK 927      BINDING AFFINITY PREDICTED BY RF-SCORE:    0.00 PKD
ROOT
HETATM    1  N   UNL     1      -8.378   9.845  67.862  1.00  0.00    -0.113 N  
HETATM    2  H2  UNL     1      -8.251   9.547  66.895  1.00  0.00     0.000 HD 
HETATM    3  H1  UNL     1      -7.731  10.429  68.391  1.00  0.00     0.000 HD 
HETATM    4  S   UNL     1      -9.683   9.453  68.838  1.00  0.00    -0.169 S  
HETATM    5  O   UNL     1      -9.094   9.017  70.081  1.00  0.00    -0.160 OA 
HETATM    6  O   UNL     1     -10.596   8.628  68.090  1.00  0.00    -0.204 OA 
ENDROOT
BRANCH   4   7
HETATM    7  C   UNL     1     -10.434  11.039  69.085  1.00  0.00    -0.210 A  
HETATM    8  C   UNL     1      -9.878  12.114  68.382  1.00  0.00    -0.200 A  
HETATM    9  C   UNL     1     -10.476  13.374  68.451  1.00  0.00    -0.250 A  
HETATM   10  C   UNL     1     -11.620  13.614  69.209  1.00  0.00    -0.311 A  
HETATM   11  C   UNL     1     -12.162  12.523  69.902  1.00  0.00    -0.233 A  
HETATM   12  N   UNL     1     -12.314  14.821  69.178  1.00  0.00    -0.577 NA 
HETATM   13  C   UNL     1     -11.580  11.229  69.880  1.00  0.00    -0.413 A  
HETATM   14  H   UNL     1     -13.300  14.862  69.436  1.00  0.00     0.000 HD 
HETATM   15  C   UNL     1     -11.608  16.013  68.774  1.00  0.00    -0.351 C  
HETATM   16  C   UNL     1     -12.261  10.174  70.725  1.00  0.00    -0.338 C  
HETATM   17  N   UNL     1     -11.023  15.814  67.465  1.00  0.00    -0.315 N  
HETATM   18  F   UNL     1     -13.573  10.032  70.379  1.00  0.00    -0.310 F  
HETATM   19  F   UNL     1     -12.279  10.537  72.041  1.00  0.00    -0.368 F  
HETATM   20  F   UNL     1     -11.751   8.920  70.703  1.00  0.00    -0.285 F  
HETATM   21  S   UNL     1      -9.785  14.686  67.515  1.00  0.00    -0.211 S  
HETATM   22  H   UNL     1     -11.325  16.299  66.620  1.00  0.00     0.000 HD 
HETATM   23  O   UNL     1      -8.722  15.272  68.304  1.00  0.00    -0.158 OA 
HETATM   24  O   UNL     1      -9.561  14.233  66.161  1.00  0.00    -0.301 OA 
ENDBRANCH   4   7
TORSDOF 1
ENDMDL
MODEL       46
REMARK 921   NORMALIZED FREE ENERGY PREDICTED BY IDOCK:   -5.33 KCAL/MOL
REMARK 922        TOTAL FREE ENERGY PREDICTED BY IDOCK:   -5.41 KCAL/MOL
REMARK 923 INTER-LIGAND FREE ENERGY PREDICTED BY IDOCK:   -5.47 KCAL/MOL
REMARK 924 INTRA-LIGAND FREE ENERGY PREDICTED BY IDOCK:    0.07 KCAL/MOL
REMARK 927      BINDING AFFINITY PREDICTED BY RF-SCORE:    0.00 PKD
ROOT
HETATM    1  N   UNL     1      -7.426  12.834  69.011  1.00  0.00    -0.311 N  
HETATM    2  H2  UNL     1      -6.539  13.336  68.976  1.00  0.00     0.000 HD 
HETATM    3  H1  UNL     1      -8.254  13.130  69.529  1.00  0.00     0.000 HD 
HETATM    4  S   UNL     1      -7.759  11.392  68.226  1.00  0.00    -0.132 S  
HETATM    5  O   UNL     1      -8.374  10.559  69.232  1.00  0.00    -0.155 OA 
HETATM    6  O   UNL     1      -6.591  10.975  67.495  1.00  0.00    -0.063 OA 
ENDROOT
BRANCH   4   7
HETATM    7  C   UNL     1      -8.999  11.895  67.063  1.00  0.00    -0.190 A  
HETATM    8  C   UNL     1      -9.277  13.265  66.994  1.00  0.00    -0.237 A  
HETATM    9  C   UNL     1     -10.170  13.746  66.034  1.00  0.00    -0.308 A  
HETATM   10  C   UNL     1     -10.814  12.905  65.130  1.00  0.00    -0.296 A  
HETATM   11  C   UNL     1     -10.519  11.537  65.215  1.00  0.00    -0.336 A  
HETATM   12  N   UNL     1     -11.594  13.375  64.076  1.00  0.00    -0.510 NA 
HETATM   13  C   UNL     1      -9.635  10.998  66.185  1.00  0.00    -0.240 A  
HETATM   14  H   UNL     1     -11.750  12.801  63.247  1.00  0.00     0.000 HD 
HETATM   15  C   UNL     1     -12.175  14.692  64.181  1.00  0.00    -0.315 C  
HETATM   16  C   UNL     1      -9.466   9.494  66.173  1.00  0.00    -0.221 C  
HETATM   17  N   UNL     1     -11.133  15.668  64.421  1.00  0.00    -0.733 N  
HETATM   18  F   UNL     1      -9.045   9.051  64.953  1.00  0.00    -0.246 F  
HETATM   19  F   UNL     1     -10.659   8.865  66.386  1.00  0.00    -0.312 F  
HETATM   20  F   UNL     1      -8.606   8.948  67.064  1.00  0.00    -0.112 F  
HETATM   21  S   UNL     1     -10.453  15.474  65.940  1.00  0.00    -0.363 S  
HETATM   22  H   UNL     1     -10.850  16.383  63.751  1.00  0.00     0.000 HD 
HETATM   23  O   UNL     1     -11.485  15.800  66.901  1.00  0.00    -0.051 OA 
HETATM   24  O   UNL     1      -9.182  16.161  65.933  1.00  0.00    -0.341 OA 
ENDBRANCH   4   7
TORSDOF 1
ENDMDL
MODEL       47
REMARK 921   NORMALIZED FREE ENERGY PREDICTED BY IDOCK:   -5.33 KCAL/MOL
REMARK 922        TOTAL FREE ENERGY PREDICTED BY IDOCK:   -5.41 KCAL/MOL
REMARK 923 INTER-LIGAND FREE ENERGY PREDICTED BY IDOCK:   -6.24 KCAL/MOL
REMARK 924 INTRA-LIGAND FREE ENERGY PREDICTED BY IDOCK:    0.84 KCAL/MOL
REMARK 927      BINDING AFFINITY PREDICTED BY RF-SCORE:    0.00 PKD
ROOT
HETATM    1  N   UNL     1      -8.817  17.980  66.252  1.00  0.00    -0.219 N  
HETATM    2  H2  UNL     1      -8.332  18.622  66.878  1.00  0.00     0.000 HD 
HETATM    3  H1  UNL     1      -8.376  17.407  65.532  1.00  0.00     0.000 HD 
HETATM    4  S   UNL     1     -10.468  17.694  66.240  1.00  0.00    -0.228 S  
HETATM    5  O   UNL     1     -10.846  17.781  64.850  1.00  0.00    -0.815 OA 
HETATM    6  O   UNL     1     -11.091  18.503  67.256  1.00  0.00    -0.260 OA 
ENDROOT
BRANCH   4   7
HETATM    7  C   UNL     1     -10.542  15.998  66.749  1.00  0.00    -0.297 A  
HETATM    8  C   UNL     1     -10.986  15.074  65.797  1.00  0.00    -0.351 A  
HETATM    9  C   UNL     1     -10.979  13.710  66.094  1.00  0.00    -0.284 A  
HETATM   10  C   UNL     1     -10.546  13.220  67.324  1.00  0.00    -0.247 A  
HETATM   11  C   UNL     1     -10.103  14.161  68.262  1.00  0.00    -0.241 A  
HETATM   12  N   UNL     1     -10.394  11.861  67.591  1.00  0.00    -0.198 NA 
HETATM   13  C   UNL     1     -10.111  15.558  68.015  1.00  0.00    -0.223 A  
HETATM   14  H   UNL     1      -9.762  11.541  68.325  1.00  0.00     0.000 HD 
HETATM   15  C   UNL     1     -11.149  10.915  66.805  1.00  0.00    -0.126 C  
HETATM   16  C   UNL     1      -9.647  16.442  69.154  1.00  0.00    -0.249 C  
HETATM   17  N   UNL     1     -10.872  11.116  65.399  1.00  0.00    -0.194 N  
HETATM   18  F   UNL     1      -8.387  16.111  69.558  1.00  0.00    -0.235 F  
HETATM   19  F   UNL     1     -10.431  16.270  70.258  1.00  0.00    -0.254 F  
HETATM   20  F   UNL     1      -9.612  17.779  68.942  1.00  0.00    -0.285 F  
HETATM   21  S   UNL     1     -11.490  12.577  64.858  1.00  0.00    -0.339 S  
HETATM   22  H   UNL     1     -10.366  10.453  64.811  1.00  0.00     0.000 HD 
HETATM   23  O   UNL     1     -12.931  12.470  64.933  1.00  0.00    -0.821 OA 
HETATM   24  O   UNL     1     -10.819  12.895  63.618  1.00  0.00    -0.379 OA 
ENDBRANCH   4   7
TORSDOF 1
ENDMDL
MODEL       48
REMARK 921   NORMALIZED FREE ENERGY PREDICTED BY IDOCK:   -5.21 KCAL/MOL
REMARK 922        TOTAL FREE ENERGY PREDICTED BY IDOCK:   -5.27 KCAL/MOL
REMARK 923 INTER-LIGAND FREE ENERGY PREDICTED BY IDOCK:   -5.33 KCAL/MOL
REMARK 924 INTRA-LIGAND FREE ENERGY PREDICTED BY IDOCK:    0.05 KCAL/MOL
REMARK 927      BINDING AFFINITY PREDICTED BY RF-SCORE:    0.00 PKD
ROOT
HETATM    1  N   UNL     1      -6.958   8.339  71.078  1.00  0.00    -0.050 N  
HETATM    2  H2  UNL     1      -6.433   8.466  71.943  1.00  0.00     0.000 HD 
HETATM    3  H1  UNL     1      -7.343   7.456  70.743  1.00  0.00     0.000 HD 
HETATM    4  S   UNL     1      -7.330   9.549  69.980  1.00  0.00    -0.134 S  
HETATM    5  O   UNL     1      -6.979   8.997  68.693  1.00  0.00    -0.062 OA 
HETATM    6  O   UNL     1      -6.786  10.796  70.453  1.00  0.00    -0.278 OA 
ENDROOT
BRANCH   4   7
HETATM    7  C   UNL     1      -9.096   9.621  70.111  1.00  0.00    -0.240 A  
HETATM    8  C   UNL     1      -9.695   8.743  71.021  1.00  0.00    -0.292 A  
HETATM    9  C   UNL     1     -11.071   8.809  71.249  1.00  0.00    -0.278 A  
HETATM   10  C   UNL     1     -11.890   9.724  70.592  1.00  0.00    -0.281 A  
HETATM   11  C   UNL     1     -11.269  10.596  69.687  1.00  0.00    -0.351 A  
HETATM   12  N   UNL     1     -13.235   9.907  70.908  1.00  0.00    -0.570 NA 
HETATM   13  C   UNL     1      -9.880  10.554  69.406  1.00  0.00    -0.205 A  
HETATM   14  H   UNL     1     -13.707  10.784  70.690  1.00  0.00     0.000 HD 
HETATM   15  C   UNL     1     -13.945   8.826  71.549  1.00  0.00    -0.334 C  
HETATM   16  C   UNL     1      -9.377  11.531  68.364  1.00  0.00    -0.194 C  
HETATM   17  N   UNL     1     -13.260   8.446  72.766  1.00  0.00    -0.628 N  
HETATM   18  F   UNL     1      -9.681  12.817  68.702  1.00  0.00    -0.211 F  
HETATM   19  F   UNL     1      -9.992  11.325  67.163  1.00  0.00    -0.197 F  
HETATM   20  F   UNL     1      -8.051  11.540  68.094  1.00  0.00    -0.117 F  
HETATM   21  S   UNL     1     -11.780   7.731  72.436  1.00  0.00    -0.328 S  
HETATM   22  H   UNL     1     -13.630   8.593  73.705  1.00  0.00     0.000 HD 
HETATM   23  O   UNL     1     -12.065   6.478  71.772  1.00  0.00    -0.338 OA 
HETATM   24  O   UNL     1     -10.997   7.784  73.649  1.00  0.00    -0.239 OA 
ENDBRANCH   4   7
TORSDOF 1
ENDMDL
MODEL       49
REMARK 921   NORMALIZED FREE ENERGY PREDICTED BY IDOCK:   -5.15 KCAL/MOL
REMARK 922        TOTAL FREE ENERGY PREDICTED BY IDOCK:   -5.21 KCAL/MOL
REMARK 923 INTER-LIGAND FREE ENERGY PREDICTED BY IDOCK:   -5.26 KCAL/MOL
REMARK 924 INTRA-LIGAND FREE ENERGY PREDICTED BY IDOCK:    0.05 KCAL/MOL
REMARK 927      BINDING AFFINITY PREDICTED BY RF-SCORE:    0.00 PKD
ROOT
HETATM    1  N   UNL     1     -10.946  19.038  67.501  1.00  0.00    -0.388 N  
HETATM    2  H2  UNL     1     -11.580  19.414  66.796  1.00  0.00     0.000 HD 
HETATM    3  H1  UNL     1     -11.226  18.638  68.396  1.00  0.00     0.000 HD 
HETATM    4  S   UNL     1      -9.276  18.980  67.375  1.00  0.00    -0.292 S  
HETATM    5  O   UNL     1      -8.794  19.498  68.633  1.00  0.00    -0.367 OA 
HETATM    6  O   UNL     1      -8.881  19.546  66.111  1.00  0.00    -0.356 OA 
ENDROOT
BRANCH   4   7
HETATM    7  C   UNL     1      -8.981  17.233  67.324  1.00  0.00    -0.227 A  
HETATM    8  C   UNL     1     -10.109  16.405  67.346  1.00  0.00    -0.262 A  
HETATM    9  C   UNL     1      -9.960  15.023  67.211  1.00  0.00    -0.233 A  
HETATM   10  C   UNL     1      -8.713  14.421  67.059  1.00  0.00    -0.223 A  
HETATM   11  C   UNL     1      -7.598  15.269  67.036  1.00  0.00    -0.161 A  
HETATM   12  N   UNL     1      -8.551  13.066  66.778  1.00  0.00    -0.412 NA 
HETATM   13  C   UNL     1      -7.695  16.676  67.191  1.00  0.00    -0.213 A  
HETATM   14  H   UNL     1      -7.702  12.725  66.328  1.00  0.00     0.000 HD 
HETATM   15  C   UNL     1      -9.611  12.156  67.138  1.00  0.00    -0.194 C  
HETATM   16  C   UNL     1      -6.389  17.441  67.194  1.00  0.00    -0.158 C  
HETATM   17  N   UNL     1     -10.851  12.582  66.524  1.00  0.00    -0.251 N  
HETATM   18  F   UNL     1      -5.675  17.209  66.056  1.00  0.00    -0.224 F  
HETATM   19  F   UNL     1      -5.581  17.025  68.212  1.00  0.00    -0.116 F  
HETATM   20  F   UNL     1      -6.448  18.789  67.308  1.00  0.00    -0.186 F  
HETATM   21  S   UNL     1     -11.398  14.020  67.188  1.00  0.00    -0.348 S  
HETATM   22  H   UNL     1     -11.331  12.072  65.783  1.00  0.00     0.000 HD 
HETATM   23  O   UNL     1     -11.752  13.734  68.562  1.00  0.00    -0.313 OA 
HETATM   24  O   UNL     1     -12.353  14.585  66.263  1.00  0.00    -0.339 OA 
ENDBRANCH   4   7
TORSDOF 1
ENDMDL
MODEL       50
REMARK 921   NORMALIZED FREE ENERGY PREDICTED BY IDOCK:   -5.11 KCAL/MOL
REMARK 922        TOTAL FREE ENERGY PREDICTED BY IDOCK:   -5.18 KCAL/MOL
REMARK 923 INTER-LIGAND FREE ENERGY PREDICTED BY IDOCK:   -5.23 KCAL/MOL
REMARK 924 INTRA-LIGAND FREE ENERGY PREDICTED BY IDOCK:    0.05 KCAL/MOL
REMARK 927      BINDING AFFINITY PREDICTED BY RF-SCORE:    0.00 PKD
ROOT
HETATM    1  N   UNL     1      -8.859   7.073  71.703  1.00  0.00    -0.131 N  
HETATM    2  H2  UNL     1      -8.679   6.156  71.298  1.00  0.00     0.000 HD 
HETATM    3  H1  UNL     1      -8.149   7.766  71.941  1.00  0.00     0.000 HD 
HETATM    4  S   UNL     1     -10.371   7.688  72.085  1.00  0.00    -0.235 S  
HETATM    5  O   UNL     1     -10.227   8.214  73.421  1.00  0.00    -0.159 OA 
HETATM    6  O   UNL     1     -11.373   6.710  71.750  1.00  0.00    -0.253 OA 
ENDROOT
BRANCH   4   7
HETATM    7  C   UNL     1     -10.505   9.041  70.948  1.00  0.00    -0.254 A  
HETATM    8  C   UNL     1      -9.424   9.245  70.083  1.00  0.00    -0.258 A  
HETATM    9  C   UNL     1      -9.500  10.229  69.095  1.00  0.00    -0.215 A  
HETATM   10  C   UNL     1     -10.622  11.038  68.936  1.00  0.00    -0.207 A  
HETATM   11  C   UNL     1     -11.694  10.815  69.811  1.00  0.00    -0.399 A  
HETATM   12  N   UNL     1     -10.777  11.924  67.871  1.00  0.00    -0.197 NA 
HETATM   13  C   UNL     1     -11.658   9.842  70.843  1.00  0.00    -0.456 A  
HETATM   14  H   UNL     1     -11.705  12.224  67.575  1.00  0.00     0.000 HD 
HETATM   15  C   UNL     1      -9.596  12.406  67.199  1.00  0.00    -0.206 C  
HETATM   16  C   UNL     1     -12.879   9.765  71.733  1.00  0.00    -0.434 C  
HETATM   17  N   UNL     1      -8.813  11.286  66.722  1.00  0.00    -0.164 N  
HETATM   18  F   UNL     1     -14.011   9.539  71.006  1.00  0.00    -0.391 F  
HETATM   19  F   UNL     1     -13.098  10.953  72.369  1.00  0.00    -0.526 F  
HETATM   20  F   UNL     1     -12.892   8.826  72.708  1.00  0.00    -0.461 F  
HETATM   21  S   UNL     1      -8.149  10.420  67.993  1.00  0.00    -0.112 S  
HETATM   22  H   UNL     1      -8.681  11.054  65.737  1.00  0.00     0.000 HD 
HETATM   23  O   UNL     1      -7.186  11.292  68.630  1.00  0.00    -0.083 OA 
HETATM   24  O   UNL     1      -7.772   9.123  67.480  1.00  0.00    -0.092 OA 
ENDBRANCH   4   7
TORSDOF 1
ENDMDL
MODEL       51
REMARK 921   NORMALIZED FREE ENERGY PREDICTED BY IDOCK:   -5.11 KCAL/MOL
REMARK 922        TOTAL FREE ENERGY PREDICTED BY IDOCK:   -5.18 KCAL/MOL
REMARK 923 INTER-LIGAND FREE ENERGY PREDICTED BY IDOCK:   -5.26 KCAL/MOL
REMARK 924 INTRA-LIGAND FREE ENERGY PREDICTED BY IDOCK:    0.08 KCAL/MOL
REMARK 927      BINDING AFFINITY PREDICTED BY RF-SCORE:    0.00 PKD
ROOT
HETATM    1  N   UNL     1      -8.632   9.222  68.116  1.00  0.00    -0.124 N  
HETATM    2  H2  UNL     1      -7.723   9.679  68.057  1.00  0.00     0.000 HD 
HETATM    3  H1  UNL     1      -8.819   8.244  67.893  1.00  0.00     0.000 HD 
HETATM    4  S   UNL     1     -10.062   9.955  68.593  1.00  0.00    -0.184 S  
HETATM    5  O   UNL     1     -11.027   9.565  67.593  1.00  0.00    -0.248 OA 
HETATM    6  O   UNL     1      -9.798  11.336  68.906  1.00  0.00    -0.198 OA 
ENDROOT
BRANCH   4   7
HETATM    7  C   UNL     1     -10.419   9.096  70.101  1.00  0.00    -0.218 A  
HETATM    8  C   UNL     1      -9.543   8.065  70.460  1.00  0.00    -0.170 A  
HETATM    9  C   UNL     1      -9.704   7.409  71.682  1.00  0.00    -0.154 A  
HETATM   10  C   UNL     1     -10.723   7.737  72.573  1.00  0.00    -0.314 A  
HETATM   11  C   UNL     1     -11.587   8.774  72.195  1.00  0.00    -0.434 A  
HETATM   12  N   UNL     1     -10.816   7.198  73.855  1.00  0.00    -0.512 NA 
HETATM   13  C   UNL     1     -11.477   9.456  70.957  1.00  0.00    -0.403 A  
HETATM   14  H   UNL     1     -11.321   7.690  74.591  1.00  0.00     0.000 HD 
HETATM   15  C   UNL     1     -10.182   5.929  74.116  1.00  0.00    -0.283 C  
HETATM   16  C   UNL     1     -12.522  10.516  70.681  1.00  0.00    -0.366 C  
HETATM   17  N   UNL     1      -8.777   6.004  73.777  1.00  0.00    -0.124 N  
HETATM   18  F   UNL     1     -12.540  11.463  71.663  1.00  0.00    -0.444 F  
HETATM   19  F   UNL     1     -13.777   9.979  70.683  1.00  0.00    -0.396 F  
HETATM   20  F   UNL     1     -12.429  11.209  69.522  1.00  0.00    -0.346 F  
HETATM   21  S   UNL     1      -8.556   6.160  72.124  1.00  0.00    -0.127 S  
HETATM   22  H   UNL     1      -8.019   5.967  74.458  1.00  0.00     0.000 HD 
HETATM   23  O   UNL     1      -9.007   4.921  71.527  1.00  0.00    -0.131 OA 
HETATM   24  O   UNL     1      -7.215   6.656  71.914  1.00  0.00    -0.082 OA 
ENDBRANCH   4   7
TORSDOF 1
ENDMDL
MODEL       52
REMARK 921   NORMALIZED FREE ENERGY PREDICTED BY IDOCK:   -5.08 KCAL/MOL
REMARK 922        TOTAL FREE ENERGY PREDICTED BY IDOCK:   -5.14 KCAL/MOL
REMARK 923 INTER-LIGAND FREE ENERGY PREDICTED BY IDOCK:   -5.27 KCAL/MOL
REMARK 924 INTRA-LIGAND FREE ENERGY PREDICTED BY IDOCK:    0.13 KCAL/MOL
REMARK 927      BINDING AFFINITY PREDICTED BY RF-SCORE:    0.00 PKD
ROOT
HETATM    1  N   UNL     1      -9.154  16.446  67.281  1.00  0.00    -0.198 N  
HETATM    2  H2  UNL     1      -9.137  16.769  68.248  1.00  0.00     0.000 HD 
HETATM    3  H1  UNL     1      -8.363  16.466  66.636  1.00  0.00     0.000 HD 
HETATM    4  S   UNL     1     -10.484  15.798  66.494  1.00  0.00    -0.304 S  
HETATM    5  O   UNL     1     -10.539  16.494  65.231  1.00  0.00    -0.575 OA 
HETATM    6  O   UNL     1     -11.600  15.771  67.404  1.00  0.00    -0.111 OA 
ENDROOT
BRANCH   4   7
HETATM    7  C   UNL     1      -9.953  14.131  66.208  1.00  0.00    -0.303 A  
HETATM    8  C   UNL     1      -8.776  13.728  66.848  1.00  0.00    -0.172 A  
HETATM    9  C   UNL     1      -8.348  12.402  66.747  1.00  0.00    -0.059 A  
HETATM   10  C   UNL     1      -9.053  11.447  66.018  1.00  0.00    -0.208 A  
HETATM   11  C   UNL     1     -10.231  11.872  65.388  1.00  0.00    -0.300 A  
HETATM   12  N   UNL     1      -8.727  10.093  66.023  1.00  0.00    -0.137 NA 
HETATM   13  C   UNL     1     -10.695  13.211  65.443  1.00  0.00    -0.308 A  
HETATM   14  H   UNL     1      -9.427   9.387  65.797  1.00  0.00     0.000 HD 
HETATM   15  C   UNL     1      -7.376   9.710  66.355  1.00  0.00    -0.094 C  
HETATM   16  C   UNL     1     -11.957  13.515  64.664  1.00  0.00    -0.400 C  
HETATM   17  N   UNL     1      -7.020  10.248  67.651  1.00  0.00    -0.083 N  
HETATM   18  F   UNL     1     -12.988  12.714  65.059  1.00  0.00    -0.564 F  
HETATM   19  F   UNL     1     -11.789  13.249  63.336  1.00  0.00    -0.508 F  
HETATM   20  F   UNL     1     -12.446  14.776  64.721  1.00  0.00    -0.411 F  
HETATM   21  S   UNL     1      -6.899  11.918  67.606  1.00  0.00    -0.125 S  
HETATM   22  H   UNL     1      -6.863   9.682  68.485  1.00  0.00     0.000 HD 
HETATM   23  O   UNL     1      -5.766  12.229  66.761  1.00  0.00    -0.307 OA 
HETATM   24  O   UNL     1      -6.977  12.392  68.970  1.00  0.00    -0.103 OA 
ENDBRANCH   4   7
TORSDOF 1
ENDMDL
MODEL       53
REMARK 921   NORMALIZED FREE ENERGY PREDICTED BY IDOCK:   -5.08 KCAL/MOL
REMARK 922        TOTAL FREE ENERGY PREDICTED BY IDOCK:   -5.14 KCAL/MOL
REMARK 923 INTER-LIGAND FREE ENERGY PREDICTED BY IDOCK:   -5.23 KCAL/MOL
REMARK 924 INTRA-LIGAND FREE ENERGY PREDICTED BY IDOCK:    0.09 KCAL/MOL
REMARK 927      BINDING AFFINITY PREDICTED BY RF-SCORE:    0.00 PKD
ROOT
HETATM    1  N   UNL     1     -11.017  11.810  69.817  1.00  0.00    -0.462 N  
HETATM    2  H2  UNL     1     -11.875  12.305  70.059  1.00  0.00     0.000 HD 
HETATM    3  H1  UNL     1     -10.165  11.792  70.377  1.00  0.00     0.000 HD 
HETATM    4  S   UNL     1     -10.780  10.894  68.434  1.00  0.00    -0.222 S  
HETATM    5  O   UNL     1      -9.508  11.335  67.914  1.00  0.00    -0.169 OA 
HETATM    6  O   UNL     1     -11.983  10.919  67.642  1.00  0.00    -0.512 OA 
ENDROOT
BRANCH   4   7
HETATM    7  C   UNL     1     -10.589   9.267  69.111  1.00  0.00    -0.212 A  
HETATM    8  C   UNL     1     -10.841   9.122  70.480  1.00  0.00    -0.306 A  
HETATM    9  C   UNL     1     -10.805   7.854  71.064  1.00  0.00    -0.235 A  
HETATM   10  C   UNL     1     -10.518   6.706  70.330  1.00  0.00    -0.211 A  
HETATM   11  C   UNL     1     -10.272   6.873  68.961  1.00  0.00    -0.189 A  
HETATM   12  N   UNL     1     -10.618   5.420  70.858  1.00  0.00    -0.237 NA 
HETATM   13  C   UNL     1     -10.276   8.141  68.326  1.00  0.00    -0.245 A  
HETATM   14  H   UNL     1     -10.757   4.616  70.247  1.00  0.00     0.000 HD 
HETATM   15  C   UNL     1     -10.522   5.252  72.288  1.00  0.00    -0.218 C  
HETATM   16  C   UNL     1      -9.940   8.152  66.850  1.00  0.00    -0.273 C  
HETATM   17  N   UNL     1     -11.519   6.071  72.944  1.00  0.00    -0.476 N  
HETATM   18  F   UNL     1     -10.782   7.345  66.143  1.00  0.00     0.026 F  
HETATM   19  F   UNL     1      -8.692   7.645  66.628  1.00  0.00    -0.120 F  
HETATM   20  F   UNL     1      -9.965   9.342  66.205  1.00  0.00    -0.291 F  
HETATM   21  S   UNL     1     -11.179   7.703  72.770  1.00  0.00    -0.365 S  
HETATM   22  H   UNL     1     -12.325   5.703  73.449  1.00  0.00     0.000 HD 
HETATM   23  O   UNL     1      -9.959   7.953  73.508  1.00  0.00    -0.296 OA 
HETATM   24  O   UNL     1     -12.397   8.428  73.053  1.00  0.00    -0.220 OA 
ENDBRANCH   4   7
TORSDOF 1
ENDMDL
MODEL       54
REMARK 921   NORMALIZED FREE ENERGY PREDICTED BY IDOCK:   -5.05 KCAL/MOL
REMARK 922        TOTAL FREE ENERGY PREDICTED BY IDOCK:   -5.11 KCAL/MOL
REMARK 923 INTER-LIGAND FREE ENERGY PREDICTED BY IDOCK:   -5.17 KCAL/MOL
REMARK 924 INTRA-LIGAND FREE ENERGY PREDICTED BY IDOCK:    0.05 KCAL/MOL
REMARK 927      BINDING AFFINITY PREDICTED BY RF-SCORE:    0.00 PKD
ROOT
HETATM    1  N   UNL     1      -8.554  17.194  66.200  1.00  0.00    -0.226 N  
HETATM    2  H2  UNL     1      -8.315  18.041  66.715  1.00  0.00     0.000 HD 
HETATM    3  H1  UNL     1      -7.957  16.727  65.517  1.00  0.00     0.000 HD 
HETATM    4  S   UNL     1      -9.993  16.345  66.338  1.00  0.00    -0.321 S  
HETATM    5  O   UNL     1     -10.415  16.114  64.977  1.00  0.00    -0.595 OA 
HETATM    6  O   UNL     1     -10.836  17.005  67.301  1.00  0.00    -0.252 OA 
ENDROOT
BRANCH   4   7
HETATM    7  C   UNL     1      -9.438  14.813  67.035  1.00  0.00    -0.231 A  
HETATM    8  C   UNL     1      -8.066  14.696  67.286  1.00  0.00    -0.230 A  
HETATM    9  C   UNL     1      -7.570  13.557  67.922  1.00  0.00    -0.151 A  
HETATM   10  C   UNL     1      -8.396  12.508  68.320  1.00  0.00    -0.167 A  
HETATM   11  C   UNL     1      -9.767  12.646  68.061  1.00  0.00    -0.215 A  
HETATM   12  N   UNL     1      -7.947  11.432  69.083  1.00  0.00    -0.354 NA 
HETATM   13  C   UNL     1     -10.316  13.774  67.399  1.00  0.00    -0.252 A  
HETATM   14  H   UNL     1      -8.596  10.888  69.650  1.00  0.00     0.000 HD 
HETATM   15  C   UNL     1      -6.542  11.104  69.052  1.00  0.00    -0.075 C  
HETATM   16  C   UNL     1     -11.809  13.744  67.152  1.00  0.00    -0.406 C  
HETATM   17  N   UNL     1      -5.761  12.262  69.431  1.00  0.00    -0.077 N  
HETATM   18  F   UNL     1     -12.502  13.583  68.316  1.00  0.00    -0.317 F  
HETATM   19  F   UNL     1     -12.156  12.672  66.381  1.00  0.00    -0.447 F  
HETATM   20  F   UNL     1     -12.372  14.818  66.550  1.00  0.00    -0.319 F  
HETATM   21  S   UNL     1      -5.854  13.468  68.271  1.00  0.00    -0.112 S  
HETATM   22  H   UNL     1      -5.223  12.336  70.294  1.00  0.00     0.000 HD 
HETATM   23  O   UNL     1      -5.195  12.956  67.088  1.00  0.00    -0.334 OA 
HETATM   24  O   UNL     1      -5.435  14.701  68.897  1.00  0.00    -0.085 OA 
ENDBRANCH   4   7
TORSDOF 1
ENDMDL
MODEL       55
REMARK 921   NORMALIZED FREE ENERGY PREDICTED BY IDOCK:   -5.04 KCAL/MOL
REMARK 922        TOTAL FREE ENERGY PREDICTED BY IDOCK:   -5.10 KCAL/MOL
REMARK 923 INTER-LIGAND FREE ENERGY PREDICTED BY IDOCK:   -5.16 KCAL/MOL
REMARK 924 INTRA-LIGAND FREE ENERGY PREDICTED BY IDOCK:    0.06 KCAL/MOL
REMARK 927      BINDING AFFINITY PREDICTED BY RF-SCORE:    0.00 PKD
ROOT
HETATM    1  N   UNL     1     -12.408  15.597  68.971  1.00  0.00    -0.578 N  
HETATM    2  H2  UNL     1     -13.140  16.052  68.427  1.00  0.00     0.000 HD 
HETATM    3  H1  UNL     1     -12.531  14.766  69.551  1.00  0.00     0.000 HD 
HETATM    4  S   UNL     1     -10.810  16.092  69.060  1.00  0.00    -0.323 S  
HETATM    5  O   UNL     1     -10.499  16.085  70.469  1.00  0.00    -0.141 OA 
HETATM    6  O   UNL     1     -10.636  17.265  68.242  1.00  0.00    -0.366 OA 
ENDROOT
BRANCH   4   7
HETATM    7  C   UNL     1      -9.972  14.738  68.282  1.00  0.00    -0.222 A  
HETATM    8  C   UNL     1     -10.776  13.731  67.736  1.00  0.00    -0.254 A  
HETATM    9  C   UNL     1     -10.191  12.682  67.023  1.00  0.00    -0.226 A  
HETATM   10  C   UNL     1      -8.814  12.590  66.834  1.00  0.00    -0.203 A  
HETATM   11  C   UNL     1      -8.027  13.609  67.386  1.00  0.00    -0.177 A  
HETATM   12  N   UNL     1      -8.222  11.637  66.008  1.00  0.00    -0.378 NA 
HETATM   13  C   UNL     1      -8.573  14.684  68.136  1.00  0.00    -0.166 A  
HETATM   14  H   UNL     1      -7.299  11.797  65.606  1.00  0.00     0.000 HD 
HETATM   15  C   UNL     1      -8.944  10.418  65.733  1.00  0.00    -0.168 C  
HETATM   16  C   UNL     1      -7.580  15.673  68.707  1.00  0.00    -0.162 C  
HETATM   17  N   UNL     1     -10.241  10.734  65.173  1.00  0.00    -0.296 N  
HETATM   18  F   UNL     1      -6.803  16.219  67.727  1.00  0.00    -0.114 F  
HETATM   19  F   UNL     1      -6.704  15.056  69.552  1.00  0.00    -0.118 F  
HETATM   20  F   UNL     1      -8.068  16.728  69.401  1.00  0.00    -0.204 F  
HETATM   21  S   UNL     1     -11.233  11.468  66.306  1.00  0.00    -0.140 S  
HETATM   22  H   UNL     1     -10.516  10.534  64.211  1.00  0.00     0.000 HD 
HETATM   23  O   UNL     1     -11.507  10.474  67.322  1.00  0.00    -0.366 OA 
HETATM   24  O   UNL     1     -12.298  12.126  65.584  1.00  0.00    -0.560 OA 
ENDBRANCH   4   7
TORSDOF 1
ENDMDL
MODEL       56
REMARK 921   NORMALIZED FREE ENERGY PREDICTED BY IDOCK:   -5.01 KCAL/MOL
REMARK 922        TOTAL FREE ENERGY PREDICTED BY IDOCK:   -5.06 KCAL/MOL
REMARK 923 INTER-LIGAND FREE ENERGY PREDICTED BY IDOCK:   -5.12 KCAL/MOL
REMARK 924 INTRA-LIGAND FREE ENERGY PREDICTED BY IDOCK:    0.06 KCAL/MOL
REMARK 927      BINDING AFFINITY PREDICTED BY RF-SCORE:    0.00 PKD
ROOT
HETATM    1  N   UNL     1      -7.954  16.195  69.491  1.00  0.00    -0.096 N  
HETATM    2  H2  UNL     1      -7.708  17.183  69.453  1.00  0.00     0.000 HD 
HETATM    3  H1  UNL     1      -7.801  15.576  70.288  1.00  0.00     0.000 HD 
HETATM    4  S   UNL     1      -8.677  15.324  68.256  1.00  0.00    -0.170 S  
HETATM    5  O   UNL     1      -7.896  14.115  68.152  1.00  0.00    -0.120 OA 
HETATM    6  O   UNL     1      -8.893  16.197  67.131  1.00  0.00    -0.186 OA 
ENDROOT
BRANCH   4   7
HETATM    7  C   UNL     1     -10.251  14.929  68.969  1.00  0.00    -0.243 A  
HETATM    8  C   UNL     1     -10.486  15.392  70.269  1.00  0.00    -0.264 A  
HETATM    9  C   UNL     1     -11.737  15.203  70.859  1.00  0.00    -0.332 A  
HETATM   10  C   UNL     1     -12.780  14.556  70.201  1.00  0.00    -0.214 A  
HETATM   11  C   UNL     1     -12.524  14.102  68.900  1.00  0.00     0.089 A  
HETATM   12  N   UNL     1     -14.074  14.484  70.711  1.00  0.00    -0.312 NA 
HETATM   13  C   UNL     1     -11.264  14.251  68.265  1.00  0.00    -0.298 A  
HETATM   14  H   UNL     1     -14.871  14.339  70.091  1.00  0.00     0.000 HD 
HETATM   15  C   UNL     1     -14.263  14.619  72.135  1.00  0.00    -0.518 C  
HETATM   16  C   UNL     1     -11.140  13.660  66.877  1.00  0.00    -0.304 C  
HETATM   17  N   UNL     1     -13.685  15.866  72.588  1.00  0.00    -0.510 N  
HETATM   18  F   UNL     1     -12.080  14.174  66.032  1.00  0.00    -0.366 F  
HETATM   19  F   UNL     1     -11.374  12.316  66.895  1.00  0.00    -0.296 F  
HETATM   20  F   UNL     1      -9.961  13.812  66.229  1.00  0.00    -0.270 F  
HETATM   21  S   UNL     1     -12.014  15.844  72.468  1.00  0.00    -0.552 S  
HETATM   22  H   UNL     1     -14.226  16.657  72.938  1.00  0.00     0.000 HD 
HETATM   23  O   UNL     1     -11.543  14.859  73.417  1.00  0.00    -0.187 OA 
HETATM   24  O   UNL     1     -11.561  17.216  72.514  1.00  0.00     0.026 OA 
ENDBRANCH   4   7
TORSDOF 1
ENDMDL
MODEL       57
REMARK 921   NORMALIZED FREE ENERGY PREDICTED BY IDOCK:   -5.00 KCAL/MOL
REMARK 922        TOTAL FREE ENERGY PREDICTED BY IDOCK:   -5.05 KCAL/MOL
REMARK 923 INTER-LIGAND FREE ENERGY PREDICTED BY IDOCK:   -5.16 KCAL/MOL
REMARK 924 INTRA-LIGAND FREE ENERGY PREDICTED BY IDOCK:    0.10 KCAL/MOL
REMARK 927      BINDING AFFINITY PREDICTED BY RF-SCORE:    0.00 PKD
ROOT
HETATM    1  N   UNL     1     -11.022  19.056  67.441  1.00  0.00    -0.400 N  
HETATM    2  H2  UNL     1     -11.516  19.393  66.614  1.00  0.00     0.000 HD 
HETATM    3  H1  UNL     1     -11.428  18.481  68.179  1.00  0.00     0.000 HD 
HETATM    4  S   UNL     1      -9.415  19.359  67.806  1.00  0.00    -0.340 S  
HETATM    5  O   UNL     1      -9.424  19.775  69.188  1.00  0.00    -0.302 OA 
HETATM    6  O   UNL     1      -8.843  20.173  66.764  1.00  0.00    -0.326 OA 
ENDROOT
BRANCH   4   7
HETATM    7  C   UNL     1      -8.712  17.736  67.701  1.00  0.00    -0.244 A  
HETATM    8  C   UNL     1      -9.599  16.681  67.460  1.00  0.00    -0.242 A  
HETATM    9  C   UNL     1      -9.107  15.388  67.268  1.00  0.00    -0.206 A  
HETATM   10  C   UNL     1      -7.747  15.096  67.313  1.00  0.00    -0.210 A  
HETATM   11  C   UNL     1      -6.875  16.168  67.553  1.00  0.00    -0.194 A  
HETATM   12  N   UNL     1      -7.224  13.848  66.983  1.00  0.00    -0.342 NA 
HETATM   13  C   UNL     1      -7.327  17.494  67.775  1.00  0.00    -0.192 A  
HETATM   14  H   UNL     1      -6.256  13.752  66.679  1.00  0.00     0.000 HD 
HETATM   15  C   UNL     1      -8.084  12.693  67.080  1.00  0.00    -0.141 C  
HETATM   16  C   UNL     1      -6.259  18.525  68.071  1.00  0.00    -0.193 C  
HETATM   17  N   UNL     1      -9.269  12.896  66.274  1.00  0.00    -0.432 N  
HETATM   18  F   UNL     1      -5.330  18.577  67.073  1.00  0.00    -0.130 F  
HETATM   19  F   UNL     1      -5.556  18.194  69.193  1.00  0.00    -0.180 F  
HETATM   20  F   UNL     1      -6.652  19.807  68.256  1.00  0.00    -0.262 F  
HETATM   21  S   UNL     1     -10.243  14.100  66.914  1.00  0.00    -0.270 S  
HETATM   22  H   UNL     1      -9.484  12.373  65.425  1.00  0.00     0.000 HD 
HETATM   23  O   UNL     1     -10.744  13.601  68.176  1.00  0.00    -0.236 OA 
HETATM   24  O   UNL     1     -11.137  14.533  65.864  1.00  0.00    -0.315 OA 
ENDBRANCH   4   7
TORSDOF 1
ENDMDL
MODEL       58
REMARK 921   NORMALIZED FREE ENERGY PREDICTED BY IDOCK:   -5.00 KCAL/MOL
REMARK 922        TOTAL FREE ENERGY PREDICTED BY IDOCK:   -5.05 KCAL/MOL
REMARK 923 INTER-LIGAND FREE ENERGY PREDICTED BY IDOCK:   -5.75 KCAL/MOL
REMARK 924 INTRA-LIGAND FREE ENERGY PREDICTED BY IDOCK:    0.70 KCAL/MOL
REMARK 927      BINDING AFFINITY PREDICTED BY RF-SCORE:    0.00 PKD
ROOT
HETATM    1  N   UNL     1     -13.633  14.501  65.766  1.00  0.00     0.228 N  
HETATM    2  H2  UNL     1     -14.477  14.187  66.244  1.00  0.00     0.000 HD 
HETATM    3  H1  UNL     1     -13.221  15.431  65.841  1.00  0.00     0.000 HD 
HETATM    4  S   UNL     1     -12.699  13.573  64.729  1.00  0.00    -0.159 S  
HETATM    5  O   UNL     1     -12.483  14.414  63.576  1.00  0.00    -0.770 OA 
HETATM    6  O   UNL     1     -13.281  12.260  64.622  1.00  0.00    -0.763 OA 
ENDROOT
BRANCH   4   7
HETATM    7  C   UNL     1     -11.181  13.442  65.635  1.00  0.00    -0.292 A  
HETATM    8  C   UNL     1     -10.938  14.426  66.599  1.00  0.00    -0.318 A  
HETATM    9  C   UNL     1      -9.811  14.334  67.418  1.00  0.00    -0.235 A  
HETATM   10  C   UNL     1      -8.897  13.288  67.310  1.00  0.00    -0.216 A  
HETATM   11  C   UNL     1      -9.161  12.312  66.340  1.00  0.00    -0.203 A  
HETATM   12  N   UNL     1      -7.849  13.097  68.208  1.00  0.00    -0.136 NA 
HETATM   13  C   UNL     1     -10.281  12.372  65.471  1.00  0.00    -0.297 A  
HETATM   14  H   UNL     1      -7.430  12.176  68.332  1.00  0.00     0.000 HD 
HETATM   15  C   UNL     1      -7.368  14.233  68.958  1.00  0.00    -0.117 C  
HETATM   16  C   UNL     1     -10.392  11.265  64.445  1.00  0.00    -0.329 C  
HETATM   17  N   UNL     1      -8.463  14.835  69.689  1.00  0.00    -0.425 N  
HETATM   18  F   UNL     1     -10.409  10.037  65.039  1.00  0.00    -0.392 F  
HETATM   19  F   UNL     1      -9.302  11.247  63.624  1.00  0.00    -0.211 F  
HETATM   20  F   UNL     1     -11.465  11.274  63.619  1.00  0.00    -0.471 F  
HETATM   21  S   UNL     1      -9.566  15.554  68.653  1.00  0.00    -0.213 S  
HETATM   22  H   UNL     1      -8.551  14.823  70.705  1.00  0.00     0.000 HD 
HETATM   23  O   UNL     1      -8.884  16.671  68.033  1.00  0.00    -0.199 OA 
HETATM   24  O   UNL     1     -10.795  15.733  69.391  1.00  0.00    -0.229 OA 
ENDBRANCH   4   7
TORSDOF 1
ENDMDL
MODEL       59
REMARK 921   NORMALIZED FREE ENERGY PREDICTED BY IDOCK:   -4.96 KCAL/MOL
REMARK 922        TOTAL FREE ENERGY PREDICTED BY IDOCK:   -5.01 KCAL/MOL
REMARK 923 INTER-LIGAND FREE ENERGY PREDICTED BY IDOCK:   -5.88 KCAL/MOL
REMARK 924 INTRA-LIGAND FREE ENERGY PREDICTED BY IDOCK:    0.87 KCAL/MOL
REMARK 927      BINDING AFFINITY PREDICTED BY RF-SCORE:    0.00 PKD
ROOT
HETATM    1  N   UNL     1      -8.146  11.290  65.667  1.00  0.00    -0.369 N  
HETATM    2  H2  UNL     1      -8.042  12.090  65.043  1.00  0.00     0.000 HD 
HETATM    3  H1  UNL     1      -7.561  11.093  66.479  1.00  0.00     0.000 HD 
HETATM    4  S   UNL     1      -9.303  10.086  65.522  1.00  0.00    -0.238 S  
HETATM    5  O   UNL     1      -8.569   8.852  65.660  1.00  0.00    -0.146 OA 
HETATM    6  O   UNL     1     -10.128  10.365  64.375  1.00  0.00    -0.343 OA 
ENDROOT
BRANCH   4   7
HETATM    7  C   UNL     1     -10.271  10.344  66.984  1.00  0.00    -0.225 A  
HETATM    8  C   UNL     1     -10.166   9.373  67.987  1.00  0.00    -0.248 A  
HETATM    9  C   UNL     1     -10.823   9.557  69.205  1.00  0.00    -0.173 A  
HETATM   10  C   UNL     1     -11.600  10.682  69.468  1.00  0.00    -0.288 A  
HETATM   11  C   UNL     1     -11.690  11.643  68.452  1.00  0.00    -0.374 A  
HETATM   12  N   UNL     1     -12.144  10.956  70.721  1.00  0.00    -0.350 NA 
HETATM   13  C   UNL     1     -11.058  11.493  67.191  1.00  0.00    -0.355 A  
HETATM   14  H   UNL     1     -12.386  11.910  70.987  1.00  0.00     0.000 HD 
HETATM   15  C   UNL     1     -12.357   9.859  71.634  1.00  0.00    -0.406 C  
HETATM   16  C   UNL     1     -11.297  12.599  66.185  1.00  0.00    -0.330 C  
HETATM   17  N   UNL     1     -11.113   9.150  71.846  1.00  0.00    -0.365 N  
HETATM   18  F   UNL     1     -10.920  13.812  66.683  1.00  0.00    -0.288 F  
HETATM   19  F   UNL     1     -12.627  12.728  65.906  1.00  0.00    -0.470 F  
HETATM   20  F   UNL     1     -10.684  12.503  64.983  1.00  0.00    -0.287 F  
HETATM   21  S   UNL     1     -10.625   8.347  70.458  1.00  0.00    -0.220 S  
HETATM   22  H   UNL     1     -10.599   9.140  72.727  1.00  0.00     0.000 HD 
HETATM   23  O   UNL     1     -11.601   7.306  70.218  1.00  0.00    -0.257 OA 
HETATM   24  O   UNL     1      -9.219   8.046  70.607  1.00  0.00    -0.151 OA 
ENDBRANCH   4   7
TORSDOF 1
ENDMDL
MODEL       60
REMARK 921   NORMALIZED FREE ENERGY PREDICTED BY IDOCK:   -4.93 KCAL/MOL
REMARK 922        TOTAL FREE ENERGY PREDICTED BY IDOCK:   -4.98 KCAL/MOL
REMARK 923 INTER-LIGAND FREE ENERGY PREDICTED BY IDOCK:   -5.07 KCAL/MOL
REMARK 924 INTRA-LIGAND FREE ENERGY PREDICTED BY IDOCK:    0.09 KCAL/MOL
REMARK 927      BINDING AFFINITY PREDICTED BY RF-SCORE:    0.00 PKD
ROOT
HETATM    1  N   UNL     1      -9.446  10.557  66.942  1.00  0.00    -0.163 N  
HETATM    2  H2  UNL     1      -8.683   9.946  67.229  1.00  0.00     0.000 HD 
HETATM    3  H1  UNL     1     -10.378  10.250  66.662  1.00  0.00     0.000 HD 
HETATM    4  S   UNL     1      -9.374  12.229  66.852  1.00  0.00    -0.214 S  
HETATM    5  O   UNL     1      -9.936  12.553  65.562  1.00  0.00    -0.263 OA 
HETATM    6  O   UNL     1      -8.058  12.663  67.246  1.00  0.00    -0.176 OA 
ENDROOT
BRANCH   4   7
HETATM    7  C   UNL     1     -10.523  12.706  68.114  1.00  0.00    -0.231 A  
HETATM    8  C   UNL     1     -11.032  11.681  68.920  1.00  0.00    -0.282 A  
HETATM    9  C   UNL     1     -11.866  11.992  69.996  1.00  0.00    -0.314 A  
HETATM   10  C   UNL     1     -12.226  13.302  70.304  1.00  0.00    -0.321 A  
HETATM   11  C   UNL     1     -11.703  14.313  69.485  1.00  0.00    -0.366 A  
HETATM   12  N   UNL     1     -12.935  13.647  71.452  1.00  0.00    -0.352 NA 
HETATM   13  C   UNL     1     -10.869  14.046  68.369  1.00  0.00    -0.263 A  
HETATM   14  H   UNL     1     -12.878  14.590  71.836  1.00  0.00     0.000 HD 
HETATM   15  C   UNL     1     -13.752  12.641  72.086  1.00  0.00    -0.312 C  
HETATM   16  C   UNL     1     -10.432  15.248  67.558  1.00  0.00    -0.265 C  
HETATM   17  N   UNL     1     -12.943  11.484  72.405  1.00  0.00    -0.105 N  
HETATM   18  F   UNL     1      -9.785  16.162  68.336  1.00  0.00    -0.205 F  
HETATM   19  F   UNL     1     -11.509  15.913  67.049  1.00  0.00    -0.180 F  
HETATM   20  F   UNL     1      -9.610  15.033  66.504  1.00  0.00    -0.231 F  
HETATM   21  S   UNL     1     -12.441  10.689  71.019  1.00  0.00    -0.444 S  
HETATM   22  H   UNL     1     -12.709  11.190  73.354  1.00  0.00     0.000 HD 
HETATM   23  O   UNL     1     -13.630  10.142  70.401  1.00  0.00    -0.014 OA 
HETATM   24  O   UNL     1     -11.324   9.848  71.386  1.00  0.00    -0.364 OA 
ENDBRANCH   4   7
TORSDOF 1
ENDMDL
MODEL       61
REMARK 921   NORMALIZED FREE ENERGY PREDICTED BY IDOCK:   -4.88 KCAL/MOL
REMARK 922        TOTAL FREE ENERGY PREDICTED BY IDOCK:   -4.93 KCAL/MOL
REMARK 923 INTER-LIGAND FREE ENERGY PREDICTED BY IDOCK:   -4.98 KCAL/MOL
REMARK 924 INTRA-LIGAND FREE ENERGY PREDICTED BY IDOCK:    0.06 KCAL/MOL
REMARK 927      BINDING AFFINITY PREDICTED BY RF-SCORE:    0.00 PKD
ROOT
HETATM    1  N   UNL     1      -8.523  15.691  66.221  1.00  0.00    -0.381 N  
HETATM    2  H2  UNL     1      -7.512  15.819  66.250  1.00  0.00     0.000 HD 
HETATM    3  H1  UNL     1      -9.064  15.433  65.395  1.00  0.00     0.000 HD 
HETATM    4  S   UNL     1      -9.564  15.868  67.522  1.00  0.00    -0.221 S  
HETATM    5  O   UNL     1     -10.641  16.688  67.022  1.00  0.00    -0.311 OA 
HETATM    6  O   UNL     1      -8.800  16.232  68.688  1.00  0.00    -0.204 OA 
ENDROOT
BRANCH   4   7
HETATM    7  C   UNL     1     -10.156  14.211  67.735  1.00  0.00    -0.239 A  
HETATM    8  C   UNL     1      -9.658  13.247  66.851  1.00  0.00    -0.249 A  
HETATM    9  C   UNL     1     -10.004  11.904  67.019  1.00  0.00    -0.202 A  
HETATM   10  C   UNL     1     -10.846  11.476  68.042  1.00  0.00    -0.213 A  
HETATM   11  C   UNL     1     -11.331  12.457  68.917  1.00  0.00    -0.342 A  
HETATM   12  N   UNL     1     -11.088  10.132  68.316  1.00  0.00    -0.419 NA 
HETATM   13  C   UNL     1     -11.025  13.835  68.777  1.00  0.00    -0.289 A  
HETATM   14  H   UNL     1     -11.393   9.835  69.243  1.00  0.00     0.000 HD 
HETATM   15  C   UNL     1     -10.898   9.168  67.259  1.00  0.00    -0.051 C  
HETATM   16  C   UNL     1     -11.673  14.770  69.776  1.00  0.00    -0.310 C  
HETATM   17  N   UNL     1      -9.551   9.270  66.740  1.00  0.00    -0.169 N  
HETATM   18  F   UNL     1     -11.365  14.418  71.057  1.00  0.00    -0.274 F  
HETATM   19  F   UNL     1     -13.034  14.697  69.705  1.00  0.00    -0.182 F  
HETATM   20  F   UNL     1     -11.377  16.089  69.690  1.00  0.00    -0.269 F  
HETATM   21  S   UNL     1      -9.318  10.716  65.927  1.00  0.00    -0.201 S  
HETATM   22  H   UNL     1      -8.834   8.553  66.855  1.00  0.00     0.000 HD 
HETATM   23  O   UNL     1     -10.158  10.669  64.750  1.00  0.00    -0.304 OA 
HETATM   24  O   UNL     1      -7.892  10.931  65.830  1.00  0.00    -0.153 OA 
ENDBRANCH   4   7
TORSDOF 1
ENDMDL
MODEL       62
REMARK 921   NORMALIZED FREE ENERGY PREDICTED BY IDOCK:   -4.80 KCAL/MOL
REMARK 922        TOTAL FREE ENERGY PREDICTED BY IDOCK:   -4.84 KCAL/MOL
REMARK 923 INTER-LIGAND FREE ENERGY PREDICTED BY IDOCK:   -5.97 KCAL/MOL
REMARK 924 INTRA-LIGAND FREE ENERGY PREDICTED BY IDOCK:    1.13 KCAL/MOL
REMARK 927      BINDING AFFINITY PREDICTED BY RF-SCORE:    0.00 PKD
ROOT
HETATM    1  N   UNL     1      -8.233  11.057  64.707  1.00  0.00    -0.365 N  
HETATM    2  H2  UNL     1      -7.438  11.214  64.089  1.00  0.00     0.000 HD 
HETATM    3  H1  UNL     1      -8.201  10.567  65.601  1.00  0.00     0.000 HD 
HETATM    4  S   UNL     1      -9.805  11.563  64.418  1.00  0.00    -0.225 S  
HETATM    5  O   UNL     1     -10.620  10.403  64.689  1.00  0.00    -0.173 OA 
HETATM    6  O   UNL     1      -9.850  12.255  63.156  1.00  0.00    -0.373 OA 
ENDROOT
BRANCH   4   7
HETATM    7  C   UNL     1     -10.044  12.746  65.716  1.00  0.00    -0.286 A  
HETATM    8  C   UNL     1     -10.011  14.097  65.349  1.00  0.00    -0.321 A  
HETATM    9  C   UNL     1     -10.287  15.083  66.298  1.00  0.00    -0.296 A  
HETATM   10  C   UNL     1     -10.594  14.775  67.621  1.00  0.00    -0.262 A  
HETATM   11  C   UNL     1     -10.624  13.417  67.967  1.00  0.00    -0.252 A  
HETATM   12  N   UNL     1     -11.013  15.728  68.547  1.00  0.00    -0.294 NA 
HETATM   13  C   UNL     1     -10.330  12.380  67.045  1.00  0.00    -0.235 A  
HETATM   14  H   UNL     1     -11.559  15.456  69.364  1.00  0.00     0.000 HD 
HETATM   15  C   UNL     1     -10.658  17.109  68.324  1.00  0.00    -0.375 C  
HETATM   16  C   UNL     1     -10.358  10.969  67.592  1.00  0.00    -0.191 C  
HETATM   17  N   UNL     1     -11.129  17.530  67.022  1.00  0.00     0.105 N  
HETATM   18  F   UNL     1     -11.566  10.678  68.154  1.00  0.00    -0.349 F  
HETATM   19  F   UNL     1      -9.451  10.818  68.601  1.00  0.00    -0.155 F  
HETATM   20  F   UNL     1     -10.113   9.953  66.732  1.00  0.00    -0.234 F  
HETATM   21  S   UNL     1     -10.291  16.761  65.791  1.00  0.00    -0.237 S  
HETATM   22  H   UNL     1     -11.875  18.209  66.872  1.00  0.00     0.000 HD 
HETATM   23  O   UNL     1      -8.927  17.239  65.857  1.00  0.00    -0.519 OA 
HETATM   24  O   UNL     1     -11.080  16.889  64.587  1.00  0.00    -0.934 OA 
ENDBRANCH   4   7
TORSDOF 1
ENDMDL
MODEL       63
REMARK 921   NORMALIZED FREE ENERGY PREDICTED BY IDOCK:   -4.79 KCAL/MOL
REMARK 922        TOTAL FREE ENERGY PREDICTED BY IDOCK:   -4.84 KCAL/MOL
REMARK 923 INTER-LIGAND FREE ENERGY PREDICTED BY IDOCK:   -4.90 KCAL/MOL
REMARK 924 INTRA-LIGAND FREE ENERGY PREDICTED BY IDOCK:    0.07 KCAL/MOL
REMARK 927      BINDING AFFINITY PREDICTED BY RF-SCORE:    0.00 PKD
ROOT
HETATM    1  N   UNL     1     -11.529   6.655  66.837  1.00  0.00    -0.767 N  
HETATM    2  H2  UNL     1     -12.541   6.614  66.723  1.00  0.00     0.000 HD 
HETATM    3  H1  UNL     1     -10.853   6.805  66.087  1.00  0.00     0.000 HD 
HETATM    4  S   UNL     1     -10.705   6.487  68.287  1.00  0.00    -0.292 S  
HETATM    5  O   UNL     1      -9.649   5.546  68.004  1.00  0.00    -0.117 OA 
HETATM    6  O   UNL     1     -11.659   6.276  69.346  1.00  0.00    -0.403 OA 
ENDROOT
BRANCH   4   7
HETATM    7  C   UNL     1      -9.997   8.100  68.485  1.00  0.00    -0.190 A  
HETATM    8  C   UNL     1     -10.372   9.070  67.548  1.00  0.00    -0.328 A  
HETATM    9  C   UNL     1      -9.931  10.387  67.696  1.00  0.00    -0.174 A  
HETATM   10  C   UNL     1      -9.113  10.783  68.752  1.00  0.00    -0.178 A  
HETATM   11  C   UNL     1      -8.753   9.797  69.680  1.00  0.00    -0.211 A  
HETATM   12  N   UNL     1      -8.781  12.113  69.000  1.00  0.00    -0.315 NA 
HETATM   13  C   UNL     1      -9.157   8.442  69.562  1.00  0.00    -0.153 A  
HETATM   14  H   UNL     1      -8.503  12.415  69.933  1.00  0.00     0.000 HD 
HETATM   15  C   UNL     1      -8.839  13.054  67.907  1.00  0.00    -0.193 C  
HETATM   16  C   UNL     1      -8.638   7.493  70.621  1.00  0.00    -0.137 C  
HETATM   17  N   UNL     1     -10.162  13.038  67.319  1.00  0.00    -0.237 N  
HETATM   18  F   UNL     1      -8.985   7.910  71.873  1.00  0.00    -0.131 F  
HETATM   19  F   UNL     1      -7.274   7.460  70.623  1.00  0.00    -0.063 F  
HETATM   20  F   UNL     1      -9.031   6.199  70.557  1.00  0.00    -0.139 F  
HETATM   21  S   UNL     1     -10.463  11.588  66.535  1.00  0.00    -0.253 S  
HETATM   22  H   UNL     1     -10.825  13.811  67.373  1.00  0.00     0.000 HD 
HETATM   23  O   UNL     1      -9.562  11.532  65.405  1.00  0.00    -0.226 OA 
HETATM   24  O   UNL     1     -11.895  11.480  66.367  1.00  0.00    -0.397 OA 
ENDBRANCH   4   7
TORSDOF 1
ENDMDL
MODEL       64
REMARK 921   NORMALIZED FREE ENERGY PREDICTED BY IDOCK:   -4.78 KCAL/MOL
REMARK 922        TOTAL FREE ENERGY PREDICTED BY IDOCK:   -4.82 KCAL/MOL
REMARK 923 INTER-LIGAND FREE ENERGY PREDICTED BY IDOCK:   -4.87 KCAL/MOL
REMARK 924 INTRA-LIGAND FREE ENERGY PREDICTED BY IDOCK:    0.05 KCAL/MOL
REMARK 927      BINDING AFFINITY PREDICTED BY RF-SCORE:    0.00 PKD
ROOT
HETATM    1  N   UNL     1      -9.393  14.501  67.743  1.00  0.00    -0.195 N  
HETATM    2  H2  UNL     1      -8.392  14.666  67.845  1.00  0.00     0.000 HD 
HETATM    3  H1  UNL     1      -9.827  13.916  67.028  1.00  0.00     0.000 HD 
HETATM    4  S   UNL     1     -10.591  15.148  68.719  1.00  0.00    -0.245 S  
HETATM    5  O   UNL     1     -11.578  15.661  67.800  1.00  0.00    -0.270 OA 
HETATM    6  O   UNL     1      -9.979  15.975  69.727  1.00  0.00    -0.258 OA 
ENDROOT
BRANCH   4   7
HETATM    7  C   UNL     1     -11.238  13.695  69.502  1.00  0.00    -0.146 A  
HETATM    8  C   UNL     1     -10.623  12.480  69.179  1.00  0.00    -0.000 A  
HETATM    9  C   UNL     1     -11.014  11.308  69.830  1.00  0.00    -0.103 A  
HETATM   10  C   UNL     1     -12.013  11.294  70.799  1.00  0.00    -0.279 A  
HETATM   11  C   UNL     1     -12.614  12.522  71.109  1.00  0.00    -0.349 A  
HETATM   12  N   UNL     1     -12.319  10.168  71.561  1.00  0.00    -0.397 NA 
HETATM   13  C   UNL     1     -12.267  13.735  70.462  1.00  0.00    -0.440 A  
HETATM   14  H   UNL     1     -12.771  10.262  72.471  1.00  0.00     0.000 HD 
HETATM   15  C   UNL     1     -11.981   8.868  71.036  1.00  0.00    -0.261 C  
HETATM   16  C   UNL     1     -13.048  14.963  70.878  1.00  0.00    -0.376 C  
HETATM   17  N   UNL     1     -10.567   8.816  70.731  1.00  0.00    -0.209 N  
HETATM   18  F   UNL     1     -12.952  15.181  72.222  1.00  0.00    -0.329 F  
HETATM   19  F   UNL     1     -14.382  14.800  70.639  1.00  0.00    -0.152 F  
HETATM   20  F   UNL     1     -12.721  16.145  70.304  1.00  0.00    -0.288 F  
HETATM   21  S   UNL     1     -10.184   9.814  69.440  1.00  0.00    -0.226 S  
HETATM   22  H   UNL     1      -9.889   8.245  71.237  1.00  0.00     0.000 HD 
HETATM   23  O   UNL     1     -10.828   9.248  68.275  1.00  0.00    -0.179 OA 
HETATM   24  O   UNL     1      -8.757  10.041  69.480  1.00  0.00    -0.170 OA 
ENDBRANCH   4   7
TORSDOF 1
ENDMDL
MODEL       65
REMARK 921   NORMALIZED FREE ENERGY PREDICTED BY IDOCK:   -4.76 KCAL/MOL
REMARK 922        TOTAL FREE ENERGY PREDICTED BY IDOCK:   -4.80 KCAL/MOL
REMARK 923 INTER-LIGAND FREE ENERGY PREDICTED BY IDOCK:   -5.92 KCAL/MOL
REMARK 924 INTRA-LIGAND FREE ENERGY PREDICTED BY IDOCK:    1.12 KCAL/MOL
REMARK 927      BINDING AFFINITY PREDICTED BY RF-SCORE:    0.00 PKD
ROOT
HETATM    1  N   UNL     1      -7.365  10.632  63.964  1.00  0.00    -0.343 N  
HETATM    2  H2  UNL     1      -7.124  11.280  63.215  1.00  0.00     0.000 HD 
HETATM    3  H1  UNL     1      -6.886  10.559  64.861  1.00  0.00     0.000 HD 
HETATM    4  S   UNL     1      -8.613   9.515  63.920  1.00  0.00    -0.216 S  
HETATM    5  O   UNL     1      -8.019   8.281  64.376  1.00  0.00    -0.132 OA 
HETATM    6  O   UNL     1      -9.291   9.618  62.653  1.00  0.00    -0.258 OA 
ENDROOT
BRANCH   4   7
HETATM    7  C   UNL     1      -9.692  10.133  65.184  1.00  0.00    -0.304 A  
HETATM    8  C   UNL     1      -9.621   9.505  66.433  1.00  0.00    -0.273 A  
HETATM    9  C   UNL     1     -10.369  10.000  67.503  1.00  0.00    -0.232 A  
HETATM   10  C   UNL     1     -11.204  11.107  67.377  1.00  0.00    -0.294 A  
HETATM   11  C   UNL     1     -11.258  11.722  66.119  1.00  0.00    -0.363 A  
HETATM   12  N   UNL     1     -11.846  11.704  68.461  1.00  0.00    -0.436 NA 
HETATM   13  C   UNL     1     -10.534  11.245  64.996  1.00  0.00    -0.359 A  
HETATM   14  H   UNL     1     -12.142  12.678  68.419  1.00  0.00     0.000 HD 
HETATM   15  C   UNL     1     -12.081  10.912  69.644  1.00  0.00    -0.329 C  
HETATM   16  C   UNL     1     -10.744  11.994  63.697  1.00  0.00    -0.449 C  
HETATM   17  N   UNL     1     -10.829  10.368  70.125  1.00  0.00    -0.368 N  
HETATM   18  F   UNL     1     -10.449  13.318  63.835  1.00  0.00    -0.411 F  
HETATM   19  F   UNL     1     -12.054  11.959  63.318  1.00  0.00    -0.549 F  
HETATM   20  F   UNL     1     -10.043  11.585  62.613  1.00  0.00    -0.261 F  
HETATM   21  S   UNL     1     -10.215   9.223  69.067  1.00  0.00    -0.211 S  
HETATM   22  H   UNL     1     -10.379  10.645  70.997  1.00  0.00     0.000 HD 
HETATM   23  O   UNL     1     -11.131   8.103  69.090  1.00  0.00     0.003 OA 
HETATM   24  O   UNL     1      -8.812   9.060  69.377  1.00  0.00    -0.137 OA 
ENDBRANCH   4   7
TORSDOF 1
ENDMDL
MODEL       66
REMARK 921   NORMALIZED FREE ENERGY PREDICTED BY IDOCK:   -4.75 KCAL/MOL
REMARK 922        TOTAL FREE ENERGY PREDICTED BY IDOCK:   -4.79 KCAL/MOL
REMARK 923 INTER-LIGAND FREE ENERGY PREDICTED BY IDOCK:   -4.84 KCAL/MOL
REMARK 924 INTRA-LIGAND FREE ENERGY PREDICTED BY IDOCK:    0.05 KCAL/MOL
REMARK 927      BINDING AFFINITY PREDICTED BY RF-SCORE:    0.00 PKD
ROOT
HETATM    1  N   UNL     1     -10.447   7.509  66.621  1.00  0.00    -0.511 N  
HETATM    2  H2  UNL     1     -11.316   7.806  66.178  1.00  0.00     0.000 HD 
HETATM    3  H1  UNL     1      -9.752   8.131  67.036  1.00  0.00     0.000 HD 
HETATM    4  S   UNL     1      -9.929   5.924  66.785  1.00  0.00    -0.189 S  
HETATM    5  O   UNL     1      -8.554   5.940  66.349  1.00  0.00    -0.120 OA 
HETATM    6  O   UNL     1     -10.910   5.048  66.198  1.00  0.00    -0.294 OA 
ENDROOT
BRANCH   4   7
HETATM    7  C   UNL     1      -9.971   5.714  68.544  1.00  0.00    -0.157 A  
HETATM    8  C   UNL     1     -10.433   6.800  69.296  1.00  0.00    -0.241 A  
HETATM    9  C   UNL     1     -10.585   6.675  70.679  1.00  0.00    -0.227 A  
HETATM   10  C   UNL     1     -10.284   5.496  71.356  1.00  0.00    -0.215 A  
HETATM   11  C   UNL     1      -9.825   4.420  70.583  1.00  0.00    -0.280 A  
HETATM   12  N   UNL     1     -10.563   5.301  72.707  1.00  0.00    -0.215 NA 
HETATM   13  C   UNL     1      -9.635   4.504  69.180  1.00  0.00    -0.251 A  
HETATM   14  H   UNL     1     -10.674   4.361  73.086  1.00  0.00     0.000 HD 
HETATM   15  C   UNL     1     -10.693   6.459  73.557  1.00  0.00    -0.244 C  
HETATM   16  C   UNL     1      -9.084   3.267  68.504  1.00  0.00    -0.155 C  
HETATM   17  N   UNL     1     -11.708   7.344  73.027  1.00  0.00    -0.579 N  
HETATM   18  F   UNL     1      -9.874   2.180  68.739  1.00  0.00    -0.209 F  
HETATM   19  F   UNL     1      -7.862   2.934  69.012  1.00  0.00    -0.047 F  
HETATM   20  F   UNL     1      -8.920   3.301  67.160  1.00  0.00    -0.118 F  
HETATM   21  S   UNL     1     -11.218   8.038  71.582  1.00  0.00    -0.268 S  
HETATM   22  H   UNL     1     -12.607   7.524  73.475  1.00  0.00     0.000 HD 
HETATM   23  O   UNL     1     -10.105   8.907  71.897  1.00  0.00    -0.321 OA 
HETATM   24  O   UNL     1     -12.402   8.534  70.920  1.00  0.00    -0.195 OA 
ENDBRANCH   4   7
TORSDOF 1
ENDMDL
MODEL       67
REMARK 921   NORMALIZED FREE ENERGY PREDICTED BY IDOCK:   -4.74 KCAL/MOL
REMARK 922        TOTAL FREE ENERGY PREDICTED BY IDOCK:   -4.78 KCAL/MOL
REMARK 923 INTER-LIGAND FREE ENERGY PREDICTED BY IDOCK:   -4.84 KCAL/MOL
REMARK 924 INTRA-LIGAND FREE ENERGY PREDICTED BY IDOCK:    0.06 KCAL/MOL
REMARK 927      BINDING AFFINITY PREDICTED BY RF-SCORE:    0.00 PKD
ROOT
HETATM    1  N   UNL     1      -8.385   6.036  68.806  1.00  0.00    -0.106 N  
HETATM    2  H2  UNL     1      -8.393   5.432  67.985  1.00  0.00     0.000 HD 
HETATM    3  H1  UNL     1      -7.695   6.762  69.001  1.00  0.00     0.000 HD 
HETATM    4  S   UNL     1      -9.502   5.996  70.055  1.00  0.00    -0.158 S  
HETATM    5  O   UNL     1      -8.707   5.999  71.260  1.00  0.00    -0.134 OA 
HETATM    6  O   UNL     1     -10.475   4.970  69.781  1.00  0.00    -0.263 OA 
ENDROOT
BRANCH   4   7
HETATM    7  C   UNL     1     -10.288   7.575  69.882  1.00  0.00    -0.223 A  
HETATM    8  C   UNL     1      -9.904   8.352  68.783  1.00  0.00    -0.180 A  
HETATM    9  C   UNL     1     -10.549   9.564  68.528  1.00  0.00    -0.212 A  
HETATM   10  C   UNL     1     -11.573  10.046  69.340  1.00  0.00    -0.023 A  
HETATM   11  C   UNL     1     -11.943   9.252  70.434  1.00  0.00    -0.028 A  
HETATM   12  N   UNL     1     -12.326  11.175  69.025  1.00  0.00    -0.590 NA 
HETATM   13  C   UNL     1     -11.305   8.024  70.746  1.00  0.00    -0.282 A  
HETATM   14  H   UNL     1     -13.261  11.302  69.412  1.00  0.00     0.000 HD 
HETATM   15  C   UNL     1     -11.754  12.161  68.140  1.00  0.00    -0.341 C  
HETATM   16  C   UNL     1     -11.791   7.315  71.992  1.00  0.00    -0.296 C  
HETATM   17  N   UNL     1     -11.369  11.534  66.894  1.00  0.00    -0.298 N  
HETATM   18  F   UNL     1     -13.132   7.068  71.931  1.00  0.00    -0.359 F  
HETATM   19  F   UNL     1     -11.624   8.097  73.098  1.00  0.00    -0.440 F  
HETATM   20  F   UNL     1     -11.226   6.124  72.302  1.00  0.00    -0.266 F  
HETATM   21  S   UNL     1     -10.081  10.484  67.111  1.00  0.00    -0.219 S  
HETATM   22  H   UNL     1     -11.823  11.709  65.998  1.00  0.00     0.000 HD 
HETATM   23  O   UNL     1      -8.941  11.297  67.477  1.00  0.00    -0.139 OA 
HETATM   24  O   UNL     1     -10.046   9.603  65.966  1.00  0.00    -0.283 OA 
ENDBRANCH   4   7
TORSDOF 1
ENDMDL
MODEL       68
REMARK 921   NORMALIZED FREE ENERGY PREDICTED BY IDOCK:   -4.73 KCAL/MOL
REMARK 922        TOTAL FREE ENERGY PREDICTED BY IDOCK:   -4.77 KCAL/MOL
REMARK 923 INTER-LIGAND FREE ENERGY PREDICTED BY IDOCK:   -4.88 KCAL/MOL
REMARK 924 INTRA-LIGAND FREE ENERGY PREDICTED BY IDOCK:    0.11 KCAL/MOL
REMARK 927      BINDING AFFINITY PREDICTED BY RF-SCORE:    0.00 PKD
ROOT
HETATM    1  N   UNL     1     -10.785  16.308  65.078  1.00  0.00    -0.372 N  
HETATM    2  H2  UNL     1     -10.641  16.357  64.070  1.00  0.00     0.000 HD 
HETATM    3  H1  UNL     1     -11.632  15.976  65.540  1.00  0.00     0.000 HD 
HETATM    4  S   UNL     1      -9.669  16.761  66.243  1.00  0.00    -0.294 S  
HETATM    5  O   UNL     1     -10.414  17.583  67.167  1.00  0.00    -0.335 OA 
HETATM    6  O   UNL     1      -8.474  17.230  65.591  1.00  0.00    -0.475 OA 
ENDROOT
BRANCH   4   7
HETATM    7  C   UNL     1      -9.312  15.207  67.019  1.00  0.00    -0.230 A  
HETATM    8  C   UNL     1     -10.053  14.103  66.584  1.00  0.00    -0.275 A  
HETATM    9  C   UNL     1      -9.760  12.830  67.080  1.00  0.00    -0.224 A  
HETATM   10  C   UNL     1      -8.748  12.610  68.010  1.00  0.00    -0.190 A  
HETATM   11  C   UNL     1      -8.017  13.729  68.430  1.00  0.00    -0.144 A  
HETATM   12  N   UNL     1      -8.344  11.337  68.408  1.00  0.00    -0.145 NA 
HETATM   13  C   UNL     1      -8.289  15.044  67.972  1.00  0.00    -0.148 A  
HETATM   14  H   UNL     1      -7.410  11.182  68.787  1.00  0.00     0.000 HD 
HETATM   15  C   UNL     1      -9.275  10.244  68.271  1.00  0.00    -0.139 C  
HETATM   16  C   UNL     1      -7.439  16.148  68.563  1.00  0.00    -0.167 C  
HETATM   17  N   UNL     1      -9.721  10.149  66.897  1.00  0.00    -0.180 N  
HETATM   18  F   UNL     1      -6.111  15.917  68.357  1.00  0.00    -0.095 F  
HETATM   19  F   UNL     1      -7.583  16.204  69.919  1.00  0.00    -0.121 F  
HETATM   20  F   UNL     1      -7.651  17.411  68.125  1.00  0.00    -0.188 F  
HETATM   21  S   UNL     1     -10.672  11.461  66.473  1.00  0.00    -0.276 S  
HETATM   22  H   UNL     1      -9.486   9.382  66.267  1.00  0.00     0.000 HD 
HETATM   23  O   UNL     1     -11.885  11.363  67.255  1.00  0.00    -0.594 OA 
HETATM   24  O   UNL     1     -10.706  11.519  65.029  1.00  0.00    -0.285 OA 
ENDBRANCH   4   7
TORSDOF 1
ENDMDL
MODEL       69
REMARK 921   NORMALIZED FREE ENERGY PREDICTED BY IDOCK:   -4.73 KCAL/MOL
REMARK 922        TOTAL FREE ENERGY PREDICTED BY IDOCK:   -4.77 KCAL/MOL
REMARK 923 INTER-LIGAND FREE ENERGY PREDICTED BY IDOCK:   -4.89 KCAL/MOL
REMARK 924 INTRA-LIGAND FREE ENERGY PREDICTED BY IDOCK:    0.12 KCAL/MOL
REMARK 927      BINDING AFFINITY PREDICTED BY RF-SCORE:    0.00 PKD
ROOT
HETATM    1  N   UNL     1      -7.947   9.333  63.787  1.00  0.00    -0.133 N  
HETATM    2  H2  UNL     1      -8.271   8.820  62.967  1.00  0.00     0.000 HD 
HETATM    3  H1  UNL     1      -7.491  10.245  63.773  1.00  0.00     0.000 HD 
HETATM    4  S   UNL     1      -8.078   8.813  65.374  1.00  0.00    -0.133 S  
HETATM    5  O   UNL     1      -6.768   9.026  65.940  1.00  0.00    -0.070 OA 
HETATM    6  O   UNL     1      -8.721   7.524  65.394  1.00  0.00    -0.100 OA 
ENDROOT
BRANCH   4   7
HETATM    7  C   UNL     1      -9.197  10.009  66.052  1.00  0.00    -0.162 A  
HETATM    8  C   UNL     1      -9.565  11.070  65.217  1.00  0.00    -0.270 A  
HETATM    9  C   UNL     1     -10.516  11.996  65.647  1.00  0.00    -0.256 A  
HETATM   10  C   UNL     1     -11.122  11.913  66.898  1.00  0.00    -0.305 A  
HETATM   11  C   UNL     1     -10.741  10.842  67.718  1.00  0.00    -0.279 A  
HETATM   12  N   UNL     1     -12.174  12.738  67.291  1.00  0.00    -0.364 NA 
HETATM   13  C   UNL     1      -9.764   9.887  67.335  1.00  0.00    -0.199 A  
HETATM   14  H   UNL     1     -12.820  12.445  68.024  1.00  0.00     0.000 HD 
HETATM   15  C   UNL     1     -12.330  14.015  66.638  1.00  0.00    -0.371 C  
HETATM   16  C   UNL     1      -9.431   8.823  68.358  1.00  0.00    -0.141 C  
HETATM   17  N   UNL     1     -12.438  13.822  65.208  1.00  0.00    -0.488 N  
HETATM   18  F   UNL     1     -10.544   8.131  68.735  1.00  0.00    -0.220 F  
HETATM   19  F   UNL     1      -8.953   9.381  69.508  1.00  0.00    -0.130 F  
HETATM   20  F   UNL     1      -8.526   7.877  68.013  1.00  0.00    -0.119 F  
HETATM   21  S   UNL     1     -10.994  13.281  64.553  1.00  0.00    -0.400 S  
HETATM   22  H   UNL     1     -13.286  13.995  64.666  1.00  0.00     0.000 HD 
HETATM   23  O   UNL     1     -10.041  14.359  64.704  1.00  0.00    -0.293 OA 
HETATM   24  O   UNL     1     -11.295  12.712  63.259  1.00  0.00    -0.460 OA 
ENDBRANCH   4   7
TORSDOF 1
ENDMDL
MODEL       70
REMARK 921   NORMALIZED FREE ENERGY PREDICTED BY IDOCK:   -4.71 KCAL/MOL
REMARK 922        TOTAL FREE ENERGY PREDICTED BY IDOCK:   -4.75 KCAL/MOL
REMARK 923 INTER-LIGAND FREE ENERGY PREDICTED BY IDOCK:   -4.82 KCAL/MOL
REMARK 924 INTRA-LIGAND FREE ENERGY PREDICTED BY IDOCK:    0.07 KCAL/MOL
REMARK 927      BINDING AFFINITY PREDICTED BY RF-SCORE:    0.00 PKD
ROOT
HETATM    1  N   UNL     1      -6.925  10.454  67.877  1.00  0.00    -0.081 N  
HETATM    2  H2  UNL     1      -6.254  11.161  68.175  1.00  0.00     0.000 HD 
HETATM    3  H1  UNL     1      -7.818  10.258  68.330  1.00  0.00     0.000 HD 
HETATM    4  S   UNL     1      -6.742   9.427  66.566  1.00  0.00    -0.072 S  
HETATM    5  O   UNL     1      -7.075   8.118  67.074  1.00  0.00    -0.076 OA 
HETATM    6  O   UNL     1      -5.481   9.704  65.926  1.00  0.00    -0.042 OA 
ENDROOT
BRANCH   4   7
HETATM    7  C   UNL     1      -8.045   9.976  65.496  1.00  0.00    -0.137 A  
HETATM    8  C   UNL     1      -8.863  11.004  65.979  1.00  0.00    -0.199 A  
HETATM    9  C   UNL     1      -9.848  11.553  65.155  1.00  0.00    -0.257 A  
HETATM   10  C   UNL     1     -10.060  11.109  63.853  1.00  0.00    -0.348 A  
HETATM   11  C   UNL     1      -9.228  10.081  63.389  1.00  0.00    -0.317 A  
HETATM   12  N   UNL     1     -10.935  11.737  62.968  1.00  0.00    -0.668 NA 
HETATM   13  C   UNL     1      -8.228   9.477  64.193  1.00  0.00    -0.159 A  
HETATM   14  H   UNL     1     -10.816  11.637  61.960  1.00  0.00     0.000 HD 
HETATM   15  C   UNL     1     -12.011  12.530  63.509  1.00  0.00    -0.543 C  
HETATM   16  C   UNL     1      -7.451   8.344  63.556  1.00  0.00    -0.117 C  
HETATM   17  N   UNL     1     -11.475  13.549  64.386  1.00  0.00    -0.381 N  
HETATM   18  F   UNL     1      -6.850   8.744  62.399  1.00  0.00    -0.096 F  
HETATM   19  F   UNL     1      -8.282   7.325  63.192  1.00  0.00    -0.124 F  
HETATM   20  F   UNL     1      -6.467   7.766  64.284  1.00  0.00    -0.053 F  
HETATM   21  S   UNL     1     -10.818  12.877  65.773  1.00  0.00    -0.273 S  
HETATM   22  H   UNL     1     -11.494  14.549  64.186  1.00  0.00     0.000 HD 
HETATM   23  O   UNL     1     -11.919  12.301  66.515  1.00  0.00    -0.596 OA 
HETATM   24  O   UNL     1      -9.946  13.868  66.361  1.00  0.00    -0.280 OA 
ENDBRANCH   4   7
TORSDOF 1
ENDMDL
MODEL       71
REMARK 921   NORMALIZED FREE ENERGY PREDICTED BY IDOCK:   -4.71 KCAL/MOL
REMARK 922        TOTAL FREE ENERGY PREDICTED BY IDOCK:   -4.74 KCAL/MOL
REMARK 923 INTER-LIGAND FREE ENERGY PREDICTED BY IDOCK:   -5.61 KCAL/MOL
REMARK 924 INTRA-LIGAND FREE ENERGY PREDICTED BY IDOCK:    0.87 KCAL/MOL
REMARK 927      BINDING AFFINITY PREDICTED BY RF-SCORE:    0.00 PKD
ROOT
HETATM    1  N   UNL     1      -7.248  16.380  69.236  1.00  0.00    -0.229 N  
HETATM    2  H2  UNL     1      -7.192  17.178  69.868  1.00  0.00     0.000 HD 
HETATM    3  H1  UNL     1      -7.319  15.403  69.521  1.00  0.00     0.000 HD 
HETATM    4  S   UNL     1      -7.239  16.461  67.563  1.00  0.00    -0.161 S  
HETATM    5  O   UNL     1      -6.275  15.469  67.151  1.00  0.00    -0.316 OA 
HETATM    6  O   UNL     1      -7.138  17.841  67.161  1.00  0.00    -0.170 OA 
ENDROOT
BRANCH   4   7
HETATM    7  C   UNL     1      -8.866  15.879  67.167  1.00  0.00    -0.207 A  
HETATM    8  C   UNL     1      -8.946  14.748  66.347  1.00  0.00    -0.223 A  
HETATM    9  C   UNL     1     -10.190  14.175  66.073  1.00  0.00    -0.308 A  
HETATM   10  C   UNL     1     -11.377  14.695  66.583  1.00  0.00    -0.356 A  
HETATM   11  C   UNL     1     -11.273  15.827  67.403  1.00  0.00    -0.179 A  
HETATM   12  N   UNL     1     -12.609  14.060  66.443  1.00  0.00    -0.502 NA 
HETATM   13  C   UNL     1     -10.036  16.457  67.695  1.00  0.00    -0.252 A  
HETATM   14  H   UNL     1     -13.369  14.246  67.097  1.00  0.00     0.000 HD 
HETATM   15  C   UNL     1     -12.786  13.133  65.351  1.00  0.00    -0.360 C  
HETATM   16  C   UNL     1     -10.104  17.701  68.555  1.00  0.00    -0.375 C  
HETATM   17  N   UNL     1     -11.770  12.103  65.415  1.00  0.00    -0.352 N  
HETATM   18  F   UNL     1     -10.717  17.446  69.747  1.00  0.00    -0.266 F  
HETATM   19  F   UNL     1     -10.866  18.665  67.963  1.00  0.00    -0.390 F  
HETATM   20  F   UNL     1      -8.939  18.309  68.879  1.00  0.00    -0.304 F  
HETATM   21  S   UNL     1     -10.249  12.726  65.088  1.00  0.00    -0.250 S  
HETATM   22  H   UNL     1     -11.957  11.124  65.630  1.00  0.00     0.000 HD 
HETATM   23  O   UNL     1     -10.261  13.141  63.702  1.00  0.00    -0.212 OA 
HETATM   24  O   UNL     1      -9.280  11.776  65.585  1.00  0.00    -0.198 OA 
ENDBRANCH   4   7
TORSDOF 1
ENDMDL
MODEL       72
REMARK 921   NORMALIZED FREE ENERGY PREDICTED BY IDOCK:   -4.70 KCAL/MOL
REMARK 922        TOTAL FREE ENERGY PREDICTED BY IDOCK:   -4.74 KCAL/MOL
REMARK 923 INTER-LIGAND FREE ENERGY PREDICTED BY IDOCK:   -4.81 KCAL/MOL
REMARK 924 INTRA-LIGAND FREE ENERGY PREDICTED BY IDOCK:    0.07 KCAL/MOL
REMARK 927      BINDING AFFINITY PREDICTED BY RF-SCORE:    0.00 PKD
ROOT
HETATM    1  N   UNL     1     -12.272   9.915  70.331  1.00  0.00    -0.462 N  
HETATM    2  H2  UNL     1     -12.454  10.375  71.222  1.00  0.00     0.000 HD 
HETATM    3  H1  UNL     1     -12.954   9.778  69.584  1.00  0.00     0.000 HD 
HETATM    4  S   UNL     1     -10.803   9.264  69.854  1.00  0.00    -0.220 S  
HETATM    5  O   UNL     1     -11.130   7.955  69.342  1.00  0.00    -0.089 OA 
HETATM    6  O   UNL     1      -9.840   9.458  70.907  1.00  0.00    -0.276 OA 
ENDROOT
BRANCH   4   7
HETATM    7  C   UNL     1     -10.368  10.318  68.496  1.00  0.00    -0.178 A  
HETATM    8  C   UNL     1     -11.198  11.420  68.265  1.00  0.00    -0.326 A  
HETATM    9  C   UNL     1     -10.864  12.347  67.276  1.00  0.00    -0.243 A  
HETATM   10  C   UNL     1      -9.723  12.216  66.489  1.00  0.00    -0.223 A  
HETATM   11  C   UNL     1      -8.904  11.106  66.739  1.00  0.00    -0.162 A  
HETATM   12  N   UNL     1      -9.294  13.199  65.599  1.00  0.00    -0.450 NA 
HETATM   13  C   UNL     1      -9.211  10.126  67.718  1.00  0.00    -0.146 A  
HETATM   14  H   UNL     1      -8.316  13.254  65.315  1.00  0.00     0.000 HD 
HETATM   15  C   UNL     1     -10.265  14.136  65.088  1.00  0.00    -0.384 C  
HETATM   16  C   UNL     1      -8.248   8.963  67.825  1.00  0.00    -0.110 C  
HETATM   17  N   UNL     1     -10.926  14.804  66.189  1.00  0.00    -0.327 N  
HETATM   18  F   UNL     1      -6.977   9.392  68.069  1.00  0.00    -0.074 F  
HETATM   19  F   UNL     1      -8.173   8.279  66.647  1.00  0.00    -0.099 F  
HETATM   20  F   UNL     1      -8.493   8.026  68.771  1.00  0.00    -0.122 F  
HETATM   21  S   UNL     1     -11.898  13.746  67.050  1.00  0.00    -0.418 S  
HETATM   22  H   UNL     1     -10.815  15.794  66.412  1.00  0.00     0.000 HD 
HETATM   23  O   UNL     1     -12.972  13.356  66.163  1.00  0.00    -0.176 OA 
HETATM   24  O   UNL     1     -12.160  14.351  68.336  1.00  0.00    -0.322 OA 
ENDBRANCH   4   7
TORSDOF 1
ENDMDL
MODEL       73
REMARK 921   NORMALIZED FREE ENERGY PREDICTED BY IDOCK:   -4.67 KCAL/MOL
REMARK 922        TOTAL FREE ENERGY PREDICTED BY IDOCK:   -4.70 KCAL/MOL
REMARK 923 INTER-LIGAND FREE ENERGY PREDICTED BY IDOCK:   -5.09 KCAL/MOL
REMARK 924 INTRA-LIGAND FREE ENERGY PREDICTED BY IDOCK:    0.38 KCAL/MOL
REMARK 927      BINDING AFFINITY PREDICTED BY RF-SCORE:    0.00 PKD
ROOT
HETATM    1  N   UNL     1     -10.348  10.753  63.014  1.00  0.00    -0.729 N  
HETATM    2  H2  UNL     1     -11.102  10.109  62.776  1.00  0.00     0.000 HD 
HETATM    3  H1  UNL     1     -10.297  11.734  62.737  1.00  0.00     0.000 HD 
HETATM    4  S   UNL     1      -8.993  10.371  63.922  1.00  0.00    -0.246 S  
HETATM    5  O   UNL     1      -7.883  10.900  63.168  1.00  0.00     0.025 OA 
HETATM    6  O   UNL     1      -9.065   8.986  64.313  1.00  0.00    -0.060 OA 
ENDROOT
BRANCH   4   7
HETATM    7  C   UNL     1      -9.235  11.373  65.364  1.00  0.00    -0.151 A  
HETATM    8  C   UNL     1     -10.195  12.388  65.271  1.00  0.00    -0.306 A  
HETATM    9  C   UNL     1     -10.509  13.154  66.396  1.00  0.00    -0.282 A  
HETATM   10  C   UNL     1      -9.892  12.953  67.628  1.00  0.00    -0.211 A  
HETATM   11  C   UNL     1      -8.936  11.930  67.700  1.00  0.00    -0.169 A  
HETATM   12  N   UNL     1     -10.290  13.604  68.794  1.00  0.00    -0.346 NA 
HETATM   13  C   UNL     1      -8.567  11.139  66.582  1.00  0.00    -0.165 A  
HETATM   14  H   UNL     1     -10.089  13.202  69.709  1.00  0.00     0.000 HD 
HETATM   15  C   UNL     1     -10.991  14.859  68.677  1.00  0.00    -0.257 C  
HETATM   16  C   UNL     1      -7.481  10.111  66.817  1.00  0.00    -0.104 C  
HETATM   17  N   UNL     1     -12.168  14.687  67.852  1.00  0.00    -0.603 N  
HETATM   18  F   UNL     1      -7.819   9.255  67.823  1.00  0.00    -0.090 F  
HETATM   19  F   UNL     1      -6.325  10.707  67.231  1.00  0.00    -0.058 F  
HETATM   20  F   UNL     1      -7.127   9.317  65.779  1.00  0.00    -0.081 F  
HETATM   21  S   UNL     1     -11.755  14.379  66.257  1.00  0.00    -0.372 S  
HETATM   22  H   UNL     1     -13.126  14.746  68.196  1.00  0.00     0.000 HD 
HETATM   23  O   UNL     1     -11.129  15.582  65.752  1.00  0.00    -0.304 OA 
HETATM   24  O   UNL     1     -12.915  13.803  65.616  1.00  0.00    -0.574 OA 
ENDBRANCH   4   7
TORSDOF 1
ENDMDL
MODEL       74
REMARK 921   NORMALIZED FREE ENERGY PREDICTED BY IDOCK:   -4.66 KCAL/MOL
REMARK 922        TOTAL FREE ENERGY PREDICTED BY IDOCK:   -4.70 KCAL/MOL
REMARK 923 INTER-LIGAND FREE ENERGY PREDICTED BY IDOCK:   -5.69 KCAL/MOL
REMARK 924 INTRA-LIGAND FREE ENERGY PREDICTED BY IDOCK:    0.99 KCAL/MOL
REMARK 927      BINDING AFFINITY PREDICTED BY RF-SCORE:    0.00 PKD
ROOT
HETATM    1  N   UNL     1      -9.400  12.063  65.536  1.00  0.00    -0.424 N  
HETATM    2  H2  UNL     1      -9.214  11.371  64.810  1.00  0.00     0.000 HD 
HETATM    3  H1  UNL     1     -10.104  12.800  65.485  1.00  0.00     0.000 HD 
HETATM    4  S   UNL     1      -8.602  12.171  67.006  1.00  0.00    -0.186 S  
HETATM    5  O   UNL     1      -8.263  13.567  67.138  1.00  0.00    -0.178 OA 
HETATM    6  O   UNL     1      -7.609  11.130  67.078  1.00  0.00    -0.121 OA 
ENDROOT
BRANCH   4   7
HETATM    7  C   UNL     1      -9.902  11.786  68.148  1.00  0.00    -0.190 A  
HETATM    8  C   UNL     1      -9.766  10.600  68.878  1.00  0.00    -0.210 A  
HETATM    9  C   UNL     1     -10.701  10.280  69.865  1.00  0.00    -0.294 A  
HETATM   10  C   UNL     1     -11.787  11.102  70.155  1.00  0.00    -0.365 A  
HETATM   11  C   UNL     1     -11.902  12.286  69.414  1.00  0.00    -0.370 A  
HETATM   12  N   UNL     1     -12.647  10.877  71.228  1.00  0.00    -0.407 NA 
HETATM   13  C   UNL     1     -10.991  12.645  68.388  1.00  0.00    -0.284 A  
HETATM   14  H   UNL     1     -13.186  11.642  71.632  1.00  0.00     0.000 HD 
HETATM   15  C   UNL     1     -12.756   9.538  71.755  1.00  0.00    -0.404 C  
HETATM   16  C   UNL     1     -11.289  13.932  67.648  1.00  0.00    -0.309 C  
HETATM   17  N   UNL     1     -11.447   9.055  72.138  1.00  0.00    -0.325 N  
HETATM   18  F   UNL     1     -11.367  14.990  68.506  1.00  0.00    -0.251 F  
HETATM   19  F   UNL     1     -12.509  13.877  67.040  1.00  0.00    -0.433 F  
HETATM   20  F   UNL     1     -10.422  14.321  66.684  1.00  0.00    -0.268 F  
HETATM   21  S   UNL     1     -10.470   8.813  70.798  1.00  0.00    -0.236 S  
HETATM   22  H   UNL     1     -11.156   8.882  73.100  1.00  0.00     0.000 HD 
HETATM   23  O   UNL     1     -11.055   7.723  70.049  1.00  0.00    -0.248 OA 
HETATM   24  O   UNL     1      -9.103   8.762  71.266  1.00  0.00    -0.192 OA 
ENDBRANCH   4   7
TORSDOF 1
ENDMDL
MODEL       75
REMARK 921   NORMALIZED FREE ENERGY PREDICTED BY IDOCK:   -4.60 KCAL/MOL
REMARK 922        TOTAL FREE ENERGY PREDICTED BY IDOCK:   -4.64 KCAL/MOL
REMARK 923 INTER-LIGAND FREE ENERGY PREDICTED BY IDOCK:   -4.69 KCAL/MOL
REMARK 924 INTRA-LIGAND FREE ENERGY PREDICTED BY IDOCK:    0.06 KCAL/MOL
REMARK 927      BINDING AFFINITY PREDICTED BY RF-SCORE:    0.00 PKD
ROOT
HETATM    1  N   UNL     1     -11.213   7.288  67.531  1.00  0.00    -0.541 N  
HETATM    2  H2  UNL     1     -11.627   7.096  68.443  1.00  0.00     0.000 HD 
HETATM    3  H1  UNL     1     -11.730   7.502  66.678  1.00  0.00     0.000 HD 
HETATM    4  S   UNL     1      -9.572   7.304  67.192  1.00  0.00    -0.171 S  
HETATM    5  O   UNL     1      -9.436   6.514  65.993  1.00  0.00    -0.083 OA 
HETATM    6  O   UNL     1      -8.841   7.002  68.397  1.00  0.00    -0.125 OA 
ENDROOT
BRANCH   4   7
HETATM    7  C   UNL     1      -9.306   9.009  66.789  1.00  0.00    -0.165 A  
HETATM    8  C   UNL     1     -10.402   9.868  66.934  1.00  0.00    -0.300 A  
HETATM    9  C   UNL     1     -10.243  11.240  66.728  1.00  0.00    -0.226 A  
HETATM   10  C   UNL     1      -9.020  11.801  66.371  1.00  0.00    -0.201 A  
HETATM   11  C   UNL     1      -7.935  10.924  66.233  1.00  0.00    -0.161 A  
HETATM   12  N   UNL     1      -8.804  13.176  66.301  1.00  0.00    -0.432 NA 
HETATM   13  C   UNL     1      -8.050   9.521  66.411  1.00  0.00    -0.111 A  
HETATM   14  H   UNL     1      -7.865  13.561  66.395  1.00  0.00     0.000 HD 
HETATM   15  C   UNL     1      -9.939  14.042  66.096  1.00  0.00    -0.312 C  
HETATM   16  C   UNL     1      -6.794   8.711  66.174  1.00  0.00    -0.073 C  
HETATM   17  N   UNL     1     -10.927  13.808  67.128  1.00  0.00    -0.286 N  
HETATM   18  F   UNL     1      -5.772   9.136  66.972  1.00  0.00    -0.042 F  
HETATM   19  F   UNL     1      -6.340   8.874  64.898  1.00  0.00    -0.063 F  
HETATM   20  F   UNL     1      -6.860   7.373  66.366  1.00  0.00    -0.055 F  
HETATM   21  S   UNL     1     -11.624  12.292  66.973  1.00  0.00    -0.326 S  
HETATM   22  H   UNL     1     -11.168  14.480  67.856  1.00  0.00     0.000 HD 
HETATM   23  O   UNL     1     -12.383  12.310  65.741  1.00  0.00    -0.622 OA 
HETATM   24  O   UNL     1     -12.244  11.972  68.239  1.00  0.00    -0.398 OA 
ENDBRANCH   4   7
TORSDOF 1
ENDMDL
MODEL       76
REMARK 921   NORMALIZED FREE ENERGY PREDICTED BY IDOCK:   -4.57 KCAL/MOL
REMARK 922        TOTAL FREE ENERGY PREDICTED BY IDOCK:   -4.60 KCAL/MOL
REMARK 923 INTER-LIGAND FREE ENERGY PREDICTED BY IDOCK:   -4.65 KCAL/MOL
REMARK 924 INTRA-LIGAND FREE ENERGY PREDICTED BY IDOCK:    0.06 KCAL/MOL
REMARK 927      BINDING AFFINITY PREDICTED BY RF-SCORE:    0.00 PKD
ROOT
HETATM    1  N   UNL     1      -9.707  10.740  66.631  1.00  0.00    -0.185 N  
HETATM    2  H2  UNL     1      -8.778  11.109  66.432  1.00  0.00     0.000 HD 
HETATM    3  H1  UNL     1     -10.189  10.024  66.088  1.00  0.00     0.000 HD 
HETATM    4  S   UNL     1     -10.689  11.213  67.904  1.00  0.00    -0.235 S  
HETATM    5  O   UNL     1     -11.982  11.442  67.306  1.00  0.00    -0.580 OA 
HETATM    6  O   UNL     1     -10.008  12.224  68.671  1.00  0.00    -0.200 OA 
ENDROOT
BRANCH   4   7
HETATM    7  C   UNL     1     -10.760   9.729  68.871  1.00  0.00    -0.217 A  
HETATM    8  C   UNL     1      -9.976   8.655  68.434  1.00  0.00    -0.204 A  
HETATM    9  C   UNL     1      -9.906   7.488  69.197  1.00  0.00    -0.170 A  
HETATM   10  C   UNL     1     -10.602   7.341  70.395  1.00  0.00    -0.226 A  
HETATM   11  C   UNL     1     -11.379   8.429  70.816  1.00  0.00    -0.290 A  
HETATM   12  N   UNL     1     -10.435   6.248  71.243  1.00  0.00    -0.211 NA 
HETATM   13  C   UNL     1     -11.499   9.627  70.065  1.00  0.00    -0.191 A  
HETATM   14  H   UNL     1     -10.656   6.320  72.235  1.00  0.00     0.000 HD 
HETATM   15  C   UNL     1      -9.941   5.012  70.685  1.00  0.00    -0.230 C  
HETATM   16  C   UNL     1     -12.419  10.685  70.635  1.00  0.00    -0.371 C  
HETATM   17  N   UNL     1      -8.675   5.246  70.022  1.00  0.00    -0.114 N  
HETATM   18  F   UNL     1     -12.047  11.036  71.900  1.00  0.00    -0.214 F  
HETATM   19  F   UNL     1     -13.693  10.211  70.759  1.00  0.00    -0.395 F  
HETATM   20  F   UNL     1     -12.532  11.853  69.961  1.00  0.00    -0.287 F  
HETATM   21  S   UNL     1      -8.871   6.184  68.648  1.00  0.00    -0.112 S  
HETATM   22  H   UNL     1      -7.779   4.885  70.349  1.00  0.00     0.000 HD 
HETATM   23  O   UNL     1      -9.632   5.389  67.709  1.00  0.00    -0.119 OA 
HETATM   24  O   UNL     1      -7.574   6.723  68.307  1.00  0.00    -0.102 OA 
ENDBRANCH   4   7
TORSDOF 1
ENDMDL
MODEL       77
REMARK 921   NORMALIZED FREE ENERGY PREDICTED BY IDOCK:   -4.55 KCAL/MOL
REMARK 922        TOTAL FREE ENERGY PREDICTED BY IDOCK:   -4.58 KCAL/MOL
REMARK 923 INTER-LIGAND FREE ENERGY PREDICTED BY IDOCK:   -4.78 KCAL/MOL
REMARK 924 INTRA-LIGAND FREE ENERGY PREDICTED BY IDOCK:    0.21 KCAL/MOL
REMARK 927      BINDING AFFINITY PREDICTED BY RF-SCORE:    0.00 PKD
ROOT
HETATM    1  N   UNL     1     -11.419  11.401  70.431  1.00  0.00    -0.486 N  
HETATM    2  H2  UNL     1     -12.355  11.476  70.829  1.00  0.00     0.000 HD 
HETATM    3  H1  UNL     1     -10.552  11.339  70.965  1.00  0.00     0.000 HD 
HETATM    4  S   UNL     1     -11.057  11.361  68.796  1.00  0.00    -0.259 S  
HETATM    5  O   UNL     1      -9.984  12.313  68.633  1.00  0.00    -0.200 OA 
HETATM    6  O   UNL     1     -12.281  11.449  68.042  1.00  0.00    -0.607 OA 
ENDROOT
BRANCH   4   7
HETATM    7  C   UNL     1     -10.403   9.724  68.614  1.00  0.00    -0.201 A  
HETATM    8  C   UNL     1     -10.612   8.842  69.680  1.00  0.00    -0.220 A  
HETATM    9  C   UNL     1     -10.211   7.509  69.569  1.00  0.00    -0.207 A  
HETATM   10  C   UNL     1      -9.594   7.011  68.424  1.00  0.00    -0.135 A  
HETATM   11  C   UNL     1      -9.398   7.910  67.367  1.00  0.00    -0.169 A  
HETATM   12  N   UNL     1      -9.318   5.658  68.235  1.00  0.00    -0.110 NA 
HETATM   13  C   UNL     1      -9.768   9.278  67.439  1.00  0.00    -0.208 A  
HETATM   14  H   UNL     1      -9.211   5.275  67.296  1.00  0.00     0.000 HD 
HETATM   15  C   UNL     1      -9.188   4.812  69.396  1.00  0.00    -0.114 C  
HETATM   16  C   UNL     1      -9.439  10.125  66.229  1.00  0.00    -0.180 C  
HETATM   17  N   UNL     1     -10.386   4.903  70.204  1.00  0.00    -0.244 N  
HETATM   18  F   UNL     1     -10.003   9.614  65.097  1.00  0.00    -0.375 F  
HETATM   19  F   UNL     1      -8.096  10.131  65.986  1.00  0.00    -0.114 F  
HETATM   20  F   UNL     1      -9.807  11.428  66.252  1.00  0.00    -0.216 F  
HETATM   21  S   UNL     1     -10.537   6.418  70.903  1.00  0.00    -0.247 S  
HETATM   22  H   UNL     1     -11.052   4.142  70.332  1.00  0.00     0.000 HD 
HETATM   23  O   UNL     1      -9.450   6.549  71.849  1.00  0.00    -0.153 OA 
HETATM   24  O   UNL     1     -11.916   6.569  71.310  1.00  0.00    -0.336 OA 
ENDBRANCH   4   7
TORSDOF 1
ENDMDL
MODEL       78
REMARK 921   NORMALIZED FREE ENERGY PREDICTED BY IDOCK:   -4.55 KCAL/MOL
REMARK 922        TOTAL FREE ENERGY PREDICTED BY IDOCK:   -4.58 KCAL/MOL
REMARK 923 INTER-LIGAND FREE ENERGY PREDICTED BY IDOCK:   -5.40 KCAL/MOL
REMARK 924 INTRA-LIGAND FREE ENERGY PREDICTED BY IDOCK:    0.83 KCAL/MOL
REMARK 927      BINDING AFFINITY PREDICTED BY RF-SCORE:    0.00 PKD
ROOT
HETATM    1  N   UNL     1     -12.588  14.225  66.074  1.00  0.00    -0.433 N  
HETATM    2  H2  UNL     1     -13.316  13.524  65.942  1.00  0.00     0.000 HD 
HETATM    3  H1  UNL     1     -12.582  14.944  66.798  1.00  0.00     0.000 HD 
HETATM    4  S   UNL     1     -11.207  14.383  65.138  1.00  0.00    -0.380 S  
HETATM    5  O   UNL     1     -11.134  15.789  64.823  1.00  0.00    -0.446 OA 
HETATM    6  O   UNL     1     -11.215  13.368  64.116  1.00  0.00    -0.380 OA 
ENDROOT
BRANCH   4   7
HETATM    7  C   UNL     1      -9.934  13.990  66.308  1.00  0.00    -0.307 A  
HETATM    8  C   UNL     1      -9.030  15.011  66.619  1.00  0.00    -0.313 A  
HETATM    9  C   UNL     1      -8.060  14.806  67.603  1.00  0.00    -0.170 A  
HETATM   10  C   UNL     1      -7.949  13.603  68.297  1.00  0.00    -0.150 A  
HETATM   11  C   UNL     1      -8.866  12.595  67.971  1.00  0.00    -0.195 A  
HETATM   12  N   UNL     1      -7.088  13.425  69.378  1.00  0.00    -0.315 NA 
HETATM   13  C   UNL     1      -9.855  12.748  66.966  1.00  0.00    -0.231 A  
HETATM   14  H   UNL     1      -7.269  12.702  70.074  1.00  0.00     0.000 HD 
HETATM   15  C   UNL     1      -5.937  14.287  69.492  1.00  0.00    -0.106 C  
HETATM   16  C   UNL     1     -10.734  11.544  66.702  1.00  0.00    -0.268 C  
HETATM   17  N   UNL     1      -6.361  15.671  69.496  1.00  0.00    -0.156 N  
HETATM   18  F   UNL     1     -11.373  11.138  67.837  1.00  0.00    -0.288 F  
HETATM   19  F   UNL     1      -9.988  10.469  66.311  1.00  0.00    -0.229 F  
HETATM   20  F   UNL     1     -11.709  11.665  65.771  1.00  0.00    -0.344 F  
HETATM   21  S   UNL     1      -6.978  16.125  68.006  1.00  0.00    -0.136 S  
HETATM   22  H   UNL     1      -6.292  16.292  70.303  1.00  0.00     0.000 HD 
HETATM   23  O   UNL     1      -5.875  16.085  67.071  1.00  0.00    -0.341 OA 
HETATM   24  O   UNL     1      -7.755  17.327  68.210  1.00  0.00    -0.215 OA 
ENDBRANCH   4   7
TORSDOF 1
ENDMDL
MODEL       79
REMARK 921   NORMALIZED FREE ENERGY PREDICTED BY IDOCK:   -4.52 KCAL/MOL
REMARK 922        TOTAL FREE ENERGY PREDICTED BY IDOCK:   -4.55 KCAL/MOL
REMARK 923 INTER-LIGAND FREE ENERGY PREDICTED BY IDOCK:   -4.63 KCAL/MOL
REMARK 924 INTRA-LIGAND FREE ENERGY PREDICTED BY IDOCK:    0.08 KCAL/MOL
REMARK 927      BINDING AFFINITY PREDICTED BY RF-SCORE:    0.00 PKD
ROOT
HETATM    1  N   UNL     1     -10.274  10.609  65.980  1.00  0.00    -0.250 N  
HETATM    2  H2  UNL     1      -9.466  10.969  65.474  1.00  0.00     0.000 HD 
HETATM    3  H1  UNL     1     -11.033  10.062  65.571  1.00  0.00     0.000 HD 
HETATM    4  S   UNL     1     -10.572  10.819  67.615  1.00  0.00    -0.251 S  
HETATM    5  O   UNL     1     -11.950  11.242  67.687  1.00  0.00    -0.634 OA 
HETATM    6  O   UNL     1      -9.501  11.590  68.191  1.00  0.00    -0.171 OA 
ENDROOT
BRANCH   4   7
HETATM    7  C   UNL     1     -10.451   9.156  68.217  1.00  0.00    -0.208 A  
HETATM    8  C   UNL     1     -10.017   8.187  67.305  1.00  0.00    -0.283 A  
HETATM    9  C   UNL     1      -9.805   6.875  67.732  1.00  0.00    -0.136 A  
HETATM   10  C   UNL     1     -10.017   6.479  69.050  1.00  0.00    -0.145 A  
HETATM   11  C   UNL     1     -10.449   7.465  69.948  1.00  0.00    -0.238 A  
HETATM   12  N   UNL     1      -9.676   5.216  69.531  1.00  0.00    -0.173 NA 
HETATM   13  C   UNL     1     -10.699   8.806  69.558  1.00  0.00    -0.196 A  
HETATM   14  H   UNL     1      -9.502   5.066  70.524  1.00  0.00     0.000 HD 
HETATM   15  C   UNL     1      -9.573   4.126  68.591  1.00  0.00    -0.130 C  
HETATM   16  C   UNL     1     -11.211   9.733  70.640  1.00  0.00    -0.334 C  
HETATM   17  N   UNL     1      -8.627   4.466  67.549  1.00  0.00    -0.103 N  
HETATM   18  F   UNL     1     -10.357   9.774  71.703  1.00  0.00    -0.286 F  
HETATM   19  F   UNL     1     -12.393   9.283  71.151  1.00  0.00    -0.324 F  
HETATM   20  F   UNL     1     -11.429  11.028  70.310  1.00  0.00    -0.330 F  
HETATM   21  S   UNL     1      -9.208   5.700  66.576  1.00  0.00    -0.148 S  
HETATM   22  H   UNL     1      -7.722   4.012  67.423  1.00  0.00     0.000 HD 
HETATM   23  O   UNL     1     -10.352   5.165  65.868  1.00  0.00    -0.183 OA 
HETATM   24  O   UNL     1      -8.078   6.261  65.872  1.00  0.00    -0.111 OA 
ENDBRANCH   4   7
TORSDOF 1
ENDMDL
MODEL       80
REMARK 921   NORMALIZED FREE ENERGY PREDICTED BY IDOCK:   -4.49 KCAL/MOL
REMARK 922        TOTAL FREE ENERGY PREDICTED BY IDOCK:   -4.52 KCAL/MOL
REMARK 923 INTER-LIGAND FREE ENERGY PREDICTED BY IDOCK:   -4.57 KCAL/MOL
REMARK 924 INTRA-LIGAND FREE ENERGY PREDICTED BY IDOCK:    0.05 KCAL/MOL
REMARK 927      BINDING AFFINITY PREDICTED BY RF-SCORE:    0.00 PKD
ROOT
HETATM    1  N   UNL     1      -7.849  14.446  69.497  1.00  0.00    -0.373 N  
HETATM    2  H2  UNL     1      -7.842  14.309  70.507  1.00  0.00     0.000 HD 
HETATM    3  H1  UNL     1      -7.043  14.340  68.879  1.00  0.00     0.000 HD 
HETATM    4  S   UNL     1      -9.183  14.884  68.582  1.00  0.00    -0.196 S  
HETATM    5  O   UNL     1      -8.715  15.956  67.737  1.00  0.00    -0.168 OA 
HETATM    6  O   UNL     1     -10.320  15.035  69.454  1.00  0.00    -0.234 OA 
ENDROOT
BRANCH   4   7
HETATM    7  C   UNL     1      -9.427  13.436  67.589  1.00  0.00    -0.216 A  
HETATM    8  C   UNL     1      -8.582  12.349  67.844  1.00  0.00    -0.171 A  
HETATM    9  C   UNL     1      -8.778  11.142  67.169  1.00  0.00    -0.141 A  
HETATM   10  C   UNL     1      -9.792  10.972  66.230  1.00  0.00    -0.215 A  
HETATM   11  C   UNL     1     -10.628  12.072  65.992  1.00  0.00    -0.303 A  
HETATM   12  N   UNL     1     -10.096   9.741  65.653  1.00  0.00    -0.274 NA 
HETATM   13  C   UNL     1     -10.457  13.324  66.636  1.00  0.00    -0.279 A  
HETATM   14  H   UNL     1     -11.023   9.561  65.268  1.00  0.00     0.000 HD 
HETATM   15  C   UNL     1      -9.071   8.726  65.613  1.00  0.00    -0.191 C  
HETATM   16  C   UNL     1     -11.413  14.424  66.227  1.00  0.00    -0.359 C  
HETATM   17  N   UNL     1      -8.584   8.471  66.952  1.00  0.00    -0.115 N  
HETATM   18  F   UNL     1     -12.711  14.048  66.415  1.00  0.00    -0.470 F  
HETATM   19  F   UNL     1     -11.310  14.691  64.893  1.00  0.00    -0.335 F  
HETATM   20  F   UNL     1     -11.299  15.623  66.845  1.00  0.00    -0.291 F  
HETATM   21  S   UNL     1      -7.737   9.785  67.554  1.00  0.00    -0.094 S  
HETATM   22  H   UNL     1      -8.735   7.602  67.463  1.00  0.00     0.000 HD 
HETATM   23  O   UNL     1      -6.541   9.911  66.749  1.00  0.00    -0.069 OA 
HETATM   24  O   UNL     1      -7.670   9.633  68.989  1.00  0.00    -0.073 OA 
ENDBRANCH   4   7
TORSDOF 1
ENDMDL
MODEL       81
REMARK 921   NORMALIZED FREE ENERGY PREDICTED BY IDOCK:   -4.48 KCAL/MOL
REMARK 922        TOTAL FREE ENERGY PREDICTED BY IDOCK:   -4.50 KCAL/MOL
REMARK 923 INTER-LIGAND FREE ENERGY PREDICTED BY IDOCK:   -4.59 KCAL/MOL
REMARK 924 INTRA-LIGAND FREE ENERGY PREDICTED BY IDOCK:    0.09 KCAL/MOL
REMARK 927      BINDING AFFINITY PREDICTED BY RF-SCORE:    0.00 PKD
ROOT
HETATM    1  N   UNL     1      -8.585   7.460  65.126  1.00  0.00    -0.347 N  
HETATM    2  H2  UNL     1      -9.023   7.185  64.247  1.00  0.00     0.000 HD 
HETATM    3  H1  UNL     1      -7.902   8.210  65.238  1.00  0.00     0.000 HD 
HETATM    4  S   UNL     1      -8.869   6.753  66.618  1.00  0.00    -0.142 S  
HETATM    5  O   UNL     1      -7.556   6.522  67.172  1.00  0.00    -0.092 OA 
HETATM    6  O   UNL     1      -9.832   5.694  66.460  1.00  0.00    -0.152 OA 
ENDROOT
BRANCH   4   7
HETATM    7  C   UNL     1      -9.637   8.083  67.503  1.00  0.00    -0.153 A  
HETATM    8  C   UNL     1      -9.741   9.307  66.833  1.00  0.00    -0.248 A  
HETATM    9  C   UNL     1     -10.420  10.371  67.429  1.00  0.00    -0.249 A  
HETATM   10  C   UNL     1     -11.004  10.268  68.689  1.00  0.00    -0.244 A  
HETATM   11  C   UNL     1     -10.891   9.033  69.342  1.00  0.00    -0.152 A  
HETATM   12  N   UNL     1     -11.808  11.264  69.240  1.00  0.00    -0.329 NA 
HETATM   13  C   UNL     1     -10.194   7.929  68.787  1.00  0.00    -0.218 A  
HETATM   14  H   UNL     1     -12.493  11.041  69.962  1.00  0.00     0.000 HD 
HETATM   15  C   UNL     1     -11.648  12.618  68.768  1.00  0.00    -0.313 C  
HETATM   16  C   UNL     1     -10.122   6.683  69.645  1.00  0.00    -0.181 C  
HETATM   17  N   UNL     1     -11.827  12.659  67.332  1.00  0.00    -0.364 N  
HETATM   18  F   UNL     1     -11.367   6.243  69.986  1.00  0.00    -0.365 F  
HETATM   19  F   UNL     1      -9.498   6.941  70.831  1.00  0.00    -0.156 F  
HETATM   20  F   UNL     1      -9.491   5.600  69.133  1.00  0.00    -0.124 F  
HETATM   21  S   UNL     1     -10.578  11.873  66.539  1.00  0.00    -0.253 S  
HETATM   22  H   UNL     1     -12.613  13.109  66.863  1.00  0.00     0.000 HD 
HETATM   23  O   UNL     1      -9.382  12.651  66.778  1.00  0.00    -0.221 OA 
HETATM   24  O   UNL     1     -11.036  11.582  65.199  1.00  0.00    -0.287 OA 
ENDBRANCH   4   7
TORSDOF 1
ENDMDL
MODEL       82
REMARK 921   NORMALIZED FREE ENERGY PREDICTED BY IDOCK:   -4.46 KCAL/MOL
REMARK 922        TOTAL FREE ENERGY PREDICTED BY IDOCK:   -4.49 KCAL/MOL
REMARK 923 INTER-LIGAND FREE ENERGY PREDICTED BY IDOCK:   -5.31 KCAL/MOL
REMARK 924 INTRA-LIGAND FREE ENERGY PREDICTED BY IDOCK:    0.83 KCAL/MOL
REMARK 927      BINDING AFFINITY PREDICTED BY RF-SCORE:    0.00 PKD
ROOT
HETATM    1  N   UNL     1     -10.646   7.751  66.621  1.00  0.00    -0.454 N  
HETATM    2  H2  UNL     1     -10.672   6.771  66.901  1.00  0.00     0.000 HD 
HETATM    3  H1  UNL     1     -11.378   8.238  66.101  1.00  0.00     0.000 HD 
HETATM    4  S   UNL     1      -9.397   8.822  66.937  1.00  0.00    -0.180 S  
HETATM    5  O   UNL     1      -9.141   9.472  65.674  1.00  0.00    -0.171 OA 
HETATM    6  O   UNL     1      -8.365   8.134  67.669  1.00  0.00    -0.125 OA 
ENDROOT
BRANCH   4   7
HETATM    7  C   UNL     1     -10.183   9.977  68.027  1.00  0.00    -0.181 A  
HETATM    8  C   UNL     1     -10.298  11.295  67.570  1.00  0.00    -0.224 A  
HETATM    9  C   UNL     1     -10.991  12.238  68.331  1.00  0.00    -0.236 A  
HETATM   10  C   UNL     1     -11.578  11.920  69.553  1.00  0.00    -0.327 A  
HETATM   11  C   UNL     1     -11.454  10.595  69.992  1.00  0.00    -0.404 A  
HETATM   12  N   UNL     1     -12.394  12.802  70.259  1.00  0.00    -0.253 NA 
HETATM   13  C   UNL     1     -10.742   9.606  69.264  1.00  0.00    -0.246 A  
HETATM   14  H   UNL     1     -13.080  12.455  70.929  1.00  0.00     0.000 HD 
HETATM   15  C   UNL     1     -12.248  14.218  70.019  1.00  0.00    -0.359 C  
HETATM   16  C   UNL     1     -10.659   8.236  69.903  1.00  0.00    -0.232 C  
HETATM   17  N   UNL     1     -12.423  14.496  68.609  1.00  0.00    -0.566 N  
HETATM   18  F   UNL     1     -11.901   7.732  70.160  1.00  0.00    -0.146 F  
HETATM   19  F   UNL     1     -10.043   8.298  71.118  1.00  0.00    -0.196 F  
HETATM   20  F   UNL     1     -10.015   7.259  69.221  1.00  0.00    -0.161 F  
HETATM   21  S   UNL     1     -11.162  13.866  67.702  1.00  0.00    -0.309 S  
HETATM   22  H   UNL     1     -13.212  15.010  68.218  1.00  0.00     0.000 HD 
HETATM   23  O   UNL     1      -9.975  14.604  68.074  1.00  0.00    -0.215 OA 
HETATM   24  O   UNL     1     -11.612  13.797  66.331  1.00  0.00    -0.331 OA 
ENDBRANCH   4   7
TORSDOF 1
ENDMDL
MODEL       83
REMARK 921   NORMALIZED FREE ENERGY PREDICTED BY IDOCK:   -4.45 KCAL/MOL
REMARK 922        TOTAL FREE ENERGY PREDICTED BY IDOCK:   -4.47 KCAL/MOL
REMARK 923 INTER-LIGAND FREE ENERGY PREDICTED BY IDOCK:   -4.69 KCAL/MOL
REMARK 924 INTRA-LIGAND FREE ENERGY PREDICTED BY IDOCK:    0.21 KCAL/MOL
REMARK 927      BINDING AFFINITY PREDICTED BY RF-SCORE:    0.00 PKD
ROOT
HETATM    1  N   UNL     1      -7.601  10.348  63.389  1.00  0.00    -0.286 N  
HETATM    2  H2  UNL     1      -7.932  10.513  62.439  1.00  0.00     0.000 HD 
HETATM    3  H1  UNL     1      -7.161  11.043  63.992  1.00  0.00     0.000 HD 
HETATM    4  S   UNL     1      -7.691   8.891  64.212  1.00  0.00    -0.129 S  
HETATM    5  O   UNL     1      -6.374   8.702  64.771  1.00  0.00    -0.064 OA 
HETATM    6  O   UNL     1      -8.312   7.909  63.360  1.00  0.00    -0.067 OA 
ENDROOT
BRANCH   4   7
HETATM    7  C   UNL     1      -8.818   9.289  65.521  1.00  0.00    -0.187 A  
HETATM    8  C   UNL     1      -9.157  10.638  65.670  1.00  0.00    -0.206 A  
HETATM    9  C   UNL     1     -10.112  11.015  66.617  1.00  0.00    -0.220 A  
HETATM   10  C   UNL     1     -10.749  10.089  67.439  1.00  0.00    -0.274 A  
HETATM   11  C   UNL     1     -10.397   8.743  67.271  1.00  0.00    -0.360 A  
HETATM   12  N   UNL     1     -11.805  10.422  68.285  1.00  0.00    -0.760 NA 
HETATM   13  C   UNL     1      -9.418   8.312  66.339  1.00  0.00    -0.287 A  
HETATM   14  H   UNL     1     -12.471   9.713  68.591  1.00  0.00     0.000 HD 
HETATM   15  C   UNL     1     -11.935  11.792  68.719  1.00  0.00    -0.257 C  
HETATM   16  C   UNL     1      -9.119   6.829  66.319  1.00  0.00    -0.139 C  
HETATM   17  N   UNL     1     -12.009  12.665  67.567  1.00  0.00    -0.324 N  
HETATM   18  F   UNL     1     -10.247   6.098  66.086  1.00  0.00    -0.166 F  
HETATM   19  F   UNL     1      -8.666   6.405  67.535  1.00  0.00    -0.115 F  
HETATM   20  F   UNL     1      -8.213   6.379  65.420  1.00  0.00    -0.117 F  
HETATM   21  S   UNL     1     -10.553  12.707  66.739  1.00  0.00    -0.239 S  
HETATM   22  H   UNL     1     -12.841  13.188  67.294  1.00  0.00     0.000 HD 
HETATM   23  O   UNL     1      -9.596  13.345  67.618  1.00  0.00    -0.207 OA 
HETATM   24  O   UNL     1     -10.825  13.222  65.416  1.00  0.00    -0.282 OA 
ENDBRANCH   4   7
TORSDOF 1
ENDMDL
MODEL       84
REMARK 921   NORMALIZED FREE ENERGY PREDICTED BY IDOCK:   -4.44 KCAL/MOL
REMARK 922        TOTAL FREE ENERGY PREDICTED BY IDOCK:   -4.46 KCAL/MOL
REMARK 923 INTER-LIGAND FREE ENERGY PREDICTED BY IDOCK:   -4.51 KCAL/MOL
REMARK 924 INTRA-LIGAND FREE ENERGY PREDICTED BY IDOCK:    0.05 KCAL/MOL
REMARK 927      BINDING AFFINITY PREDICTED BY RF-SCORE:    0.00 PKD
ROOT
HETATM    1  N   UNL     1     -11.984   6.681  69.761  1.00  0.00    -0.618 N  
HETATM    2  H2  UNL     1     -12.524   6.550  70.616  1.00  0.00     0.000 HD 
HETATM    3  H1  UNL     1     -12.366   6.957  68.856  1.00  0.00     0.000 HD 
HETATM    4  S   UNL     1     -10.327   6.480  69.616  1.00  0.00    -0.211 S  
HETATM    5  O   UNL     1     -10.157   5.673  68.431  1.00  0.00    -0.149 OA 
HETATM    6  O   UNL     1      -9.788   6.091  70.893  1.00  0.00    -0.178 OA 
ENDROOT
BRANCH   4   7
HETATM    7  C   UNL     1      -9.796   8.134  69.264  1.00  0.00    -0.182 A  
HETATM    8  C   UNL     1     -10.783   9.126  69.268  1.00  0.00    -0.199 A  
HETATM    9  C   UNL     1     -10.425  10.465  69.096  1.00  0.00    -0.227 A  
HETATM   10  C   UNL     1      -9.103  10.863  68.908  1.00  0.00    -0.144 A  
HETATM   11  C   UNL     1      -8.130   9.854  68.910  1.00  0.00    -0.105 A  
HETATM   12  N   UNL     1      -8.707  12.198  68.879  1.00  0.00    -0.363 NA 
HETATM   13  C   UNL     1      -8.446   8.479  69.060  1.00  0.00    -0.126 A  
HETATM   14  H   UNL     1      -7.747  12.462  69.099  1.00  0.00     0.000 HD 
HETATM   15  C   UNL     1      -9.685  13.200  68.530  1.00  0.00    -0.137 C  
HETATM   16  C   UNL     1      -7.282   7.513  68.987  1.00  0.00    -0.085 C  
HETATM   17  N   UNL     1     -10.823  13.103  69.420  1.00  0.00    -0.447 N  
HETATM   18  F   UNL     1      -6.330   7.812  69.917  1.00  0.00    -0.029 F  
HETATM   19  F   UNL     1      -6.645   7.604  67.784  1.00  0.00    -0.053 F  
HETATM   20  F   UNL     1      -7.543   6.196  69.159  1.00  0.00    -0.085 F  
HETATM   21  S   UNL     1     -11.680  11.687  69.162  1.00  0.00    -0.341 S  
HETATM   22  H   UNL     1     -11.071  13.807  70.114  1.00  0.00     0.000 HD 
HETATM   23  O   UNL     1     -12.260  11.789  67.840  1.00  0.00    -0.538 OA 
HETATM   24  O   UNL     1     -12.499  11.460  70.331  1.00  0.00    -0.298 OA 
ENDBRANCH   4   7
TORSDOF 1
ENDMDL
MODEL       85
REMARK 921   NORMALIZED FREE ENERGY PREDICTED BY IDOCK:   -4.42 KCAL/MOL
REMARK 922        TOTAL FREE ENERGY PREDICTED BY IDOCK:   -4.45 KCAL/MOL
REMARK 923 INTER-LIGAND FREE ENERGY PREDICTED BY IDOCK:   -4.52 KCAL/MOL
REMARK 924 INTRA-LIGAND FREE ENERGY PREDICTED BY IDOCK:    0.07 KCAL/MOL
REMARK 927      BINDING AFFINITY PREDICTED BY RF-SCORE:    0.00 PKD
ROOT
HETATM    1  N   UNL     1      -9.690  14.077  65.700  1.00  0.00    -0.516 N  
HETATM    2  H2  UNL     1      -8.871  14.684  65.722  1.00  0.00     0.000 HD 
HETATM    3  H1  UNL     1     -10.094  13.658  64.862  1.00  0.00     0.000 HD 
HETATM    4  S   UNL     1     -10.589  13.607  67.033  1.00  0.00    -0.274 S  
HETATM    5  O   UNL     1     -11.962  13.829  66.648  1.00  0.00    -0.388 OA 
HETATM    6  O   UNL     1     -10.019  14.199  68.216  1.00  0.00    -0.228 OA 
ENDROOT
BRANCH   4   7
HETATM    7  C   UNL     1     -10.281  11.862  67.076  1.00  0.00    -0.210 A  
HETATM    8  C   UNL     1      -9.476  11.341  66.056  1.00  0.00    -0.240 A  
HETATM    9  C   UNL     1      -9.110   9.993  66.079  1.00  0.00    -0.155 A  
HETATM   10  C   UNL     1      -9.526   9.127  67.087  1.00  0.00    -0.154 A  
HETATM   11  C   UNL     1     -10.329   9.670  68.100  1.00  0.00    -0.250 A  
HETATM   12  N   UNL     1      -9.058   7.820  67.209  1.00  0.00    -0.129 NA 
HETATM   13  C   UNL     1     -10.744  11.027  68.110  1.00  0.00    -0.246 A  
HETATM   14  H   UNL     1      -9.081   7.340  68.109  1.00  0.00     0.000 HD 
HETATM   15  C   UNL     1      -8.540   7.162  66.035  1.00  0.00    -0.152 C  
HETATM   16  C   UNL     1     -11.652  11.440  69.248  1.00  0.00    -0.317 C  
HETATM   17  N   UNL     1      -7.473   7.954  65.460  1.00  0.00    -0.076 N  
HETATM   18  F   UNL     1     -11.078  11.185  70.459  1.00  0.00    -0.279 F  
HETATM   19  F   UNL     1     -12.807  10.713  69.242  1.00  0.00    -0.167 F  
HETATM   20  F   UNL     1     -12.042  12.735  69.307  1.00  0.00    -0.321 F  
HETATM   21  S   UNL     1      -8.056   9.386  64.816  1.00  0.00    -0.141 S  
HETATM   22  H   UNL     1      -6.492   7.675  65.448  1.00  0.00     0.000 HD 
HETATM   23  O   UNL     1      -8.889   9.025  63.689  1.00  0.00    -0.143 OA 
HETATM   24  O   UNL     1      -6.931  10.282  64.670  1.00  0.00    -0.133 OA 
ENDBRANCH   4   7
TORSDOF 1
ENDMDL
MODEL       86
REMARK 921   NORMALIZED FREE ENERGY PREDICTED BY IDOCK:   -4.40 KCAL/MOL
REMARK 922        TOTAL FREE ENERGY PREDICTED BY IDOCK:   -4.42 KCAL/MOL
REMARK 923 INTER-LIGAND FREE ENERGY PREDICTED BY IDOCK:   -5.47 KCAL/MOL
REMARK 924 INTRA-LIGAND FREE ENERGY PREDICTED BY IDOCK:    1.05 KCAL/MOL
REMARK 927      BINDING AFFINITY PREDICTED BY RF-SCORE:    0.00 PKD
ROOT
HETATM    1  N   UNL     1      -8.084  11.123  69.551  1.00  0.00    -0.353 N  
HETATM    2  H2  UNL     1      -7.090  11.342  69.492  1.00  0.00     0.000 HD 
HETATM    3  H1  UNL     1      -8.768  11.621  70.122  1.00  0.00     0.000 HD 
HETATM    4  S   UNL     1      -8.860   9.887  68.726  1.00  0.00    -0.143 S  
HETATM    5  O   UNL     1      -9.657   9.221  69.727  1.00  0.00    -0.170 OA 
HETATM    6  O   UNL     1      -7.895   9.184  67.921  1.00  0.00    -0.099 OA 
ENDROOT
BRANCH   4   7
HETATM    7  C   UNL     1      -9.934  10.796  67.648  1.00  0.00    -0.173 A  
HETATM    8  C   UNL     1      -9.606  10.796  66.288  1.00  0.00    -0.234 A  
HETATM    9  C   UNL     1     -10.459  11.408  65.367  1.00  0.00    -0.280 A  
HETATM   10  C   UNL     1     -11.641  12.036  65.751  1.00  0.00    -0.290 A  
HETATM   11  C   UNL     1     -11.951  12.022  67.118  1.00  0.00    -0.105 A  
HETATM   12  N   UNL     1     -12.575  12.525  64.840  1.00  0.00    -0.653 NA 
HETATM   13  C   UNL     1     -11.108  11.432  68.094  1.00  0.00    -0.306 A  
HETATM   14  H   UNL     1     -13.551  12.644  65.108  1.00  0.00     0.000 HD 
HETATM   15  C   UNL     1     -12.130  12.858  63.508  1.00  0.00    -0.555 C  
HETATM   16  C   UNL     1     -11.566  11.549  69.532  1.00  0.00    -0.333 C  
HETATM   17  N   UNL     1     -11.492  11.707  62.904  1.00  0.00    -0.644 N  
HETATM   18  F   UNL     1     -12.811  11.018  69.702  1.00  0.00    -0.265 F  
HETATM   19  F   UNL     1     -11.683  12.857  69.904  1.00  0.00    -0.349 F  
HETATM   20  F   UNL     1     -10.801  10.969  70.487  1.00  0.00    -0.187 F  
HETATM   21  S   UNL     1     -10.045  11.342  63.664  1.00  0.00    -0.422 S  
HETATM   22  H   UNL     1     -11.875  11.186  62.115  1.00  0.00     0.000 HD 
HETATM   23  O   UNL     1      -9.144  12.441  63.391  1.00  0.00     0.284 OA 
HETATM   24  O   UNL     1      -9.706   9.981  63.313  1.00  0.00    -0.197 OA 
ENDBRANCH   4   7
TORSDOF 1
ENDMDL
MODEL       87
REMARK 921   NORMALIZED FREE ENERGY PREDICTED BY IDOCK:   -4.36 KCAL/MOL
REMARK 922        TOTAL FREE ENERGY PREDICTED BY IDOCK:   -4.37 KCAL/MOL
REMARK 923 INTER-LIGAND FREE ENERGY PREDICTED BY IDOCK:   -4.43 KCAL/MOL
REMARK 924 INTRA-LIGAND FREE ENERGY PREDICTED BY IDOCK:    0.05 KCAL/MOL
REMARK 927      BINDING AFFINITY PREDICTED BY RF-SCORE:    0.00 PKD
ROOT
HETATM    1  N   UNL     1     -11.381   7.677  73.281  1.00  0.00    -0.558 N  
HETATM    2  H2  UNL     1     -12.254   7.601  73.803  1.00  0.00     0.000 HD 
HETATM    3  H1  UNL     1     -10.447   7.537  73.666  1.00  0.00     0.000 HD 
HETATM    4  S   UNL     1     -11.251   8.052  71.653  1.00  0.00    -0.268 S  
HETATM    5  O   UNL     1     -10.233   9.073  71.592  1.00  0.00    -0.317 OA 
HETATM    6  O   UNL     1     -12.570   8.250  71.111  1.00  0.00    -0.257 OA 
ENDROOT
BRANCH   4   7
HETATM    7  C   UNL     1     -10.592   6.546  70.990  1.00  0.00    -0.231 A  
HETATM    8  C   UNL     1     -10.442   5.479  71.883  1.00  0.00    -0.282 A  
HETATM    9  C   UNL     1     -10.021   4.233  71.414  1.00  0.00    -0.168 A  
HETATM   10  C   UNL     1      -9.732   4.003  70.071  1.00  0.00    -0.193 A  
HETATM   11  C   UNL     1      -9.891   5.085  69.193  1.00  0.00    -0.262 A  
HETATM   12  N   UNL     1      -9.452   2.739  69.558  1.00  0.00    -0.119 NA 
HETATM   13  C   UNL     1     -10.296   6.374  69.625  1.00  0.00    -0.249 A  
HETATM   14  H   UNL     1      -9.597   2.534  68.569  1.00  0.00     0.000 HD 
HETATM   15  C   UNL     1      -8.952   1.726  70.455  1.00  0.00    -0.076 C  
HETATM   16  C   UNL     1     -10.370   7.445  68.557  1.00  0.00    -0.198 C  
HETATM   17  N   UNL     1      -9.873   1.553  71.559  1.00  0.00    -0.136 N  
HETATM   18  F   UNL     1     -11.206   7.078  67.543  1.00  0.00    -0.316 F  
HETATM   19  F   UNL     1      -9.154   7.630  67.965  1.00  0.00    -0.134 F  
HETATM   20  F   UNL     1     -10.783   8.679  68.928  1.00  0.00    -0.234 F  
HETATM   21  S   UNL     1      -9.897   2.904  72.550  1.00  0.00    -0.160 S  
HETATM   22  H   UNL     1     -10.435   0.716  71.714  1.00  0.00     0.000 HD 
HETATM   23  O   UNL     1      -8.593   2.983  73.174  1.00  0.00    -0.079 OA 
HETATM   24  O   UNL     1     -11.108   2.839  73.336  1.00  0.00    -0.192 OA 
ENDBRANCH   4   7
TORSDOF 1
ENDMDL
MODEL       88
REMARK 921   NORMALIZED FREE ENERGY PREDICTED BY IDOCK:   -4.36 KCAL/MOL
REMARK 922        TOTAL FREE ENERGY PREDICTED BY IDOCK:   -4.37 KCAL/MOL
REMARK 923 INTER-LIGAND FREE ENERGY PREDICTED BY IDOCK:   -4.45 KCAL/MOL
REMARK 924 INTRA-LIGAND FREE ENERGY PREDICTED BY IDOCK:    0.08 KCAL/MOL
REMARK 927      BINDING AFFINITY PREDICTED BY RF-SCORE:    0.00 PKD
ROOT
HETATM    1  N   UNL     1      -9.919  11.863  64.750  1.00  0.00    -0.304 N  
HETATM    2  H2  UNL     1      -9.128  12.369  64.354  1.00  0.00     0.000 HD 
HETATM    3  H1  UNL     1     -10.375  11.053  64.331  1.00  0.00     0.000 HD 
HETATM    4  S   UNL     1     -10.682  12.230  66.197  1.00  0.00    -0.271 S  
HETATM    5  O   UNL     1     -12.091  12.216  65.883  1.00  0.00    -0.594 OA 
HETATM    6  O   UNL     1     -10.039  13.374  66.789  1.00  0.00    -0.250 OA 
ENDROOT
BRANCH   4   7
HETATM    7  C   UNL     1     -10.299  10.803  67.175  1.00  0.00    -0.224 A  
HETATM    8  C   UNL     1      -9.405   9.880  66.619  1.00  0.00    -0.196 A  
HETATM    9  C   UNL     1      -8.981   8.782  67.370  1.00  0.00    -0.133 A  
HETATM   10  C   UNL     1      -9.423   8.556  68.671  1.00  0.00    -0.143 A  
HETATM   11  C   UNL     1     -10.316   9.493  69.210  1.00  0.00    -0.219 A  
HETATM   12  N   UNL     1      -8.906   7.553  69.488  1.00  0.00    -0.137 NA 
HETATM   13  C   UNL     1     -10.791  10.613  68.480  1.00  0.00    -0.275 A  
HETATM   14  H   UNL     1      -8.967   7.624  70.503  1.00  0.00     0.000 HD 
HETATM   15  C   UNL     1      -8.281   6.411  68.865  1.00  0.00    -0.118 C  
HETATM   16  C   UNL     1     -11.791  11.500  69.191  1.00  0.00    -0.340 C  
HETATM   17  N   UNL     1      -7.216   6.853  67.990  1.00  0.00    -0.089 N  
HETATM   18  F   UNL     1     -11.288  11.970  70.369  1.00  0.00    -0.221 F  
HETATM   19  F   UNL     1     -12.909  10.798  69.538  1.00  0.00    -0.296 F  
HETATM   20  F   UNL     1     -12.242  12.595  68.536  1.00  0.00    -0.333 F  
HETATM   21  S   UNL     1      -7.819   7.677  66.662  1.00  0.00    -0.108 S  
HETATM   22  H   UNL     1      -6.225   6.684  68.161  1.00  0.00     0.000 HD 
HETATM   23  O   UNL     1      -8.557   6.712  65.876  1.00  0.00    -0.143 OA 
HETATM   24  O   UNL     1      -6.728   8.438  66.096  1.00  0.00    -0.059 OA 
ENDBRANCH   4   7
TORSDOF 1
ENDMDL
MODEL       89
REMARK 921   NORMALIZED FREE ENERGY PREDICTED BY IDOCK:   -4.34 KCAL/MOL
REMARK 922        TOTAL FREE ENERGY PREDICTED BY IDOCK:   -4.36 KCAL/MOL
REMARK 923 INTER-LIGAND FREE ENERGY PREDICTED BY IDOCK:   -4.42 KCAL/MOL
REMARK 924 INTRA-LIGAND FREE ENERGY PREDICTED BY IDOCK:    0.06 KCAL/MOL
REMARK 927      BINDING AFFINITY PREDICTED BY RF-SCORE:    0.00 PKD
ROOT
HETATM    1  N   UNL     1     -11.703  14.925  66.642  1.00  0.00    -0.280 N  
HETATM    2  H2  UNL     1     -12.206  14.558  65.835  1.00  0.00     0.000 HD 
HETATM    3  H1  UNL     1     -11.770  14.567  67.595  1.00  0.00     0.000 HD 
HETATM    4  S   UNL     1     -10.630  16.212  66.618  1.00  0.00    -0.230 S  
HETATM    5  O   UNL     1     -11.031  17.046  67.725  1.00  0.00    -0.316 OA 
HETATM    6  O   UNL     1     -10.535  16.718  65.272  1.00  0.00    -0.630 OA 
ENDROOT
BRANCH   4   7
HETATM    7  C   UNL     1      -9.102  15.413  67.025  1.00  0.00    -0.227 A  
HETATM    8  C   UNL     1      -9.134  14.019  67.146  1.00  0.00    -0.239 A  
HETATM    9  C   UNL     1      -7.951  13.312  67.369  1.00  0.00    -0.170 A  
HETATM   10  C   UNL     1      -6.717  13.947  67.486  1.00  0.00    -0.114 A  
HETATM   11  C   UNL     1      -6.706  15.343  67.360  1.00  0.00    -0.178 A  
HETATM   12  N   UNL     1      -5.509  13.256  67.564  1.00  0.00    -0.328 NA 
HETATM   13  C   UNL     1      -7.884  16.107  67.153  1.00  0.00    -0.234 A  
HETATM   14  H   UNL     1      -4.634  13.704  67.293  1.00  0.00     0.000 HD 
HETATM   15  C   UNL     1      -5.524  11.893  68.037  1.00  0.00    -0.049 C  
HETATM   16  C   UNL     1      -7.705  17.609  67.090  1.00  0.00    -0.207 C  
HETATM   17  N   UNL     1      -6.426  11.104  67.224  1.00  0.00    -0.071 N  
HETATM   18  F   UNL     1      -6.819  17.962  66.115  1.00  0.00    -0.224 F  
HETATM   19  F   UNL     1      -7.167  18.087  68.249  1.00  0.00    -0.215 F  
HETATM   20  F   UNL     1      -8.803  18.366  66.862  1.00  0.00    -0.252 F  
HETATM   21  S   UNL     1      -8.020  11.563  67.460  1.00  0.00    -0.141 S  
HETATM   22  H   UNL     1      -6.129  10.362  66.590  1.00  0.00     0.000 HD 
HETATM   23  O   UNL     1      -8.355  11.210  68.823  1.00  0.00    -0.150 OA 
HETATM   24  O   UNL     1      -8.783  11.061  66.340  1.00  0.00    -0.161 OA 
ENDBRANCH   4   7
TORSDOF 1
ENDMDL
MODEL       90
REMARK 921   NORMALIZED FREE ENERGY PREDICTED BY IDOCK:   -4.34 KCAL/MOL
REMARK 922        TOTAL FREE ENERGY PREDICTED BY IDOCK:   -4.35 KCAL/MOL
REMARK 923 INTER-LIGAND FREE ENERGY PREDICTED BY IDOCK:   -5.23 KCAL/MOL
REMARK 924 INTRA-LIGAND FREE ENERGY PREDICTED BY IDOCK:    0.88 KCAL/MOL
REMARK 927      BINDING AFFINITY PREDICTED BY RF-SCORE:    0.00 PKD
ROOT
HETATM    1  N   UNL     1     -11.766   8.033  72.910  1.00  0.00    -0.566 N  
HETATM    2  H2  UNL     1     -11.337   7.109  72.881  1.00  0.00     0.000 HD 
HETATM    3  H1  UNL     1     -11.481   8.800  73.520  1.00  0.00     0.000 HD 
HETATM    4  S   UNL     1     -13.054   8.539  71.965  1.00  0.00    -0.375 S  
HETATM    5  O   UNL     1     -13.967   9.165  72.891  1.00  0.00    -0.427 OA 
HETATM    6  O   UNL     1     -13.457   7.456  71.105  1.00  0.00    -0.305 OA 
ENDROOT
BRANCH   4   7
HETATM    7  C   UNL     1     -12.296   9.794  70.969  1.00  0.00    -0.332 A  
HETATM    8  C   UNL     1     -12.667  11.117  71.236  1.00  0.00    -0.531 A  
HETATM    9  C   UNL     1     -12.040  12.165  70.559  1.00  0.00    -0.293 A  
HETATM   10  C   UNL     1     -11.048  11.946  69.606  1.00  0.00    -0.037 A  
HETATM   11  C   UNL     1     -10.690  10.614  69.356  1.00  0.00    -0.281 A  
HETATM   12  N   UNL     1     -10.310  12.976  69.025  1.00  0.00    -0.436 NA 
HETATM   13  C   UNL     1     -11.312   9.515  70.002  1.00  0.00    -0.204 A  
HETATM   14  H   UNL     1      -9.388  12.796  68.628  1.00  0.00     0.000 HD 
HETATM   15  C   UNL     1     -10.878  14.301  68.999  1.00  0.00    -0.255 C  
HETATM   16  C   UNL     1     -10.844   8.138  69.580  1.00  0.00    -0.158 C  
HETATM   17  N   UNL     1     -11.217  14.714  70.344  1.00  0.00    -0.455 N  
HETATM   18  F   UNL     1      -9.498   7.998  69.750  1.00  0.00    -0.157 F  
HETATM   19  F   UNL     1     -11.057   7.937  68.247  1.00  0.00    -0.093 F  
HETATM   20  F   UNL     1     -11.394   7.067  70.199  1.00  0.00    -0.286 F  
HETATM   21  S   UNL     1     -12.489  13.812  70.958  1.00  0.00    -0.373 S  
HETATM   22  H   UNL     1     -10.743  15.460  70.854  1.00  0.00     0.000 HD 
HETATM   23  O   UNL     1     -13.654  14.149  70.169  1.00  0.00     0.515 OA 
HETATM   24  O   UNL     1     -12.476  13.971  72.394  1.00  0.00    -0.181 OA 
ENDBRANCH   4   7
TORSDOF 1
ENDMDL
MODEL       91
REMARK 921   NORMALIZED FREE ENERGY PREDICTED BY IDOCK:   -4.33 KCAL/MOL
REMARK 922        TOTAL FREE ENERGY PREDICTED BY IDOCK:   -4.35 KCAL/MOL
REMARK 923 INTER-LIGAND FREE ENERGY PREDICTED BY IDOCK:   -4.40 KCAL/MOL
REMARK 924 INTRA-LIGAND FREE ENERGY PREDICTED BY IDOCK:    0.05 KCAL/MOL
REMARK 927      BINDING AFFINITY PREDICTED BY RF-SCORE:    0.00 PKD
ROOT
HETATM    1  N   UNL     1      -7.093   4.053  70.116  1.00  0.00    -0.041 N  
HETATM    2  H2  UNL     1      -7.048   3.175  70.633  1.00  0.00     0.000 HD 
HETATM    3  H1  UNL     1      -6.450   4.339  69.377  1.00  0.00     0.000 HD 
HETATM    4  S   UNL     1      -8.236   5.257  70.341  1.00  0.00    -0.105 S  
HETATM    5  O   UNL     1      -7.473   6.479  70.417  1.00  0.00    -0.089 OA 
HETATM    6  O   UNL     1      -9.144   4.854  71.384  1.00  0.00    -0.137 OA 
ENDROOT
BRANCH   4   7
HETATM    7  C   UNL     1      -9.105   5.219  68.796  1.00  0.00    -0.112 A  
HETATM    8  C   UNL     1      -8.677   4.274  67.857  1.00  0.00    -0.119 A  
HETATM    9  C   UNL     1      -9.375   4.120  66.657  1.00  0.00    -0.177 A  
HETATM   10  C   UNL     1     -10.495   4.886  66.345  1.00  0.00    -0.280 A  
HETATM   11  C   UNL     1     -10.908   5.825  67.300  1.00  0.00    -0.290 A  
HETATM   12  N   UNL     1     -11.289   4.652  65.225  1.00  0.00    -1.078 NA 
HETATM   13  C   UNL     1     -10.221   6.033  68.524  1.00  0.00    -0.227 A  
HETATM   14  H   UNL     1     -12.261   4.960  65.201  1.00  0.00     0.000 HD 
HETATM   15  C   UNL     1     -10.707   3.963  64.098  1.00  0.00    -0.211 C  
HETATM   16  C   UNL     1     -10.769   7.122  69.422  1.00  0.00    -0.231 C  
HETATM   17  N   UNL     1     -10.173   2.688  64.527  1.00  0.00    -0.365 N  
HETATM   18  F   UNL     1     -12.079   6.900  69.728  1.00  0.00    -0.214 F  
HETATM   19  F   UNL     1     -10.751   8.332  68.792  1.00  0.00    -0.226 F  
HETATM   20  F   UNL     1     -10.156   7.326  70.612  1.00  0.00    -0.192 F  
HETATM   21  S   UNL     1      -8.844   2.888  65.528  1.00  0.00    -0.134 S  
HETATM   22  H   UNL     1     -10.556   1.783  64.255  1.00  0.00     0.000 HD 
HETATM   23  O   UNL     1      -7.796   3.466  64.714  1.00  0.00    -0.077 OA 
HETATM   24  O   UNL     1      -8.650   1.646  66.240  1.00  0.00    -0.097 OA 
ENDBRANCH   4   7
TORSDOF 1
ENDMDL
MODEL       92
REMARK 921   NORMALIZED FREE ENERGY PREDICTED BY IDOCK:   -4.32 KCAL/MOL
REMARK 922        TOTAL FREE ENERGY PREDICTED BY IDOCK:   -4.33 KCAL/MOL
REMARK 923 INTER-LIGAND FREE ENERGY PREDICTED BY IDOCK:   -4.39 KCAL/MOL
REMARK 924 INTRA-LIGAND FREE ENERGY PREDICTED BY IDOCK:    0.06 KCAL/MOL
REMARK 927      BINDING AFFINITY PREDICTED BY RF-SCORE:    0.00 PKD
ROOT
HETATM    1  N   UNL     1      -7.917   7.322  66.791  1.00  0.00    -0.116 N  
HETATM    2  H2  UNL     1      -8.138   6.672  66.037  1.00  0.00     0.000 HD 
HETATM    3  H1  UNL     1      -7.294   8.126  66.717  1.00  0.00     0.000 HD 
HETATM    4  S   UNL     1      -8.519   7.240  68.353  1.00  0.00    -0.124 S  
HETATM    5  O   UNL     1      -7.363   7.398  69.202  1.00  0.00    -0.085 OA 
HETATM    6  O   UNL     1      -9.399   6.105  68.457  1.00  0.00    -0.118 OA 
ENDROOT
BRANCH   4   7
HETATM    7  C   UNL     1      -9.497   8.716  68.436  1.00  0.00    -0.138 A  
HETATM    8  C   UNL     1      -9.607   9.466  67.259  1.00  0.00    -0.194 A  
HETATM    9  C   UNL     1     -10.438  10.587  67.223  1.00  0.00    -0.250 A  
HETATM   10  C   UNL     1     -11.172  11.004  68.331  1.00  0.00    -0.274 A  
HETATM   11  C   UNL     1     -11.050  10.238  69.498  1.00  0.00    -0.310 A  
HETATM   12  N   UNL     1     -12.115  12.029  68.277  1.00  0.00    -0.421 NA 
HETATM   13  C   UNL     1     -10.203   9.104  69.591  1.00  0.00    -0.211 A  
HETATM   14  H   UNL     1     -12.869  12.079  68.962  1.00  0.00     0.000 HD 
HETATM   15  C   UNL     1     -12.000  13.017  67.233  1.00  0.00    -0.321 C  
HETATM   16  C   UNL     1     -10.147   8.419  70.940  1.00  0.00    -0.194 C  
HETATM   17  N   UNL     1     -11.993  12.365  65.941  1.00  0.00    -0.416 N  
HETATM   18  F   UNL     1     -11.389   8.030  71.351  1.00  0.00    -0.248 F  
HETATM   19  F   UNL     1      -9.705   9.275  71.906  1.00  0.00    -0.356 F  
HETATM   20  F   UNL     1      -9.373   7.314  71.055  1.00  0.00    -0.155 F  
HETATM   21  S   UNL     1     -10.594  11.470  65.717  1.00  0.00    -0.261 S  
HETATM   22  H   UNL     1     -12.743  12.440  65.254  1.00  0.00     0.000 HD 
HETATM   23  O   UNL     1      -9.502  12.417  65.651  1.00  0.00    -0.168 OA 
HETATM   24  O   UNL     1     -10.849  10.534  64.645  1.00  0.00    -0.028 OA 
ENDBRANCH   4   7
TORSDOF 1
ENDMDL
MODEL       93
REMARK 921   NORMALIZED FREE ENERGY PREDICTED BY IDOCK:   -4.31 KCAL/MOL
REMARK 922        TOTAL FREE ENERGY PREDICTED BY IDOCK:   -4.33 KCAL/MOL
REMARK 923 INTER-LIGAND FREE ENERGY PREDICTED BY IDOCK:   -4.45 KCAL/MOL
REMARK 924 INTRA-LIGAND FREE ENERGY PREDICTED BY IDOCK:    0.12 KCAL/MOL
REMARK 927      BINDING AFFINITY PREDICTED BY RF-SCORE:    0.00 PKD
ROOT
HETATM    1  N   UNL     1     -12.744  10.400  69.811  1.00  0.00    -0.520 N  
HETATM    2  H2  UNL     1     -13.390   9.713  69.423  1.00  0.00     0.000 HD 
HETATM    3  H1  UNL     1     -12.590  10.574  70.804  1.00  0.00     0.000 HD 
HETATM    4  S   UNL     1     -11.763  11.425  68.919  1.00  0.00    -0.354 S  
HETATM    5  O   UNL     1     -11.957  12.727  69.511  1.00  0.00    -0.309 OA 
HETATM    6  O   UNL     1     -11.981  11.180  67.517  1.00  0.00    -0.580 OA 
ENDROOT
BRANCH   4   7
HETATM    7  C   UNL     1     -10.147  10.836  69.347  1.00  0.00    -0.139 A  
HETATM    8  C   UNL     1     -10.081   9.839  70.327  1.00  0.00    -0.323 A  
HETATM    9  C   UNL     1      -8.851   9.258  70.646  1.00  0.00    -0.237 A  
HETATM   10  C   UNL     1      -7.665   9.640  70.025  1.00  0.00    -0.157 A  
HETATM   11  C   UNL     1      -7.755  10.638  69.045  1.00  0.00    -0.130 A  
HETATM   12  N   UNL     1      -6.455   8.977  70.221  1.00  0.00    -0.040 NA 
HETATM   13  C   UNL     1      -8.976  11.273  68.700  1.00  0.00    -0.148 A  
HETATM   14  H   UNL     1      -5.714   9.027  69.522  1.00  0.00     0.000 HD 
HETATM   15  C   UNL     1      -6.274   8.219  71.435  1.00  0.00    -0.039 C  
HETATM   16  C   UNL     1      -8.890  12.367  67.658  1.00  0.00    -0.177 C  
HETATM   17  N   UNL     1      -7.332   7.240  71.563  1.00  0.00    -0.079 N  
HETATM   18  F   UNL     1      -8.334  11.907  66.500  1.00  0.00    -0.176 F  
HETATM   19  F   UNL     1      -8.068  13.374  68.071  1.00  0.00    -0.119 F  
HETATM   20  F   UNL     1     -10.041  12.972  67.282  1.00  0.00    -0.225 F  
HETATM   21  S   UNL     1      -8.813   7.974  71.839  1.00  0.00    -0.158 S  
HETATM   22  H   UNL     1      -7.194   6.232  71.494  1.00  0.00     0.000 HD 
HETATM   23  O   UNL     1      -8.731   8.593  73.144  1.00  0.00    -0.371 OA 
HETATM   24  O   UNL     1      -9.838   7.005  71.524  1.00  0.00    -0.173 OA 
ENDBRANCH   4   7
TORSDOF 1
ENDMDL
MODEL       94
REMARK 921   NORMALIZED FREE ENERGY PREDICTED BY IDOCK:   -4.31 KCAL/MOL
REMARK 922        TOTAL FREE ENERGY PREDICTED BY IDOCK:   -4.33 KCAL/MOL
REMARK 923 INTER-LIGAND FREE ENERGY PREDICTED BY IDOCK:   -4.73 KCAL/MOL
REMARK 924 INTRA-LIGAND FREE ENERGY PREDICTED BY IDOCK:    0.40 KCAL/MOL
REMARK 927      BINDING AFFINITY PREDICTED BY RF-SCORE:    0.00 PKD
ROOT
HETATM    1  N   UNL     1     -12.260   7.790  70.936  1.00  0.00    -0.491 N  
HETATM    2  H2  UNL     1     -13.209   7.419  70.907  1.00  0.00     0.000 HD 
HETATM    3  H1  UNL     1     -11.416   7.245  71.114  1.00  0.00     0.000 HD 
HETATM    4  S   UNL     1     -11.833   9.393  70.698  1.00  0.00    -0.156 S  
HETATM    5  O   UNL     1     -10.935   9.700  71.785  1.00  0.00    -0.259 OA 
HETATM    6  O   UNL     1     -13.024  10.163  70.447  1.00  0.00    -0.234 OA 
ENDROOT
BRANCH   4   7
HETATM    7  C   UNL     1     -10.901   9.296  69.194  1.00  0.00    -0.133 A  
HETATM    8  C   UNL     1     -10.479   8.022  68.797  1.00  0.00    -0.196 A  
HETATM    9  C   UNL     1      -9.824   7.855  67.575  1.00  0.00    -0.170 A  
HETATM   10  C   UNL     1      -9.562   8.924  66.721  1.00  0.00    -0.202 A  
HETATM   11  C   UNL     1      -9.995  10.190  67.136  1.00  0.00    -0.243 A  
HETATM   12  N   UNL     1      -9.042   8.763  65.438  1.00  0.00    -0.376 NA 
HETATM   13  C   UNL     1     -10.645  10.414  68.377  1.00  0.00    -0.238 A  
HETATM   14  H   UNL     1      -9.190   9.474  64.723  1.00  0.00     0.000 HD 
HETATM   15  C   UNL     1      -8.291   7.566  65.143  1.00  0.00    -0.085 C  
HETATM   16  C   UNL     1     -11.002  11.850  68.697  1.00  0.00    -0.228 C  
HETATM   17  N   UNL     1      -9.095   6.399  65.437  1.00  0.00    -0.367 N  
HETATM   18  F   UNL     1     -11.790  12.393  67.725  1.00  0.00    -0.364 F  
HETATM   19  F   UNL     1      -9.887  12.635  68.731  1.00  0.00    -0.196 F  
HETATM   20  F   UNL     1     -11.652  12.095  69.859  1.00  0.00    -0.341 F  
HETATM   21  S   UNL     1      -9.359   6.238  67.084  1.00  0.00    -0.126 S  
HETATM   22  H   UNL     1      -9.456   5.757  64.731  1.00  0.00     0.000 HD 
HETATM   23  O   UNL     1      -8.073   5.953  67.683  1.00  0.00    -0.102 OA 
HETATM   24  O   UNL     1     -10.486   5.350  67.254  1.00  0.00    -0.222 OA 
ENDBRANCH   4   7
TORSDOF 1
ENDMDL
MODEL       95
REMARK 921   NORMALIZED FREE ENERGY PREDICTED BY IDOCK:   -4.30 KCAL/MOL
REMARK 922        TOTAL FREE ENERGY PREDICTED BY IDOCK:   -4.32 KCAL/MOL
REMARK 923 INTER-LIGAND FREE ENERGY PREDICTED BY IDOCK:   -4.37 KCAL/MOL
REMARK 924 INTRA-LIGAND FREE ENERGY PREDICTED BY IDOCK:    0.05 KCAL/MOL
REMARK 927      BINDING AFFINITY PREDICTED BY RF-SCORE:    0.00 PKD
ROOT
HETATM    1  N   UNL     1      -7.402   5.142  69.715  1.00  0.00    -0.059 N  
HETATM    2  H2  UNL     1      -7.377   4.565  68.875  1.00  0.00     0.000 HD 
HETATM    3  H1  UNL     1      -6.876   6.005  69.857  1.00  0.00     0.000 HD 
HETATM    4  S   UNL     1      -8.314   4.827  71.085  1.00  0.00    -0.107 S  
HETATM    5  O   UNL     1      -7.395   4.995  72.185  1.00  0.00    -0.084 OA 
HETATM    6  O   UNL     1      -9.056   3.609  70.885  1.00  0.00    -0.090 OA 
ENDROOT
BRANCH   4   7
HETATM    7  C   UNL     1      -9.453   6.185  71.077  1.00  0.00    -0.171 A  
HETATM    8  C   UNL     1      -9.349   7.086  70.011  1.00  0.00    -0.158 A  
HETATM    9  C   UNL     1     -10.274   8.125  69.886  1.00  0.00    -0.204 A  
HETATM   10  C   UNL     1     -11.311   8.311  70.797  1.00  0.00    -0.266 A  
HETATM   11  C   UNL     1     -11.398   7.396  71.855  1.00  0.00    -0.294 A  
HETATM   12  N   UNL     1     -12.326   9.247  70.614  1.00  0.00    -0.491 NA 
HETATM   13  C   UNL     1     -10.471   6.338  72.037  1.00  0.00    -0.239 A  
HETATM   14  H   UNL     1     -13.230   9.132  71.071  1.00  0.00     0.000 HD 
HETATM   15  C   UNL     1     -12.070  10.384  69.763  1.00  0.00    -0.138 C  
HETATM   16  C   UNL     1     -10.678   5.470  73.260  1.00  0.00    -0.274 C  
HETATM   17  N   UNL     1     -11.655   9.931  68.453  1.00  0.00    -0.440 N  
HETATM   18  F   UNL     1     -11.926   4.920  73.273  1.00  0.00    -0.398 F  
HETATM   19  F   UNL     1     -10.604   6.210  74.404  1.00  0.00    -0.279 F  
HETATM   20  F   UNL     1      -9.830   4.431  73.448  1.00  0.00    -0.134 F  
HETATM   21  S   UNL     1     -10.147   9.202  68.508  1.00  0.00    -0.197 S  
HETATM   22  H   UNL     1     -12.209  10.041  67.603  1.00  0.00     0.000 HD 
HETATM   23  O   UNL     1      -9.199  10.240  68.852  1.00  0.00    -0.156 OA 
HETATM   24  O   UNL     1     -10.005   8.415  67.305  1.00  0.00    -0.185 OA 
ENDBRANCH   4   7
TORSDOF 1
ENDMDL
MODEL       96
REMARK 921   NORMALIZED FREE ENERGY PREDICTED BY IDOCK:   -4.30 KCAL/MOL
REMARK 922        TOTAL FREE ENERGY PREDICTED BY IDOCK:   -4.31 KCAL/MOL
REMARK 923 INTER-LIGAND FREE ENERGY PREDICTED BY IDOCK:   -4.36 KCAL/MOL
REMARK 924 INTRA-LIGAND FREE ENERGY PREDICTED BY IDOCK:    0.05 KCAL/MOL
REMARK 927      BINDING AFFINITY PREDICTED BY RF-SCORE:    0.00 PKD
ROOT
HETATM    1  N   UNL     1     -10.566   7.867  66.366  1.00  0.00    -0.256 N  
HETATM    2  H2  UNL     1     -11.484   7.561  66.686  1.00  0.00     0.000 HD 
HETATM    3  H1  UNL     1     -10.287   7.983  65.391  1.00  0.00     0.000 HD 
HETATM    4  S   UNL     1      -9.270   8.259  67.353  1.00  0.00    -0.143 S  
HETATM    5  O   UNL     1      -8.147   7.554  66.785  1.00  0.00    -0.117 OA 
HETATM    6  O   UNL     1      -9.663   8.094  68.729  1.00  0.00    -0.149 OA 
ENDROOT
BRANCH   4   7
HETATM    7  C   UNL     1      -9.084   9.991  67.028  1.00  0.00    -0.142 A  
HETATM    8  C   UNL     1     -10.031  10.577  66.180  1.00  0.00    -0.286 A  
HETATM    9  C   UNL     1     -10.005  11.955  65.955  1.00  0.00    -0.234 A  
HETATM   10  C   UNL     1      -9.056  12.787  66.544  1.00  0.00    -0.147 A  
HETATM   11  C   UNL     1      -8.119  12.180  67.391  1.00  0.00    -0.171 A  
HETATM   12  N   UNL     1      -9.099  14.176  66.450  1.00  0.00    -0.473 NA 
HETATM   13  C   UNL     1      -8.091  10.783  67.635  1.00  0.00    -0.114 A  
HETATM   14  H   UNL     1      -8.640  14.760  67.149  1.00  0.00     0.000 HD 
HETATM   15  C   UNL     1      -9.806  14.771  65.342  1.00  0.00    -0.260 C  
HETATM   16  C   UNL     1      -6.982  10.283  68.536  1.00  0.00    -0.066 C  
HETATM   17  N   UNL     1     -11.171  14.292  65.319  1.00  0.00    -0.323 N  
HETATM   18  F   UNL     1      -7.011  10.903  69.750  1.00  0.00    -0.111 F  
HETATM   19  F   UNL     1      -5.756  10.580  68.014  1.00  0.00    -0.041 F  
HETATM   20  F   UNL     1      -6.944   8.959  68.815  1.00  0.00    -0.058 F  
HETATM   21  S   UNL     1     -11.239  12.663  64.931  1.00  0.00    -0.310 S  
HETATM   22  H   UNL     1     -11.988  14.871  65.514  1.00  0.00     0.000 HD 
HETATM   23  O   UNL     1     -10.789  12.545  63.560  1.00  0.00    -0.440 OA 
HETATM   24  O   UNL     1     -12.535  12.176  65.346  1.00  0.00    -0.523 OA 
ENDBRANCH   4   7
TORSDOF 1
ENDMDL
MODEL       97
REMARK 921   NORMALIZED FREE ENERGY PREDICTED BY IDOCK:   -4.29 KCAL/MOL
REMARK 922        TOTAL FREE ENERGY PREDICTED BY IDOCK:   -4.31 KCAL/MOL
REMARK 923 INTER-LIGAND FREE ENERGY PREDICTED BY IDOCK:   -4.37 KCAL/MOL
REMARK 924 INTRA-LIGAND FREE ENERGY PREDICTED BY IDOCK:    0.06 KCAL/MOL
REMARK 927      BINDING AFFINITY PREDICTED BY RF-SCORE:    0.00 PKD
ROOT
HETATM    1  N   UNL     1     -11.886  12.841  70.222  1.00  0.00    -0.537 N  
HETATM    2  H2  UNL     1     -11.515  12.776  71.169  1.00  0.00     0.000 HD 
HETATM    3  H1  UNL     1     -12.659  13.439  69.928  1.00  0.00     0.000 HD 
HETATM    4  S   UNL     1     -11.325  11.983  68.896  1.00  0.00    -0.302 S  
HETATM    5  O   UNL     1     -12.513  11.453  68.272  1.00  0.00    -0.314 OA 
HETATM    6  O   UNL     1     -10.235  11.139  69.311  1.00  0.00    -0.184 OA 
ENDROOT
BRANCH   4   7
HETATM    7  C   UNL     1     -10.674  13.281  67.879  1.00  0.00    -0.239 A  
HETATM    8  C   UNL     1     -10.677  14.569  68.426  1.00  0.00    -0.246 A  
HETATM    9  C   UNL     1     -10.092  15.624  67.723  1.00  0.00    -0.226 A  
HETATM   10  C   UNL     1      -9.501  15.448  66.474  1.00  0.00    -0.273 A  
HETATM   11  C   UNL     1      -9.507  14.150  65.946  1.00  0.00    -0.131 A  
HETATM   12  N   UNL     1      -8.787  16.451  65.822  1.00  0.00    -0.424 NA 
HETATM   13  C   UNL     1     -10.107  13.050  66.612  1.00  0.00    -0.251 A  
HETATM   14  H   UNL     1      -8.085  16.219  65.120  1.00  0.00     0.000 HD 
HETATM   15  C   UNL     1      -9.063  17.826  66.161  1.00  0.00    -0.102 C  
HETATM   16  C   UNL     1     -10.071  11.725  65.881  1.00  0.00    -0.234 C  
HETATM   17  N   UNL     1      -8.887  18.023  67.585  1.00  0.00    -0.252 N  
HETATM   18  F   UNL     1      -8.793  11.362  65.573  1.00  0.00    -0.197 F  
HETATM   19  F   UNL     1     -10.715  11.811  64.680  1.00  0.00    -0.303 F  
HETATM   20  F   UNL     1     -10.606  10.647  66.501  1.00  0.00    -0.280 F  
HETATM   21  S   UNL     1     -10.064  17.214  68.462  1.00  0.00    -0.350 S  
HETATM   22  H   UNL     1      -8.143  18.583  68.001  1.00  0.00     0.000 HD 
HETATM   23  O   UNL     1     -11.323  17.858  68.158  1.00  0.00     0.177 OA 
HETATM   24  O   UNL     1      -9.583  17.095  69.820  1.00  0.00     0.300 OA 
ENDBRANCH   4   7
TORSDOF 1
ENDMDL
MODEL       98
REMARK 921   NORMALIZED FREE ENERGY PREDICTED BY IDOCK:   -4.28 KCAL/MOL
REMARK 922        TOTAL FREE ENERGY PREDICTED BY IDOCK:   -4.29 KCAL/MOL
REMARK 923 INTER-LIGAND FREE ENERGY PREDICTED BY IDOCK:   -4.51 KCAL/MOL
REMARK 924 INTRA-LIGAND FREE ENERGY PREDICTED BY IDOCK:    0.22 KCAL/MOL
REMARK 927      BINDING AFFINITY PREDICTED BY RF-SCORE:    0.00 PKD
ROOT
HETATM    1  N   UNL     1     -12.130  12.165  69.730  1.00  0.00    -0.271 N  
HETATM    2  H2  UNL     1     -12.248  12.039  70.734  1.00  0.00     0.000 HD 
HETATM    3  H1  UNL     1     -12.682  12.791  69.142  1.00  0.00     0.000 HD 
HETATM    4  S   UNL     1     -10.998  11.380  68.776  1.00  0.00    -0.242 S  
HETATM    5  O   UNL     1     -11.743  10.905  67.636  1.00  0.00    -0.566 OA 
HETATM    6  O   UNL     1     -10.218  10.497  69.605  1.00  0.00    -0.226 OA 
ENDROOT
BRANCH   4   7
HETATM    7  C   UNL     1      -9.965  12.727  68.265  1.00  0.00    -0.230 A  
HETATM    8  C   UNL     1     -10.421  14.016  68.559  1.00  0.00    -0.251 A  
HETATM    9  C   UNL     1      -9.616  15.121  68.274  1.00  0.00    -0.211 A  
HETATM   10  C   UNL     1      -8.358  14.994  67.692  1.00  0.00    -0.164 A  
HETATM   11  C   UNL     1      -7.919  13.694  67.407  1.00  0.00    -0.177 A  
HETATM   12  N   UNL     1      -7.481  16.065  67.531  1.00  0.00    -0.145 NA 
HETATM   13  C   UNL     1      -8.708  12.541  67.659  1.00  0.00    -0.177 A  
HETATM   14  H   UNL     1      -6.477  15.908  67.448  1.00  0.00     0.000 HD 
HETATM   15  C   UNL     1      -8.025  17.400  67.487  1.00  0.00    -0.195 C  
HETATM   16  C   UNL     1      -8.106  11.215  67.245  1.00  0.00    -0.137 C  
HETATM   17  N   UNL     1      -8.805  17.651  68.680  1.00  0.00    -0.283 N  
HETATM   18  F   UNL     1      -6.895  11.012  67.839  1.00  0.00    -0.065 F  
HETATM   19  F   UNL     1      -7.853  11.189  65.904  1.00  0.00    -0.151 F  
HETATM   20  F   UNL     1      -8.818  10.092  67.499  1.00  0.00    -0.124 F  
HETATM   21  S   UNL     1     -10.196  16.718  68.707  1.00  0.00    -0.318 S  
HETATM   22  H   UNL     1      -8.541  18.312  69.411  1.00  0.00     0.000 HD 
HETATM   23  O   UNL     1     -11.031  17.188  67.622  1.00  0.00    -0.285 OA 
HETATM   24  O   UNL     1     -10.672  16.694  70.072  1.00  0.00    -0.292 OA 
ENDBRANCH   4   7
TORSDOF 1
ENDMDL
MODEL       99
REMARK 921   NORMALIZED FREE ENERGY PREDICTED BY IDOCK:   -4.27 KCAL/MOL
REMARK 922        TOTAL FREE ENERGY PREDICTED BY IDOCK:   -4.28 KCAL/MOL
REMARK 923 INTER-LIGAND FREE ENERGY PREDICTED BY IDOCK:   -4.33 KCAL/MOL
REMARK 924 INTRA-LIGAND FREE ENERGY PREDICTED BY IDOCK:    0.05 KCAL/MOL
REMARK 927      BINDING AFFINITY PREDICTED BY RF-SCORE:    0.00 PKD
ROOT
HETATM    1  N   UNL     1      -7.668   4.229  70.659  1.00  0.00    -0.052 N  
HETATM    2  H2  UNL     1      -7.604   3.320  70.202  1.00  0.00     0.000 HD 
HETATM    3  H1  UNL     1      -6.949   4.953  70.642  1.00  0.00     0.000 HD 
HETATM    4  S   UNL     1      -8.971   4.775  71.560  1.00  0.00    -0.136 S  
HETATM    5  O   UNL     1      -8.387   5.307  72.767  1.00  0.00    -0.112 OA 
HETATM    6  O   UNL     1      -9.986   3.752  71.584  1.00  0.00    -0.182 OA 
ENDROOT
BRANCH   4   7
HETATM    7  C   UNL     1      -9.555   6.120  70.565  1.00  0.00    -0.168 A  
HETATM    8  C   UNL     1      -8.895   6.337  69.350  1.00  0.00    -0.127 A  
HETATM    9  C   UNL     1      -9.360   7.316  68.470  1.00  0.00    -0.141 A  
HETATM   10  C   UNL     1     -10.471   8.106  68.757  1.00  0.00    -0.174 A  
HETATM   11  C   UNL     1     -11.119   7.871  69.977  1.00  0.00    -0.165 A  
HETATM   12  N   UNL     1     -11.038   8.985  67.837  1.00  0.00    -0.480 NA 
HETATM   13  C   UNL     1     -10.672   6.903  70.913  1.00  0.00    -0.258 A  
HETATM   14  H   UNL     1     -12.013   9.270  67.921  1.00  0.00     0.000 HD 
HETATM   15  C   UNL     1     -10.215   9.483  66.761  1.00  0.00    -0.243 C  
HETATM   16  C   UNL     1     -11.455   6.811  72.206  1.00  0.00    -0.276 C  
HETATM   17  N   UNL     1      -9.658   8.373  66.017  1.00  0.00    -0.429 N  
HETATM   18  F   UNL     1     -12.776   6.564  71.970  1.00  0.00    -0.378 F  
HETATM   19  F   UNL     1     -11.430   7.998  72.879  1.00  0.00    -0.425 F  
HETATM   20  F   UNL     1     -11.076   5.876  73.109  1.00  0.00    -0.261 F  
HETATM   21  S   UNL     1      -8.542   7.523  66.933  1.00  0.00    -0.128 S  
HETATM   22  H   UNL     1      -9.912   8.139  65.058  1.00  0.00     0.000 HD 
HETATM   23  O   UNL     1      -7.422   8.413  67.152  1.00  0.00    -0.087 OA 
HETATM   24  O   UNL     1      -8.371   6.230  66.311  1.00  0.00    -0.113 OA 
ENDBRANCH   4   7
TORSDOF 1
ENDMDL
MODEL      100
REMARK 921   NORMALIZED FREE ENERGY PREDICTED BY IDOCK:   -4.26 KCAL/MOL
REMARK 922        TOTAL FREE ENERGY PREDICTED BY IDOCK:   -4.27 KCAL/MOL
REMARK 923 INTER-LIGAND FREE ENERGY PREDICTED BY IDOCK:   -4.74 KCAL/MOL
REMARK 924 INTRA-LIGAND FREE ENERGY PREDICTED BY IDOCK:    0.47 KCAL/MOL
REMARK 927      BINDING AFFINITY PREDICTED BY RF-SCORE:    0.00 PKD
ROOT
HETATM    1  N   UNL     1     -12.351  14.680  66.900  1.00  0.00    -0.432 N  
HETATM    2  H2  UNL     1     -12.939  15.296  67.460  1.00  0.00     0.000 HD 
HETATM    3  H1  UNL     1     -12.068  14.848  65.934  1.00  0.00     0.000 HD 
HETATM    4  S   UNL     1     -11.693  13.228  67.416  1.00  0.00    -0.375 S  
HETATM    5  O   UNL     1     -11.985  12.294  66.355  1.00  0.00    -0.589 OA 
HETATM    6  O   UNL     1     -12.093  12.990  68.779  1.00  0.00    -0.293 OA 
ENDROOT
BRANCH   4   7
HETATM    7  C   UNL     1      -9.959  13.594  67.396  1.00  0.00    -0.234 A  
HETATM    8  C   UNL     1      -9.601  14.946  67.443  1.00  0.00    -0.206 A  
HETATM    9  C   UNL     1      -8.255  15.307  67.528  1.00  0.00    -0.173 A  
HETATM   10  C   UNL     1      -7.233  14.361  67.562  1.00  0.00    -0.180 A  
HETATM   11  C   UNL     1      -7.613  13.013  67.516  1.00  0.00    -0.166 A  
HETATM   12  N   UNL     1      -5.898  14.691  67.792  1.00  0.00    -0.286 NA 
HETATM   13  C   UNL     1      -8.965  12.597  67.409  1.00  0.00    -0.190 A  
HETATM   14  H   UNL     1      -5.247  13.999  68.162  1.00  0.00     0.000 HD 
HETATM   15  C   UNL     1      -5.459  16.033  67.495  1.00  0.00    -0.110 C  
HETATM   16  C   UNL     1      -9.200  11.104  67.319  1.00  0.00    -0.160 C  
HETATM   17  N   UNL     1      -6.273  16.985  68.219  1.00  0.00    -0.134 N  
HETATM   18  F   UNL     1      -8.662  10.452  68.389  1.00  0.00    -0.115 F  
HETATM   19  F   UNL     1      -8.575  10.574  66.228  1.00  0.00    -0.132 F  
HETATM   20  F   UNL     1     -10.481  10.670  67.247  1.00  0.00    -0.229 F  
HETATM   21  S   UNL     1      -7.846  17.008  67.641  1.00  0.00    -0.174 S  
HETATM   22  H   UNL     1      -5.933  17.569  68.983  1.00  0.00     0.000 HD 
HETATM   23  O   UNL     1      -7.784  17.532  66.294  1.00  0.00    -0.270 OA 
HETATM   24  O   UNL     1      -8.668  17.625  68.656  1.00  0.00    -0.293 OA 
ENDBRANCH   4   7
TORSDOF 1
ENDMDL
MODEL      101
REMARK 921   NORMALIZED FREE ENERGY PREDICTED BY IDOCK:   -4.26 KCAL/MOL
REMARK 922        TOTAL FREE ENERGY PREDICTED BY IDOCK:   -4.27 KCAL/MOL
REMARK 923 INTER-LIGAND FREE ENERGY PREDICTED BY IDOCK:   -4.54 KCAL/MOL
REMARK 924 INTRA-LIGAND FREE ENERGY PREDICTED BY IDOCK:    0.27 KCAL/MOL
REMARK 927      BINDING AFFINITY PREDICTED BY RF-SCORE:    0.00 PKD
ROOT
HETATM    1  N   UNL     1      -7.312  13.216  66.857  1.00  0.00    -0.284 N  
HETATM    2  H2  UNL     1      -6.399  13.409  67.268  1.00  0.00     0.000 HD 
HETATM    3  H1  UNL     1      -7.518  12.468  66.195  1.00  0.00     0.000 HD 
HETATM    4  S   UNL     1      -8.717  14.077  67.161  1.00  0.00    -0.204 S  
HETATM    5  O   UNL     1      -9.279  14.337  65.858  1.00  0.00    -0.114 OA 
HETATM    6  O   UNL     1      -8.427  15.134  68.096  1.00  0.00    -0.146 OA 
ENDROOT
BRANCH   4   7
HETATM    7  C   UNL     1      -9.712  12.861  67.982  1.00  0.00    -0.224 A  
HETATM    8  C   UNL     1      -9.049  11.725  68.459  1.00  0.00    -0.144 A  
HETATM    9  C   UNL     1      -9.749  10.771  69.200  1.00  0.00    -0.163 A  
HETATM   10  C   UNL     1     -11.107  10.899  69.484  1.00  0.00    -0.268 A  
HETATM   11  C   UNL     1     -11.751  12.045  68.998  1.00  0.00    -0.382 A  
HETATM   12  N   UNL     1     -11.791  10.038  70.339  1.00  0.00    -0.337 NA 
HETATM   13  C   UNL     1     -11.088  13.032  68.224  1.00  0.00    -0.293 A  
HETATM   14  H   UNL     1     -12.646  10.338  70.806  1.00  0.00     0.000 HD 
HETATM   15  C   UNL     1     -11.262   8.712  70.550  1.00  0.00    -0.241 C  
HETATM   16  C   UNL     1     -11.941  14.183  67.734  1.00  0.00    -0.354 C  
HETATM   17  N   UNL     1      -9.896   8.800  71.022  1.00  0.00    -0.209 N  
HETATM   18  F   UNL     1     -12.550  14.826  68.771  1.00  0.00    -0.137 F  
HETATM   19  F   UNL     1     -12.961  13.735  66.946  1.00  0.00    -0.115 F  
HETATM   20  F   UNL     1     -11.334  15.159  67.019  1.00  0.00    -0.330 F  
HETATM   21  S   UNL     1      -8.876   9.387  69.830  1.00  0.00    -0.201 S  
HETATM   22  H   UNL     1      -9.594   8.537  71.960  1.00  0.00     0.000 HD 
HETATM   23  O   UNL     1      -8.836   8.384  68.787  1.00  0.00    -0.139 OA 
HETATM   24  O   UNL     1      -7.671   9.847  70.483  1.00  0.00    -0.254 OA 
ENDBRANCH   4   7
TORSDOF 1
ENDMDL
MODEL      102
REMARK 921   NORMALIZED FREE ENERGY PREDICTED BY IDOCK:   -4.23 KCAL/MOL
REMARK 922        TOTAL FREE ENERGY PREDICTED BY IDOCK:   -4.24 KCAL/MOL
REMARK 923 INTER-LIGAND FREE ENERGY PREDICTED BY IDOCK:   -4.33 KCAL/MOL
REMARK 924 INTRA-LIGAND FREE ENERGY PREDICTED BY IDOCK:    0.09 KCAL/MOL
REMARK 927      BINDING AFFINITY PREDICTED BY RF-SCORE:    0.00 PKD
ROOT
HETATM    1  N   UNL     1      -6.906   8.605  67.735  1.00  0.00    -0.066 N  
HETATM    2  H2  UNL     1      -6.820   9.535  67.325  1.00  0.00     0.000 HD 
HETATM    3  H1  UNL     1      -6.541   8.323  68.645  1.00  0.00     0.000 HD 
HETATM    4  S   UNL     1      -7.671   7.295  67.024  1.00  0.00    -0.113 S  
HETATM    5  O   UNL     1      -6.741   6.201  67.173  1.00  0.00    -0.054 OA 
HETATM    6  O   UNL     1      -8.186   7.693  65.740  1.00  0.00    -0.118 OA 
ENDROOT
BRANCH   4   7
HETATM    7  C   UNL     1      -9.038   7.039  68.122  1.00  0.00    -0.128 A  
HETATM    8  C   UNL     1      -9.238   8.006  69.114  1.00  0.00    -0.151 A  
HETATM    9  C   UNL     1     -10.351   7.922  69.953  1.00  0.00    -0.224 A  
HETATM   10  C   UNL     1     -11.285   6.895  69.849  1.00  0.00    -0.285 A  
HETATM   11  C   UNL     1     -11.067   5.938  68.848  1.00  0.00    -0.254 A  
HETATM   12  N   UNL     1     -12.474   6.870  70.575  1.00  0.00    -0.585 NA 
HETATM   13  C   UNL     1      -9.942   5.968  67.985  1.00  0.00    -0.162 A  
HETATM   14  H   UNL     1     -13.277   6.337  70.242  1.00  0.00     0.000 HD 
HETATM   15  C   UNL     1     -12.543   7.615  71.809  1.00  0.00    -0.331 C  
HETATM   16  C   UNL     1      -9.830   4.831  66.992  1.00  0.00    -0.200 C  
HETATM   17  N   UNL     1     -12.213   9.002  71.562  1.00  0.00    -0.317 N  
HETATM   18  F   UNL     1     -10.940   4.749  66.204  1.00  0.00    -0.333 F  
HETATM   19  F   UNL     1      -9.758   3.628  67.631  1.00  0.00    -0.236 F  
HETATM   20  F   UNL     1      -8.785   4.845  66.131  1.00  0.00    -0.114 F  
HETATM   21  S   UNL     1     -10.599   9.181  71.148  1.00  0.00    -0.335 S  
HETATM   22  H   UNL     1     -12.877   9.773  71.632  1.00  0.00     0.000 HD 
HETATM   23  O   UNL     1      -9.829   8.827  72.321  1.00  0.00    -0.307 OA 
HETATM   24  O   UNL     1     -10.459  10.471  70.511  1.00  0.00    -0.017 OA 
ENDBRANCH   4   7
TORSDOF 1
ENDMDL
MODEL      103
REMARK 921   NORMALIZED FREE ENERGY PREDICTED BY IDOCK:   -4.23 KCAL/MOL
REMARK 922        TOTAL FREE ENERGY PREDICTED BY IDOCK:   -4.24 KCAL/MOL
REMARK 923 INTER-LIGAND FREE ENERGY PREDICTED BY IDOCK:   -4.29 KCAL/MOL
REMARK 924 INTRA-LIGAND FREE ENERGY PREDICTED BY IDOCK:    0.05 KCAL/MOL
REMARK 927      BINDING AFFINITY PREDICTED BY RF-SCORE:    0.00 PKD
ROOT
HETATM    1  N   UNL     1      -8.382   7.832  69.180  1.00  0.00    -0.132 N  
HETATM    2  H2  UNL     1      -7.453   8.204  69.374  1.00  0.00     0.000 HD 
HETATM    3  H1  UNL     1      -8.585   7.020  68.596  1.00  0.00     0.000 HD 
HETATM    4  S   UNL     1      -9.822   8.454  69.768  1.00  0.00    -0.190 S  
HETATM    5  O   UNL     1     -10.687   8.534  68.616  1.00  0.00    -0.159 OA 
HETATM    6  O   UNL     1      -9.535   9.600  70.593  1.00  0.00    -0.244 OA 
ENDROOT
BRANCH   4   7
HETATM    7  C   UNL     1     -10.381   7.137  70.814  1.00  0.00    -0.206 A  
HETATM    8  C   UNL     1      -9.559   6.007  70.895  1.00  0.00    -0.196 A  
HETATM    9  C   UNL     1      -9.886   4.971  71.773  1.00  0.00    -0.177 A  
HETATM   10  C   UNL     1     -11.018   5.011  72.582  1.00  0.00    -0.216 A  
HETATM   11  C   UNL     1     -11.826   6.153  72.487  1.00  0.00    -0.222 A  
HETATM   12  N   UNL     1     -11.286   4.061  73.565  1.00  0.00    -0.260 NA 
HETATM   13  C   UNL     1     -11.549   7.221  71.596  1.00  0.00    -0.306 A  
HETATM   14  H   UNL     1     -11.889   4.285  74.356  1.00  0.00     0.000 HD 
HETATM   15  C   UNL     1     -10.690   2.753  73.440  1.00  0.00    -0.182 C  
HETATM   16  C   UNL     1     -12.549   8.357  71.581  1.00  0.00    -0.332 C  
HETATM   17  N   UNL     1      -9.252   2.878  73.336  1.00  0.00    -0.085 N  
HETATM   18  F   UNL     1     -12.705   8.898  72.824  1.00  0.00    -0.455 F  
HETATM   19  F   UNL     1     -13.790   7.911  71.229  1.00  0.00    -0.356 F  
HETATM   20  F   UNL     1     -12.299   9.409  70.766  1.00  0.00    -0.311 F  
HETATM   21  S   UNL     1      -8.805   3.595  71.888  1.00  0.00    -0.098 S  
HETATM   22  H   UNL     1      -8.594   2.570  74.051  1.00  0.00     0.000 HD 
HETATM   23  O   UNL     1      -9.166   2.667  70.838  1.00  0.00    -0.106 OA 
HETATM   24  O   UNL     1      -7.449   4.071  72.045  1.00  0.00    -0.061 OA 
ENDBRANCH   4   7
TORSDOF 1
ENDMDL
MODEL      104
REMARK 921   NORMALIZED FREE ENERGY PREDICTED BY IDOCK:   -4.20 KCAL/MOL
REMARK 922        TOTAL FREE ENERGY PREDICTED BY IDOCK:   -4.21 KCAL/MOL
REMARK 923 INTER-LIGAND FREE ENERGY PREDICTED BY IDOCK:   -4.29 KCAL/MOL
REMARK 924 INTRA-LIGAND FREE ENERGY PREDICTED BY IDOCK:    0.07 KCAL/MOL
REMARK 927      BINDING AFFINITY PREDICTED BY RF-SCORE:    0.00 PKD
ROOT
HETATM    1  N   UNL     1      -9.970   7.069  66.038  1.00  0.00    -0.322 N  
HETATM    2  H2  UNL     1      -9.518   6.198  65.761  1.00  0.00     0.000 HD 
HETATM    3  H1  UNL     1     -10.975   7.205  66.151  1.00  0.00     0.000 HD 
HETATM    4  S   UNL     1      -9.182   8.508  66.381  1.00  0.00    -0.214 S  
HETATM    5  O   UNL     1      -9.910   9.511  65.642  1.00  0.00    -0.297 OA 
HETATM    6  O   UNL     1      -7.764   8.315  66.221  1.00  0.00    -0.093 OA 
ENDROOT
BRANCH   4   7
HETATM    7  C   UNL     1      -9.530   8.703  68.108  1.00  0.00    -0.141 A  
HETATM    8  C   UNL     1     -10.184   7.641  68.742  1.00  0.00    -0.210 A  
HETATM    9  C   UNL     1     -10.405   7.683  70.120  1.00  0.00    -0.217 A  
HETATM   10  C   UNL     1     -10.001   8.759  70.905  1.00  0.00    -0.222 A  
HETATM   11  C   UNL     1      -9.345   9.811  70.251  1.00  0.00    -0.236 A  
HETATM   12  N   UNL     1     -10.079   8.759  72.297  1.00  0.00    -0.291 NA 
HETATM   13  C   UNL     1      -9.116   9.825  68.851  1.00  0.00    -0.148 A  
HETATM   14  H   UNL     1      -9.476   9.364  72.853  1.00  0.00     0.000 HD 
HETATM   15  C   UNL     1     -11.033   7.884  72.933  1.00  0.00    -0.388 C  
HETATM   16  C   UNL     1      -8.441  11.061  68.295  1.00  0.00    -0.138 C  
HETATM   17  N   UNL     1     -10.802   6.519  72.510  1.00  0.00    -0.229 N  
HETATM   18  F   UNL     1      -7.240  11.285  68.902  1.00  0.00    -0.080 F  
HETATM   19  F   UNL     1      -9.181  12.179  68.548  1.00  0.00    -0.188 F  
HETATM   20  F   UNL     1      -8.178  11.094  66.968  1.00  0.00    -0.126 F  
HETATM   21  S   UNL     1     -11.178   6.310  70.890  1.00  0.00    -0.317 S  
HETATM   22  H   UNL     1     -10.456   5.778  73.120  1.00  0.00     0.000 HD 
HETATM   23  O   UNL     1     -12.608   6.491  70.770  1.00  0.00    -0.162 OA 
HETATM   24  O   UNL     1     -10.529   5.095  70.451  1.00  0.00    -0.267 OA 
ENDBRANCH   4   7
TORSDOF 1
ENDMDL
MODEL      105
REMARK 921   NORMALIZED FREE ENERGY PREDICTED BY IDOCK:   -4.20 KCAL/MOL
REMARK 922        TOTAL FREE ENERGY PREDICTED BY IDOCK:   -4.21 KCAL/MOL
REMARK 923 INTER-LIGAND FREE ENERGY PREDICTED BY IDOCK:   -4.26 KCAL/MOL
REMARK 924 INTRA-LIGAND FREE ENERGY PREDICTED BY IDOCK:    0.05 KCAL/MOL
REMARK 927      BINDING AFFINITY PREDICTED BY RF-SCORE:    0.00 PKD
ROOT
HETATM    1  N   UNL     1      -6.966  10.362  67.825  1.00  0.00    -0.082 N  
HETATM    2  H2  UNL     1      -6.294  10.103  67.103  1.00  0.00     0.000 HD 
HETATM    3  H1  UNL     1      -6.734  10.605  68.789  1.00  0.00     0.000 HD 
HETATM    4  S   UNL     1      -8.626  10.457  67.622  1.00  0.00    -0.117 S  
HETATM    5  O   UNL     1      -9.176   9.743  68.748  1.00  0.00    -0.136 OA 
HETATM    6  O   UNL     1      -8.952  10.114  66.262  1.00  0.00    -0.145 OA 
ENDROOT
BRANCH   4   7
HETATM    7  C   UNL     1      -8.915  12.192  67.847  1.00  0.00    -0.184 A  
HETATM    8  C   UNL     1      -7.790  12.993  68.071  1.00  0.00    -0.146 A  
HETATM    9  C   UNL     1      -7.929  14.379  68.161  1.00  0.00    -0.136 A  
HETATM   10  C   UNL     1      -9.164  15.011  68.041  1.00  0.00    -0.183 A  
HETATM   11  C   UNL     1     -10.278  14.191  67.815  1.00  0.00    -0.242 A  
HETATM   12  N   UNL     1      -9.309  16.396  67.983  1.00  0.00    -0.214 NA 
HETATM   13  C   UNL     1     -10.191  12.777  67.737  1.00  0.00    -0.223 A  
HETATM   14  H   UNL     1     -10.130  16.816  67.549  1.00  0.00     0.000 HD 
HETATM   15  C   UNL     1      -8.270  17.222  68.549  1.00  0.00    -0.267 C  
HETATM   16  C   UNL     1     -11.496  12.036  67.538  1.00  0.00    -0.333 C  
HETATM   17  N   UNL     1      -6.998  16.891  67.944  1.00  0.00    -0.145 N  
HETATM   18  F   UNL     1     -12.143  12.462  66.416  1.00  0.00    -0.451 F  
HETATM   19  F   UNL     1     -12.361  12.285  68.564  1.00  0.00    -0.287 F  
HETATM   20  F   UNL     1     -11.446  10.687  67.428  1.00  0.00    -0.373 F  
HETATM   21  S   UNL     1      -6.491  15.356  68.388  1.00  0.00    -0.119 S  
HETATM   22  H   UNL     1      -6.475  17.512  67.326  1.00  0.00     0.000 HD 
HETATM   23  O   UNL     1      -6.216  15.406  69.807  1.00  0.00    -0.139 OA 
HETATM   24  O   UNL     1      -5.485  14.943  67.436  1.00  0.00    -0.339 OA 
ENDBRANCH   4   7
TORSDOF 1
ENDMDL
MODEL      106
REMARK 921   NORMALIZED FREE ENERGY PREDICTED BY IDOCK:   -4.20 KCAL/MOL
REMARK 922        TOTAL FREE ENERGY PREDICTED BY IDOCK:   -4.21 KCAL/MOL
REMARK 923 INTER-LIGAND FREE ENERGY PREDICTED BY IDOCK:   -4.26 KCAL/MOL
REMARK 924 INTRA-LIGAND FREE ENERGY PREDICTED BY IDOCK:    0.05 KCAL/MOL
REMARK 927      BINDING AFFINITY PREDICTED BY RF-SCORE:    0.00 PKD
ROOT
HETATM    1  N   UNL     1     -11.122   9.951  67.749  1.00  0.00    -0.473 N  
HETATM    2  H2  UNL     1     -11.977  10.003  67.195  1.00  0.00     0.000 HD 
HETATM    3  H1  UNL     1     -10.935  10.479  68.601  1.00  0.00     0.000 HD 
HETATM    4  S   UNL     1      -9.798   8.983  67.406  1.00  0.00    -0.206 S  
HETATM    5  O   UNL     1      -8.659   9.859  67.532  1.00  0.00    -0.121 OA 
HETATM    6  O   UNL     1     -10.062   8.237  66.202  1.00  0.00    -0.149 OA 
ENDROOT
BRANCH   4   7
HETATM    7  C   UNL     1      -9.811   7.859  68.776  1.00  0.00    -0.167 A  
HETATM    8  C   UNL     1     -10.845   8.015  69.707  1.00  0.00    -0.194 A  
HETATM    9  C   UNL     1     -10.976   7.106  70.759  1.00  0.00    -0.252 A  
HETATM   10  C   UNL     1     -10.103   6.035  70.930  1.00  0.00    -0.196 A  
HETATM   11  C   UNL     1      -9.077   5.896  69.985  1.00  0.00    -0.154 A  
HETATM   12  N   UNL     1     -10.299   5.038  71.883  1.00  0.00    -0.207 NA 
HETATM   13  C   UNL     1      -8.889   6.804  68.911  1.00  0.00    -0.128 A  
HETATM   14  H   UNL     1      -9.883   4.114  71.764  1.00  0.00     0.000 HD 
HETATM   15  C   UNL     1     -11.104   5.339  73.041  1.00  0.00    -0.317 C  
HETATM   16  C   UNL     1      -7.702   6.538  68.010  1.00  0.00    -0.105 C  
HETATM   17  N   UNL     1     -12.410   5.803  72.622  1.00  0.00    -0.475 N  
HETATM   18  F   UNL     1      -7.756   5.285  67.474  1.00  0.00    -0.090 F  
HETATM   19  F   UNL     1      -6.535   6.573  68.716  1.00  0.00    -0.035 F  
HETATM   20  F   UNL     1      -7.512   7.367  66.957  1.00  0.00    -0.087 F  
HETATM   21  S   UNL     1     -12.315   7.300  71.875  1.00  0.00    -0.292 S  
HETATM   22  H   UNL     1     -13.277   5.285  72.763  1.00  0.00     0.000 HD 
HETATM   23  O   UNL     1     -11.902   8.244  72.891  1.00  0.00    -0.337 OA 
HETATM   24  O   UNL     1     -13.535   7.484  71.122  1.00  0.00    -0.273 OA 
ENDBRANCH   4   7
TORSDOF 1
ENDMDL
MODEL      107
REMARK 921   NORMALIZED FREE ENERGY PREDICTED BY IDOCK:   -4.19 KCAL/MOL
REMARK 922        TOTAL FREE ENERGY PREDICTED BY IDOCK:   -4.20 KCAL/MOL
REMARK 923 INTER-LIGAND FREE ENERGY PREDICTED BY IDOCK:   -5.07 KCAL/MOL
REMARK 924 INTRA-LIGAND FREE ENERGY PREDICTED BY IDOCK:    0.87 KCAL/MOL
REMARK 927      BINDING AFFINITY PREDICTED BY RF-SCORE:    0.00 PKD
ROOT
HETATM    1  N   UNL     1      -8.256   5.286  67.206  1.00  0.00    -0.104 N  
HETATM    2  H2  UNL     1      -7.767   5.488  66.335  1.00  0.00     0.000 HD 
HETATM    3  H1  UNL     1      -7.824   5.225  68.129  1.00  0.00     0.000 HD 
HETATM    4  S   UNL     1      -9.900   4.999  67.355  1.00  0.00    -0.178 S  
HETATM    5  O   UNL     1      -9.994   3.813  68.172  1.00  0.00    -0.014 OA 
HETATM    6  O   UNL     1     -10.511   5.084  66.053  1.00  0.00    -0.260 OA 
ENDROOT
BRANCH   4   7
HETATM    7  C   UNL     1     -10.423   6.396  68.312  1.00  0.00    -0.223 A  
HETATM    8  C   UNL     1     -11.049   6.123  69.533  1.00  0.00    -0.490 A  
HETATM    9  C   UNL     1     -11.400   7.173  70.385  1.00  0.00    -0.289 A  
HETATM   10  C   UNL     1     -11.156   8.505  70.062  1.00  0.00    -0.151 A  
HETATM   11  C   UNL     1     -10.526   8.756  68.835  1.00  0.00    -0.217 A  
HETATM   12  N   UNL     1     -11.365   9.556  70.954  1.00  0.00    -0.312 NA 
HETATM   13  C   UNL     1     -10.169   7.727  67.927  1.00  0.00    -0.259 A  
HETATM   14  H   UNL     1     -10.865  10.438  70.846  1.00  0.00     0.000 HD 
HETATM   15  C   UNL     1     -12.303   9.367  72.033  1.00  0.00    -0.345 C  
HETATM   16  C   UNL     1      -9.543   8.172  66.623  1.00  0.00    -0.229 C  
HETATM   17  N   UNL     1     -11.928   8.204  72.810  1.00  0.00    -0.582 N  
HETATM   18  F   UNL     1      -8.425   8.923  66.840  1.00  0.00    -0.108 F  
HETATM   19  F   UNL     1     -10.388   8.986  65.926  1.00  0.00    -0.344 F  
HETATM   20  F   UNL     1      -9.160   7.213  65.747  1.00  0.00    -0.167 F  
HETATM   21  S   UNL     1     -12.132   6.792  71.932  1.00  0.00    -0.319 S  
HETATM   22  H   UNL     1     -11.584   8.240  73.769  1.00  0.00     0.000 HD 
HETATM   23  O   UNL     1     -13.555   6.641  71.715  1.00  0.00    -0.198 OA 
HETATM   24  O   UNL     1     -11.353   5.764  72.583  1.00  0.00    -0.282 OA 
ENDBRANCH   4   7
TORSDOF 1
ENDMDL
MODEL      108
REMARK 921   NORMALIZED FREE ENERGY PREDICTED BY IDOCK:   -4.19 KCAL/MOL
REMARK 922        TOTAL FREE ENERGY PREDICTED BY IDOCK:   -4.20 KCAL/MOL
REMARK 923 INTER-LIGAND FREE ENERGY PREDICTED BY IDOCK:   -4.39 KCAL/MOL
REMARK 924 INTRA-LIGAND FREE ENERGY PREDICTED BY IDOCK:    0.19 KCAL/MOL
REMARK 927      BINDING AFFINITY PREDICTED BY RF-SCORE:    0.00 PKD
ROOT
HETATM    1  N   UNL     1      -9.679  14.668  65.327  1.00  0.00    -0.498 N  
HETATM    2  H2  UNL     1      -9.099  15.495  65.195  1.00  0.00     0.000 HD 
HETATM    3  H1  UNL     1      -9.787  13.906  64.657  1.00  0.00     0.000 HD 
HETATM    4  S   UNL     1     -10.611  14.339  66.681  1.00  0.00    -0.281 S  
HETATM    5  O   UNL     1     -11.899  13.952  66.156  1.00  0.00    -0.362 OA 
HETATM    6  O   UNL     1     -10.459  15.414  67.627  1.00  0.00    -0.261 OA 
ENDROOT
BRANCH   4   7
HETATM    7  C   UNL     1      -9.802  12.901  67.331  1.00  0.00    -0.207 A  
HETATM    8  C   UNL     1      -8.545  12.592  66.799  1.00  0.00    -0.101 A  
HETATM    9  C   UNL     1      -7.807  11.533  67.329  1.00  0.00    -0.153 A  
HETATM   10  C   UNL     1      -8.279  10.750  68.380  1.00  0.00    -0.129 A  
HETATM   11  C   UNL     1      -9.539  11.078  68.900  1.00  0.00    -0.174 A  
HETATM   12  N   UNL     1      -7.503   9.785  69.019  1.00  0.00    -0.077 NA 
HETATM   13  C   UNL     1     -10.336  12.131  68.382  1.00  0.00    -0.236 A  
HETATM   14  H   UNL     1      -7.718   9.490  69.971  1.00  0.00     0.000 HD 
HETATM   15  C   UNL     1      -6.390   9.210  68.302  1.00  0.00    -0.054 C  
HETATM   16  C   UNL     1     -11.694  12.321  69.024  1.00  0.00    -0.324 C  
HETATM   17  N   UNL     1      -5.499  10.261  67.860  1.00  0.00    -0.041 N  
HETATM   18  F   UNL     1     -11.583  12.522  70.368  1.00  0.00    -0.319 F  
HETATM   19  F   UNL     1     -12.457  11.197  68.894  1.00  0.00    -0.355 F  
HETATM   20  F   UNL     1     -12.468  13.337  68.575  1.00  0.00    -0.270 F  
HETATM   21  S   UNL     1      -6.213  11.208  66.675  1.00  0.00    -0.140 S  
HETATM   22  H   UNL     1      -4.557  10.407  68.222  1.00  0.00     0.000 HD 
HETATM   23  O   UNL     1      -6.381  10.361  65.514  1.00  0.00    -0.113 OA 
HETATM   24  O   UNL     1      -5.469  12.446  66.608  1.00  0.00    -0.291 OA 
ENDBRANCH   4   7
TORSDOF 1
ENDMDL
MODEL      109
REMARK 921   NORMALIZED FREE ENERGY PREDICTED BY IDOCK:   -4.18 KCAL/MOL
REMARK 922        TOTAL FREE ENERGY PREDICTED BY IDOCK:   -4.18 KCAL/MOL
REMARK 923 INTER-LIGAND FREE ENERGY PREDICTED BY IDOCK:   -4.26 KCAL/MOL
REMARK 924 INTRA-LIGAND FREE ENERGY PREDICTED BY IDOCK:    0.08 KCAL/MOL
REMARK 927      BINDING AFFINITY PREDICTED BY RF-SCORE:    0.00 PKD
ROOT
HETATM    1  N   UNL     1      -8.263  10.868  64.570  1.00  0.00    -0.368 N  
HETATM    2  H2  UNL     1      -8.740  10.755  63.677  1.00  0.00     0.000 HD 
HETATM    3  H1  UNL     1      -7.580  11.594  64.790  1.00  0.00     0.000 HD 
HETATM    4  S   UNL     1      -8.472   9.891  65.916  1.00  0.00    -0.134 S  
HETATM    5  O   UNL     1      -7.134   9.580  66.357  1.00  0.00    -0.086 OA 
HETATM    6  O   UNL     1      -9.435   8.866  65.606  1.00  0.00    -0.229 OA 
ENDROOT
BRANCH   4   7
HETATM    7  C   UNL     1      -9.207  11.021  67.067  1.00  0.00    -0.153 A  
HETATM    8  C   UNL     1      -9.371  12.342  66.635  1.00  0.00    -0.228 A  
HETATM    9  C   UNL     1     -10.030  13.265  67.450  1.00  0.00    -0.233 A  
HETATM   10  C   UNL     1     -10.535  12.923  68.702  1.00  0.00    -0.213 A  
HETATM   11  C   UNL     1     -10.362  11.594  69.115  1.00  0.00    -0.045 A  
HETATM   12  N   UNL     1     -11.319  13.783  69.468  1.00  0.00    -0.376 NA 
HETATM   13  C   UNL     1      -9.682  10.626  68.332  1.00  0.00    -0.172 A  
HETATM   14  H   UNL     1     -11.955  13.417  70.175  1.00  0.00     0.000 HD 
HETATM   15  C   UNL     1     -11.210  15.203  69.237  1.00  0.00    -0.278 C  
HETATM   16  C   UNL     1      -9.538   9.250  68.947  1.00  0.00    -0.155 C  
HETATM   17  N   UNL     1     -11.477  15.494  67.845  1.00  0.00    -0.311 N  
HETATM   18  F   UNL     1     -10.752   8.723  69.274  1.00  0.00    -0.226 F  
HETATM   19  F   UNL     1      -8.847   9.309  70.123  1.00  0.00    -0.145 F  
HETATM   20  F   UNL     1      -8.922   8.293  68.214  1.00  0.00    -0.134 F  
HETATM   21  S   UNL     1     -10.266  14.896  66.853  1.00  0.00    -0.258 S  
HETATM   22  H   UNL     1     -12.297  16.000  67.510  1.00  0.00     0.000 HD 
HETATM   23  O   UNL     1      -9.070  15.650  67.160  1.00  0.00    -0.197 OA 
HETATM   24  O   UNL     1     -10.799  14.836  65.511  1.00  0.00    -0.314 OA 
ENDBRANCH   4   7
TORSDOF 1
ENDMDL
MODEL      110
REMARK 921   NORMALIZED FREE ENERGY PREDICTED BY IDOCK:   -4.17 KCAL/MOL
REMARK 922        TOTAL FREE ENERGY PREDICTED BY IDOCK:   -4.17 KCAL/MOL
REMARK 923 INTER-LIGAND FREE ENERGY PREDICTED BY IDOCK:   -4.24 KCAL/MOL
REMARK 924 INTRA-LIGAND FREE ENERGY PREDICTED BY IDOCK:    0.06 KCAL/MOL
REMARK 927      BINDING AFFINITY PREDICTED BY RF-SCORE:    0.00 PKD
ROOT
HETATM    1  N   UNL     1      -9.992   5.862  68.706  1.00  0.00    -0.142 N  
HETATM    2  H2  UNL     1      -9.509   5.257  69.368  1.00  0.00     0.000 HD 
HETATM    3  H1  UNL     1     -10.976   5.790  68.446  1.00  0.00     0.000 HD 
HETATM    4  S   UNL     1      -9.299   7.137  67.867  1.00  0.00    -0.127 S  
HETATM    5  O   UNL     1      -9.722   6.950  66.500  1.00  0.00    -0.175 OA 
HETATM    6  O   UNL     1      -7.910   7.239  68.233  1.00  0.00    -0.117 OA 
ENDROOT
BRANCH   4   7
HETATM    7  C   UNL     1     -10.163   8.526  68.549  1.00  0.00    -0.198 A  
HETATM    8  C   UNL     1     -11.035   8.264  69.612  1.00  0.00    -0.092 A  
HETATM    9  C   UNL     1     -11.675   9.320  70.263  1.00  0.00    -0.051 A  
HETATM   10  C   UNL     1     -11.485  10.648  69.890  1.00  0.00    -0.317 A  
HETATM   11  C   UNL     1     -10.606  10.889  68.825  1.00  0.00    -0.231 A  
HETATM   12  N   UNL     1     -11.997  11.723  70.613  1.00  0.00    -0.466 NA 
HETATM   13  C   UNL     1      -9.948   9.849  68.119  1.00  0.00    -0.175 A  
HETATM   14  H   UNL     1     -11.570  12.647  70.547  1.00  0.00     0.000 HD 
HETATM   15  C   UNL     1     -13.146  11.501  71.458  1.00  0.00    -0.326 C  
HETATM   16  C   UNL     1      -9.070  10.277  66.962  1.00  0.00    -0.139 C  
HETATM   17  N   UNL     1     -12.862  10.439  72.399  1.00  0.00    -0.275 N  
HETATM   18  F   UNL     1      -8.112  11.159  67.366  1.00  0.00    -0.119 F  
HETATM   19  F   UNL     1      -9.795  10.947  66.019  1.00  0.00    -0.228 F  
HETATM   20  F   UNL     1      -8.403   9.313  66.286  1.00  0.00    -0.114 F  
HETATM   21  S   UNL     1     -12.719   8.960  71.625  1.00  0.00    -0.366 S  
HETATM   22  H   UNL     1     -12.763  10.573  73.405  1.00  0.00     0.000 HD 
HETATM   23  O   UNL     1     -14.028   8.639  71.098  1.00  0.00    -0.220 OA 
HETATM   24  O   UNL     1     -12.027   8.067  72.527  1.00  0.00    -0.358 OA 
ENDBRANCH   4   7
TORSDOF 1
ENDMDL
MODEL      111
REMARK 921   NORMALIZED FREE ENERGY PREDICTED BY IDOCK:   -4.16 KCAL/MOL
REMARK 922        TOTAL FREE ENERGY PREDICTED BY IDOCK:   -4.17 KCAL/MOL
REMARK 923 INTER-LIGAND FREE ENERGY PREDICTED BY IDOCK:   -4.31 KCAL/MOL
REMARK 924 INTRA-LIGAND FREE ENERGY PREDICTED BY IDOCK:    0.14 KCAL/MOL
REMARK 927      BINDING AFFINITY PREDICTED BY RF-SCORE:    0.00 PKD
ROOT
HETATM    1  N   UNL     1     -11.922   8.886  72.455  1.00  0.00    -0.249 N  
HETATM    2  H2  UNL     1     -11.561   9.528  73.160  1.00  0.00     0.000 HD 
HETATM    3  H1  UNL     1     -12.814   8.981  71.969  1.00  0.00     0.000 HD 
HETATM    4  S   UNL     1     -11.147   7.504  71.909  1.00  0.00    -0.249 S  
HETATM    5  O   UNL     1     -12.159   6.475  71.949  1.00  0.00    -0.334 OA 
HETATM    6  O   UNL     1      -9.889   7.370  72.597  1.00  0.00    -0.159 OA 
ENDROOT
BRANCH   4   7
HETATM    7  C   UNL     1     -10.821   7.922  70.218  1.00  0.00    -0.241 A  
HETATM    8  C   UNL     1     -11.033   9.254  69.847  1.00  0.00    -0.231 A  
HETATM    9  C   UNL     1     -10.704   9.678  68.558  1.00  0.00    -0.200 A  
HETATM   10  C   UNL     1     -10.172   8.814  67.604  1.00  0.00    -0.239 A  
HETATM   11  C   UNL     1      -9.965   7.485  67.997  1.00  0.00    -0.204 A  
HETATM   12  N   UNL     1      -9.704   9.244  66.364  1.00  0.00    -0.236 NA 
HETATM   13  C   UNL     1     -10.301   7.001  69.288  1.00  0.00    -0.210 A  
HETATM   14  H   UNL     1      -9.017   8.696  65.848  1.00  0.00     0.000 HD 
HETATM   15  C   UNL     1     -10.213  10.482  65.827  1.00  0.00    -0.243 C  
HETATM   16  C   UNL     1     -10.062   5.527  69.534  1.00  0.00    -0.234 C  
HETATM   17  N   UNL     1      -9.988  11.555  66.772  1.00  0.00    -0.205 N  
HETATM   18  F   UNL     1      -8.760   5.190  69.304  1.00  0.00    -0.093 F  
HETATM   19  F   UNL     1     -10.785   4.762  68.665  1.00  0.00    -0.064 F  
HETATM   20  F   UNL     1     -10.342   5.038  70.765  1.00  0.00    -0.282 F  
HETATM   21  S   UNL     1     -10.932  11.367  68.144  1.00  0.00    -0.254 S  
HETATM   22  H   UNL     1      -9.339  12.327  66.623  1.00  0.00     0.000 HD 
HETATM   23  O   UNL     1     -12.307  11.533  67.727  1.00  0.00    -0.329 OA 
HETATM   24  O   UNL     1     -10.351  12.189  69.182  1.00  0.00    -0.052 OA 
ENDBRANCH   4   7
TORSDOF 1
ENDMDL
MODEL      112
REMARK 921   NORMALIZED FREE ENERGY PREDICTED BY IDOCK:   -4.13 KCAL/MOL
REMARK 922        TOTAL FREE ENERGY PREDICTED BY IDOCK:   -4.13 KCAL/MOL
REMARK 923 INTER-LIGAND FREE ENERGY PREDICTED BY IDOCK:   -4.19 KCAL/MOL
REMARK 924 INTRA-LIGAND FREE ENERGY PREDICTED BY IDOCK:    0.05 KCAL/MOL
REMARK 927      BINDING AFFINITY PREDICTED BY RF-SCORE:    0.00 PKD
ROOT
HETATM    1  N   UNL     1     -12.644  13.945  67.281  1.00  0.00    -0.364 N  
HETATM    2  H2  UNL     1     -13.184  13.671  66.461  1.00  0.00     0.000 HD 
HETATM    3  H1  UNL     1     -12.847  13.674  68.243  1.00  0.00     0.000 HD 
HETATM    4  S   UNL     1     -11.277  14.915  67.265  1.00  0.00    -0.346 S  
HETATM    5  O   UNL     1     -11.504  15.888  68.306  1.00  0.00    -0.363 OA 
HETATM    6  O   UNL     1     -10.990  15.298  65.907  1.00  0.00    -0.334 OA 
ENDROOT
BRANCH   4   7
HETATM    7  C   UNL     1     -10.027  13.780  67.803  1.00  0.00    -0.242 A  
HETATM    8  C   UNL     1     -10.439  12.468  68.065  1.00  0.00    -0.227 A  
HETATM    9  C   UNL     1      -9.494  11.496  68.400  1.00  0.00    -0.195 A  
HETATM   10  C   UNL     1      -8.134  11.781  68.492  1.00  0.00    -0.140 A  
HETATM   11  C   UNL     1      -7.743  13.100  68.223  1.00  0.00    -0.141 A  
HETATM   12  N   UNL     1      -7.162  10.801  68.681  1.00  0.00    -0.083 NA 
HETATM   13  C   UNL     1      -8.666  14.127  67.900  1.00  0.00    -0.182 A  
HETATM   14  H   UNL     1      -6.197  10.963  68.394  1.00  0.00     0.000 HD 
HETATM   15  C   UNL     1      -7.551   9.552  69.290  1.00  0.00    -0.084 C  
HETATM   16  C   UNL     1      -8.083  15.508  67.689  1.00  0.00    -0.146 C  
HETATM   17  N   UNL     1      -8.630   8.954  68.533  1.00  0.00    -0.133 N  
HETATM   18  F   UNL     1      -7.130  15.501  66.713  1.00  0.00    -0.197 F  
HETATM   19  F   UNL     1      -7.440  15.945  68.810  1.00  0.00    -0.135 F  
HETATM   20  F   UNL     1      -8.932  16.507  67.348  1.00  0.00    -0.193 F  
HETATM   21  S   UNL     1     -10.039   9.851  68.668  1.00  0.00    -0.184 S  
HETATM   22  H   UNL     1      -8.544   8.096  67.988  1.00  0.00     0.000 HD 
HETATM   23  O   UNL     1     -10.464   9.751  70.047  1.00  0.00    -0.231 OA 
HETATM   24  O   UNL     1     -10.905   9.457  67.579  1.00  0.00    -0.269 OA 
ENDBRANCH   4   7
TORSDOF 1
ENDMDL
MODEL      113
REMARK 921   NORMALIZED FREE ENERGY PREDICTED BY IDOCK:   -4.13 KCAL/MOL
REMARK 922        TOTAL FREE ENERGY PREDICTED BY IDOCK:   -4.13 KCAL/MOL
REMARK 923 INTER-LIGAND FREE ENERGY PREDICTED BY IDOCK:   -4.22 KCAL/MOL
REMARK 924 INTRA-LIGAND FREE ENERGY PREDICTED BY IDOCK:    0.09 KCAL/MOL
REMARK 927      BINDING AFFINITY PREDICTED BY RF-SCORE:    0.00 PKD
ROOT
HETATM    1  N   UNL     1     -11.878   6.581  69.224  1.00  0.00    -0.506 N  
HETATM    2  H2  UNL     1     -12.842   6.906  69.167  1.00  0.00     0.000 HD 
HETATM    3  H1  UNL     1     -11.280   6.358  68.428  1.00  0.00     0.000 HD 
HETATM    4  S   UNL     1     -11.019   6.326  70.640  1.00  0.00    -0.330 S  
HETATM    5  O   UNL     1     -10.412   5.027  70.473  1.00  0.00    -0.240 OA 
HETATM    6  O   UNL     1     -11.863   6.640  71.763  1.00  0.00    -0.304 OA 
ENDROOT
BRANCH   4   7
HETATM    7  C   UNL     1      -9.758   7.567  70.522  1.00  0.00    -0.179 A  
HETATM    8  C   UNL     1      -9.879   8.488  69.475  1.00  0.00    -0.187 A  
HETATM    9  C   UNL     1      -8.978   9.551  69.376  1.00  0.00    -0.172 A  
HETATM   10  C   UNL     1      -7.942   9.734  70.288  1.00  0.00    -0.162 A  
HETATM   11  C   UNL     1      -7.841   8.802  71.329  1.00  0.00    -0.167 A  
HETATM   12  N   UNL     1      -7.124  10.862  70.294  1.00  0.00    -0.472 NA 
HETATM   13  C   UNL     1      -8.717   7.694  71.461  1.00  0.00    -0.131 A  
HETATM   14  H   UNL     1      -6.635  11.146  71.142  1.00  0.00     0.000 HD 
HETATM   15  C   UNL     1      -6.983  11.618  69.073  1.00  0.00    -0.111 C  
HETATM   16  C   UNL     1      -8.439   6.753  72.614  1.00  0.00    -0.121 C  
HETATM   17  N   UNL     1      -8.288  12.030  68.601  1.00  0.00    -0.318 N  
HETATM   18  F   UNL     1      -8.444   7.415  73.806  1.00  0.00    -0.149 F  
HETATM   19  F   UNL     1      -7.191   6.211  72.513  1.00  0.00    -0.079 F  
HETATM   20  F   UNL     1      -9.276   5.703  72.787  1.00  0.00    -0.133 F  
HETATM   21  S   UNL     1      -9.192  10.717  68.084  1.00  0.00    -0.153 S  
HETATM   22  H   UNL     1      -8.616  12.996  68.583  1.00  0.00     0.000 HD 
HETATM   23  O   UNL     1      -8.528  10.193  66.910  1.00  0.00    -0.125 OA 
HETATM   24  O   UNL     1     -10.575  11.134  68.048  1.00  0.00    -0.181 OA 
ENDBRANCH   4   7
TORSDOF 1
ENDMDL
MODEL      114
REMARK 921   NORMALIZED FREE ENERGY PREDICTED BY IDOCK:   -4.12 KCAL/MOL
REMARK 922        TOTAL FREE ENERGY PREDICTED BY IDOCK:   -4.12 KCAL/MOL
REMARK 923 INTER-LIGAND FREE ENERGY PREDICTED BY IDOCK:   -4.18 KCAL/MOL
REMARK 924 INTRA-LIGAND FREE ENERGY PREDICTED BY IDOCK:    0.06 KCAL/MOL
REMARK 927      BINDING AFFINITY PREDICTED BY RF-SCORE:    0.00 PKD
ROOT
HETATM    1  N   UNL     1     -12.656   9.858  71.166  1.00  0.00    -0.343 N  
HETATM    2  H2  UNL     1     -12.578  10.676  71.770  1.00  0.00     0.000 HD 
HETATM    3  H1  UNL     1     -13.088   9.844  70.242  1.00  0.00     0.000 HD 
HETATM    4  S   UNL     1     -12.097   8.321  71.531  1.00  0.00    -0.309 S  
HETATM    5  O   UNL     1     -13.196   7.444  71.209  1.00  0.00    -0.348 OA 
HETATM    6  O   UNL     1     -11.487   8.342  72.836  1.00  0.00    -0.347 OA 
ENDROOT
BRANCH   4   7
HETATM    7  C   UNL     1     -10.820   8.108  70.319  1.00  0.00    -0.244 A  
HETATM    8  C   UNL     1     -10.535   9.211  69.506  1.00  0.00    -0.226 A  
HETATM    9  C   UNL     1      -9.477   9.150  68.596  1.00  0.00    -0.143 A  
HETATM   10  C   UNL     1      -8.684   8.014  68.455  1.00  0.00    -0.130 A  
HETATM   11  C   UNL     1      -8.985   6.922  69.280  1.00  0.00    -0.137 A  
HETATM   12  N   UNL     1      -7.539   7.979  67.661  1.00  0.00    -0.100 NA 
HETATM   13  C   UNL     1     -10.061   6.928  70.205  1.00  0.00    -0.196 A  
HETATM   14  H   UNL     1      -6.800   7.299  67.842  1.00  0.00     0.000 HD 
HETATM   15  C   UNL     1      -7.421   8.926  66.579  1.00  0.00    -0.088 C  
HETATM   16  C   UNL     1     -10.283   5.649  70.983  1.00  0.00    -0.220 C  
HETATM   17  N   UNL     1      -7.555  10.273  67.092  1.00  0.00    -0.092 N  
HETATM   18  F   UNL     1      -9.162   5.286  71.671  1.00  0.00    -0.146 F  
HETATM   19  F   UNL     1     -10.538   4.603  70.144  1.00  0.00    -0.282 F  
HETATM   20  F   UNL     1     -11.281   5.631  71.897  1.00  0.00    -0.303 F  
HETATM   21  S   UNL     1      -9.113  10.568  67.633  1.00  0.00    -0.142 S  
HETATM   22  H   UNL     1      -6.797  10.956  67.119  1.00  0.00     0.000 HD 
HETATM   23  O   UNL     1      -9.969  10.536  66.467  1.00  0.00    -0.199 OA 
HETATM   24  O   UNL     1      -9.055  11.725  68.498  1.00  0.00    -0.190 OA 
ENDBRANCH   4   7
TORSDOF 1
ENDMDL
MODEL      115
REMARK 921   NORMALIZED FREE ENERGY PREDICTED BY IDOCK:   -4.11 KCAL/MOL
REMARK 922        TOTAL FREE ENERGY PREDICTED BY IDOCK:   -4.11 KCAL/MOL
REMARK 923 INTER-LIGAND FREE ENERGY PREDICTED BY IDOCK:   -4.16 KCAL/MOL
REMARK 924 INTRA-LIGAND FREE ENERGY PREDICTED BY IDOCK:    0.05 KCAL/MOL
REMARK 927      BINDING AFFINITY PREDICTED BY RF-SCORE:    0.00 PKD
ROOT
HETATM    1  N   UNL     1      -8.507   6.789  71.652  1.00  0.00    -0.115 N  
HETATM    2  H2  UNL     1      -8.672   5.805  71.863  1.00  0.00     0.000 HD 
HETATM    3  H1  UNL     1      -7.610   7.196  71.386  1.00  0.00     0.000 HD 
HETATM    4  S   UNL     1      -9.667   7.998  71.685  1.00  0.00    -0.183 S  
HETATM    5  O   UNL     1      -9.058   9.071  72.434  1.00  0.00    -0.316 OA 
HETATM    6  O   UNL     1     -10.933   7.424  72.061  1.00  0.00    -0.226 OA 
ENDROOT
BRANCH   4   7
HETATM    7  C   UNL     1      -9.747   8.464  69.977  1.00  0.00    -0.176 A  
HETATM    8  C   UNL     1      -8.947   7.736  69.089  1.00  0.00    -0.145 A  
HETATM    9  C   UNL     1      -9.031   7.982  67.717  1.00  0.00    -0.132 A  
HETATM   10  C   UNL     1      -9.886   8.943  67.184  1.00  0.00    -0.207 A  
HETATM   11  C   UNL     1     -10.680   9.659  68.091  1.00  0.00    -0.266 A  
HETATM   12  N   UNL     1     -10.092   9.105  65.816  1.00  0.00    -0.380 NA 
HETATM   13  C   UNL     1     -10.616   9.461  69.494  1.00  0.00    -0.237 A  
HETATM   14  H   UNL     1     -10.947   9.536  65.465  1.00  0.00     0.000 HD 
HETATM   15  C   UNL     1      -9.069   8.650  64.906  1.00  0.00     0.155 C  
HETATM   16  C   UNL     1     -11.503  10.352  70.337  1.00  0.00    -0.337 C  
HETATM   17  N   UNL     1      -8.793   7.249  65.142  1.00  0.00    -0.355 N  
HETATM   18  F   UNL     1     -12.813  10.237  69.973  1.00  0.00    -0.283 F  
HETATM   19  F   UNL     1     -11.196  11.669  70.148  1.00  0.00    -0.284 F  
HETATM   20  F   UNL     1     -11.491  10.169  71.678  1.00  0.00    -0.404 F  
HETATM   21  S   UNL     1      -8.055   7.014  66.628  1.00  0.00    -0.112 S  
HETATM   22  H   UNL     1      -9.018   6.500  64.487  1.00  0.00     0.000 HD 
HETATM   23  O   UNL     1      -6.750   7.632  66.545  1.00  0.00    -0.055 OA 
HETATM   24  O   UNL     1      -8.211   5.618  66.969  1.00  0.00    -0.102 OA 
ENDBRANCH   4   7
TORSDOF 1
ENDMDL
MODEL      116
REMARK 921   NORMALIZED FREE ENERGY PREDICTED BY IDOCK:   -4.11 KCAL/MOL
REMARK 922        TOTAL FREE ENERGY PREDICTED BY IDOCK:   -4.11 KCAL/MOL
REMARK 923 INTER-LIGAND FREE ENERGY PREDICTED BY IDOCK:   -4.21 KCAL/MOL
REMARK 924 INTRA-LIGAND FREE ENERGY PREDICTED BY IDOCK:    0.10 KCAL/MOL
REMARK 927      BINDING AFFINITY PREDICTED BY RF-SCORE:    0.00 PKD
ROOT
HETATM    1  N   UNL     1     -12.057  13.369  71.729  1.00  0.00     0.067 N  
HETATM    2  H2  UNL     1     -12.964  12.936  71.901  1.00  0.00     0.000 HD 
HETATM    3  H1  UNL     1     -11.159  13.011  72.055  1.00  0.00     0.000 HD 
HETATM    4  S   UNL     1     -11.801  14.782  70.866  1.00  0.00    -0.324 S  
HETATM    5  O   UNL     1     -10.917  15.565  71.696  1.00  0.00    -0.289 OA 
HETATM    6  O   UNL     1     -13.069  15.287  70.406  1.00  0.00    -0.312 OA 
ENDROOT
BRANCH   4   7
HETATM    7  C   UNL     1     -10.893  14.186  69.465  1.00  0.00    -0.075 A  
HETATM    8  C   UNL     1     -10.794  12.797  69.325  1.00  0.00    -0.044 A  
HETATM    9  C   UNL     1     -10.178  12.254  68.195  1.00  0.00    -0.212 A  
HETATM   10  C   UNL     1      -9.642  13.050  67.186  1.00  0.00    -0.230 A  
HETATM   11  C   UNL     1      -9.754  14.438  67.345  1.00  0.00    -0.220 A  
HETATM   12  N   UNL     1      -9.154  12.534  65.987  1.00  0.00    -0.433 NA 
HETATM   13  C   UNL     1     -10.352  15.038  68.483  1.00  0.00    -0.230 A  
HETATM   14  H   UNL     1      -9.106  13.115  65.151  1.00  0.00     0.000 HD 
HETATM   15  C   UNL     1      -8.719  11.159  65.956  1.00  0.00    -0.183 C  
HETATM   16  C   UNL     1     -10.347  16.551  68.523  1.00  0.00    -0.289 C  
HETATM   17  N   UNL     1      -9.793  10.295  66.396  1.00  0.00    -0.207 N  
HETATM   18  F   UNL     1     -10.956  17.079  67.423  1.00  0.00    -0.305 F  
HETATM   19  F   UNL     1      -9.072  17.037  68.491  1.00  0.00    -0.226 F  
HETATM   20  F   UNL     1     -10.937  17.157  69.580  1.00  0.00    -0.266 F  
HETATM   21  S   UNL     1     -10.120  10.510  68.025  1.00  0.00    -0.172 S  
HETATM   22  H   UNL     1     -10.288   9.639  65.792  1.00  0.00     0.000 HD 
HETATM   23  O   UNL     1      -8.957  10.040  68.747  1.00  0.00    -0.132 OA 
HETATM   24  O   UNL     1     -11.436   9.967  68.276  1.00  0.00    -0.131 OA 
ENDBRANCH   4   7
TORSDOF 1
ENDMDL
MODEL      117
REMARK 921   NORMALIZED FREE ENERGY PREDICTED BY IDOCK:   -4.08 KCAL/MOL
REMARK 922        TOTAL FREE ENERGY PREDICTED BY IDOCK:   -4.08 KCAL/MOL
REMARK 923 INTER-LIGAND FREE ENERGY PREDICTED BY IDOCK:   -4.15 KCAL/MOL
REMARK 924 INTRA-LIGAND FREE ENERGY PREDICTED BY IDOCK:    0.07 KCAL/MOL
REMARK 927      BINDING AFFINITY PREDICTED BY RF-SCORE:    0.00 PKD
ROOT
HETATM    1  N   UNL     1      -7.096   6.705  72.750  1.00  0.00    -0.079 N  
HETATM    2  H2  UNL     1      -6.679   5.918  73.247  1.00  0.00     0.000 HD 
HETATM    3  H1  UNL     1      -6.620   7.291  72.063  1.00  0.00     0.000 HD 
HETATM    4  S   UNL     1      -8.671   7.246  72.930  1.00  0.00    -0.129 S  
HETATM    5  O   UNL     1      -8.554   8.676  73.088  1.00  0.00    -0.393 OA 
HETATM    6  O   UNL     1      -9.343   6.420  73.900  1.00  0.00    -0.131 OA 
ENDROOT
BRANCH   4   7
HETATM    7  C   UNL     1      -9.353   6.900  71.331  1.00  0.00    -0.156 A  
HETATM    8  C   UNL     1      -8.483   6.354  70.381  1.00  0.00    -0.131 A  
HETATM    9  C   UNL     1      -8.971   5.966  69.132  1.00  0.00    -0.119 A  
HETATM   10  C   UNL     1     -10.312   6.108  68.781  1.00  0.00    -0.209 A  
HETATM   11  C   UNL     1     -11.166   6.654  69.747  1.00  0.00    -0.413 A  
HETATM   12  N   UNL     1     -10.848   5.597  67.600  1.00  0.00    -0.245 NA 
HETATM   13  C   UNL     1     -10.715   7.083  71.022  1.00  0.00    -0.256 A  
HETATM   14  H   UNL     1     -11.844   5.393  67.526  1.00  0.00     0.000 HD 
HETATM   15  C   UNL     1      -9.962   5.364  66.486  1.00  0.00    -0.196 C  
HETATM   16  C   UNL     1     -11.758   7.698  71.930  1.00  0.00    -0.289 C  
HETATM   17  N   UNL     1      -8.887   4.484  66.891  1.00  0.00    -0.111 N  
HETATM   18  F   UNL     1     -12.801   6.844  72.138  1.00  0.00    -0.315 F  
HETATM   19  F   UNL     1     -12.314   8.805  71.357  1.00  0.00    -0.305 F  
HETATM   20  F   UNL     1     -11.368   8.089  73.166  1.00  0.00    -0.455 F  
HETATM   21  S   UNL     1      -7.864   5.235  67.986  1.00  0.00    -0.091 S  
HETATM   22  H   UNL     1      -8.766   3.529  66.554  1.00  0.00     0.000 HD 
HETATM   23  O   UNL     1      -7.206   6.306  67.270  1.00  0.00    -0.075 OA 
HETATM   24  O   UNL     1      -7.111   4.197  68.653  1.00  0.00    -0.053 OA 
ENDBRANCH   4   7
TORSDOF 1
ENDMDL
MODEL      118
REMARK 921   NORMALIZED FREE ENERGY PREDICTED BY IDOCK:   -4.08 KCAL/MOL
REMARK 922        TOTAL FREE ENERGY PREDICTED BY IDOCK:   -4.08 KCAL/MOL
REMARK 923 INTER-LIGAND FREE ENERGY PREDICTED BY IDOCK:   -4.13 KCAL/MOL
REMARK 924 INTRA-LIGAND FREE ENERGY PREDICTED BY IDOCK:    0.05 KCAL/MOL
REMARK 927      BINDING AFFINITY PREDICTED BY RF-SCORE:    0.00 PKD
ROOT
HETATM    1  N   UNL     1      -6.725   8.505  70.168  1.00  0.00    -0.038 N  
HETATM    2  H2  UNL     1      -6.648   8.180  71.131  1.00  0.00     0.000 HD 
HETATM    3  H1  UNL     1      -6.098   8.249  69.405  1.00  0.00     0.000 HD 
HETATM    4  S   UNL     1      -7.902   9.544  69.582  1.00  0.00    -0.133 S  
HETATM    5  O   UNL     1      -7.175  10.531  68.821  1.00  0.00    -0.074 OA 
HETATM    6  O   UNL     1      -8.787   9.904  70.659  1.00  0.00    -0.088 OA 
ENDROOT
BRANCH   4   7
HETATM    7  C   UNL     1      -8.783   8.491  68.461  1.00  0.00    -0.139 A  
HETATM    8  C   UNL     1      -8.347   7.164  68.370  1.00  0.00    -0.125 A  
HETATM    9  C   UNL     1      -9.052   6.253  67.582  1.00  0.00    -0.117 A  
HETATM   10  C   UNL     1     -10.188   6.615  66.863  1.00  0.00    -0.220 A  
HETATM   11  C   UNL     1     -10.609   7.947  66.970  1.00  0.00    -0.381 A  
HETATM   12  N   UNL     1     -10.988   5.694  66.188  1.00  0.00    -0.735 NA 
HETATM   13  C   UNL     1      -9.916   8.915  67.741  1.00  0.00    -0.241 A  
HETATM   14  H   UNL     1     -11.965   5.903  65.985  1.00  0.00     0.000 HD 
HETATM   15  C   UNL     1     -10.403   4.439  65.784  1.00  0.00    -0.217 C  
HETATM   16  C   UNL     1     -10.474  10.322  67.709  1.00  0.00    -0.226 C  
HETATM   17  N   UNL     1      -9.844   3.766  66.937  1.00  0.00    -0.352 N  
HETATM   18  F   UNL     1     -11.778  10.347  68.109  1.00  0.00    -0.338 F  
HETATM   19  F   UNL     1     -10.483  10.817  66.437  1.00  0.00    -0.275 F  
HETATM   20  F   UNL     1      -9.855  11.264  68.458  1.00  0.00    -0.170 F  
HETATM   21  S   UNL     1      -8.509   4.586  67.534  1.00  0.00    -0.103 S  
HETATM   22  H   UNL     1     -10.214   2.903  67.336  1.00  0.00     0.000 HD 
HETATM   23  O   UNL     1      -7.479   4.491  66.522  1.00  0.00    -0.080 OA 
HETATM   24  O   UNL     1      -8.288   4.122  68.885  1.00  0.00    -0.077 OA 
ENDBRANCH   4   7
TORSDOF 1
ENDMDL
MODEL      119
REMARK 921   NORMALIZED FREE ENERGY PREDICTED BY IDOCK:   -4.06 KCAL/MOL
REMARK 922        TOTAL FREE ENERGY PREDICTED BY IDOCK:   -4.06 KCAL/MOL
REMARK 923 INTER-LIGAND FREE ENERGY PREDICTED BY IDOCK:   -4.98 KCAL/MOL
REMARK 924 INTRA-LIGAND FREE ENERGY PREDICTED BY IDOCK:    0.92 KCAL/MOL
REMARK 927      BINDING AFFINITY PREDICTED BY RF-SCORE:    0.00 PKD
ROOT
HETATM    1  N   UNL     1      -7.738  11.588  66.160  1.00  0.00    -0.379 N  
HETATM    2  H2  UNL     1      -8.187  10.718  65.877  1.00  0.00     0.000 HD 
HETATM    3  H1  UNL     1      -7.170  12.185  65.558  1.00  0.00     0.000 HD 
HETATM    4  S   UNL     1      -7.813  12.270  67.689  1.00  0.00    -0.169 S  
HETATM    5  O   UNL     1      -6.447  12.608  68.009  1.00  0.00    -0.071 OA 
HETATM    6  O   UNL     1      -8.614  11.427  68.539  1.00  0.00    -0.151 OA 
ENDROOT
BRANCH   4   7
HETATM    7  C   UNL     1      -8.714  13.763  67.371  1.00  0.00    -0.207 A  
HETATM    8  C   UNL     1      -7.984  14.957  67.409  1.00  0.00    -0.223 A  
HETATM    9  C   UNL     1      -8.605  16.162  67.073  1.00  0.00    -0.205 A  
HETATM   10  C   UNL     1      -9.946  16.230  66.704  1.00  0.00    -0.264 A  
HETATM   11  C   UNL     1     -10.657  15.023  66.670  1.00  0.00    -0.301 A  
HETATM   12  N   UNL     1     -10.547  17.394  66.228  1.00  0.00    -0.254 NA 
HETATM   13  C   UNL     1     -10.077  13.777  67.022  1.00  0.00    -0.256 A  
HETATM   14  H   UNL     1     -11.382  17.348  65.644  1.00  0.00     0.000 HD 
HETATM   15  C   UNL     1      -9.961  18.665  66.578  1.00  0.00    -0.380 C  
HETATM   16  C   UNL     1     -10.997  12.575  66.982  1.00  0.00    -0.267 C  
HETATM   17  N   UNL     1      -8.573  18.693  66.170  1.00  0.00    -0.211 N  
HETATM   18  F   UNL     1     -11.563  12.424  65.750  1.00  0.00    -0.359 F  
HETATM   19  F   UNL     1     -12.049  12.735  67.838  1.00  0.00    -0.384 F  
HETATM   20  F   UNL     1     -10.469  11.365  67.281  1.00  0.00    -0.206 F  
HETATM   21  S   UNL     1      -7.648  17.631  67.078  1.00  0.00    -0.215 S  
HETATM   22  H   UNL     1      -8.204  19.284  65.425  1.00  0.00     0.000 HD 
HETATM   23  O   UNL     1      -7.639  18.142  68.431  1.00  0.00    -0.264 OA 
HETATM   24  O   UNL     1      -6.422  17.398  66.349  1.00  0.00    -0.210 OA 
ENDBRANCH   4   7
TORSDOF 1
ENDMDL
MODEL      120
REMARK 921   NORMALIZED FREE ENERGY PREDICTED BY IDOCK:   -3.97 KCAL/MOL
REMARK 922        TOTAL FREE ENERGY PREDICTED BY IDOCK:   -3.97 KCAL/MOL
REMARK 923 INTER-LIGAND FREE ENERGY PREDICTED BY IDOCK:   -4.97 KCAL/MOL
REMARK 924 INTRA-LIGAND FREE ENERGY PREDICTED BY IDOCK:    1.00 KCAL/MOL
REMARK 927      BINDING AFFINITY PREDICTED BY RF-SCORE:    0.00 PKD
ROOT
HETATM    1  N   UNL     1      -6.869  19.487  67.615  1.00  0.00    -0.228 N  
HETATM    2  H2  UNL     1      -7.279  20.421  67.627  1.00  0.00     0.000 HD 
HETATM    3  H1  UNL     1      -6.466  19.007  68.419  1.00  0.00     0.000 HD 
HETATM    4  S   UNL     1      -6.750  18.495  66.270  1.00  0.00    -0.242 S  
HETATM    5  O   UNL     1      -5.386  18.025  66.280  1.00  0.00    -0.140 OA 
HETATM    6  O   UNL     1      -7.319  19.174  65.134  1.00  0.00    -0.348 OA 
ENDROOT
BRANCH   4   7
HETATM    7  C   UNL     1      -7.821  17.156  66.717  1.00  0.00    -0.242 A  
HETATM    8  C   UNL     1      -7.205  15.968  67.127  1.00  0.00    -0.257 A  
HETATM    9  C   UNL     1      -7.983  14.903  67.587  1.00  0.00    -0.169 A  
HETATM   10  C   UNL     1      -9.373  14.971  67.649  1.00  0.00    -0.194 A  
HETATM   11  C   UNL     1      -9.969  16.170  67.236  1.00  0.00    -0.248 A  
HETATM   12  N   UNL     1     -10.158  13.981  68.237  1.00  0.00    -0.240 NA 
HETATM   13  C   UNL     1      -9.224  17.271  66.743  1.00  0.00    -0.270 A  
HETATM   14  H   UNL     1     -11.090  14.195  68.589  1.00  0.00     0.000 HD 
HETATM   15  C   UNL     1      -9.621  12.645  68.336  1.00  0.00    -0.173 C  
HETATM   16  C   UNL     1     -10.026  18.473  66.290  1.00  0.00    -0.365 C  
HETATM   17  N   UNL     1      -8.359  12.676  69.043  1.00  0.00    -0.286 N  
HETATM   18  F   UNL     1     -10.824  18.943  67.291  1.00  0.00    -0.463 F  
HETATM   19  F   UNL     1     -10.882  18.139  65.281  1.00  0.00    -0.441 F  
HETATM   20  F   UNL     1      -9.345  19.554  65.843  1.00  0.00    -0.369 F  
HETATM   21  S   UNL     1      -7.176  13.450  68.145  1.00  0.00    -0.132 S  
HETATM   22  H   UNL     1      -8.208  12.276  69.969  1.00  0.00     0.000 HD 
HETATM   23  O   UNL     1      -6.924  12.619  66.987  1.00  0.00    -0.076 OA 
HETATM   24  O   UNL     1      -6.116  13.819  69.056  1.00  0.00    -0.082 OA 
ENDBRANCH   4   7
TORSDOF 1
ENDMDL
MODEL      121
REMARK 921   NORMALIZED FREE ENERGY PREDICTED BY IDOCK:   -3.92 KCAL/MOL
REMARK 922        TOTAL FREE ENERGY PREDICTED BY IDOCK:   -3.91 KCAL/MOL
REMARK 923 INTER-LIGAND FREE ENERGY PREDICTED BY IDOCK:   -4.14 KCAL/MOL
REMARK 924 INTRA-LIGAND FREE ENERGY PREDICTED BY IDOCK:    0.23 KCAL/MOL
REMARK 927      BINDING AFFINITY PREDICTED BY RF-SCORE:    0.00 PKD
ROOT
HETATM    1  N   UNL     1      -8.351   8.153  65.892  1.00  0.00    -0.124 N  
HETATM    2  H2  UNL     1      -7.517   7.570  65.956  1.00  0.00     0.000 HD 
HETATM    3  H1  UNL     1      -9.293   7.820  65.684  1.00  0.00     0.000 HD 
HETATM    4  S   UNL     1      -8.397   9.814  66.114  1.00  0.00    -0.122 S  
HETATM    5  O   UNL     1      -9.159  10.313  64.995  1.00  0.00    -0.176 OA 
HETATM    6  O   UNL     1      -7.068  10.284  66.409  1.00  0.00    -0.100 OA 
ENDROOT
BRANCH   4   7
HETATM    7  C   UNL     1      -9.379   9.951  67.584  1.00  0.00    -0.140 A  
HETATM    8  C   UNL     1      -9.579   8.777  68.318  1.00  0.00    -0.160 A  
HETATM    9  C   UNL     1     -10.260   8.826  69.537  1.00  0.00    -0.208 A  
HETATM   10  C   UNL     1     -10.763  10.014  70.059  1.00  0.00    -0.299 A  
HETATM   11  C   UNL     1     -10.550  11.179  69.309  1.00  0.00    -0.212 A  
HETATM   12  N   UNL     1     -11.316  10.111  71.335  1.00  0.00    -0.204 NA 
HETATM   13  C   UNL     1      -9.883  11.178  68.057  1.00  0.00    -0.185 A  
HETATM   14  H   UNL     1     -11.343  11.006  71.824  1.00  0.00     0.000 HD 
HETATM   15  C   UNL     1     -11.848   8.919  71.948  1.00  0.00    -0.370 C  
HETATM   16  C   UNL     1      -9.781  12.513  67.351  1.00  0.00    -0.194 C  
HETATM   17  N   UNL     1     -10.826   7.895  71.993  1.00  0.00    -0.240 N  
HETATM   18  F   UNL     1      -9.164  13.443  68.136  1.00  0.00    -0.187 F  
HETATM   19  F   UNL     1     -11.019  13.029  67.097  1.00  0.00    -0.253 F  
HETATM   20  F   UNL     1      -9.123  12.554  66.169  1.00  0.00    -0.211 F  
HETATM   21  S   UNL     1     -10.445   7.345  70.457  1.00  0.00    -0.222 S  
HETATM   22  H   UNL     1     -10.393   7.551  72.851  1.00  0.00     0.000 HD 
HETATM   23  O   UNL     1     -11.620   6.665  69.957  1.00  0.00    -0.380 OA 
HETATM   24  O   UNL     1      -9.164   6.680  70.543  1.00  0.00    -0.155 OA 
ENDBRANCH   4   7
TORSDOF 1
ENDMDL
MODEL      122
REMARK 921   NORMALIZED FREE ENERGY PREDICTED BY IDOCK:   -3.91 KCAL/MOL
REMARK 922        TOTAL FREE ENERGY PREDICTED BY IDOCK:   -3.91 KCAL/MOL
REMARK 923 INTER-LIGAND FREE ENERGY PREDICTED BY IDOCK:   -4.18 KCAL/MOL
REMARK 924 INTRA-LIGAND FREE ENERGY PREDICTED BY IDOCK:    0.27 KCAL/MOL
REMARK 927      BINDING AFFINITY PREDICTED BY RF-SCORE:    0.00 PKD
ROOT
HETATM    1  N   UNL     1     -12.160  13.335  68.049  1.00  0.00    -0.295 N  
HETATM    2  H2  UNL     1     -12.871  13.361  67.319  1.00  0.00     0.000 HD 
HETATM    3  H1  UNL     1     -11.994  12.556  68.688  1.00  0.00     0.000 HD 
HETATM    4  S   UNL     1     -11.075  14.564  68.396  1.00  0.00    -0.268 S  
HETATM    5  O   UNL     1     -11.139  14.718  69.829  1.00  0.00    -0.261 OA 
HETATM    6  O   UNL     1     -11.309  15.663  67.495  1.00  0.00    -0.300 OA 
ENDROOT
BRANCH   4   7
HETATM    7  C   UNL     1      -9.530  13.808  67.969  1.00  0.00    -0.207 A  
HETATM    8  C   UNL     1      -9.592  12.648  67.189  1.00  0.00    -0.207 A  
HETATM    9  C   UNL     1      -8.414  12.052  66.733  1.00  0.00    -0.155 A  
HETATM   10  C   UNL     1      -7.156  12.569  67.032  1.00  0.00     0.039 A  
HETATM   11  C   UNL     1      -7.116  13.733  67.811  1.00  0.00    -0.175 A  
HETATM   12  N   UNL     1      -5.978  12.079  66.471  1.00  0.00    -0.499 NA 
HETATM   13  C   UNL     1      -8.283  14.363  68.315  1.00  0.00    -0.149 A  
HETATM   14  H   UNL     1      -5.146  12.665  66.411  1.00  0.00     0.000 HD 
HETATM   15  C   UNL     1      -5.962  10.724  65.976  1.00  0.00    -0.138 C  
HETATM   16  C   UNL     1      -8.063  15.584  69.184  1.00  0.00    -0.244 C  
HETATM   17  N   UNL     1      -7.016  10.547  65.000  1.00  0.00    -0.326 N  
HETATM   18  F   UNL     1      -7.343  16.537  68.527  1.00  0.00    -0.154 F  
HETATM   19  F   UNL     1      -7.320  15.273  70.286  1.00  0.00    -0.108 F  
HETATM   20  F   UNL     1      -9.156  16.228  69.656  1.00  0.00    -0.205 F  
HETATM   21  S   UNL     1      -8.530  10.631  65.713  1.00  0.00    -0.177 S  
HETATM   22  H   UNL     1      -6.858  10.391  64.004  1.00  0.00     0.000 HD 
HETATM   23  O   UNL     1      -8.642   9.479  66.582  1.00  0.00    -0.131 OA 
HETATM   24  O   UNL     1      -9.488  10.882  64.661  1.00  0.00    -0.218 OA 
ENDBRANCH   4   7
TORSDOF 1
ENDMDL
MODEL      123
REMARK 921   NORMALIZED FREE ENERGY PREDICTED BY IDOCK:   -3.91 KCAL/MOL
REMARK 922        TOTAL FREE ENERGY PREDICTED BY IDOCK:   -3.90 KCAL/MOL
REMARK 923 INTER-LIGAND FREE ENERGY PREDICTED BY IDOCK:   -3.96 KCAL/MOL
REMARK 924 INTRA-LIGAND FREE ENERGY PREDICTED BY IDOCK:    0.06 KCAL/MOL
REMARK 927      BINDING AFFINITY PREDICTED BY RF-SCORE:    0.00 PKD
ROOT
HETATM    1  N   UNL     1     -10.767  10.298  70.130  1.00  0.00    -0.348 N  
HETATM    2  H2  UNL     1     -11.495   9.841  70.679  1.00  0.00     0.000 HD 
HETATM    3  H1  UNL     1      -9.783  10.366  70.391  1.00  0.00     0.000 HD 
HETATM    4  S   UNL     1     -10.993  11.058  68.654  1.00  0.00    -0.247 S  
HETATM    5  O   UNL     1     -10.319  12.327  68.786  1.00  0.00    -0.211 OA 
HETATM    6  O   UNL     1     -12.382  10.962  68.285  1.00  0.00    -0.400 OA 
ENDROOT
BRANCH   4   7
HETATM    7  C   UNL     1     -10.052  10.019  67.569  1.00  0.00    -0.198 A  
HETATM    8  C   UNL     1      -9.415   8.916  68.149  1.00  0.00    -0.155 A  
HETATM    9  C   UNL     1      -8.737   8.000  67.343  1.00  0.00    -0.124 A  
HETATM   10  C   UNL     1      -8.660   8.142  65.960  1.00  0.00    -0.147 A  
HETATM   11  C   UNL     1      -9.306   9.252  65.398  1.00  0.00    -0.292 A  
HETATM   12  N   UNL     1      -8.115   7.169  65.124  1.00  0.00    -0.128 NA 
HETATM   13  C   UNL     1      -9.990  10.221  66.177  1.00  0.00    -0.300 A  
HETATM   14  H   UNL     1      -8.381   7.119  64.140  1.00  0.00     0.000 HD 
HETATM   15  C   UNL     1      -7.168   6.234  65.680  1.00  0.00    -0.074 C  
HETATM   16  C   UNL     1     -10.591  11.385  65.419  1.00  0.00    -0.275 C  
HETATM   17  N   UNL     1      -7.760   5.554  66.812  1.00  0.00    -0.099 N  
HETATM   18  F   UNL     1     -11.457  10.957  64.456  1.00  0.00    -0.142 F  
HETATM   19  F   UNL     1      -9.628  12.081  64.747  1.00  0.00    -0.222 F  
HETATM   20  F   UNL     1     -11.278  12.313  66.127  1.00  0.00    -0.303 F  
HETATM   21  S   UNL     1      -7.997   6.601  68.098  1.00  0.00    -0.111 S  
HETATM   22  H   UNL     1      -8.001   4.563  66.826  1.00  0.00     0.000 HD 
HETATM   23  O   UNL     1      -6.684   6.997  68.558  1.00  0.00    -0.058 OA 
HETATM   24  O   UNL     1      -8.955   5.982  68.986  1.00  0.00    -0.123 OA 
ENDBRANCH   4   7
TORSDOF 1
ENDMDL
MODEL      124
REMARK 921   NORMALIZED FREE ENERGY PREDICTED BY IDOCK:   -3.90 KCAL/MOL
REMARK 922        TOTAL FREE ENERGY PREDICTED BY IDOCK:   -3.89 KCAL/MOL
REMARK 923 INTER-LIGAND FREE ENERGY PREDICTED BY IDOCK:   -4.06 KCAL/MOL
REMARK 924 INTRA-LIGAND FREE ENERGY PREDICTED BY IDOCK:    0.17 KCAL/MOL
REMARK 927      BINDING AFFINITY PREDICTED BY RF-SCORE:    0.00 PKD
ROOT
HETATM    1  N   UNL     1     -10.752  15.651  68.075  1.00  0.00    -0.278 N  
HETATM    2  H2  UNL     1     -11.171  15.763  68.998  1.00  0.00     0.000 HD 
HETATM    3  H1  UNL     1      -9.967  16.192  67.712  1.00  0.00     0.000 HD 
HETATM    4  S   UNL     1     -11.242  14.550  66.911  1.00  0.00    -0.345 S  
HETATM    5  O   UNL     1     -11.336  15.319  65.693  1.00  0.00    -0.301 OA 
HETATM    6  O   UNL     1     -12.351  13.788  67.424  1.00  0.00    -0.312 OA 
ENDROOT
BRANCH   4   7
HETATM    7  C   UNL     1      -9.829  13.485  66.809  1.00  0.00    -0.267 A  
HETATM    8  C   UNL     1      -8.689  13.883  67.517  1.00  0.00    -0.194 A  
HETATM    9  C   UNL     1      -7.572  13.047  67.563  1.00  0.00    -0.165 A  
HETATM   10  C   UNL     1      -7.538  11.814  66.916  1.00  0.00    -0.119 A  
HETATM   11  C   UNL     1      -8.691  11.434  66.215  1.00  0.00    -0.173 A  
HETATM   12  N   UNL     1      -6.495  10.904  67.066  1.00  0.00    -0.077 NA 
HETATM   13  C   UNL     1      -9.843  12.256  66.122  1.00  0.00    -0.257 A  
HETATM   14  H   UNL     1      -6.642   9.909  66.894  1.00  0.00     0.000 HD 
HETATM   15  C   UNL     1      -5.201  11.398  67.471  1.00  0.00    -0.050 C  
HETATM   16  C   UNL     1     -10.983  11.719  65.283  1.00  0.00    -0.295 C  
HETATM   17  N   UNL     1      -5.324  12.128  68.714  1.00  0.00    -0.050 N  
HETATM   18  F   UNL     1     -11.395  10.497  65.730  1.00  0.00     0.090 F  
HETATM   19  F   UNL     1     -10.587  11.511  63.994  1.00  0.00    -0.313 F  
HETATM   20  F   UNL     1     -12.111  12.464  65.199  1.00  0.00    -0.420 F  
HETATM   21  S   UNL     1      -6.182  13.552  68.504  1.00  0.00    -0.101 S  
HETATM   22  H   UNL     1      -4.938  11.816  69.605  1.00  0.00     0.000 HD 
HETATM   23  O   UNL     1      -5.370  14.404  67.662  1.00  0.00    -0.309 OA 
HETATM   24  O   UNL     1      -6.627  13.983  69.810  1.00  0.00    -0.129 OA 
ENDBRANCH   4   7
TORSDOF 1
ENDMDL
MODEL      125
REMARK 921   NORMALIZED FREE ENERGY PREDICTED BY IDOCK:   -3.83 KCAL/MOL
REMARK 922        TOTAL FREE ENERGY PREDICTED BY IDOCK:   -3.82 KCAL/MOL
REMARK 923 INTER-LIGAND FREE ENERGY PREDICTED BY IDOCK:   -3.98 KCAL/MOL
REMARK 924 INTRA-LIGAND FREE ENERGY PREDICTED BY IDOCK:    0.16 KCAL/MOL
REMARK 927      BINDING AFFINITY PREDICTED BY RF-SCORE:    0.00 PKD
ROOT
HETATM    1  N   UNL     1      -7.176   8.962  68.523  1.00  0.00    -0.073 N  
HETATM    2  H2  UNL     1      -6.493   9.408  69.134  1.00  0.00     0.000 HD 
HETATM    3  H1  UNL     1      -8.093   8.618  68.809  1.00  0.00     0.000 HD 
HETATM    4  S   UNL     1      -6.974   8.675  66.884  1.00  0.00    -0.078 S  
HETATM    5  O   UNL     1      -7.372   7.300  66.699  1.00  0.00    -0.077 OA 
HETATM    6  O   UNL     1      -5.679   9.160  66.479  1.00  0.00    -0.051 OA 
ENDROOT
BRANCH   4   7
HETATM    7  C   UNL     1      -8.212   9.730  66.181  1.00  0.00    -0.120 A  
HETATM    8  C   UNL     1      -9.085  10.359  67.076  1.00  0.00    -0.153 A  
HETATM    9  C   UNL     1     -10.023  11.279  66.603  1.00  0.00    -0.209 A  
HETATM   10  C   UNL     1     -10.135  11.598  65.252  1.00  0.00    -0.264 A  
HETATM   11  C   UNL     1      -9.251  10.959  64.373  1.00  0.00    -0.223 A  
HETATM   12  N   UNL     1     -10.961  12.615  64.776  1.00  0.00    -0.289 NA 
HETATM   13  C   UNL     1      -8.295  10.002  64.802  1.00  0.00    -0.166 A  
HETATM   14  H   UNL     1     -10.772  13.063  63.880  1.00  0.00     0.000 HD 
HETATM   15  C   UNL     1     -12.090  13.018  65.579  1.00  0.00    -0.452 C  
HETATM   16  C   UNL     1      -7.450   9.367  63.718  1.00  0.00    -0.112 C  
HETATM   17  N   UNL     1     -11.638  13.407  66.898  1.00  0.00    -0.346 N  
HETATM   18  F   UNL     1      -6.781  10.310  62.994  1.00  0.00    -0.125 F  
HETATM   19  F   UNL     1      -8.231   8.711  62.810  1.00  0.00    -0.154 F  
HETATM   20  F   UNL     1      -6.506   8.474  64.095  1.00  0.00    -0.069 F  
HETATM   21  S   UNL     1     -11.063  12.089  67.759  1.00  0.00    -0.269 S  
HETATM   22  H   UNL     1     -11.666  14.361  67.258  1.00  0.00     0.000 HD 
HETATM   23  O   UNL     1     -12.199  11.227  68.003  1.00  0.00    -0.621 OA 
HETATM   24  O   UNL     1     -10.256  12.602  68.842  1.00  0.00    -0.126 OA 
ENDBRANCH   4   7
TORSDOF 1
ENDMDL
MODEL      126
REMARK 921   NORMALIZED FREE ENERGY PREDICTED BY IDOCK:   -3.81 KCAL/MOL
REMARK 922        TOTAL FREE ENERGY PREDICTED BY IDOCK:   -3.80 KCAL/MOL
REMARK 923 INTER-LIGAND FREE ENERGY PREDICTED BY IDOCK:   -3.88 KCAL/MOL
REMARK 924 INTRA-LIGAND FREE ENERGY PREDICTED BY IDOCK:    0.08 KCAL/MOL
REMARK 927      BINDING AFFINITY PREDICTED BY RF-SCORE:    0.00 PKD
ROOT
HETATM    1  N   UNL     1      -8.640   8.463  68.252  1.00  0.00    -0.138 N  
HETATM    2  H2  UNL     1      -7.675   8.761  68.118  1.00  0.00     0.000 HD 
HETATM    3  H1  UNL     1      -9.195   7.930  67.581  1.00  0.00     0.000 HD 
HETATM    4  S   UNL     1      -9.574   8.767  69.610  1.00  0.00    -0.174 S  
HETATM    5  O   UNL     1     -10.830   9.254  69.092  1.00  0.00    -0.213 OA 
HETATM    6  O   UNL     1      -8.792   9.519  70.558  1.00  0.00    -0.233 OA 
ENDROOT
BRANCH   4   7
HETATM    7  C   UNL     1      -9.814   7.133  70.253  1.00  0.00    -0.176 A  
HETATM    8  C   UNL     1      -9.268   6.079  69.512  1.00  0.00    -0.145 A  
HETATM    9  C   UNL     1      -9.333   4.775  70.005  1.00  0.00    -0.146 A  
HETATM   10  C   UNL     1      -9.936   4.470  71.223  1.00  0.00    -0.188 A  
HETATM   11  C   UNL     1     -10.474   5.540  71.951  1.00  0.00    -0.282 A  
HETATM   12  N   UNL     1      -9.886   3.203  71.802  1.00  0.00    -0.170 NA 
HETATM   13  C   UNL     1     -10.451   6.879  71.483  1.00  0.00    -0.231 A  
HETATM   14  H   UNL     1     -10.004   3.085  72.807  1.00  0.00     0.000 HD 
HETATM   15  C   UNL     1      -9.663   2.063  70.946  1.00  0.00    -0.065 C  
HETATM   16  C   UNL     1     -11.122   7.909  72.367  1.00  0.00    -0.333 C  
HETATM   17  N   UNL     1      -8.440   2.247  70.194  1.00  0.00    -0.045 N  
HETATM   18  F   UNL     1     -10.585   7.911  73.621  1.00  0.00    -0.358 F  
HETATM   19  F   UNL     1     -12.442   7.615  72.546  1.00  0.00    -0.249 F  
HETATM   20  F   UNL     1     -11.091   9.202  71.966  1.00  0.00    -0.405 F  
HETATM   21  S   UNL     1      -8.591   3.486  69.077  1.00  0.00    -0.088 S  
HETATM   22  H   UNL     1      -7.594   1.693  70.328  1.00  0.00     0.000 HD 
HETATM   23  O   UNL     1      -9.557   3.043  68.095  1.00  0.00    -0.184 OA 
HETATM   24  O   UNL     1      -7.256   3.887  68.696  1.00  0.00    -0.053 OA 
ENDBRANCH   4   7
TORSDOF 1
ENDMDL
MODEL      127
REMARK 921   NORMALIZED FREE ENERGY PREDICTED BY IDOCK:   -3.77 KCAL/MOL
REMARK 922        TOTAL FREE ENERGY PREDICTED BY IDOCK:   -3.76 KCAL/MOL
REMARK 923 INTER-LIGAND FREE ENERGY PREDICTED BY IDOCK:   -4.82 KCAL/MOL
REMARK 924 INTRA-LIGAND FREE ENERGY PREDICTED BY IDOCK:    1.06 KCAL/MOL
REMARK 927      BINDING AFFINITY PREDICTED BY RF-SCORE:    0.00 PKD
ROOT
HETATM    1  N   UNL     1     -13.636  14.258  65.666  1.00  0.00    -0.104 N  
HETATM    2  H2  UNL     1     -14.486  13.914  66.111  1.00  0.00     0.000 HD 
HETATM    3  H1  UNL     1     -13.206  15.168  65.833  1.00  0.00     0.000 HD 
HETATM    4  S   UNL     1     -12.718  13.420  64.541  1.00  0.00    -0.044 S  
HETATM    5  O   UNL     1     -12.485  14.368  63.478  1.00  0.00    -0.770 OA 
HETATM    6  O   UNL     1     -13.324  12.136  64.305  1.00  0.00    -0.761 OA 
ENDROOT
BRANCH   4   7
HETATM    7  C   UNL     1     -11.204  13.171  65.429  1.00  0.00    -0.291 A  
HETATM    8  C   UNL     1     -10.766  11.849  65.566  1.00  0.00    -0.329 A  
HETATM    9  C   UNL     1      -9.534  11.583  66.168  1.00  0.00    -0.220 A  
HETATM   10  C   UNL     1      -8.710  12.595  66.653  1.00  0.00    -0.080 A  
HETATM   11  C   UNL     1      -9.167  13.912  66.503  1.00  0.00    -0.220 A  
HETATM   12  N   UNL     1      -7.419  12.366  67.123  1.00  0.00    -0.300 NA 
HETATM   13  C   UNL     1     -10.419  14.232  65.918  1.00  0.00    -0.315 A  
HETATM   14  H   UNL     1      -6.727  13.114  67.131  1.00  0.00     0.000 HD 
HETATM   15  C   UNL     1      -7.083  11.046  67.599  1.00  0.00    -0.088 C  
HETATM   16  C   UNL     1     -10.784  15.701  65.879  1.00  0.00    -0.329 C  
HETATM   17  N   UNL     1      -7.349  10.071  66.563  1.00  0.00    -0.099 N  
HETATM   18  F   UNL     1      -9.835  16.431  65.225  1.00  0.00    -0.253 F  
HETATM   19  F   UNL     1     -10.832  16.227  67.137  1.00  0.00    -0.318 F  
HETATM   20  F   UNL     1     -11.957  16.045  65.299  1.00  0.00     0.207 F  
HETATM   21  S   UNL     1      -8.992   9.919  66.273  1.00  0.00    -0.149 S  
HETATM   22  H   UNL     1      -6.627   9.542  66.072  1.00  0.00     0.000 HD 
HETATM   23  O   UNL     1      -9.572   9.347  67.469  1.00  0.00    -0.136 OA 
HETATM   24  O   UNL     1      -9.145   9.290  64.982  1.00  0.00    -0.217 OA 
ENDBRANCH   4   7
TORSDOF 1
ENDMDL
MODEL      128
REMARK 921   NORMALIZED FREE ENERGY PREDICTED BY IDOCK:   -3.76 KCAL/MOL
REMARK 922        TOTAL FREE ENERGY PREDICTED BY IDOCK:   -3.74 KCAL/MOL
REMARK 923 INTER-LIGAND FREE ENERGY PREDICTED BY IDOCK:   -4.57 KCAL/MOL
REMARK 924 INTRA-LIGAND FREE ENERGY PREDICTED BY IDOCK:    0.83 KCAL/MOL
REMARK 927      BINDING AFFINITY PREDICTED BY RF-SCORE:    0.00 PKD
ROOT
HETATM    1  N   UNL     1      -7.030  16.372  68.759  1.00  0.00    -0.160 N  
HETATM    2  H2  UNL     1      -7.048  17.389  68.832  1.00  0.00     0.000 HD 
HETATM    3  H1  UNL     1      -6.723  15.731  69.490  1.00  0.00     0.000 HD 
HETATM    4  S   UNL     1      -7.501  15.484  67.418  1.00  0.00    -0.217 S  
HETATM    5  O   UNL     1      -6.433  14.536  67.210  1.00  0.00    -0.298 OA 
HETATM    6  O   UNL     1      -7.935  16.390  66.385  1.00  0.00    -0.287 OA 
ENDROOT
BRANCH   4   7
HETATM    7  C   UNL     1      -8.920  14.622  68.040  1.00  0.00    -0.174 A  
HETATM    8  C   UNL     1      -8.841  13.225  68.074  1.00  0.00    -0.190 A  
HETATM    9  C   UNL     1      -9.880  12.484  68.640  1.00  0.00    -0.075 A  
HETATM   10  C   UNL     1     -11.016  13.085  69.176  1.00  0.00    -0.140 A  
HETATM   11  C   UNL     1     -11.073  14.485  69.134  1.00  0.00    -0.284 A  
HETATM   12  N   UNL     1     -11.995  12.379  69.873  1.00  0.00    -0.326 NA 
HETATM   13  C   UNL     1     -10.054  15.281  68.551  1.00  0.00    -0.222 A  
HETATM   14  H   UNL     1     -12.601  12.852  70.543  1.00  0.00     0.000 HD 
HETATM   15  C   UNL     1     -12.130  10.964  69.627  1.00  0.00    -0.329 C  
HETATM   16  C   UNL     1     -10.294  16.776  68.542  1.00  0.00    -0.316 C  
HETATM   17  N   UNL     1     -10.865  10.303  69.863  1.00  0.00    -0.283 N  
HETATM   18  F   UNL     1     -10.507  17.252  69.803  1.00  0.00    -0.269 F  
HETATM   19  F   UNL     1     -11.429  17.085  67.850  1.00  0.00    -0.213 F  
HETATM   20  F   UNL     1      -9.327  17.568  68.022  1.00  0.00    -0.248 F  
HETATM   21  S   UNL     1      -9.725  10.739  68.716  1.00  0.00    -0.193 S  
HETATM   22  H   UNL     1     -10.689   9.653  70.630  1.00  0.00     0.000 HD 
HETATM   23  O   UNL     1     -10.183  10.205  67.452  1.00  0.00    -0.193 OA 
HETATM   24  O   UNL     1      -8.425  10.404  69.252  1.00  0.00    -0.153 OA 
ENDBRANCH   4   7
TORSDOF 1
ENDMDL
MODEL      129
REMARK 921   NORMALIZED FREE ENERGY PREDICTED BY IDOCK:   -3.75 KCAL/MOL
REMARK 922        TOTAL FREE ENERGY PREDICTED BY IDOCK:   -3.73 KCAL/MOL
REMARK 923 INTER-LIGAND FREE ENERGY PREDICTED BY IDOCK:   -4.57 KCAL/MOL
REMARK 924 INTRA-LIGAND FREE ENERGY PREDICTED BY IDOCK:    0.83 KCAL/MOL
REMARK 927      BINDING AFFINITY PREDICTED BY RF-SCORE:    0.00 PKD
ROOT
HETATM    1  N   UNL     1      -9.997   9.301  71.534  1.00  0.00    -0.280 N  
HETATM    2  H2  UNL     1     -10.136   9.545  72.514  1.00  0.00     0.000 HD 
HETATM    3  H1  UNL     1      -9.102   9.308  71.043  1.00  0.00     0.000 HD 
HETATM    4  S   UNL     1     -11.200   8.824  70.470  1.00  0.00    -0.221 S  
HETATM    5  O   UNL     1     -10.979   9.618  69.285  1.00  0.00    -0.224 OA 
HETATM    6  O   UNL     1     -12.462   8.815  71.163  1.00  0.00    -0.280 OA 
ENDROOT
BRANCH   4   7
HETATM    7  C   UNL     1     -10.734   7.147  70.131  1.00  0.00    -0.240 A  
HETATM    8  C   UNL     1     -10.416   6.839  68.803  1.00  0.00    -0.231 A  
HETATM    9  C   UNL     1      -9.947   5.565  68.478  1.00  0.00    -0.157 A  
HETATM   10  C   UNL     1      -9.786   4.566  69.435  1.00  0.00    -0.190 A  
HETATM   11  C   UNL     1     -10.108   4.896  70.758  1.00  0.00    -0.303 A  
HETATM   12  N   UNL     1      -9.186   3.338  69.160  1.00  0.00    -0.145 NA 
HETATM   13  C   UNL     1     -10.607   6.169  71.135  1.00  0.00    -0.300 A  
HETATM   14  H   UNL     1      -8.762   2.787  69.906  1.00  0.00     0.000 HD 
HETATM   15  C   UNL     1      -9.179   2.864  67.797  1.00  0.00    -0.205 C  
HETATM   16  C   UNL     1     -10.954   6.346  72.598  1.00  0.00    -0.253 C  
HETATM   17  N   UNL     1      -8.560   3.853  66.939  1.00  0.00    -0.104 N  
HETATM   18  F   UNL     1      -9.881   6.080  73.398  1.00  0.00    -0.152 F  
HETATM   19  F   UNL     1     -11.914   5.456  72.985  1.00  0.00    -0.332 F  
HETATM   20  F   UNL     1     -11.403   7.558  72.999  1.00  0.00    -0.353 F  
HETATM   21  S   UNL     1      -9.506   5.230  66.815  1.00  0.00    -0.151 S  
HETATM   22  H   UNL     1      -7.664   3.727  66.470  1.00  0.00     0.000 HD 
HETATM   23  O   UNL     1     -10.711   4.843  66.113  1.00  0.00    -0.317 OA 
HETATM   24  O   UNL     1      -8.656   6.293  66.328  1.00  0.00    -0.127 OA 
ENDBRANCH   4   7
TORSDOF 1
ENDMDL
MODEL      130
REMARK 921   NORMALIZED FREE ENERGY PREDICTED BY IDOCK:   -3.75 KCAL/MOL
REMARK 922        TOTAL FREE ENERGY PREDICTED BY IDOCK:   -3.73 KCAL/MOL
REMARK 923 INTER-LIGAND FREE ENERGY PREDICTED BY IDOCK:   -3.80 KCAL/MOL
REMARK 924 INTRA-LIGAND FREE ENERGY PREDICTED BY IDOCK:    0.07 KCAL/MOL
REMARK 927      BINDING AFFINITY PREDICTED BY RF-SCORE:    0.00 PKD
ROOT
HETATM    1  N   UNL     1      -9.316   9.287  65.092  1.00  0.00    -0.417 N  
HETATM    2  H2  UNL     1     -10.156   9.741  64.733  1.00  0.00     0.000 HD 
HETATM    3  H1  UNL     1      -8.369   9.429  64.740  1.00  0.00     0.000 HD 
HETATM    4  S   UNL     1      -9.268   8.189  66.357  1.00  0.00    -0.203 S  
HETATM    5  O   UNL     1      -8.459   7.099  65.867  1.00  0.00    -0.137 OA 
HETATM    6  O   UNL     1     -10.605   7.988  66.854  1.00  0.00    -0.338 OA 
ENDROOT
BRANCH   4   7
HETATM    7  C   UNL     1      -8.346   9.086  67.575  1.00  0.00    -0.116 A  
HETATM    8  C   UNL     1      -8.032  10.416  67.274  1.00  0.00    -0.110 A  
HETATM    9  C   UNL     1      -7.393  11.213  68.225  1.00  0.00    -0.090 A  
HETATM   10  C   UNL     1      -7.040  10.731  69.483  1.00  0.00    -0.132 A  
HETATM   11  C   UNL     1      -7.365   9.397  69.765  1.00  0.00    -0.083 A  
HETATM   12  N   UNL     1      -6.534  11.543  70.496  1.00  0.00    -0.512 NA 
HETATM   13  C   UNL     1      -7.996   8.541  68.826  1.00  0.00    -0.119 A  
HETATM   14  H   UNL     1      -6.621  11.270  71.474  1.00  0.00     0.000 HD 
HETATM   15  C   UNL     1      -5.886  12.779  70.129  1.00  0.00    -0.155 C  
HETATM   16  C   UNL     1      -8.230   7.114  69.272  1.00  0.00    -0.128 C  
HETATM   17  N   UNL     1      -6.786  13.585  69.333  1.00  0.00    -0.272 N  
HETATM   18  F   UNL     1      -8.969   7.068  70.418  1.00  0.00    -0.149 F  
HETATM   19  F   UNL     1      -7.053   6.498  69.583  1.00  0.00    -0.062 F  
HETATM   20  F   UNL     1      -8.859   6.279  68.412  1.00  0.00    -0.116 F  
HETATM   21  S   UNL     1      -7.065  12.890  67.834  1.00  0.00    -0.146 S  
HETATM   22  H   UNL     1      -7.199  14.465  69.644  1.00  0.00     0.000 HD 
HETATM   23  O   UNL     1      -5.808  12.933  67.118  1.00  0.00    -0.339 OA 
HETATM   24  O   UNL     1      -8.263  13.493  67.295  1.00  0.00    -0.177 OA 
ENDBRANCH   4   7
TORSDOF 1
ENDMDL
MODEL      131
REMARK 921   NORMALIZED FREE ENERGY PREDICTED BY IDOCK:   -3.73 KCAL/MOL
REMARK 922        TOTAL FREE ENERGY PREDICTED BY IDOCK:   -3.71 KCAL/MOL
REMARK 923 INTER-LIGAND FREE ENERGY PREDICTED BY IDOCK:   -4.54 KCAL/MOL
REMARK 924 INTRA-LIGAND FREE ENERGY PREDICTED BY IDOCK:    0.83 KCAL/MOL
REMARK 927      BINDING AFFINITY PREDICTED BY RF-SCORE:    0.00 PKD
ROOT
HETATM    1  N   UNL     1      -8.548   6.477  72.360  1.00  0.00    -0.119 N  
HETATM    2  H2  UNL     1      -8.960   5.609  72.700  1.00  0.00     0.000 HD 
HETATM    3  H1  UNL     1      -7.643   6.562  71.897  1.00  0.00     0.000 HD 
HETATM    4  S   UNL     1      -9.246   7.996  72.472  1.00  0.00    -0.243 S  
HETATM    5  O   UNL     1      -8.198   8.847  72.982  1.00  0.00    -0.371 OA 
HETATM    6  O   UNL     1     -10.524   7.878  73.127  1.00  0.00    -0.345 OA 
ENDROOT
BRANCH   4   7
HETATM    7  C   UNL     1      -9.525   8.389  70.766  1.00  0.00    -0.169 A  
HETATM    8  C   UNL     1      -8.820   9.482  70.250  1.00  0.00    -0.281 A  
HETATM    9  C   UNL     1      -8.914   9.791  68.891  1.00  0.00    -0.144 A  
HETATM   10  C   UNL     1      -9.699   9.049  68.013  1.00  0.00    -0.155 A  
HETATM   11  C   UNL     1     -10.395   7.958  68.550  1.00  0.00    -0.229 A  
HETATM   12  N   UNL     1      -9.695   9.249  66.634  1.00  0.00    -0.200 NA 
HETATM   13  C   UNL     1     -10.348   7.616  69.926  1.00  0.00    -0.225 A  
HETATM   14  H   UNL     1      -9.976   8.503  65.998  1.00  0.00     0.000 HD 
HETATM   15  C   UNL     1      -9.286  10.536  66.125  1.00  0.00    -0.176 C  
HETATM   16  C   UNL     1     -11.199   6.439  70.353  1.00  0.00    -0.372 C  
HETATM   17  N   UNL     1      -7.963  10.857  66.615  1.00  0.00    -0.142 N  
HETATM   18  F   UNL     1     -10.881   5.315  69.647  1.00  0.00    -0.369 F  
HETATM   19  F   UNL     1     -12.518   6.665  70.085  1.00  0.00    -0.364 F  
HETATM   20  F   UNL     1     -11.154   6.065  71.653  1.00  0.00    -0.286 F  
HETATM   21  S   UNL     1      -7.974  11.133  68.267  1.00  0.00    -0.135 S  
HETATM   22  H   UNL     1      -7.129  10.909  66.029  1.00  0.00     0.000 HD 
HETATM   23  O   UNL     1      -8.743  12.341  68.480  1.00  0.00    -0.157 OA 
HETATM   24  O   UNL     1      -6.611  11.013  68.733  1.00  0.00    -0.054 OA 
ENDBRANCH   4   7
TORSDOF 1
ENDMDL
MODEL      132
REMARK 921   NORMALIZED FREE ENERGY PREDICTED BY IDOCK:   -3.69 KCAL/MOL
REMARK 922        TOTAL FREE ENERGY PREDICTED BY IDOCK:   -3.67 KCAL/MOL
REMARK 923 INTER-LIGAND FREE ENERGY PREDICTED BY IDOCK:   -4.54 KCAL/MOL
REMARK 924 INTRA-LIGAND FREE ENERGY PREDICTED BY IDOCK:    0.87 KCAL/MOL
REMARK 927      BINDING AFFINITY PREDICTED BY RF-SCORE:    0.00 PKD
ROOT
HETATM    1  N   UNL     1     -10.464  12.158  69.303  1.00  0.00    -0.430 N  
HETATM    2  H2  UNL     1     -10.256  12.089  70.299  1.00  0.00     0.000 HD 
HETATM    3  H1  UNL     1     -10.376  13.002  68.737  1.00  0.00     0.000 HD 
HETATM    4  S   UNL     1     -11.005  10.904  68.333  1.00  0.00    -0.261 S  
HETATM    5  O   UNL     1     -12.119  11.459  67.602  1.00  0.00    -0.630 OA 
HETATM    6  O   UNL     1     -11.129   9.712  69.132  1.00  0.00    -0.192 OA 
ENDROOT
BRANCH   4   7
HETATM    7  C   UNL     1      -9.638  10.694  67.223  1.00  0.00    -0.163 A  
HETATM    8  C   UNL     1      -9.908  10.844  65.858  1.00  0.00    -0.285 A  
HETATM    9  C   UNL     1      -8.864  10.790  64.932  1.00  0.00    -0.163 A  
HETATM   10  C   UNL     1      -7.542  10.582  65.315  1.00  0.00    -0.074 A  
HETATM   11  C   UNL     1      -7.293  10.436  66.687  1.00  0.00    -0.114 A  
HETATM   12  N   UNL     1      -6.470  10.667  64.429  1.00  0.00    -0.364 NA 
HETATM   13  C   UNL     1      -8.322  10.464  67.664  1.00  0.00    -0.114 A  
HETATM   14  H   UNL     1      -5.529  10.868  64.767  1.00  0.00     0.000 HD 
HETATM   15  C   UNL     1      -6.721  10.467  63.022  1.00  0.00    -0.090 C  
HETATM   16  C   UNL     1      -7.889  10.240  69.097  1.00  0.00    -0.127 C  
HETATM   17  N   UNL     1      -7.735  11.394  62.570  1.00  0.00    -0.366 N  
HETATM   18  F   UNL     1      -6.947  11.149  69.479  1.00  0.00    -0.096 F  
HETATM   19  F   UNL     1      -7.289   9.023  69.244  1.00  0.00    -0.064 F  
HETATM   20  F   UNL     1      -8.841  10.291  70.059  1.00  0.00    -0.193 F  
HETATM   21  S   UNL     1      -9.231  11.037  63.236  1.00  0.00    -0.274 S  
HETATM   22  H   UNL     1      -7.563  12.167  61.927  1.00  0.00     0.000 HD 
HETATM   23  O   UNL     1      -9.634   9.760  62.686  1.00  0.00    -0.153 OA 
HETATM   24  O   UNL     1     -10.056  12.215  63.097  1.00  0.00    -0.383 OA 
ENDBRANCH   4   7
TORSDOF 1
ENDMDL
MODEL      133
REMARK 921   NORMALIZED FREE ENERGY PREDICTED BY IDOCK:   -3.69 KCAL/MOL
REMARK 922        TOTAL FREE ENERGY PREDICTED BY IDOCK:   -3.67 KCAL/MOL
REMARK 923 INTER-LIGAND FREE ENERGY PREDICTED BY IDOCK:   -4.74 KCAL/MOL
REMARK 924 INTRA-LIGAND FREE ENERGY PREDICTED BY IDOCK:    1.07 KCAL/MOL
REMARK 927      BINDING AFFINITY PREDICTED BY RF-SCORE:    0.00 PKD
ROOT
HETATM    1  N   UNL     1     -11.408  12.495  69.879  1.00  0.00    -0.509 N  
HETATM    2  H2  UNL     1     -11.372  13.300  70.504  1.00  0.00     0.000 HD 
HETATM    3  H1  UNL     1     -10.986  12.446  68.951  1.00  0.00     0.000 HD 
HETATM    4  S   UNL     1     -12.167  11.039  70.211  1.00  0.00    -0.370 S  
HETATM    5  O   UNL     1     -12.943  10.750  69.029  1.00  0.00     0.159 OA 
HETATM    6  O   UNL     1     -12.762  11.108  71.521  1.00  0.00    -0.403 OA 
ENDROOT
BRANCH   4   7
HETATM    7  C   UNL     1     -10.791   9.924  70.279  1.00  0.00    -0.310 A  
HETATM    8  C   UNL     1     -10.425   9.454  71.546  1.00  0.00    -0.299 A  
HETATM    9  C   UNL     1      -9.413   8.499  71.668  1.00  0.00    -0.246 A  
HETATM   10  C   UNL     1      -8.735   7.990  70.563  1.00  0.00    -0.135 A  
HETATM   11  C   UNL     1      -9.119   8.472  69.305  1.00  0.00    -0.153 A  
HETATM   12  N   UNL     1      -7.827   6.936  70.647  1.00  0.00    -0.100 NA 
HETATM   13  C   UNL     1     -10.125   9.456  69.130  1.00  0.00    -0.200 A  
HETATM   14  H   UNL     1      -7.624   6.357  69.832  1.00  0.00     0.000 HD 
HETATM   15  C   UNL     1      -7.181   6.681  71.912  1.00  0.00    -0.085 C  
HETATM   16  C   UNL     1     -10.383   9.906  67.708  1.00  0.00    -0.221 C  
HETATM   17  N   UNL     1      -8.180   6.477  72.939  1.00  0.00    -0.109 N  
HETATM   18  F   UNL     1     -10.707   8.852  66.905  1.00  0.00    -0.339 F  
HETATM   19  F   UNL     1      -9.258  10.443  67.153  1.00  0.00    -0.143 F  
HETATM   20  F   UNL     1     -11.359  10.821  67.502  1.00  0.00    -0.343 F  
HETATM   21  S   UNL     1      -9.018   7.891  73.264  1.00  0.00    -0.280 S  
HETATM   22  H   UNL     1      -8.352   5.587  73.406  1.00  0.00     0.000 HD 
HETATM   23  O   UNL     1      -8.069   8.808  73.857  1.00  0.00    -0.375 OA 
HETATM   24  O   UNL     1     -10.239   7.521  73.944  1.00  0.00    -0.280 OA 
ENDBRANCH   4   7
TORSDOF 1
ENDMDL
MODEL      134
REMARK 921   NORMALIZED FREE ENERGY PREDICTED BY IDOCK:   -3.69 KCAL/MOL
REMARK 922        TOTAL FREE ENERGY PREDICTED BY IDOCK:   -3.66 KCAL/MOL
REMARK 923 INTER-LIGAND FREE ENERGY PREDICTED BY IDOCK:   -3.72 KCAL/MOL
REMARK 924 INTRA-LIGAND FREE ENERGY PREDICTED BY IDOCK:    0.06 KCAL/MOL
REMARK 927      BINDING AFFINITY PREDICTED BY RF-SCORE:    0.00 PKD
ROOT
HETATM    1  N   UNL     1      -5.749   6.615  67.703  1.00  0.00    -0.015 N  
HETATM    2  H2  UNL     1      -5.035   6.469  66.990  1.00  0.00     0.000 HD 
HETATM    3  H1  UNL     1      -5.651   7.209  68.526  1.00  0.00     0.000 HD 
HETATM    4  S   UNL     1      -7.272   5.917  67.711  1.00  0.00    -0.077 S  
HETATM    5  O   UNL     1      -7.436   5.407  69.051  1.00  0.00    -0.071 OA 
HETATM    6  O   UNL     1      -7.410   5.078  66.549  1.00  0.00    -0.082 OA 
ENDROOT
BRANCH   4   7
HETATM    7  C   UNL     1      -8.317   7.334  67.506  1.00  0.00    -0.116 A  
HETATM    8  C   UNL     1      -7.679   8.576  67.406  1.00  0.00    -0.098 A  
HETATM    9  C   UNL     1      -8.429   9.725  67.146  1.00  0.00    -0.125 A  
HETATM   10  C   UNL     1      -9.812   9.689  66.985  1.00  0.00    -0.195 A  
HETATM   11  C   UNL     1     -10.430   8.435  67.087  1.00  0.00    -0.380 A  
HETATM   12  N   UNL     1     -10.560  10.793  66.584  1.00  0.00    -0.246 NA 
HETATM   13  C   UNL     1      -9.715   7.243  67.370  1.00  0.00    -0.191 A  
HETATM   14  H   UNL     1     -11.469  10.672  66.137  1.00  0.00     0.000 HD 
HETATM   15  C   UNL     1     -10.022  12.112  66.815  1.00  0.00    -0.203 C  
HETATM   16  C   UNL     1     -10.541   5.981  67.496  1.00  0.00    -0.273 C  
HETATM   17  N   UNL     1      -8.718  12.223  66.197  1.00  0.00    -0.413 N  
HETATM   18  F   UNL     1     -11.274   5.753  66.369  1.00  0.00    -0.298 F  
HETATM   19  F   UNL     1     -11.458   6.095  68.500  1.00  0.00    -0.413 F  
HETATM   20  F   UNL     1      -9.887   4.820  67.735  1.00  0.00    -0.171 F  
HETATM   21  S   UNL     1      -7.591  11.255  66.973  1.00  0.00    -0.149 S  
HETATM   22  H   UNL     1      -8.511  12.814  65.392  1.00  0.00     0.000 HD 
HETATM   23  O   UNL     1      -7.414  11.808  68.298  1.00  0.00    -0.089 OA 
HETATM   24  O   UNL     1      -6.476  11.084  66.069  1.00  0.00    -0.119 OA 
ENDBRANCH   4   7
TORSDOF 1
ENDMDL
MODEL      135
REMARK 921   NORMALIZED FREE ENERGY PREDICTED BY IDOCK:   -3.67 KCAL/MOL
REMARK 922        TOTAL FREE ENERGY PREDICTED BY IDOCK:   -3.64 KCAL/MOL
REMARK 923 INTER-LIGAND FREE ENERGY PREDICTED BY IDOCK:   -4.50 KCAL/MOL
REMARK 924 INTRA-LIGAND FREE ENERGY PREDICTED BY IDOCK:    0.86 KCAL/MOL
REMARK 927      BINDING AFFINITY PREDICTED BY RF-SCORE:    0.00 PKD
ROOT
HETATM    1  N   UNL     1      -9.417   5.803  65.486  1.00  0.00    -0.367 N  
HETATM    2  H2  UNL     1      -9.107   4.832  65.452  1.00  0.00     0.000 HD 
HETATM    3  H1  UNL     1     -10.346   6.137  65.225  1.00  0.00     0.000 HD 
HETATM    4  S   UNL     1      -8.486   7.106  65.977  1.00  0.00    -0.148 S  
HETATM    5  O   UNL     1      -8.685   8.106  64.956  1.00  0.00    -0.099 OA 
HETATM    6  O   UNL     1      -7.176   6.634  66.345  1.00  0.00    -0.069 OA 
ENDROOT
BRANCH   4   7
HETATM    7  C   UNL     1      -9.332   7.615  67.450  1.00  0.00    -0.141 A  
HETATM    8  C   UNL     1      -9.823   8.925  67.472  1.00  0.00    -0.237 A  
HETATM    9  C   UNL     1     -10.583   9.365  68.558  1.00  0.00    -0.197 A  
HETATM   10  C   UNL     1     -10.874   8.543  69.643  1.00  0.00    -0.151 A  
HETATM   11  C   UNL     1     -10.375   7.234  69.600  1.00  0.00    -0.227 A  
HETATM   12  N   UNL     1     -11.747   8.911  70.665  1.00  0.00    -0.422 NA 
HETATM   13  C   UNL     1      -9.581   6.747  68.530  1.00  0.00    -0.130 A  
HETATM   14  H   UNL     1     -12.214   8.203  71.231  1.00  0.00     0.000 HD 
HETATM   15  C   UNL     1     -11.975  10.315  70.904  1.00  0.00    -0.375 C  
HETATM   16  C   UNL     1      -9.079   5.325  68.662  1.00  0.00    -0.109 C  
HETATM   17  N   UNL     1     -12.436  10.950  69.688  1.00  0.00    -0.425 N  
HETATM   18  F   UNL     1     -10.110   4.448  68.831  1.00  0.00    -0.231 F  
HETATM   19  F   UNL     1      -8.304   5.181  69.777  1.00  0.00    -0.087 F  
HETATM   20  F   UNL     1      -8.344   4.817  67.644  1.00  0.00    -0.103 F  
HETATM   21  S   UNL     1     -11.228  10.995  68.527  1.00  0.00    -0.294 S  
HETATM   22  H   UNL     1     -13.376  11.323  69.554  1.00  0.00     0.000 HD 
HETATM   23  O   UNL     1     -10.201  11.880  69.032  1.00  0.00    -0.128 OA 
HETATM   24  O   UNL     1     -11.867  11.227  67.251  1.00  0.00    -0.562 OA 
ENDBRANCH   4   7
TORSDOF 1
ENDMDL
MODEL      136
REMARK 921   NORMALIZED FREE ENERGY PREDICTED BY IDOCK:   -3.63 KCAL/MOL
REMARK 922        TOTAL FREE ENERGY PREDICTED BY IDOCK:   -3.61 KCAL/MOL
REMARK 923 INTER-LIGAND FREE ENERGY PREDICTED BY IDOCK:   -4.45 KCAL/MOL
REMARK 924 INTRA-LIGAND FREE ENERGY PREDICTED BY IDOCK:    0.84 KCAL/MOL
REMARK 927      BINDING AFFINITY PREDICTED BY RF-SCORE:    0.00 PKD
ROOT
HETATM    1  N   UNL     1     -13.226   7.454  70.669  1.00  0.00    -0.399 N  
HETATM    2  H2  UNL     1     -14.173   7.801  70.520  1.00  0.00     0.000 HD 
HETATM    3  H1  UNL     1     -12.735   6.794  70.066  1.00  0.00     0.000 HD 
HETATM    4  S   UNL     1     -12.225   7.877  71.944  1.00  0.00    -0.326 S  
HETATM    5  O   UNL     1     -11.708   6.624  72.438  1.00  0.00    -0.276 OA 
HETATM    6  O   UNL     1     -12.918   8.810  72.796  1.00  0.00    -0.345 OA 
ENDROOT
BRANCH   4   7
HETATM    7  C   UNL     1     -10.925   8.743  71.107  1.00  0.00    -0.268 A  
HETATM    8  C   UNL     1      -9.667   8.129  71.095  1.00  0.00    -0.200 A  
HETATM    9  C   UNL     1      -8.619   8.704  70.372  1.00  0.00    -0.153 A  
HETATM   10  C   UNL     1      -8.773   9.888  69.655  1.00  0.00    -0.204 A  
HETATM   11  C   UNL     1     -10.041  10.485  69.678  1.00  0.00    -0.177 A  
HETATM   12  N   UNL     1      -7.788  10.402  68.813  1.00  0.00    -0.100 NA 
HETATM   13  C   UNL     1     -11.131   9.951  70.413  1.00  0.00    -0.382 A  
HETATM   14  H   UNL     1      -8.032  11.034  68.051  1.00  0.00     0.000 HD 
HETATM   15  C   UNL     1      -6.416  10.019  69.044  1.00  0.00    -0.044 C  
HETATM   16  C   UNL     1     -12.418  10.746  70.374  1.00  0.00    -0.347 C  
HETATM   17  N   UNL     1      -6.300   8.576  69.020  1.00  0.00    -0.043 N  
HETATM   18  F   UNL     1     -12.848  10.930  69.093  1.00  0.00    -0.157 F  
HETATM   19  F   UNL     1     -12.233  12.003  70.871  1.00  0.00    -0.437 F  
HETATM   20  F   UNL     1     -13.488  10.249  71.039  1.00  0.00    -0.425 F  
HETATM   21  S   UNL     1      -7.072   7.880  70.334  1.00  0.00    -0.046 S  
HETATM   22  H   UNL     1      -5.811   8.050  68.296  1.00  0.00     0.000 HD 
HETATM   23  O   UNL     1      -6.333   8.285  71.511  1.00  0.00    -0.040 OA 
HETATM   24  O   UNL     1      -7.287   6.486  70.018  1.00  0.00    -0.084 OA 
ENDBRANCH   4   7
TORSDOF 1
ENDMDL
MODEL      137
REMARK 921   NORMALIZED FREE ENERGY PREDICTED BY IDOCK:   -3.63 KCAL/MOL
REMARK 922        TOTAL FREE ENERGY PREDICTED BY IDOCK:   -3.61 KCAL/MOL
REMARK 923 INTER-LIGAND FREE ENERGY PREDICTED BY IDOCK:   -4.78 KCAL/MOL
REMARK 924 INTRA-LIGAND FREE ENERGY PREDICTED BY IDOCK:    1.17 KCAL/MOL
REMARK 927      BINDING AFFINITY PREDICTED BY RF-SCORE:    0.00 PKD
ROOT
HETATM    1  N   UNL     1      -7.262  10.372  63.625  1.00  0.00    -0.315 N  
HETATM    2  H2  UNL     1      -6.786  11.254  63.436  1.00  0.00     0.000 HD 
HETATM    3  H1  UNL     1      -6.814   9.513  63.944  1.00  0.00     0.000 HD 
HETATM    4  S   UNL     1      -8.908  10.100  63.461  1.00  0.00    -0.253 S  
HETATM    5  O   UNL     1      -9.005   8.863  62.725  1.00  0.00    -0.118 OA 
HETATM    6  O   UNL     1      -9.541  11.313  63.010  1.00  0.00    -0.335 OA 
ENDROOT
BRANCH   4   7
HETATM    7  C   UNL     1      -9.391   9.807  65.141  1.00  0.00    -0.260 A  
HETATM    8  C   UNL     1     -10.046  10.854  65.799  1.00  0.00    -0.308 A  
HETATM    9  C   UNL     1     -10.542  10.662  67.090  1.00  0.00    -0.260 A  
HETATM   10  C   UNL     1     -10.404   9.453  67.767  1.00  0.00    -0.238 A  
HETATM   11  C   UNL     1      -9.748   8.417  67.089  1.00  0.00    -0.250 A  
HETATM   12  N   UNL     1     -11.014   9.193  68.993  1.00  0.00    -0.432 NA 
HETATM   13  C   UNL     1      -9.209   8.569  65.786  1.00  0.00    -0.210 A  
HETATM   14  H   UNL     1     -11.202   8.236  69.289  1.00  0.00     0.000 HD 
HETATM   15  C   UNL     1     -11.374  10.309  69.834  1.00  0.00    -0.290 C  
HETATM   16  C   UNL     1      -8.485   7.367  65.217  1.00  0.00    -0.056 C  
HETATM   17  N   UNL     1     -12.234  11.215  69.103  1.00  0.00    -0.351 N  
HETATM   18  F   UNL     1      -9.292   6.267  65.194  1.00  0.00     0.097 F  
HETATM   19  F   UNL     1      -7.427   7.015  66.003  1.00  0.00    -0.072 F  
HETATM   20  F   UNL     1      -7.986   7.466  63.962  1.00  0.00    -0.127 F  
HETATM   21  S   UNL     1     -11.405  11.978  67.864  1.00  0.00    -0.330 S  
HETATM   22  H   UNL     1     -13.220  11.370  69.315  1.00  0.00     0.000 HD 
HETATM   23  O   UNL     1     -10.422  12.836  68.490  1.00  0.00    -0.240 OA 
HETATM   24  O   UNL     1     -12.390  12.501  66.945  1.00  0.00    -0.431 OA 
ENDBRANCH   4   7
TORSDOF 1
ENDMDL
MODEL      138
REMARK 921   NORMALIZED FREE ENERGY PREDICTED BY IDOCK:   -3.63 KCAL/MOL
REMARK 922        TOTAL FREE ENERGY PREDICTED BY IDOCK:   -3.60 KCAL/MOL
REMARK 923 INTER-LIGAND FREE ENERGY PREDICTED BY IDOCK:   -3.93 KCAL/MOL
REMARK 924 INTRA-LIGAND FREE ENERGY PREDICTED BY IDOCK:    0.33 KCAL/MOL
REMARK 927      BINDING AFFINITY PREDICTED BY RF-SCORE:    0.00 PKD
ROOT
HETATM    1  N   UNL     1      -8.794   6.795  67.189  1.00  0.00    -0.118 N  
HETATM    2  H2  UNL     1      -7.838   6.914  66.855  1.00  0.00     0.000 HD 
HETATM    3  H1  UNL     1      -9.243   5.903  67.394  1.00  0.00     0.000 HD 
HETATM    4  S   UNL     1      -9.881   8.035  67.489  1.00  0.00    -0.188 S  
HETATM    5  O   UNL     1     -11.100   7.621  66.838  1.00  0.00    -0.133 OA 
HETATM    6  O   UNL     1      -9.246   9.295  67.200  1.00  0.00    -0.128 OA 
ENDROOT
BRANCH   4   7
HETATM    7  C   UNL     1     -10.096   7.905  69.244  1.00  0.00    -0.197 A  
HETATM    8  C   UNL     1      -9.611   6.742  69.852  1.00  0.00    -0.159 A  
HETATM    9  C   UNL     1      -9.657   6.612  71.242  1.00  0.00    -0.169 A  
HETATM   10  C   UNL     1     -10.181   7.606  72.064  1.00  0.00    -0.197 A  
HETATM   11  C   UNL     1     -10.659   8.764  71.435  1.00  0.00    -0.349 A  
HETATM   12  N   UNL     1     -10.106   7.562  73.455  1.00  0.00    -0.325 NA 
HETATM   13  C   UNL     1     -10.653   8.934  70.026  1.00  0.00    -0.234 A  
HETATM   14  H   UNL     1     -10.159   8.418  74.007  1.00  0.00     0.000 HD 
HETATM   15  C   UNL     1      -9.953   6.279  74.096  1.00  0.00    -0.286 C  
HETATM   16  C   UNL     1     -11.253  10.223  69.505  1.00  0.00    -0.261 C  
HETATM   17  N   UNL     1      -8.780   5.610  73.576  1.00  0.00    -0.120 N  
HETATM   18  F   UNL     1     -10.635  11.312  70.045  1.00  0.00    -0.127 F  
HETATM   19  F   UNL     1     -12.562  10.337  69.874  1.00  0.00    -0.265 F  
HETATM   20  F   UNL     1     -11.235  10.432  68.168  1.00  0.00    -0.288 F  
HETATM   21  S   UNL     1      -8.991   5.165  71.974  1.00  0.00    -0.133 S  
HETATM   22  H   UNL     1      -7.932   5.431  74.116  1.00  0.00     0.000 HD 
HETATM   23  O   UNL     1     -10.024   4.153  71.959  1.00  0.00    -0.169 OA 
HETATM   24  O   UNL     1      -7.679   4.916  71.421  1.00  0.00    -0.083 OA 
ENDBRANCH   4   7
TORSDOF 1
ENDMDL
MODEL      139
REMARK 921   NORMALIZED FREE ENERGY PREDICTED BY IDOCK:   -3.61 KCAL/MOL
REMARK 922        TOTAL FREE ENERGY PREDICTED BY IDOCK:   -3.59 KCAL/MOL
REMARK 923 INTER-LIGAND FREE ENERGY PREDICTED BY IDOCK:   -4.57 KCAL/MOL
REMARK 924 INTRA-LIGAND FREE ENERGY PREDICTED BY IDOCK:    0.98 KCAL/MOL
REMARK 927      BINDING AFFINITY PREDICTED BY RF-SCORE:    0.00 PKD
ROOT
HETATM    1  N   UNL     1     -12.308  14.227  68.046  1.00  0.00    -0.564 N  
HETATM    2  H2  UNL     1     -12.820  14.022  68.903  1.00  0.00     0.000 HD 
HETATM    3  H1  UNL     1     -12.486  15.016  67.424  1.00  0.00     0.000 HD 
HETATM    4  S   UNL     1     -11.038  13.323  67.430  1.00  0.00    -0.288 S  
HETATM    5  O   UNL     1     -11.356  13.145  66.034  1.00  0.00    -0.295 OA 
HETATM    6  O   UNL     1     -10.787  12.210  68.308  1.00  0.00    -0.204 OA 
ENDROOT
BRANCH   4   7
HETATM    7  C   UNL     1      -9.687  14.463  67.570  1.00  0.00    -0.215 A  
HETATM    8  C   UNL     1     -10.004  15.824  67.499  1.00  0.00    -0.236 A  
HETATM    9  C   UNL     1      -9.006  16.781  67.698  1.00  0.00    -0.210 A  
HETATM   10  C   UNL     1      -7.684  16.433  67.961  1.00  0.00    -0.153 A  
HETATM   11  C   UNL     1      -7.389  15.065  68.029  1.00  0.00    -0.135 A  
HETATM   12  N   UNL     1      -6.706  17.364  68.304  1.00  0.00    -0.178 NA 
HETATM   13  C   UNL     1      -8.362  14.055  67.815  1.00  0.00    -0.176 A  
HETATM   14  H   UNL     1      -5.877  17.080  68.826  1.00  0.00     0.000 HD 
HETATM   15  C   UNL     1      -6.891  18.738  67.905  1.00  0.00    -0.213 C  
HETATM   16  C   UNL     1      -7.868  12.625  67.874  1.00  0.00    -0.154 C  
HETATM   17  N   UNL     1      -8.155  19.228  68.413  1.00  0.00    -0.331 N  
HETATM   18  F   UNL     1      -7.266  12.358  69.068  1.00  0.00    -0.103 F  
HETATM   19  F   UNL     1      -6.906  12.401  66.933  1.00  0.00    -0.133 F  
HETATM   20  F   UNL     1      -8.776  11.636  67.705  1.00  0.00    -0.135 F  
HETATM   21  S   UNL     1      -9.449  18.477  67.657  1.00  0.00    -0.284 S  
HETATM   22  H   UNL     1      -8.247  19.940  69.138  1.00  0.00     0.000 HD 
HETATM   23  O   UNL     1      -9.423  18.902  66.274  1.00  0.00    -0.334 OA 
HETATM   24  O   UNL     1     -10.612  18.682  68.490  1.00  0.00    -0.228 OA 
ENDBRANCH   4   7
TORSDOF 1
ENDMDL
MODEL      140
REMARK 921   NORMALIZED FREE ENERGY PREDICTED BY IDOCK:   -3.59 KCAL/MOL
REMARK 922        TOTAL FREE ENERGY PREDICTED BY IDOCK:   -3.57 KCAL/MOL
REMARK 923 INTER-LIGAND FREE ENERGY PREDICTED BY IDOCK:   -4.39 KCAL/MOL
REMARK 924 INTRA-LIGAND FREE ENERGY PREDICTED BY IDOCK:    0.83 KCAL/MOL
REMARK 927      BINDING AFFINITY PREDICTED BY RF-SCORE:    0.00 PKD
ROOT
HETATM    1  N   UNL     1      -8.272  13.784  69.044  1.00  0.00    -0.345 N  
HETATM    2  H2  UNL     1      -8.734  14.570  69.499  1.00  0.00     0.000 HD 
HETATM    3  H1  UNL     1      -7.719  13.068  69.516  1.00  0.00     0.000 HD 
HETATM    4  S   UNL     1      -8.296  13.459  67.400  1.00  0.00    -0.182 S  
HETATM    5  O   UNL     1      -6.919  13.199  67.056  1.00  0.00    -0.019 OA 
HETATM    6  O   UNL     1      -9.075  14.470  66.734  1.00  0.00    -0.245 OA 
ENDROOT
BRANCH   4   7
HETATM    7  C   UNL     1      -9.197  11.933  67.350  1.00  0.00    -0.177 A  
HETATM    8  C   UNL     1      -8.503  10.808  66.892  1.00  0.00    -0.131 A  
HETATM    9  C   UNL     1      -9.117   9.554  66.916  1.00  0.00    -0.135 A  
HETATM   10  C   UNL     1     -10.418   9.372  67.379  1.00  0.00    -0.278 A  
HETATM   11  C   UNL     1     -11.094  10.512  67.836  1.00  0.00    -0.367 A  
HETATM   12  N   UNL     1     -10.998   8.116  67.548  1.00  0.00    -0.493 NA 
HETATM   13  C   UNL     1     -10.521  11.809  67.812  1.00  0.00    -0.219 A  
HETATM   14  H   UNL     1     -11.772   7.983  68.198  1.00  0.00     0.000 HD 
HETATM   15  C   UNL     1     -10.478   7.009  66.783  1.00  0.00    -0.227 C  
HETATM   16  C   UNL     1     -11.405  12.940  68.294  1.00  0.00    -0.291 C  
HETATM   17  N   UNL     1      -9.058   6.869  67.027  1.00  0.00    -0.132 N  
HETATM   18  F   UNL     1     -11.846  12.718  69.566  1.00  0.00    -0.322 F  
HETATM   19  F   UNL     1     -12.536  13.035  67.537  1.00  0.00    -0.273 F  
HETATM   20  F   UNL     1     -10.879  14.188  68.315  1.00  0.00    -0.229 F  
HETATM   21  S   UNL     1      -8.199   8.157  66.386  1.00  0.00    -0.113 S  
HETATM   22  H   UNL     1      -8.635   6.086  67.525  1.00  0.00     0.000 HD 
HETATM   23  O   UNL     1      -8.331   8.069  64.948  1.00  0.00    -0.150 OA 
HETATM   24  O   UNL     1      -6.904   8.172  67.028  1.00  0.00    -0.067 OA 
ENDBRANCH   4   7
TORSDOF 1
ENDMDL
MODEL      141
REMARK 921   NORMALIZED FREE ENERGY PREDICTED BY IDOCK:   -3.58 KCAL/MOL
REMARK 922        TOTAL FREE ENERGY PREDICTED BY IDOCK:   -3.55 KCAL/MOL
REMARK 923 INTER-LIGAND FREE ENERGY PREDICTED BY IDOCK:   -3.63 KCAL/MOL
REMARK 924 INTRA-LIGAND FREE ENERGY PREDICTED BY IDOCK:    0.08 KCAL/MOL
REMARK 927      BINDING AFFINITY PREDICTED BY RF-SCORE:    0.00 PKD
ROOT
HETATM    1  N   UNL     1      -8.004   5.935  67.123  1.00  0.00    -0.102 N  
HETATM    2  H2  UNL     1      -8.255   5.568  66.205  1.00  0.00     0.000 HD 
HETATM    3  H1  UNL     1      -7.101   6.340  67.372  1.00  0.00     0.000 HD 
HETATM    4  S   UNL     1      -9.007   5.968  68.465  1.00  0.00    -0.113 S  
HETATM    5  O   UNL     1      -8.200   5.445  69.541  1.00  0.00    -0.094 OA 
HETATM    6  O   UNL     1     -10.281   5.396  68.113  1.00  0.00    -0.176 OA 
ENDROOT
BRANCH   4   7
HETATM    7  C   UNL     1      -9.223   7.711  68.707  1.00  0.00    -0.142 A  
HETATM    8  C   UNL     1      -8.522   8.557  67.841  1.00  0.00    -0.130 A  
HETATM    9  C   UNL     1      -8.717   9.938  67.908  1.00  0.00    -0.129 A  
HETATM   10  C   UNL     1      -9.592  10.522  68.821  1.00  0.00    -0.179 A  
HETATM   11  C   UNL     1     -10.286   9.656  69.677  1.00  0.00    -0.245 A  
HETATM   12  N   UNL     1      -9.912  11.878  68.810  1.00  0.00    -0.381 NA 
HETATM   13  C   UNL     1     -10.107   8.249  69.662  1.00  0.00    -0.199 A  
HETATM   14  H   UNL     1     -10.783  12.211  69.221  1.00  0.00     0.000 HD 
HETATM   15  C   UNL     1      -8.982  12.800  68.204  1.00  0.00    -0.199 C  
HETATM   16  C   UNL     1     -10.895   7.462  70.687  1.00  0.00    -0.242 C  
HETATM   17  N   UNL     1      -8.721  12.403  66.837  1.00  0.00    -0.226 N  
HETATM   18  F   UNL     1     -12.234   7.698  70.571  1.00  0.00    -0.214 F  
HETATM   19  F   UNL     1     -10.574   7.850  71.955  1.00  0.00    -0.232 F  
HETATM   20  F   UNL     1     -10.772   6.113  70.679  1.00  0.00    -0.263 F  
HETATM   21  S   UNL     1      -7.864  10.965  66.772  1.00  0.00    -0.146 S  
HETATM   22  H   UNL     1      -9.020  12.932  66.017  1.00  0.00     0.000 HD 
HETATM   23  O   UNL     1      -6.556  11.237  67.327  1.00  0.00    -0.076 OA 
HETATM   24  O   UNL     1      -8.023  10.429  65.439  1.00  0.00    -0.146 OA 
ENDBRANCH   4   7
TORSDOF 1
ENDMDL
MODEL      142
REMARK 921   NORMALIZED FREE ENERGY PREDICTED BY IDOCK:   -3.57 KCAL/MOL
REMARK 922        TOTAL FREE ENERGY PREDICTED BY IDOCK:   -3.54 KCAL/MOL
REMARK 923 INTER-LIGAND FREE ENERGY PREDICTED BY IDOCK:   -4.54 KCAL/MOL
REMARK 924 INTRA-LIGAND FREE ENERGY PREDICTED BY IDOCK:    1.00 KCAL/MOL
REMARK 927      BINDING AFFINITY PREDICTED BY RF-SCORE:    0.00 PKD
ROOT
HETATM    1  N   UNL     1     -10.575   5.584  71.274  1.00  0.00    -0.245 N  
HETATM    2  H2  UNL     1     -10.954   4.838  70.691  1.00  0.00     0.000 HD 
HETATM    3  H1  UNL     1      -9.675   5.563  71.753  1.00  0.00     0.000 HD 
HETATM    4  S   UNL     1     -11.332   7.044  71.599  1.00  0.00    -0.269 S  
HETATM    5  O   UNL     1     -11.218   7.207  73.028  1.00  0.00    -0.294 OA 
HETATM    6  O   UNL     1     -12.603   7.074  70.922  1.00  0.00    -0.353 OA 
ENDROOT
BRANCH   4   7
HETATM    7  C   UNL     1     -10.245   8.195  70.802  1.00  0.00    -0.194 A  
HETATM    8  C   UNL     1     -10.793   8.967  69.771  1.00  0.00    -0.215 A  
HETATM    9  C   UNL     1     -10.025   9.962  69.164  1.00  0.00    -0.198 A  
HETATM   10  C   UNL     1      -8.710  10.221  69.541  1.00  0.00    -0.139 A  
HETATM   11  C   UNL     1      -8.181   9.438  70.577  1.00  0.00    -0.221 A  
HETATM   12  N   UNL     1      -7.975  11.299  69.052  1.00  0.00    -0.307 NA 
HETATM   13  C   UNL     1      -8.914   8.402  71.211  1.00  0.00    -0.224 A  
HETATM   14  H   UNL     1      -7.188  11.675  69.579  1.00  0.00     0.000 HD 
HETATM   15  C   UNL     1      -8.354  11.872  67.783  1.00  0.00    -0.149 C  
HETATM   16  C   UNL     1      -8.179   7.618  72.277  1.00  0.00    -0.108 C  
HETATM   17  N   UNL     1      -9.743  12.275  67.823  1.00  0.00    -0.194 N  
HETATM   18  F   UNL     1      -7.707   8.438  73.260  1.00  0.00    -0.186 F  
HETATM   19  F   UNL     1      -7.072   7.009  71.760  1.00  0.00    -0.066 F  
HETATM   20  F   UNL     1      -8.858   6.643  72.925  1.00  0.00    -0.126 F  
HETATM   21  S   UNL     1     -10.761  10.947  67.913  1.00  0.00    -0.252 S  
HETATM   22  H   UNL     1     -10.062  13.243  67.799  1.00  0.00     0.000 HD 
HETATM   23  O   UNL     1     -10.625  10.235  66.661  1.00  0.00    -0.223 OA 
HETATM   24  O   UNL     1     -12.045  11.420  68.379  1.00  0.00    -0.575 OA 
ENDBRANCH   4   7
TORSDOF 1
ENDMDL
MODEL      143
REMARK 921   NORMALIZED FREE ENERGY PREDICTED BY IDOCK:   -3.55 KCAL/MOL
REMARK 922        TOTAL FREE ENERGY PREDICTED BY IDOCK:   -3.52 KCAL/MOL
REMARK 923 INTER-LIGAND FREE ENERGY PREDICTED BY IDOCK:   -3.58 KCAL/MOL
REMARK 924 INTRA-LIGAND FREE ENERGY PREDICTED BY IDOCK:    0.06 KCAL/MOL
REMARK 927      BINDING AFFINITY PREDICTED BY RF-SCORE:    0.00 PKD
ROOT
HETATM    1  N   UNL     1      -6.256   6.012  67.024  1.00  0.00    -0.025 N  
HETATM    2  H2  UNL     1      -5.371   5.940  67.525  1.00  0.00     0.000 HD 
HETATM    3  H1  UNL     1      -6.914   5.247  66.870  1.00  0.00     0.000 HD 
HETATM    4  S   UNL     1      -6.866   7.405  66.321  1.00  0.00    -0.062 S  
HETATM    5  O   UNL     1      -7.279   7.000  64.999  1.00  0.00    -0.070 OA 
HETATM    6  O   UNL     1      -5.938   8.485  66.538  1.00  0.00    -0.050 OA 
ENDROOT
BRANCH   4   7
HETATM    7  C   UNL     1      -8.310   7.701  67.306  1.00  0.00    -0.115 A  
HETATM    8  C   UNL     1      -8.515   6.844  68.394  1.00  0.00    -0.123 A  
HETATM    9  C   UNL     1      -9.577   7.075  69.271  1.00  0.00    -0.154 A  
HETATM   10  C   UNL     1     -10.462   8.137  69.103  1.00  0.00    -0.206 A  
HETATM   11  C   UNL     1     -10.238   8.984  68.009  1.00  0.00    -0.260 A  
HETATM   12  N   UNL     1     -11.437   8.471  70.041  1.00  0.00    -0.459 NA 
HETATM   13  C   UNL     1      -9.186   8.779  67.079  1.00  0.00    -0.177 A  
HETATM   14  H   UNL     1     -11.816   9.417  70.084  1.00  0.00     0.000 HD 
HETATM   15  C   UNL     1     -11.898   7.450  70.950  1.00  0.00    -0.290 C  
HETATM   16  C   UNL     1      -9.114   9.755  65.924  1.00  0.00    -0.168 C  
HETATM   17  N   UNL     1     -10.773   6.893  71.671  1.00  0.00    -0.221 N  
HETATM   18  F   UNL     1      -9.015  11.042  66.368  1.00  0.00    -0.159 F  
HETATM   19  F   UNL     1     -10.259   9.722  65.183  1.00  0.00    -0.390 F  
HETATM   20  F   UNL     1      -8.104   9.609  65.035  1.00  0.00    -0.111 F  
HETATM   21  S   UNL     1      -9.771   6.016  70.654  1.00  0.00    -0.177 S  
HETATM   22  H   UNL     1     -10.612   7.018  72.670  1.00  0.00     0.000 HD 
HETATM   23  O   UNL     1     -10.530   4.863  70.218  1.00  0.00    -0.234 OA 
HETATM   24  O   UNL     1      -8.498   5.874  71.323  1.00  0.00    -0.126 OA 
ENDBRANCH   4   7
TORSDOF 1
ENDMDL
MODEL      144
REMARK 921   NORMALIZED FREE ENERGY PREDICTED BY IDOCK:   -3.49 KCAL/MOL
REMARK 922        TOTAL FREE ENERGY PREDICTED BY IDOCK:   -3.46 KCAL/MOL
REMARK 923 INTER-LIGAND FREE ENERGY PREDICTED BY IDOCK:   -3.52 KCAL/MOL
REMARK 924 INTRA-LIGAND FREE ENERGY PREDICTED BY IDOCK:    0.06 KCAL/MOL
REMARK 927      BINDING AFFINITY PREDICTED BY RF-SCORE:    0.00 PKD
ROOT
HETATM    1  N   UNL     1     -10.331   8.494  69.376  1.00  0.00    -0.213 N  
HETATM    2  H2  UNL     1     -11.237   8.953  69.467  1.00  0.00     0.000 HD 
HETATM    3  H1  UNL     1      -9.556   8.578  70.034  1.00  0.00     0.000 HD 
HETATM    4  S   UNL     1      -9.877   7.479  68.123  1.00  0.00    -0.164 S  
HETATM    5  O   UNL     1      -8.575   7.953  67.719  1.00  0.00    -0.127 OA 
HETATM    6  O   UNL     1     -10.972   7.361  67.194  1.00  0.00    -0.312 OA 
ENDROOT
BRANCH   4   7
HETATM    7  C   UNL     1      -9.687   5.931  68.966  1.00  0.00    -0.136 A  
HETATM    8  C   UNL     1      -9.922   5.934  70.345  1.00  0.00    -0.247 A  
HETATM    9  C   UNL     1      -9.887   4.735  71.060  1.00  0.00    -0.197 A  
HETATM   10  C   UNL     1      -9.615   3.513  70.448  1.00  0.00    -0.171 A  
HETATM   11  C   UNL     1      -9.385   3.533  69.066  1.00  0.00    -0.240 A  
HETATM   12  N   UNL     1      -9.717   2.291  71.110  1.00  0.00    -0.141 NA 
HETATM   13  C   UNL     1      -9.390   4.727  68.300  1.00  0.00    -0.177 A  
HETATM   14  H   UNL     1      -9.868   1.428  70.590  1.00  0.00     0.000 HD 
HETATM   15  C   UNL     1      -9.604   2.275  72.548  1.00  0.00    -0.101 C  
HETATM   16  C   UNL     1      -9.072   4.579  66.827  1.00  0.00    -0.124 C  
HETATM   17  N   UNL     1     -10.587   3.166  73.126  1.00  0.00    -0.163 N  
HETATM   18  F   UNL     1      -9.928   3.708  66.220  1.00  0.00    -0.181 F  
HETATM   19  F   UNL     1      -7.831   4.042  66.646  1.00  0.00    -0.089 F  
HETATM   20  F   UNL     1      -9.099   5.695  66.061  1.00  0.00    -0.143 F  
HETATM   21  S   UNL     1     -10.240   4.768  72.777  1.00  0.00    -0.189 S  
HETATM   22  H   UNL     1     -11.389   2.859  73.677  1.00  0.00     0.000 HD 
HETATM   23  O   UNL     1      -9.010   5.085  73.469  1.00  0.00    -0.115 OA 
HETATM   24  O   UNL     1     -11.450   5.528  72.996  1.00  0.00    -0.291 OA 
ENDBRANCH   4   7
TORSDOF 1
ENDMDL
MODEL      145
REMARK 921   NORMALIZED FREE ENERGY PREDICTED BY IDOCK:   -3.46 KCAL/MOL
REMARK 922        TOTAL FREE ENERGY PREDICTED BY IDOCK:   -3.43 KCAL/MOL
REMARK 923 INTER-LIGAND FREE ENERGY PREDICTED BY IDOCK:   -4.25 KCAL/MOL
REMARK 924 INTRA-LIGAND FREE ENERGY PREDICTED BY IDOCK:    0.83 KCAL/MOL
REMARK 927      BINDING AFFINITY PREDICTED BY RF-SCORE:    0.00 PKD
ROOT
HETATM    1  N   UNL     1     -11.249   8.099  72.378  1.00  0.00    -0.359 N  
HETATM    2  H2  UNL     1     -11.675   8.975  72.681  1.00  0.00     0.000 HD 
HETATM    3  H1  UNL     1     -11.733   7.207  72.282  1.00  0.00     0.000 HD 
HETATM    4  S   UNL     1      -9.640   7.895  71.957  1.00  0.00    -0.203 S  
HETATM    5  O   UNL     1      -9.220   6.712  72.670  1.00  0.00    -0.141 OA 
HETATM    6  O   UNL     1      -8.956   9.155  72.093  1.00  0.00    -0.315 OA 
ENDROOT
BRANCH   4   7
HETATM    7  C   UNL     1      -9.767   7.510  70.232  1.00  0.00    -0.179 A  
HETATM    8  C   UNL     1      -9.352   6.231  69.841  1.00  0.00    -0.158 A  
HETATM    9  C   UNL     1      -9.514   5.823  68.515  1.00  0.00    -0.123 A  
HETATM   10  C   UNL     1     -10.074   6.650  67.545  1.00  0.00    -0.160 A  
HETATM   11  C   UNL     1     -10.485   7.925  67.958  1.00  0.00    -0.245 A  
HETATM   12  N   UNL     1     -10.377   6.216  66.256  1.00  0.00    -0.438 NA 
HETATM   13  C   UNL     1     -10.323   8.394  69.288  1.00  0.00    -0.220 A  
HETATM   14  H   UNL     1     -11.085   6.693  65.699  1.00  0.00     0.000 HD 
HETATM   15  C   UNL     1      -9.667   5.076  65.729  1.00  0.00    -0.141 C  
HETATM   16  C   UNL     1     -10.773   9.814  69.556  1.00  0.00    -0.233 C  
HETATM   17  N   UNL     1      -9.827   3.945  66.618  1.00  0.00    -0.368 N  
HETATM   18  F   UNL     1     -12.084   9.990  69.223  1.00  0.00    -0.088 F  
HETATM   19  F   UNL     1     -10.086  10.700  68.778  1.00  0.00    -0.161 F  
HETATM   20  F   UNL     1     -10.663  10.283  70.821  1.00  0.00    -0.363 F  
HETATM   21  S   UNL     1      -9.034   4.195  68.072  1.00  0.00    -0.131 S  
HETATM   22  H   UNL     1     -10.355   3.103  66.388  1.00  0.00     0.000 HD 
HETATM   23  O   UNL     1      -7.619   4.224  67.773  1.00  0.00    -0.068 OA 
HETATM   24  O   UNL     1      -9.586   3.263  69.029  1.00  0.00    -0.159 OA 
ENDBRANCH   4   7
TORSDOF 1
ENDMDL
MODEL      146
REMARK 921   NORMALIZED FREE ENERGY PREDICTED BY IDOCK:   -3.39 KCAL/MOL
REMARK 922        TOTAL FREE ENERGY PREDICTED BY IDOCK:   -3.36 KCAL/MOL
REMARK 923 INTER-LIGAND FREE ENERGY PREDICTED BY IDOCK:   -4.24 KCAL/MOL
REMARK 924 INTRA-LIGAND FREE ENERGY PREDICTED BY IDOCK:    0.88 KCAL/MOL
REMARK 927      BINDING AFFINITY PREDICTED BY RF-SCORE:    0.00 PKD
ROOT
HETATM    1  N   UNL     1      -9.812  11.312  66.592  1.00  0.00    -0.201 N  
HETATM    2  H2  UNL     1      -9.181  11.952  66.112  1.00  0.00     0.000 HD 
HETATM    3  H1  UNL     1     -10.033  10.362  66.292  1.00  0.00     0.000 HD 
HETATM    4  S   UNL     1     -10.656  11.649  68.000  1.00  0.00    -0.212 S  
HETATM    5  O   UNL     1     -12.008  11.223  67.731  1.00  0.00    -0.637 OA 
HETATM    6  O   UNL     1     -10.344  12.990  68.424  1.00  0.00    -0.244 OA 
ENDROOT
BRANCH   4   7
HETATM    7  C   UNL     1      -9.914  10.514  69.142  1.00  0.00    -0.220 A  
HETATM    8  C   UNL     1     -10.772   9.610  69.778  1.00  0.00    -0.269 A  
HETATM    9  C   UNL     1     -10.248   8.624  70.616  1.00  0.00    -0.198 A  
HETATM   10  C   UNL     1      -8.882   8.503  70.857  1.00  0.00    -0.171 A  
HETATM   11  C   UNL     1      -8.039   9.417  70.208  1.00  0.00    -0.180 A  
HETATM   12  N   UNL     1      -8.325   7.443  71.570  1.00  0.00    -0.107 NA 
HETATM   13  C   UNL     1      -8.525  10.449  69.365  1.00  0.00    -0.145 A  
HETATM   14  H   UNL     1      -7.350   7.179  71.434  1.00  0.00     0.000 HD 
HETATM   15  C   UNL     1      -9.160   6.727  72.504  1.00  0.00    -0.133 C  
HETATM   16  C   UNL     1      -7.486  11.383  68.783  1.00  0.00    -0.124 C  
HETATM   17  N   UNL     1     -10.335   6.225  71.824  1.00  0.00    -0.203 N  
HETATM   18  F   UNL     1      -6.541  10.696  68.078  1.00  0.00    -0.061 F  
HETATM   19  F   UNL     1      -6.795  12.023  69.771  1.00  0.00    -0.092 F  
HETATM   20  F   UNL     1      -7.911  12.360  67.948  1.00  0.00    -0.116 F  
HETATM   21  S   UNL     1     -11.348   7.474  71.352  1.00  0.00    -0.265 S  
HETATM   22  H   UNL     1     -10.524   5.237  71.654  1.00  0.00     0.000 HD 
HETATM   23  O   UNL     1     -11.858   8.074  72.565  1.00  0.00    -0.367 OA 
HETATM   24  O   UNL     1     -12.233   6.950  70.336  1.00  0.00    -0.293 OA 
ENDBRANCH   4   7
TORSDOF 1
ENDMDL
MODEL      147
REMARK 921   NORMALIZED FREE ENERGY PREDICTED BY IDOCK:   -3.34 KCAL/MOL
REMARK 922        TOTAL FREE ENERGY PREDICTED BY IDOCK:   -3.30 KCAL/MOL
REMARK 923 INTER-LIGAND FREE ENERGY PREDICTED BY IDOCK:   -3.35 KCAL/MOL
REMARK 924 INTRA-LIGAND FREE ENERGY PREDICTED BY IDOCK:    0.06 KCAL/MOL
REMARK 927      BINDING AFFINITY PREDICTED BY RF-SCORE:    0.00 PKD
ROOT
HETATM    1  N   UNL     1      -7.904   8.462  72.998  1.00  0.00    -0.120 N  
HETATM    2  H2  UNL     1      -8.027   8.742  73.971  1.00  0.00     0.000 HD 
HETATM    3  H1  UNL     1      -7.020   8.187  72.569  1.00  0.00     0.000 HD 
HETATM    4  S   UNL     1      -9.119   8.378  71.848  1.00  0.00    -0.241 S  
HETATM    5  O   UNL     1      -8.581   9.058  70.694  1.00  0.00    -0.170 OA 
HETATM    6  O   UNL     1     -10.366   8.767  72.455  1.00  0.00    -0.300 OA 
ENDROOT
BRANCH   4   7
HETATM    7  C   UNL     1      -9.176   6.639  71.513  1.00  0.00    -0.146 A  
HETATM    8  C   UNL     1      -8.277   5.832  72.220  1.00  0.00    -0.108 A  
HETATM    9  C   UNL     1      -8.330   4.444  72.081  1.00  0.00    -0.108 A  
HETATM   10  C   UNL     1      -9.251   3.815  71.247  1.00  0.00    -0.128 A  
HETATM   11  C   UNL     1     -10.143   4.641  70.550  1.00  0.00    -0.263 A  
HETATM   12  N   UNL     1      -9.417   2.432  71.202  1.00  0.00    -0.141 NA 
HETATM   13  C   UNL     1     -10.117   6.056  70.642  1.00  0.00    -0.246 A  
HETATM   14  H   UNL     1     -10.295   2.023  70.883  1.00  0.00     0.000 HD 
HETATM   15  C   UNL     1      -8.321   1.592  71.619  1.00  0.00    -0.047 C  
HETATM   16  C   UNL     1     -11.116   6.802  69.784  1.00  0.00    -0.316 C  
HETATM   17  N   UNL     1      -7.923   1.939  72.966  1.00  0.00    -0.048 N  
HETATM   18  F   UNL     1     -12.393   6.405  70.052  1.00  0.00    -0.368 F  
HETATM   19  F   UNL     1     -10.928   6.526  68.461  1.00  0.00    -0.243 F  
HETATM   20  F   UNL     1     -11.139   8.153  69.871  1.00  0.00    -0.248 F  
HETATM   21  S   UNL     1      -7.225   3.462  73.024  1.00  0.00    -0.047 S  
HETATM   22  H   UNL     1      -8.050   1.335  73.778  1.00  0.00     0.000 HD 
HETATM   23  O   UNL     1      -5.982   3.375  72.288  1.00  0.00    -0.008 OA 
HETATM   24  O   UNL     1      -7.261   3.900  74.400  1.00  0.00    -0.058 OA 
ENDBRANCH   4   7
TORSDOF 1
ENDMDL
MODEL      148
REMARK 921   NORMALIZED FREE ENERGY PREDICTED BY IDOCK:   -3.31 KCAL/MOL
REMARK 922        TOTAL FREE ENERGY PREDICTED BY IDOCK:   -3.26 KCAL/MOL
REMARK 923 INTER-LIGAND FREE ENERGY PREDICTED BY IDOCK:   -4.65 KCAL/MOL
REMARK 924 INTRA-LIGAND FREE ENERGY PREDICTED BY IDOCK:    1.39 KCAL/MOL
REMARK 927      BINDING AFFINITY PREDICTED BY RF-SCORE:    0.00 PKD
ROOT
HETATM    1  N   UNL     1     -11.888  10.098  69.408  1.00  0.00    -0.489 N  
HETATM    2  H2  UNL     1     -12.227  10.914  69.918  1.00  0.00     0.000 HD 
HETATM    3  H1  UNL     1     -12.468   9.446  68.881  1.00  0.00     0.000 HD 
HETATM    4  S   UNL     1     -10.287   9.614  69.301  1.00  0.00    -0.221 S  
HETATM    5  O   UNL     1     -10.311   8.200  69.590  1.00  0.00    -0.212 OA 
HETATM    6  O   UNL     1      -9.468  10.535  70.046  1.00  0.00     0.069 OA 
ENDROOT
BRANCH   4   7
HETATM    7  C   UNL     1      -9.959   9.841  67.574  1.00  0.00    -0.184 A  
HETATM    8  C   UNL     1      -9.242   8.825  66.932  1.00  0.00    -0.195 A  
HETATM    9  C   UNL     1      -9.030   8.888  65.553  1.00  0.00    -0.197 A  
HETATM   10  C   UNL     1      -9.505   9.942  64.776  1.00  0.00    -0.291 A  
HETATM   11  C   UNL     1     -10.222  10.947  65.438  1.00  0.00    -0.339 A  
HETATM   12  N   UNL     1      -9.432   9.954  63.384  1.00  0.00    -0.471 NA 
HETATM   13  C   UNL     1     -10.446  10.938  66.839  1.00  0.00    -0.299 A  
HETATM   14  H   UNL     1     -10.075  10.524  62.834  1.00  0.00     0.000 HD 
HETATM   15  C   UNL     1      -8.427   9.144  62.739  1.00  0.00    -0.211 C  
HETATM   16  C   UNL     1     -11.196  12.126  67.405  1.00  0.00    -0.302 C  
HETATM   17  N   UNL     1      -8.570   7.765  63.155  1.00  0.00    -0.364 N  
HETATM   18  F   UNL     1     -12.411  12.277  66.804  1.00  0.00    -0.292 F  
HETATM   19  F   UNL     1     -10.528  13.290  67.156  1.00  0.00    -0.242 F  
HETATM   20  F   UNL     1     -11.454  12.135  68.734  1.00  0.00    -0.250 F  
HETATM   21  S   UNL     1      -8.176   7.572  64.772  1.00  0.00    -0.007 S  
HETATM   22  H   UNL     1      -8.871   7.008  62.542  1.00  0.00     0.000 HD 
HETATM   23  O   UNL     1      -6.759   7.841  64.888  1.00  0.00    -0.050 OA 
HETATM   24  O   UNL     1      -8.745   6.316  65.206  1.00  0.00    -0.108 OA 
ENDBRANCH   4   7
TORSDOF 1
ENDMDL
MODEL      149
REMARK 921   NORMALIZED FREE ENERGY PREDICTED BY IDOCK:   -3.25 KCAL/MOL
REMARK 922        TOTAL FREE ENERGY PREDICTED BY IDOCK:   -3.21 KCAL/MOL
REMARK 923 INTER-LIGAND FREE ENERGY PREDICTED BY IDOCK:   -3.32 KCAL/MOL
REMARK 924 INTRA-LIGAND FREE ENERGY PREDICTED BY IDOCK:    0.12 KCAL/MOL
REMARK 927      BINDING AFFINITY PREDICTED BY RF-SCORE:    0.00 PKD
ROOT
HETATM    1  N   UNL     1      -9.405  16.462  65.722  1.00  0.00    -0.211 N  
HETATM    2  H2  UNL     1      -9.327  16.163  64.751  1.00  0.00     0.000 HD 
HETATM    3  H1  UNL     1     -10.060  16.083  66.407  1.00  0.00     0.000 HD 
HETATM    4  S   UNL     1      -8.481  17.654  66.452  1.00  0.00    -0.219 S  
HETATM    5  O   UNL     1      -9.435  18.486  67.146  1.00  0.00    -0.280 OA 
HETATM    6  O   UNL     1      -7.557  18.189  65.485  1.00  0.00    -0.527 OA 
ENDROOT
BRANCH   4   7
HETATM    7  C   UNL     1      -7.564  16.716  67.644  1.00  0.00    -0.153 A  
HETATM    8  C   UNL     1      -7.653  15.323  67.552  1.00  0.00    -0.212 A  
HETATM    9  C   UNL     1      -6.883  14.519  68.394  1.00  0.00    -0.104 A  
HETATM   10  C   UNL     1      -6.018  15.053  69.346  1.00  0.00    -0.106 A  
HETATM   11  C   UNL     1      -5.942  16.451  69.420  1.00  0.00    -0.165 A  
HETATM   12  N   UNL     1      -5.136  14.277  70.095  1.00  0.00    -0.089 NA 
HETATM   13  C   UNL     1      -6.719  17.310  68.601  1.00  0.00    -0.192 A  
HETATM   14  H   UNL     1      -4.295  14.688  70.500  1.00  0.00     0.000 HD 
HETATM   15  C   UNL     1      -5.439  12.879  70.284  1.00  0.00    -0.135 C  
HETATM   16  C   UNL     1      -6.554  18.795  68.843  1.00  0.00    -0.264 C  
HETATM   17  N   UNL     1      -5.601  12.235  68.998  1.00  0.00    -0.062 N  
HETATM   18  F   UNL     1      -5.252  19.179  68.709  1.00  0.00    -0.184 F  
HETATM   19  F   UNL     1      -6.891  19.122  70.125  1.00  0.00    -0.143 F  
HETATM   20  F   UNL     1      -7.257  19.645  68.058  1.00  0.00    -0.282 F  
HETATM   21  S   UNL     1      -6.979  12.777  68.214  1.00  0.00    -0.110 S  
HETATM   22  H   UNL     1      -4.959  11.540  68.618  1.00  0.00     0.000 HD 
HETATM   23  O   UNL     1      -8.108  12.319  68.995  1.00  0.00     0.084 OA 
HETATM   24  O   UNL     1      -6.839  12.439  66.816  1.00  0.00     0.030 OA 
ENDBRANCH   4   7
TORSDOF 1
ENDMDL
MODEL      150
REMARK 921   NORMALIZED FREE ENERGY PREDICTED BY IDOCK:   -3.24 KCAL/MOL
REMARK 922        TOTAL FREE ENERGY PREDICTED BY IDOCK:   -3.19 KCAL/MOL
REMARK 923 INTER-LIGAND FREE ENERGY PREDICTED BY IDOCK:   -3.31 KCAL/MOL
REMARK 924 INTRA-LIGAND FREE ENERGY PREDICTED BY IDOCK:    0.12 KCAL/MOL
REMARK 927      BINDING AFFINITY PREDICTED BY RF-SCORE:    0.00 PKD
ROOT
HETATM    1  N   UNL     1      -9.112   6.945  71.869  1.00  0.00    -0.141 N  
HETATM    2  H2  UNL     1      -9.773   6.429  72.449  1.00  0.00     0.000 HD 
HETATM    3  H1  UNL     1      -8.129   6.704  71.734  1.00  0.00     0.000 HD 
HETATM    4  S   UNL     1      -9.462   8.324  70.985  1.00  0.00    -0.170 S  
HETATM    5  O   UNL     1      -8.394   9.243  71.299  1.00  0.00    -0.317 OA 
HETATM    6  O   UNL     1     -10.848   8.665  71.177  1.00  0.00    -0.234 OA 
ENDROOT
BRANCH   4   7
HETATM    7  C   UNL     1      -9.251   7.747  69.322  1.00  0.00    -0.145 A  
HETATM    8  C   UNL     1      -9.085   6.368  69.152  1.00  0.00    -0.131 A  
HETATM    9  C   UNL     1      -9.010   5.830  67.865  1.00  0.00    -0.111 A  
HETATM   10  C   UNL     1      -9.088   6.623  66.723  1.00  0.00    -0.142 A  
HETATM   11  C   UNL     1      -9.256   8.000  66.916  1.00  0.00    -0.191 A  
HETATM   12  N   UNL     1      -9.161   6.096  65.435  1.00  0.00    -0.366 NA 
HETATM   13  C   UNL     1      -9.317   8.597  68.202  1.00  0.00    -0.145 A  
HETATM   14  H   UNL     1      -9.567   6.639  64.673  1.00  0.00     0.000 HD 
HETATM   15  C   UNL     1      -8.651   4.767  65.204  1.00  0.00    -0.140 C  
HETATM   16  C   UNL     1      -9.450  10.104  68.235  1.00  0.00    -0.140 C  
HETATM   17  N   UNL     1      -9.303   3.831  66.094  1.00  0.00    -0.168 N  
HETATM   18  F   UNL     1     -10.550  10.521  67.545  1.00  0.00    -0.228 F  
HETATM   19  F   UNL     1      -8.393  10.703  67.612  1.00  0.00    -0.112 F  
HETATM   20  F   UNL     1      -9.542  10.704  69.445  1.00  0.00    -0.212 F  
HETATM   21  S   UNL     1      -8.858   4.093  67.688  1.00  0.00    -0.120 S  
HETATM   22  H   UNL     1      -9.951   3.104  65.790  1.00  0.00     0.000 HD 
HETATM   23  O   UNL     1      -7.452   3.766  67.784  1.00  0.00    -0.065 OA 
HETATM   24  O   UNL     1      -9.844   3.444  68.522  1.00  0.00    -0.033 OA 
ENDBRANCH   4   7
TORSDOF 1
ENDMDL
MODEL      151
REMARK 921   NORMALIZED FREE ENERGY PREDICTED BY IDOCK:   -3.24 KCAL/MOL
REMARK 922        TOTAL FREE ENERGY PREDICTED BY IDOCK:   -3.19 KCAL/MOL
REMARK 923 INTER-LIGAND FREE ENERGY PREDICTED BY IDOCK:   -3.24 KCAL/MOL
REMARK 924 INTRA-LIGAND FREE ENERGY PREDICTED BY IDOCK:    0.05 KCAL/MOL
REMARK 927      BINDING AFFINITY PREDICTED BY RF-SCORE:    0.00 PKD
ROOT
HETATM    1  N   UNL     1      -7.067   6.376  67.328  1.00  0.00    -0.072 N  
HETATM    2  H2  UNL     1      -7.386   6.788  66.452  1.00  0.00     0.000 HD 
HETATM    3  H1  UNL     1      -6.481   6.841  68.022  1.00  0.00     0.000 HD 
HETATM    4  S   UNL     1      -7.418   4.826  67.860  1.00  0.00    -0.078 S  
HETATM    5  O   UNL     1      -6.148   4.285  68.282  1.00  0.00    -0.029 OA 
HETATM    6  O   UNL     1      -8.244   4.170  66.879  1.00  0.00    -0.100 OA 
ENDROOT
BRANCH   4   7
HETATM    7  C   UNL     1      -8.406   5.156  69.295  1.00  0.00    -0.087 A  
HETATM    8  C   UNL     1      -8.681   6.499  69.573  1.00  0.00    -0.134 A  
HETATM    9  C   UNL     1      -9.532   6.830  70.630  1.00  0.00    -0.169 A  
HETATM   10  C   UNL     1     -10.124   5.864  71.438  1.00  0.00    -0.197 A  
HETATM   11  C   UNL     1      -9.837   4.524  71.141  1.00  0.00    -0.263 A  
HETATM   12  N   UNL     1     -11.086   6.162  72.402  1.00  0.00    -0.260 NA 
HETATM   13  C   UNL     1      -8.963   4.138  70.092  1.00  0.00    -0.150 A  
HETATM   14  H   UNL     1     -11.746   5.451  72.716  1.00  0.00     0.000 HD 
HETATM   15  C   UNL     1     -11.127   7.498  72.944  1.00  0.00    -0.375 C  
HETATM   16  C   UNL     1      -8.719   2.652  69.937  1.00  0.00    -0.070 C  
HETATM   17  N   UNL     1     -11.274   8.457  71.871  1.00  0.00    -0.288 N  
HETATM   18  F   UNL     1      -9.889   1.974  69.757  1.00  0.00    -0.131 F  
HETATM   19  F   UNL     1      -8.173   2.124  71.070  1.00  0.00    -0.048 F  
HETATM   20  F   UNL     1      -7.916   2.246  68.926  1.00  0.00    -0.051 F  
HETATM   21  S   UNL     1      -9.899   8.521  70.916  1.00  0.00    -0.202 S  
HETATM   22  H   UNL     1     -12.109   9.023  71.716  1.00  0.00     0.000 HD 
HETATM   23  O   UNL     1      -8.844   9.062  71.744  1.00  0.00    -0.348 OA 
HETATM   24  O   UNL     1     -10.273   9.141  69.665  1.00  0.00    -0.188 OA 
ENDBRANCH   4   7
TORSDOF 1
ENDMDL
MODEL      152
REMARK 921   NORMALIZED FREE ENERGY PREDICTED BY IDOCK:   -3.21 KCAL/MOL
REMARK 922        TOTAL FREE ENERGY PREDICTED BY IDOCK:   -3.16 KCAL/MOL
REMARK 923 INTER-LIGAND FREE ENERGY PREDICTED BY IDOCK:   -3.21 KCAL/MOL
REMARK 924 INTRA-LIGAND FREE ENERGY PREDICTED BY IDOCK:    0.05 KCAL/MOL
REMARK 927      BINDING AFFINITY PREDICTED BY RF-SCORE:    0.00 PKD
ROOT
HETATM    1  N   UNL     1     -12.036   6.750  69.744  1.00  0.00    -0.647 N  
HETATM    2  H2  UNL     1     -12.955   6.982  69.368  1.00  0.00     0.000 HD 
HETATM    3  H1  UNL     1     -11.738   5.823  70.049  1.00  0.00     0.000 HD 
HETATM    4  S   UNL     1     -10.771   7.828  69.959  1.00  0.00    -0.237 S  
HETATM    5  O   UNL     1     -10.296   7.576  71.298  1.00  0.00    -0.193 OA 
HETATM    6  O   UNL     1     -11.193   9.137  69.528  1.00  0.00    -0.118 OA 
ENDROOT
BRANCH   4   7
HETATM    7  C   UNL     1      -9.577   7.215  68.801  1.00  0.00    -0.144 A  
HETATM    8  C   UNL     1      -9.969   6.128  68.011  1.00  0.00    -0.156 A  
HETATM    9  C   UNL     1      -9.117   5.653  67.011  1.00  0.00    -0.113 A  
HETATM   10  C   UNL     1      -7.869   6.220  66.766  1.00  0.00    -0.104 A  
HETATM   11  C   UNL     1      -7.498   7.309  67.567  1.00  0.00    -0.101 A  
HETATM   12  N   UNL     1      -7.068   5.859  65.685  1.00  0.00    -0.068 NA 
HETATM   13  C   UNL     1      -8.318   7.814  68.609  1.00  0.00    -0.129 A  
HETATM   14  H   UNL     1      -6.363   6.500  65.322  1.00  0.00     0.000 HD 
HETATM   15  C   UNL     1      -7.257   4.558  65.091  1.00  0.00    -0.068 C  
HETATM   16  C   UNL     1      -7.747   8.962  69.414  1.00  0.00    -0.093 C  
HETATM   17  N   UNL     1      -8.637   4.405  64.680  1.00  0.00    -0.128 N  
HETATM   18  F   UNL     1      -7.418  10.015  68.612  1.00  0.00    -0.076 F  
HETATM   19  F   UNL     1      -6.579   8.600  70.021  1.00  0.00    -0.037 F  
HETATM   20  F   UNL     1      -8.516   9.490  70.395  1.00  0.00    -0.163 F  
HETATM   21  S   UNL     1      -9.662   4.326  66.003  1.00  0.00    -0.219 S  
HETATM   22  H   UNL     1      -8.946   4.351  63.709  1.00  0.00     0.000 HD 
HETATM   23  O   UNL     1      -9.350   3.095  66.696  1.00  0.00    -0.164 OA 
HETATM   24  O   UNL     1     -10.998   4.610  65.529  1.00  0.00    -0.255 OA 
ENDBRANCH   4   7
TORSDOF 1
ENDMDL
MODEL      153
REMARK 921   NORMALIZED FREE ENERGY PREDICTED BY IDOCK:   -3.19 KCAL/MOL
REMARK 922        TOTAL FREE ENERGY PREDICTED BY IDOCK:   -3.14 KCAL/MOL
REMARK 923 INTER-LIGAND FREE ENERGY PREDICTED BY IDOCK:   -3.20 KCAL/MOL
REMARK 924 INTRA-LIGAND FREE ENERGY PREDICTED BY IDOCK:    0.06 KCAL/MOL
REMARK 927      BINDING AFFINITY PREDICTED BY RF-SCORE:    0.00 PKD
ROOT
HETATM    1  N   UNL     1      -9.375   7.763  72.485  1.00  0.00    -0.162 N  
HETATM    2  H2  UNL     1     -10.006   7.639  73.276  1.00  0.00     0.000 HD 
HETATM    3  H1  UNL     1      -8.400   7.463  72.453  1.00  0.00     0.000 HD 
HETATM    4  S   UNL     1      -9.769   8.491  71.028  1.00  0.00    -0.210 S  
HETATM    5  O   UNL     1      -8.689   9.413  70.773  1.00  0.00    -0.217 OA 
HETATM    6  O   UNL     1     -11.145   8.915  71.074  1.00  0.00    -0.244 OA 
ENDROOT
BRANCH   4   7
HETATM    7  C   UNL     1      -9.639   7.129  69.901  1.00  0.00    -0.163 A  
HETATM    8  C   UNL     1      -9.382   5.872  70.460  1.00  0.00    -0.185 A  
HETATM    9  C   UNL     1      -9.362   4.739  69.645  1.00  0.00    -0.133 A  
HETATM   10  C   UNL     1      -9.585   4.807  68.272  1.00  0.00    -0.149 A  
HETATM   11  C   UNL     1      -9.842   6.075  67.733  1.00  0.00    -0.129 A  
HETATM   12  N   UNL     1      -9.713   3.679  67.464  1.00  0.00    -0.220 NA 
HETATM   13  C   UNL     1      -9.853   7.258  68.515  1.00  0.00    -0.159 A  
HETATM   14  H   UNL     1     -10.214   3.727  66.577  1.00  0.00     0.000 HD 
HETATM   15  C   UNL     1      -9.121   2.441  67.911  1.00  0.00    -0.184 C  
HETATM   16  C   UNL     1     -10.097   8.552  67.769  1.00  0.00    -0.211 C  
HETATM   17  N   UNL     1      -9.633   2.099  69.221  1.00  0.00    -0.048 N  
HETATM   18  F   UNL     1     -11.274   8.514  67.082  1.00  0.00    -0.156 F  
HETATM   19  F   UNL     1      -9.138   8.759  66.821  1.00  0.00    -0.137 F  
HETATM   20  F   UNL     1     -10.145   9.697  68.490  1.00  0.00    -0.162 F  
HETATM   21  S   UNL     1      -9.092   3.174  70.387  1.00  0.00    -0.136 S  
HETATM   22  H   UNL     1     -10.244   1.305  69.410  1.00  0.00     0.000 HD 
HETATM   23  O   UNL     1      -7.661   2.983  70.494  1.00  0.00    -0.043 OA 
HETATM   24  O   UNL     1      -9.961   3.038  71.533  1.00  0.00    -0.155 OA 
ENDBRANCH   4   7
TORSDOF 1
ENDMDL
MODEL      154
REMARK 921   NORMALIZED FREE ENERGY PREDICTED BY IDOCK:   -3.16 KCAL/MOL
REMARK 922        TOTAL FREE ENERGY PREDICTED BY IDOCK:   -3.11 KCAL/MOL
REMARK 923 INTER-LIGAND FREE ENERGY PREDICTED BY IDOCK:   -3.94 KCAL/MOL
REMARK 924 INTRA-LIGAND FREE ENERGY PREDICTED BY IDOCK:    0.83 KCAL/MOL
REMARK 927      BINDING AFFINITY PREDICTED BY RF-SCORE:    0.00 PKD
ROOT
HETATM    1  N   UNL     1      -6.751   6.739  73.020  1.00  0.00    -0.067 N  
HETATM    2  H2  UNL     1      -6.740   6.214  73.894  1.00  0.00     0.000 HD 
HETATM    3  H1  UNL     1      -6.181   6.535  72.199  1.00  0.00     0.000 HD 
HETATM    4  S   UNL     1      -7.709   8.076  72.699  1.00  0.00    -0.130 S  
HETATM    5  O   UNL     1      -6.807   9.047  72.130  1.00  0.00    -0.292 OA 
HETATM    6  O   UNL     1      -8.515   8.364  73.858  1.00  0.00    -0.288 OA 
ENDROOT
BRANCH   4   7
HETATM    7  C   UNL     1      -8.769   7.458  71.420  1.00  0.00    -0.125 A  
HETATM    8  C   UNL     1      -8.620   8.028  70.150  1.00  0.00    -0.130 A  
HETATM    9  C   UNL     1      -9.351   7.526  69.072  1.00  0.00    -0.146 A  
HETATM   10  C   UNL     1     -10.245   6.467  69.209  1.00  0.00    -0.187 A  
HETATM   11  C   UNL     1     -10.378   5.909  70.488  1.00  0.00    -0.297 A  
HETATM   12  N   UNL     1     -10.875   5.857  68.126  1.00  0.00    -0.266 NA 
HETATM   13  C   UNL     1      -9.673   6.397  71.618  1.00  0.00    -0.174 A  
HETATM   14  H   UNL     1     -11.221   4.901  68.195  1.00  0.00     0.000 HD 
HETATM   15  C   UNL     1     -11.025   6.609  66.903  1.00  0.00    -0.326 C  
HETATM   16  C   UNL     1      -9.969   5.715  72.937  1.00  0.00    -0.176 C  
HETATM   17  N   UNL     1      -9.730   7.070  66.451  1.00  0.00    -0.376 N  
HETATM   18  F   UNL     1      -9.736   4.373  72.865  1.00  0.00    -0.145 F  
HETATM   19  F   UNL     1     -11.289   5.830  73.262  1.00  0.00    -0.286 F  
HETATM   20  F   UNL     1      -9.290   6.135  74.031  1.00  0.00    -0.125 F  
HETATM   21  S   UNL     1      -9.099   8.228  67.485  1.00  0.00    -0.138 S  
HETATM   22  H   UNL     1      -9.262   6.735  65.609  1.00  0.00     0.000 HD 
HETATM   23  O   UNL     1      -9.956   9.389  67.380  1.00  0.00    -0.175 OA 
HETATM   24  O   UNL     1      -7.679   8.309  67.225  1.00  0.00    -0.098 OA 
ENDBRANCH   4   7
TORSDOF 1
ENDMDL
MODEL      155
REMARK 921   NORMALIZED FREE ENERGY PREDICTED BY IDOCK:   -3.16 KCAL/MOL
REMARK 922        TOTAL FREE ENERGY PREDICTED BY IDOCK:   -3.10 KCAL/MOL
REMARK 923 INTER-LIGAND FREE ENERGY PREDICTED BY IDOCK:   -3.22 KCAL/MOL
REMARK 924 INTRA-LIGAND FREE ENERGY PREDICTED BY IDOCK:    0.12 KCAL/MOL
REMARK 927      BINDING AFFINITY PREDICTED BY RF-SCORE:    0.00 PKD
ROOT
HETATM    1  N   UNL     1      -9.717   9.937  70.271  1.00  0.00    -0.375 N  
HETATM    2  H2  UNL     1      -9.288  10.726  69.788  1.00  0.00     0.000 HD 
HETATM    3  H1  UNL     1     -10.689   9.642  70.176  1.00  0.00     0.000 HD 
HETATM    4  S   UNL     1      -8.939   8.915  71.347  1.00  0.00    -0.186 S  
HETATM    5  O   UNL     1      -9.830   8.826  72.479  1.00  0.00    -0.249 OA 
HETATM    6  O   UNL     1      -7.567   9.332  71.481  1.00  0.00    -0.340 OA 
ENDROOT
BRANCH   4   7
HETATM    7  C   UNL     1      -8.974   7.376  70.468  1.00  0.00    -0.156 A  
HETATM    8  C   UNL     1      -9.397   7.423  69.135  1.00  0.00    -0.146 A  
HETATM    9  C   UNL     1      -9.358   6.267  68.352  1.00  0.00    -0.113 A  
HETATM   10  C   UNL     1      -8.916   5.045  68.852  1.00  0.00    -0.101 A  
HETATM   11  C   UNL     1      -8.495   5.021  70.189  1.00  0.00    -0.097 A  
HETATM   12  N   UNL     1      -8.732   3.918  68.054  1.00  0.00    -0.097 NA 
HETATM   13  C   UNL     1      -8.535   6.162  71.030  1.00  0.00    -0.128 A  
HETATM   14  H   UNL     1      -8.094   3.175  68.340  1.00  0.00     0.000 HD 
HETATM   15  C   UNL     1      -9.465   3.824  66.815  1.00  0.00    -0.194 C  
HETATM   16  C   UNL     1      -8.093   5.953  72.463  1.00  0.00    -0.106 C  
HETATM   17  N   UNL     1      -9.192   4.985  65.996  1.00  0.00    -0.148 N  
HETATM   18  F   UNL     1      -6.826   5.452  72.523  1.00  0.00    -0.065 F  
HETATM   19  F   UNL     1      -8.873   5.023  73.085  1.00  0.00    -0.112 F  
HETATM   20  F   UNL     1      -8.088   7.029  73.285  1.00  0.00    -0.098 F  
HETATM   21  S   UNL     1      -9.842   6.374  66.670  1.00  0.00    -0.125 S  
HETATM   22  H   UNL     1      -8.670   4.962  65.120  1.00  0.00     0.000 HD 
HETATM   23  O   UNL     1     -11.281   6.225  66.620  1.00  0.00    -0.243 OA 
HETATM   24  O   UNL     1      -9.177   7.502  66.058  1.00  0.00    -0.143 OA 
ENDBRANCH   4   7
TORSDOF 1
ENDMDL
MODEL      156
REMARK 921   NORMALIZED FREE ENERGY PREDICTED BY IDOCK:   -3.15 KCAL/MOL
REMARK 922        TOTAL FREE ENERGY PREDICTED BY IDOCK:   -3.10 KCAL/MOL
REMARK 923 INTER-LIGAND FREE ENERGY PREDICTED BY IDOCK:   -4.09 KCAL/MOL
REMARK 924 INTRA-LIGAND FREE ENERGY PREDICTED BY IDOCK:    0.99 KCAL/MOL
REMARK 927      BINDING AFFINITY PREDICTED BY RF-SCORE:    0.00 PKD
ROOT
HETATM    1  N   UNL     1      -7.388   3.468  67.468  1.00  0.00    -0.059 N  
HETATM    2  H2  UNL     1      -7.126   2.517  67.726  1.00  0.00     0.000 HD 
HETATM    3  H1  UNL     1      -7.904   3.734  66.628  1.00  0.00     0.000 HD 
HETATM    4  S   UNL     1      -7.044   4.847  68.355  1.00  0.00    -0.062 S  
HETATM    5  O   UNL     1      -6.514   5.782  67.391  1.00  0.00    -0.040 OA 
HETATM    6  O   UNL     1      -6.316   4.473  69.540  1.00  0.00    -0.026 OA 
ENDROOT
BRANCH   4   7
HETATM    7  C   UNL     1      -8.665   5.378  68.837  1.00  0.00    -0.097 A  
HETATM    8  C   UNL     1      -8.942   5.385  70.209  1.00  0.00    -0.158 A  
HETATM    9  C   UNL     1     -10.163   5.882  70.669  1.00  0.00    -0.209 A  
HETATM   10  C   UNL     1     -11.139   6.373  69.805  1.00  0.00    -0.396 A  
HETATM   11  C   UNL     1     -10.840   6.359  68.436  1.00  0.00    -0.383 A  
HETATM   12  N   UNL     1     -12.300   7.004  70.248  1.00  0.00    -0.610 NA 
HETATM   13  C   UNL     1      -9.623   5.846  67.918  1.00  0.00    -0.120 A  
HETATM   14  H   UNL     1     -12.803   7.653  69.643  1.00  0.00     0.000 HD 
HETATM   15  C   UNL     1     -12.773   6.720  71.581  1.00  0.00    -0.312 C  
HETATM   16  C   UNL     1      -9.479   5.858  66.411  1.00  0.00    -0.155 C  
HETATM   17  N   UNL     1     -11.729   7.005  72.542  1.00  0.00    -0.457 N  
HETATM   18  F   UNL     1      -9.633   7.116  65.907  1.00  0.00    -0.121 F  
HETATM   19  F   UNL     1     -10.461   5.116  65.820  1.00  0.00    -0.212 F  
HETATM   20  F   UNL     1      -8.317   5.405  65.884  1.00  0.00    -0.110 F  
HETATM   21  S   UNL     1     -10.455   5.927  72.397  1.00  0.00    -0.217 S  
HETATM   22  H   UNL     1     -11.765   7.766  73.221  1.00  0.00     0.000 HD 
HETATM   23  O   UNL     1     -10.964   4.630  72.788  1.00  0.00    -0.208 OA 
HETATM   24  O   UNL     1      -9.313   6.520  73.054  1.00  0.00    -0.136 OA 
ENDBRANCH   4   7
TORSDOF 1
ENDMDL
MODEL      157
REMARK 921   NORMALIZED FREE ENERGY PREDICTED BY IDOCK:   -3.14 KCAL/MOL
REMARK 922        TOTAL FREE ENERGY PREDICTED BY IDOCK:   -3.09 KCAL/MOL
REMARK 923 INTER-LIGAND FREE ENERGY PREDICTED BY IDOCK:   -3.19 KCAL/MOL
REMARK 924 INTRA-LIGAND FREE ENERGY PREDICTED BY IDOCK:    0.11 KCAL/MOL
REMARK 927      BINDING AFFINITY PREDICTED BY RF-SCORE:    0.00 PKD
ROOT
HETATM    1  N   UNL     1     -12.811   8.258  71.201  1.00  0.00    -0.499 N  
HETATM    2  H2  UNL     1     -12.846   9.270  71.322  1.00  0.00     0.000 HD 
HETATM    3  H1  UNL     1     -13.167   7.746  70.393  1.00  0.00     0.000 HD 
HETATM    4  S   UNL     1     -12.161   7.168  72.295  1.00  0.00    -0.122 S  
HETATM    5  O   UNL     1     -13.158   6.133  72.419  1.00  0.00     0.059 OA 
HETATM    6  O   UNL     1     -11.659   7.891  73.435  1.00  0.00    -0.147 OA 
ENDROOT
BRANCH   4   7
HETATM    7  C   UNL     1     -10.781   6.528  71.385  1.00  0.00    -0.238 A  
HETATM    8  C   UNL     1     -10.641   6.967  70.063  1.00  0.00    -0.254 A  
HETATM    9  C   UNL     1      -9.526   6.581  69.317  1.00  0.00    -0.140 A  
HETATM   10  C   UNL     1      -8.531   5.758  69.837  1.00  0.00    -0.123 A  
HETATM   11  C   UNL     1      -8.689   5.332  71.163  1.00  0.00    -0.136 A  
HETATM   12  N   UNL     1      -7.343   5.479  69.164  1.00  0.00    -0.075 NA 
HETATM   13  C   UNL     1      -9.814   5.679  71.955  1.00  0.00    -0.197 A  
HETATM   14  H   UNL     1      -6.509   5.193  69.676  1.00  0.00     0.000 HD 
HETATM   15  C   UNL     1      -7.320   5.605  67.727  1.00  0.00    -0.077 C  
HETATM   16  C   UNL     1      -9.856   5.093  73.351  1.00  0.00    -0.154 C  
HETATM   17  N   UNL     1      -7.734   6.938  67.346  1.00  0.00    -0.108 N  
HETATM   18  F   UNL     1      -8.742   5.428  74.063  1.00  0.00    -0.117 F  
HETATM   19  F   UNL     1      -9.855   3.729  73.310  1.00  0.00    -0.129 F  
HETATM   20  F   UNL     1     -10.900   5.429  74.145  1.00  0.00    -0.295 F  
HETATM   21  S   UNL     1      -9.355   7.194  67.683  1.00  0.00    -0.127 S  
HETATM   22  H   UNL     1      -7.117   7.634  66.926  1.00  0.00     0.000 HD 
HETATM   23  O   UNL     1     -10.103   6.317  66.808  1.00  0.00    -0.166 OA 
HETATM   24  O   UNL     1      -9.573   8.623  67.689  1.00  0.00    -0.148 OA 
ENDBRANCH   4   7
TORSDOF 1
ENDMDL
MODEL      158
REMARK 921   NORMALIZED FREE ENERGY PREDICTED BY IDOCK:   -3.09 KCAL/MOL
REMARK 922        TOTAL FREE ENERGY PREDICTED BY IDOCK:   -3.04 KCAL/MOL
REMARK 923 INTER-LIGAND FREE ENERGY PREDICTED BY IDOCK:   -3.87 KCAL/MOL
REMARK 924 INTRA-LIGAND FREE ENERGY PREDICTED BY IDOCK:    0.83 KCAL/MOL
REMARK 927      BINDING AFFINITY PREDICTED BY RF-SCORE:    0.00 PKD
ROOT
HETATM    1  N   UNL     1      -8.185   5.031  68.128  1.00  0.00    -0.096 N  
HETATM    2  H2  UNL     1      -7.949   4.065  68.354  1.00  0.00     0.000 HD 
HETATM    3  H1  UNL     1      -8.864   5.326  67.426  1.00  0.00     0.000 HD 
HETATM    4  S   UNL     1      -7.519   6.389  68.848  1.00  0.00    -0.089 S  
HETATM    5  O   UNL     1      -7.162   7.252  67.748  1.00  0.00    -0.085 OA 
HETATM    6  O   UNL     1      -6.560   5.972  69.839  1.00  0.00    -0.043 OA 
ENDROOT
BRANCH   4   7
HETATM    7  C   UNL     1      -8.924   7.076  69.683  1.00  0.00    -0.141 A  
HETATM    8  C   UNL     1      -9.391   8.311  69.217  1.00  0.00    -0.155 A  
HETATM    9  C   UNL     1     -10.550   8.866  69.761  1.00  0.00    -0.224 A  
HETATM   10  C   UNL     1     -11.273   8.238  70.772  1.00  0.00    -0.264 A  
HETATM   11  C   UNL     1     -10.789   7.002  71.222  1.00  0.00    -0.260 A  
HETATM   12  N   UNL     1     -12.506   8.700  71.227  1.00  0.00    -0.401 NA 
HETATM   13  C   UNL     1      -9.606   6.406  70.716  1.00  0.00    -0.193 A  
HETATM   14  H   UNL     1     -13.164   8.067  71.681  1.00  0.00     0.000 HD 
HETATM   15  C   UNL     1     -12.830  10.093  71.042  1.00  0.00    -0.382 C  
HETATM   16  C   UNL     1      -9.194   5.093  71.348  1.00  0.00    -0.146 C  
HETATM   17  N   UNL     1     -12.727  10.438  69.640  1.00  0.00    -0.456 N  
HETATM   18  F   UNL     1     -10.187   4.163  71.250  1.00  0.00    -0.252 F  
HETATM   19  F   UNL     1      -8.976   5.241  72.687  1.00  0.00    -0.129 F  
HETATM   20  F   UNL     1      -8.086   4.481  70.867  1.00  0.00    -0.070 F  
HETATM   21  S   UNL     1     -11.137  10.387  69.115  1.00  0.00    -0.249 S  
HETATM   22  H   UNL     1     -13.521  10.681  69.048  1.00  0.00     0.000 HD 
HETATM   23  O   UNL     1     -10.439  11.452  69.803  1.00  0.00     0.073 OA 
HETATM   24  O   UNL     1     -11.163  10.309  67.672  1.00  0.00    -0.307 OA 
ENDBRANCH   4   7
TORSDOF 1
ENDMDL
MODEL      159
REMARK 921   NORMALIZED FREE ENERGY PREDICTED BY IDOCK:   -3.07 KCAL/MOL
REMARK 922        TOTAL FREE ENERGY PREDICTED BY IDOCK:   -3.01 KCAL/MOL
REMARK 923 INTER-LIGAND FREE ENERGY PREDICTED BY IDOCK:   -3.93 KCAL/MOL
REMARK 924 INTRA-LIGAND FREE ENERGY PREDICTED BY IDOCK:    0.93 KCAL/MOL
REMARK 927      BINDING AFFINITY PREDICTED BY RF-SCORE:    0.00 PKD
ROOT
HETATM    1  N   UNL     1      -9.865  12.845  68.994  1.00  0.00    -0.387 N  
HETATM    2  H2  UNL     1     -10.160  13.174  69.913  1.00  0.00     0.000 HD 
HETATM    3  H1  UNL     1      -8.947  12.999  68.576  1.00  0.00     0.000 HD 
HETATM    4  S   UNL     1     -10.810  11.965  67.927  1.00  0.00    -0.226 S  
HETATM    5  O   UNL     1     -10.645  12.629  66.656  1.00  0.00    -0.245 OA 
HETATM    6  O   UNL     1     -12.106  11.748  68.516  1.00  0.00    -0.454 OA 
ENDROOT
BRANCH   4   7
HETATM    7  C   UNL     1      -9.949  10.416  67.880  1.00  0.00    -0.167 A  
HETATM    8  C   UNL     1      -9.222  10.136  66.718  1.00  0.00    -0.174 A  
HETATM    9  C   UNL     1      -8.441   8.981  66.647  1.00  0.00    -0.122 A  
HETATM   10  C   UNL     1      -8.358   8.074  67.701  1.00  0.00    -0.128 A  
HETATM   11  C   UNL     1      -9.092   8.375  68.856  1.00  0.00    -0.147 A  
HETATM   12  N   UNL     1      -7.477   6.995  67.709  1.00  0.00    -0.096 NA 
HETATM   13  C   UNL     1      -9.916   9.524  68.969  1.00  0.00    -0.185 A  
HETATM   14  H   UNL     1      -7.176   6.574  68.588  1.00  0.00     0.000 HD 
HETATM   15  C   UNL     1      -6.999   6.485  66.447  1.00  0.00    -0.066 C  
HETATM   16  C   UNL     1     -10.682   9.675  70.265  1.00  0.00    -0.281 C  
HETATM   17  N   UNL     1      -6.374   7.551  65.694  1.00  0.00    -0.041 N  
HETATM   18  F   UNL     1      -9.843   9.673  71.341  1.00  0.00    -0.308 F  
HETATM   19  F   UNL     1     -11.518   8.615  70.466  1.00  0.00    -0.267 F  
HETATM   20  F   UNL     1     -11.454  10.777  70.419  1.00  0.00    -0.326 F  
HETATM   21  S   UNL     1      -7.499   8.689  65.197  1.00  0.00    -0.093 S  
HETATM   22  H   UNL     1      -5.375   7.604  65.492  1.00  0.00     0.000 HD 
HETATM   23  O   UNL     1      -8.362   8.028  64.242  1.00  0.00    -0.110 OA 
HETATM   24  O   UNL     1      -6.774   9.891  64.855  1.00  0.00    -0.109 OA 
ENDBRANCH   4   7
TORSDOF 1
ENDMDL
MODEL      160
REMARK 921   NORMALIZED FREE ENERGY PREDICTED BY IDOCK:   -3.06 KCAL/MOL
REMARK 922        TOTAL FREE ENERGY PREDICTED BY IDOCK:   -3.00 KCAL/MOL
REMARK 923 INTER-LIGAND FREE ENERGY PREDICTED BY IDOCK:   -3.15 KCAL/MOL
REMARK 924 INTRA-LIGAND FREE ENERGY PREDICTED BY IDOCK:    0.14 KCAL/MOL
REMARK 927      BINDING AFFINITY PREDICTED BY RF-SCORE:    0.00 PKD
ROOT
HETATM    1  N   UNL     1     -10.459   7.938  73.271  1.00  0.00    -0.293 N  
HETATM    2  H2  UNL     1     -10.388   8.527  74.099  1.00  0.00     0.000 HD 
HETATM    3  H1  UNL     1     -11.325   7.563  72.883  1.00  0.00     0.000 HD 
HETATM    4  S   UNL     1      -9.172   7.429  72.325  1.00  0.00    -0.135 S  
HETATM    5  O   UNL     1      -9.385   6.013  72.146  1.00  0.00    -0.149 OA 
HETATM    6  O   UNL     1      -7.950   7.958  72.873  1.00  0.00    -0.114 OA 
ENDROOT
BRANCH   4   7
HETATM    7  C   UNL     1      -9.504   8.256  70.793  1.00  0.00    -0.161 A  
HETATM    8  C   UNL     1     -10.508   9.231  70.810  1.00  0.00    -0.343 A  
HETATM    9  C   UNL     1     -10.758   9.992  69.666  1.00  0.00    -0.255 A  
HETATM   10  C   UNL     1     -10.044   9.814  68.484  1.00  0.00    -0.166 A  
HETATM   11  C   UNL     1      -9.041   8.834  68.490  1.00  0.00    -0.138 A  
HETATM   12  N   UNL     1     -10.176  10.655  67.381  1.00  0.00    -0.194 NA 
HETATM   13  C   UNL     1      -8.763   8.022  69.619  1.00  0.00    -0.133 A  
HETATM   14  H   UNL     1      -9.425  10.736  66.695  1.00  0.00     0.000 HD 
HETATM   15  C   UNL     1     -11.397  11.407  67.230  1.00  0.00    -0.275 C  
HETATM   16  C   UNL     1      -7.683   6.976  69.443  1.00  0.00    -0.108 C  
HETATM   17  N   UNL     1     -11.629  12.205  68.415  1.00  0.00    -0.305 N  
HETATM   18  F   UNL     1      -6.505   7.541  69.052  1.00  0.00    -0.035 F  
HETATM   19  F   UNL     1      -8.006   6.103  68.445  1.00  0.00    -0.101 F  
HETATM   20  F   UNL     1      -7.370   6.205  70.510  1.00  0.00    -0.074 F  
HETATM   21  S   UNL     1     -11.985  11.242  69.739  1.00  0.00    -0.368 S  
HETATM   22  H   UNL     1     -11.583  13.224  68.441  1.00  0.00     0.000 HD 
HETATM   23  O   UNL     1     -13.262  10.617  69.466  1.00  0.00     0.110 OA 
HETATM   24  O   UNL     1     -11.773  12.043  70.923  1.00  0.00     0.090 OA 
ENDBRANCH   4   7
TORSDOF 1
ENDMDL
MODEL      161
REMARK 921   NORMALIZED FREE ENERGY PREDICTED BY IDOCK:   -3.06 KCAL/MOL
REMARK 922        TOTAL FREE ENERGY PREDICTED BY IDOCK:   -3.00 KCAL/MOL
REMARK 923 INTER-LIGAND FREE ENERGY PREDICTED BY IDOCK:   -3.06 KCAL/MOL
REMARK 924 INTRA-LIGAND FREE ENERGY PREDICTED BY IDOCK:    0.06 KCAL/MOL
REMARK 927      BINDING AFFINITY PREDICTED BY RF-SCORE:    0.00 PKD
ROOT
HETATM    1  N   UNL     1      -5.373   8.391  68.053  1.00  0.00    -0.034 N  
HETATM    2  H2  UNL     1      -4.522   8.848  68.377  1.00  0.00     0.000 HD 
HETATM    3  H1  UNL     1      -5.587   7.398  68.153  1.00  0.00     0.000 HD 
HETATM    4  S   UNL     1      -6.648   9.147  67.273  1.00  0.00    -0.065 S  
HETATM    5  O   UNL     1      -6.936   8.305  66.137  1.00  0.00    -0.060 OA 
HETATM    6  O   UNL     1      -6.347  10.548  67.132  1.00  0.00    -0.064 OA 
ENDROOT
BRANCH   4   7
HETATM    7  C   UNL     1      -7.951   8.971  68.461  1.00  0.00    -0.103 A  
HETATM    8  C   UNL     1      -7.611   8.385  69.685  1.00  0.00    -0.089 A  
HETATM    9  C   UNL     1      -8.561   8.301  70.705  1.00  0.00    -0.138 A  
HETATM   10  C   UNL     1      -9.860   8.779  70.552  1.00  0.00    -0.188 A  
HETATM   11  C   UNL     1     -10.179   9.364  69.319  1.00  0.00    -0.209 A  
HETATM   12  N   UNL     1     -10.778   8.838  71.598  1.00  0.00    -0.299 NA 
HETATM   13  C   UNL     1      -9.256   9.453  68.246  1.00  0.00    -0.133 A  
HETATM   14  H   UNL     1     -11.560   9.492  71.569  1.00  0.00     0.000 HD 
HETATM   15  C   UNL     1     -10.598   7.953  72.724  1.00  0.00    -0.353 C  
HETATM   16  C   UNL     1      -9.777  10.068  66.964  1.00  0.00    -0.181 C  
HETATM   17  N   UNL     1      -9.280   8.143  73.290  1.00  0.00    -0.265 N  
HETATM   18  F   UNL     1     -10.268  11.323  67.179  1.00  0.00    -0.206 F  
HETATM   19  F   UNL     1     -10.831   9.355  66.471  1.00  0.00    -0.219 F  
HETATM   20  F   UNL     1      -8.914  10.198  65.930  1.00  0.00    -0.152 F  
HETATM   21  S   UNL     1      -8.084   7.611  72.245  1.00  0.00    -0.114 S  
HETATM   22  H   UNL     1      -9.102   8.550  74.208  1.00  0.00     0.000 HD 
HETATM   23  O   UNL     1      -8.231   6.175  72.143  1.00  0.00    -0.110 OA 
HETATM   24  O   UNL     1      -6.841   8.215  72.669  1.00  0.00    -0.077 OA 
ENDBRANCH   4   7
TORSDOF 1
ENDMDL
MODEL      162
REMARK 921   NORMALIZED FREE ENERGY PREDICTED BY IDOCK:   -3.05 KCAL/MOL
REMARK 922        TOTAL FREE ENERGY PREDICTED BY IDOCK:   -2.99 KCAL/MOL
REMARK 923 INTER-LIGAND FREE ENERGY PREDICTED BY IDOCK:   -3.88 KCAL/MOL
REMARK 924 INTRA-LIGAND FREE ENERGY PREDICTED BY IDOCK:    0.89 KCAL/MOL
REMARK 927      BINDING AFFINITY PREDICTED BY RF-SCORE:    0.00 PKD
ROOT
HETATM    1  N   UNL     1      -8.621   5.717  71.235  1.00  0.00    -0.127 N  
HETATM    2  H2  UNL     1      -9.015   5.080  71.926  1.00  0.00     0.000 HD 
HETATM    3  H1  UNL     1      -8.637   5.578  70.224  1.00  0.00     0.000 HD 
HETATM    4  S   UNL     1      -7.843   7.162  71.574  1.00  0.00    -0.094 S  
HETATM    5  O   UNL     1      -6.636   7.124  70.784  1.00  0.00    -0.046 OA 
HETATM    6  O   UNL     1      -7.821   7.358  73.001  1.00  0.00    -0.093 OA 
ENDROOT
BRANCH   4   7
HETATM    7  C   UNL     1      -8.957   8.343  70.863  1.00  0.00    -0.160 A  
HETATM    8  C   UNL     1      -8.428   9.201  69.893  1.00  0.00    -0.151 A  
HETATM    9  C   UNL     1      -9.267  10.092  69.219  1.00  0.00    -0.203 A  
HETATM   10  C   UNL     1     -10.632  10.170  69.482  1.00  0.00    -0.245 A  
HETATM   11  C   UNL     1     -11.142   9.300  70.456  1.00  0.00    -0.317 A  
HETATM   12  N   UNL     1     -11.510  10.944  68.726  1.00  0.00    -0.286 NA 
HETATM   13  C   UNL     1     -10.328   8.393  71.181  1.00  0.00    -0.264 A  
HETATM   14  H   UNL     1     -12.504  10.722  68.693  1.00  0.00     0.000 HD 
HETATM   15  C   UNL     1     -10.980  12.066  67.990  1.00  0.00    -0.223 C  
HETATM   16  C   UNL     1     -11.027   7.560  72.234  1.00  0.00    -0.262 C  
HETATM   17  N   UNL     1      -9.924  11.618  67.107  1.00  0.00    -0.198 N  
HETATM   18  F   UNL     1     -12.053   6.840  71.696  1.00  0.00    -0.325 F  
HETATM   19  F   UNL     1     -11.608   8.354  73.180  1.00  0.00    -0.344 F  
HETATM   20  F   UNL     1     -10.286   6.661  72.923  1.00  0.00    -0.183 F  
HETATM   21  S   UNL     1      -8.580  11.113  67.971  1.00  0.00    -0.146 S  
HETATM   22  H   UNL     1      -9.990  11.610  66.089  1.00  0.00     0.000 HD 
HETATM   23  O   UNL     1      -8.038  12.289  68.618  1.00  0.00    -0.117 OA 
HETATM   24  O   UNL     1      -7.778  10.301  67.084  1.00  0.00    -0.092 OA 
ENDBRANCH   4   7
TORSDOF 1
ENDMDL
MODEL      163
REMARK 921   NORMALIZED FREE ENERGY PREDICTED BY IDOCK:   -3.02 KCAL/MOL
REMARK 922        TOTAL FREE ENERGY PREDICTED BY IDOCK:   -2.96 KCAL/MOL
REMARK 923 INTER-LIGAND FREE ENERGY PREDICTED BY IDOCK:   -3.09 KCAL/MOL
REMARK 924 INTRA-LIGAND FREE ENERGY PREDICTED BY IDOCK:    0.13 KCAL/MOL
REMARK 927      BINDING AFFINITY PREDICTED BY RF-SCORE:    0.00 PKD
ROOT
HETATM    1  N   UNL     1     -11.863  10.642  68.600  1.00  0.00    -0.494 N  
HETATM    2  H2  UNL     1     -12.777  10.404  68.215  1.00  0.00     0.000 HD 
HETATM    3  H1  UNL     1     -11.573  10.503  69.568  1.00  0.00     0.000 HD 
HETATM    4  S   UNL     1     -10.595  11.324  67.743  1.00  0.00    -0.215 S  
HETATM    5  O   UNL     1     -10.134  12.412  68.572  1.00  0.00    -0.221 OA 
HETATM    6  O   UNL     1     -11.004  11.521  66.376  1.00  0.00    -0.282 OA 
ENDROOT
BRANCH   4   7
HETATM    7  C   UNL     1      -9.393  10.021  67.786  1.00  0.00    -0.140 A  
HETATM    8  C   UNL     1      -9.829   8.779  68.262  1.00  0.00    -0.185 A  
HETATM    9  C   UNL     1      -8.966   7.682  68.234  1.00  0.00    -0.127 A  
HETATM   10  C   UNL     1      -7.663   7.773  67.751  1.00  0.00    -0.122 A  
HETATM   11  C   UNL     1      -7.247   9.026  67.277  1.00  0.00    -0.083 A  
HETATM   12  N   UNL     1      -6.835   6.666  67.579  1.00  0.00    -0.073 NA 
HETATM   13  C   UNL     1      -8.079  10.174  67.304  1.00  0.00    -0.114 A  
HETATM   14  H   UNL     1      -6.059   6.692  66.918  1.00  0.00     0.000 HD 
HETATM   15  C   UNL     1      -7.099   5.481  68.359  1.00  0.00    -0.070 C  
HETATM   16  C   UNL     1      -7.460  11.461  66.802  1.00  0.00    -0.137 C  
HETATM   17  N   UNL     1      -8.461   5.044  68.138  1.00  0.00    -0.099 N  
HETATM   18  F   UNL     1      -7.000  11.326  65.525  1.00  0.00     0.055 F  
HETATM   19  F   UNL     1      -6.363  11.797  67.541  1.00  0.00    -0.060 F  
HETATM   20  F   UNL     1      -8.236  12.570  66.783  1.00  0.00    -0.173 F  
HETATM   21  S   UNL     1      -9.562   6.129  68.786  1.00  0.00    -0.127 S  
HETATM   22  H   UNL     1      -8.719   4.186  67.651  1.00  0.00     0.000 HD 
HETATM   23  O   UNL     1      -9.393   6.082  70.222  1.00  0.00    -0.156 OA 
HETATM   24  O   UNL     1     -10.841   5.866  68.165  1.00  0.00    -0.271 OA 
ENDBRANCH   4   7
TORSDOF 1
ENDMDL
MODEL      164
REMARK 921   NORMALIZED FREE ENERGY PREDICTED BY IDOCK:   -3.00 KCAL/MOL
REMARK 922        TOTAL FREE ENERGY PREDICTED BY IDOCK:   -2.94 KCAL/MOL
REMARK 923 INTER-LIGAND FREE ENERGY PREDICTED BY IDOCK:   -3.16 KCAL/MOL
REMARK 924 INTRA-LIGAND FREE ENERGY PREDICTED BY IDOCK:    0.22 KCAL/MOL
REMARK 927      BINDING AFFINITY PREDICTED BY RF-SCORE:    0.00 PKD
ROOT
HETATM    1  N   UNL     1     -11.554   7.733  69.975  1.00  0.00    -0.473 N  
HETATM    2  H2  UNL     1     -12.417   8.264  70.091  1.00  0.00     0.000 HD 
HETATM    3  H1  UNL     1     -11.394   7.010  69.273  1.00  0.00     0.000 HD 
HETATM    4  S   UNL     1     -10.171   7.908  70.904  1.00  0.00    -0.199 S  
HETATM    5  O   UNL     1      -9.795   6.562  71.261  1.00  0.00    -0.180 OA 
HETATM    6  O   UNL     1     -10.398   8.929  71.894  1.00  0.00    -0.322 OA 
ENDROOT
BRANCH   4   7
HETATM    7  C   UNL     1      -9.016   8.530  69.712  1.00  0.00    -0.145 A  
HETATM    8  C   UNL     1      -9.547   8.986  68.500  1.00  0.00    -0.161 A  
HETATM    9  C   UNL     1      -8.709   9.578  67.552  1.00  0.00    -0.126 A  
HETATM   10  C   UNL     1      -7.341   9.731  67.762  1.00  0.00    -0.089 A  
HETATM   11  C   UNL     1      -6.830   9.270  68.983  1.00  0.00    -0.055 A  
HETATM   12  N   UNL     1      -6.513  10.445  66.898  1.00  0.00    -0.073 NA 
HETATM   13  C   UNL     1      -7.636   8.643  69.968  1.00  0.00    -0.068 A  
HETATM   14  H   UNL     1      -5.635  10.844  67.228  1.00  0.00     0.000 HD 
HETATM   15  C   UNL     1      -6.927  10.609  65.526  1.00  0.00    -0.050 C  
HETATM   16  C   UNL     1      -6.919   8.157  71.210  1.00  0.00    -0.056 C  
HETATM   17  N   UNL     1      -8.237  11.222  65.479  1.00  0.00    -0.365 N  
HETATM   18  F   UNL     1      -6.247   9.172  71.825  1.00  0.00    -0.074 F  
HETATM   19  F   UNL     1      -5.961   7.238  70.893  1.00  0.00    -0.033 F  
HETATM   20  F   UNL     1      -7.662   7.582  72.184  1.00  0.00    -0.082 F  
HETATM   21  S   UNL     1      -9.416  10.187  66.069  1.00  0.00    -0.212 S  
HETATM   22  H   UNL     1      -8.420  12.163  65.132  1.00  0.00     0.000 HD 
HETATM   23  O   UNL     1      -9.500   9.082  65.139  1.00  0.00    -0.142 OA 
HETATM   24  O   UNL     1     -10.572  10.992  66.392  1.00  0.00    -0.257 OA 
ENDBRANCH   4   7
TORSDOF 1
ENDMDL
MODEL      165
REMARK 921   NORMALIZED FREE ENERGY PREDICTED BY IDOCK:   -2.99 KCAL/MOL
REMARK 922        TOTAL FREE ENERGY PREDICTED BY IDOCK:   -2.92 KCAL/MOL
REMARK 923 INTER-LIGAND FREE ENERGY PREDICTED BY IDOCK:   -3.06 KCAL/MOL
REMARK 924 INTRA-LIGAND FREE ENERGY PREDICTED BY IDOCK:    0.14 KCAL/MOL
REMARK 927      BINDING AFFINITY PREDICTED BY RF-SCORE:    0.00 PKD
ROOT
HETATM    1  N   UNL     1      -6.542   9.104  68.935  1.00  0.00    -0.048 N  
HETATM    2  H2  UNL     1      -6.659   8.169  69.323  1.00  0.00     0.000 HD 
HETATM    3  H1  UNL     1      -5.761   9.413  68.355  1.00  0.00     0.000 HD 
HETATM    4  S   UNL     1      -7.603  10.384  69.145  1.00  0.00    -0.130 S  
HETATM    5  O   UNL     1      -6.766  11.500  69.514  1.00  0.00    -0.117 OA 
HETATM    6  O   UNL     1      -8.706   9.950  69.963  1.00  0.00    -0.201 OA 
ENDROOT
BRANCH   4   7
HETATM    7  C   UNL     1      -8.195  10.634  67.493  1.00  0.00    -0.111 A  
HETATM    8  C   UNL     1      -7.862   9.654  66.551  1.00  0.00    -0.108 A  
HETATM    9  C   UNL     1      -8.374   9.733  65.254  1.00  0.00    -0.142 A  
HETATM   10  C   UNL     1      -9.212  10.768  64.847  1.00  0.00    -0.212 A  
HETATM   11  C   UNL     1      -9.535  11.737  65.807  1.00  0.00    -0.232 A  
HETATM   12  N   UNL     1      -9.848  10.790  63.608  1.00  0.00    -0.323 NA 
HETATM   13  C   UNL     1      -9.024  11.712  67.130  1.00  0.00    -0.173 A  
HETATM   14  H   UNL     1     -10.700  11.333  63.469  1.00  0.00     0.000 HD 
HETATM   15  C   UNL     1      -9.274  10.028  62.525  1.00  0.00    -0.296 C  
HETATM   16  C   UNL     1      -9.430  12.863  68.026  1.00  0.00    -0.213 C  
HETATM   17  N   UNL     1      -9.140   8.643  62.920  1.00  0.00    -0.329 N  
HETATM   18  F   UNL     1     -10.787  12.964  68.120  1.00  0.00    -0.217 F  
HETATM   19  F   UNL     1      -9.020  14.056  67.507  1.00  0.00    -0.165 F  
HETATM   20  F   UNL     1      -8.987  12.854  69.305  1.00  0.00     0.314 F  
HETATM   21  S   UNL     1      -7.980   8.459  64.116  1.00  0.00    -0.144 S  
HETATM   22  H   UNL     1      -9.681   7.875  62.521  1.00  0.00     0.000 HD 
HETATM   23  O   UNL     1      -6.707   8.790  63.513  1.00  0.00    -0.088 OA 
HETATM   24  O   UNL     1      -8.209   7.177  64.744  1.00  0.00    -0.123 OA 
ENDBRANCH   4   7
TORSDOF 1
ENDMDL
MODEL      166
REMARK 921   NORMALIZED FREE ENERGY PREDICTED BY IDOCK:   -2.98 KCAL/MOL
REMARK 922        TOTAL FREE ENERGY PREDICTED BY IDOCK:   -2.92 KCAL/MOL
REMARK 923 INTER-LIGAND FREE ENERGY PREDICTED BY IDOCK:   -3.94 KCAL/MOL
REMARK 924 INTRA-LIGAND FREE ENERGY PREDICTED BY IDOCK:    1.02 KCAL/MOL
REMARK 927      BINDING AFFINITY PREDICTED BY RF-SCORE:    0.00 PKD
ROOT
HETATM    1  N   UNL     1     -10.503   5.130  66.703  1.00  0.00    -0.279 N  
HETATM    2  H2  UNL     1     -11.426   4.756  66.484  1.00  0.00     0.000 HD 
HETATM    3  H1  UNL     1      -9.715   5.179  66.056  1.00  0.00     0.000 HD 
HETATM    4  S   UNL     1     -10.035   5.763  68.182  1.00  0.00    -0.160 S  
HETATM    5  O   UNL     1      -8.767   5.136  68.467  1.00  0.00    -0.097 OA 
HETATM    6  O   UNL     1     -11.147   5.694  69.094  1.00  0.00    -0.244 OA 
ENDROOT
BRANCH   4   7
HETATM    7  C   UNL     1      -9.753   7.464  67.770  1.00  0.00    -0.143 A  
HETATM    8  C   UNL     1     -10.508   8.413  68.467  1.00  0.00    -0.201 A  
HETATM    9  C   UNL     1     -10.272   9.775  68.266  1.00  0.00    -0.183 A  
HETATM   10  C   UNL     1      -9.303  10.238  67.380  1.00  0.00    -0.145 A  
HETATM   11  C   UNL     1      -8.556   9.271  66.694  1.00  0.00    -0.135 A  
HETATM   12  N   UNL     1      -8.951  11.582  67.270  1.00  0.00    -0.159 NA 
HETATM   13  C   UNL     1      -8.772   7.877  66.848  1.00  0.00    -0.136 A  
HETATM   14  H   UNL     1      -8.037  11.853  66.908  1.00  0.00     0.000 HD 
HETATM   15  C   UNL     1      -9.908  12.580  67.681  1.00  0.00    -0.202 C  
HETATM   16  C   UNL     1      -7.914   6.968  65.995  1.00  0.00    -0.109 C  
HETATM   17  N   UNL     1     -10.303  12.344  69.053  1.00  0.00    -0.427 N  
HETATM   18  F   UNL     1      -6.586   7.195  66.208  1.00  0.00    -0.046 F  
HETATM   19  F   UNL     1      -8.108   7.215  64.667  1.00  0.00    -0.122 F  
HETATM   20  F   UNL     1      -8.072   5.631  66.140  1.00  0.00    -0.101 F  
HETATM   21  S   UNL     1     -11.199  10.936  69.197  1.00  0.00    -0.281 S  
HETATM   22  H   UNL     1     -10.066  12.957  69.833  1.00  0.00     0.000 HD 
HETATM   23  O   UNL     1     -12.443  11.164  68.494  1.00  0.00    -0.452 OA 
HETATM   24  O   UNL     1     -11.176  10.551  70.590  1.00  0.00    -0.316 OA 
ENDBRANCH   4   7
TORSDOF 1
ENDMDL
MODEL      167
REMARK 921   NORMALIZED FREE ENERGY PREDICTED BY IDOCK:   -2.97 KCAL/MOL
REMARK 922        TOTAL FREE ENERGY PREDICTED BY IDOCK:   -2.91 KCAL/MOL
REMARK 923 INTER-LIGAND FREE ENERGY PREDICTED BY IDOCK:   -3.98 KCAL/MOL
REMARK 924 INTRA-LIGAND FREE ENERGY PREDICTED BY IDOCK:    1.08 KCAL/MOL
REMARK 927      BINDING AFFINITY PREDICTED BY RF-SCORE:    0.00 PKD
ROOT
HETATM    1  N   UNL     1      -7.940  13.584  66.794  1.00  0.00    -0.339 N  
HETATM    2  H2  UNL     1      -7.058  13.884  67.209  1.00  0.00     0.000 HD 
HETATM    3  H1  UNL     1      -8.171  13.626  65.801  1.00  0.00     0.000 HD 
HETATM    4  S   UNL     1      -9.242  12.944  67.632  1.00  0.00    -0.203 S  
HETATM    5  O   UNL     1     -10.389  13.668  67.139  1.00  0.00    -0.248 OA 
HETATM    6  O   UNL     1      -8.916  12.885  69.033  1.00  0.00     0.256 OA 
ENDROOT
BRANCH   4   7
HETATM    7  C   UNL     1      -9.296  11.289  66.999  1.00  0.00    -0.172 A  
HETATM    8  C   UNL     1      -8.873  10.272  67.863  1.00  0.00    -0.122 A  
HETATM    9  C   UNL     1      -8.978   8.936  67.469  1.00  0.00    -0.133 A  
HETATM   10  C   UNL     1      -9.488   8.565  66.228  1.00  0.00    -0.231 A  
HETATM   11  C   UNL     1      -9.908   9.599  65.379  1.00  0.00    -0.322 A  
HETATM   12  N   UNL     1      -9.737   7.241  65.871  1.00  0.00    -0.346 NA 
HETATM   13  C   UNL     1      -9.803  10.971  65.725  1.00  0.00    -0.282 A  
HETATM   14  H   UNL     1     -10.416   7.016  65.144  1.00  0.00     0.000 HD 
HETATM   15  C   UNL     1      -9.012   6.196  66.553  1.00  0.00    -0.139 C  
HETATM   16  C   UNL     1     -10.254  11.963  64.674  1.00  0.00    -0.278 C  
HETATM   17  N   UNL     1      -9.220   6.309  67.981  1.00  0.00    -0.118 N  
HETATM   18  F   UNL     1     -11.547  11.739  64.303  1.00  0.00    -0.391 F  
HETATM   19  F   UNL     1      -9.527  11.826  63.527  1.00  0.00    -0.264 F  
HETATM   20  F   UNL     1     -10.197  13.279  64.983  1.00  0.00    -0.302 F  
HETATM   21  S   UNL     1      -8.491   7.686  68.597  1.00  0.00    -0.129 S  
HETATM   22  H   UNL     1      -9.743   5.636  68.541  1.00  0.00     0.000 HD 
HETATM   23  O   UNL     1      -7.063   7.499  68.451  1.00  0.00    -0.076 OA 
HETATM   24  O   UNL     1      -9.091   7.951  69.885  1.00  0.00    -0.145 OA 
ENDBRANCH   4   7
TORSDOF 1
ENDMDL
MODEL      168
REMARK 921   NORMALIZED FREE ENERGY PREDICTED BY IDOCK:   -2.95 KCAL/MOL
REMARK 922        TOTAL FREE ENERGY PREDICTED BY IDOCK:   -2.88 KCAL/MOL
REMARK 923 INTER-LIGAND FREE ENERGY PREDICTED BY IDOCK:   -4.55 KCAL/MOL
REMARK 924 INTRA-LIGAND FREE ENERGY PREDICTED BY IDOCK:    1.67 KCAL/MOL
REMARK 927      BINDING AFFINITY PREDICTED BY RF-SCORE:    0.00 PKD
ROOT
HETATM    1  N   UNL     1     -13.516  14.734  69.888  1.00  0.00     0.114 N  
HETATM    2  H2  UNL     1     -13.676  15.549  69.297  1.00  0.00     0.000 HD 
HETATM    3  H1  UNL     1     -14.220  14.040  70.144  1.00  0.00     0.000 HD 
HETATM    4  S   UNL     1     -12.056  14.316  70.596  1.00  0.00    -0.355 S  
HETATM    5  O   UNL     1     -12.384  14.025  71.971  1.00  0.00    -0.227 OA 
HETATM    6  O   UNL     1     -11.063  15.295  70.236  1.00  0.00    -0.259 OA 
ENDROOT
BRANCH   4   7
HETATM    7  C   UNL     1     -11.675  12.799  69.764  1.00  0.00    -0.282 A  
HETATM    8  C   UNL     1     -10.947  12.901  68.573  1.00  0.00    -0.288 A  
HETATM    9  C   UNL     1     -10.527  11.744  67.913  1.00  0.00    -0.196 A  
HETATM   10  C   UNL     1     -10.813  10.469  68.394  1.00  0.00    -0.240 A  
HETATM   11  C   UNL     1     -11.541  10.389  69.589  1.00  0.00    -0.307 A  
HETATM   12  N   UNL     1     -10.283   9.307  67.834  1.00  0.00    -0.201 NA 
HETATM   13  C   UNL     1     -12.007  11.534  70.285  1.00  0.00    -0.455 A  
HETATM   14  H   UNL     1     -10.205   8.453  68.385  1.00  0.00     0.000 HD 
HETATM   15  C   UNL     1      -9.849   9.341  66.459  1.00  0.00    -0.263 C  
HETATM   16  C   UNL     1     -12.823  11.272  71.533  1.00  0.00    -0.414 C  
HETATM   17  N   UNL     1      -8.873  10.395  66.281  1.00  0.00    -0.149 N  
HETATM   18  F   UNL     1     -12.131  10.511  72.428  1.00  0.00     0.152 F  
HETATM   19  F   UNL     1     -13.943  10.549  71.243  1.00  0.00    -0.044 F  
HETATM   20  F   UNL     1     -13.258  12.342  72.240  1.00  0.00    -0.574 F  
HETATM   21  S   UNL     1      -9.570  11.909  66.454  1.00  0.00    -0.229 S  
HETATM   22  H   UNL     1      -7.886  10.236  66.075  1.00  0.00     0.000 HD 
HETATM   23  O   UNL     1     -10.487  12.071  65.346  1.00  0.00    -0.255 OA 
HETATM   24  O   UNL     1      -8.500  12.850  66.695  1.00  0.00    -0.078 OA 
ENDBRANCH   4   7
TORSDOF 1
ENDMDL
MODEL      169
REMARK 921   NORMALIZED FREE ENERGY PREDICTED BY IDOCK:   -2.87 KCAL/MOL
REMARK 922        TOTAL FREE ENERGY PREDICTED BY IDOCK:   -2.80 KCAL/MOL
REMARK 923 INTER-LIGAND FREE ENERGY PREDICTED BY IDOCK:   -4.56 KCAL/MOL
REMARK 924 INTRA-LIGAND FREE ENERGY PREDICTED BY IDOCK:    1.76 KCAL/MOL
REMARK 927      BINDING AFFINITY PREDICTED BY RF-SCORE:    0.00 PKD
ROOT
HETATM    1  N   UNL     1      -9.058  13.972  69.882  1.00  0.00     0.722 N  
HETATM    2  H2  UNL     1      -9.144  14.733  70.555  1.00  0.00     0.000 HD 
HETATM    3  H1  UNL     1      -9.366  13.011  70.031  1.00  0.00     0.000 HD 
HETATM    4  S   UNL     1      -8.390  14.099  68.350  1.00  0.00    -0.160 S  
HETATM    5  O   UNL     1      -7.487  12.978  68.249  1.00  0.00    -0.109 OA 
HETATM    6  O   UNL     1      -7.956  15.456  68.139  1.00  0.00    -0.127 OA 
ENDROOT
BRANCH   4   7
HETATM    7  C   UNL     1      -9.799  13.795  67.319  1.00  0.00    -0.241 A  
HETATM    8  C   UNL     1      -9.574  13.063  66.147  1.00  0.00    -0.209 A  
HETATM    9  C   UNL     1     -10.651  12.702  65.335  1.00  0.00    -0.282 A  
HETATM   10  C   UNL     1     -11.964  13.050  65.642  1.00  0.00    -0.429 A  
HETATM   11  C   UNL     1     -12.167  13.780  66.821  1.00  0.00    -0.440 A  
HETATM   12  N   UNL     1     -13.064  12.579  64.928  1.00  0.00    -0.756 NA 
HETATM   13  C   UNL     1     -11.105  14.189  67.668  1.00  0.00    -0.296 A  
HETATM   14  H   UNL     1     -13.987  12.543  65.358  1.00  0.00     0.000 HD 
HETATM   15  C   UNL     1     -12.867  12.145  63.567  1.00  0.00    -0.325 C  
HETATM   16  C   UNL     1     -11.491  15.015  68.876  1.00  0.00    -0.314 C  
HETATM   17  N   UNL     1     -11.848  11.118  63.523  1.00  0.00    -0.349 N  
HETATM   18  F   UNL     1     -12.399  14.360  69.656  1.00  0.00    -0.340 F  
HETATM   19  F   UNL     1     -12.113  16.170  68.500  1.00  0.00    -0.324 F  
HETATM   20  F   UNL     1     -10.506  15.395  69.723  1.00  0.00    -0.226 F  
HETATM   21  S   UNL     1     -10.339  11.739  63.903  1.00  0.00    -0.430 S  
HETATM   22  H   UNL     1     -12.026  10.141  63.291  1.00  0.00     0.000 HD 
HETATM   23  O   UNL     1      -9.984  12.648  62.835  1.00  0.00     0.296 OA 
HETATM   24  O   UNL     1      -9.492  10.623  64.260  1.00  0.00    -0.225 OA 
ENDBRANCH   4   7
TORSDOF 1
ENDMDL
MODEL      170
REMARK 921   NORMALIZED FREE ENERGY PREDICTED BY IDOCK:   -2.86 KCAL/MOL
REMARK 922        TOTAL FREE ENERGY PREDICTED BY IDOCK:   -2.79 KCAL/MOL
REMARK 923 INTER-LIGAND FREE ENERGY PREDICTED BY IDOCK:   -3.62 KCAL/MOL
REMARK 924 INTRA-LIGAND FREE ENERGY PREDICTED BY IDOCK:    0.83 KCAL/MOL
REMARK 927      BINDING AFFINITY PREDICTED BY RF-SCORE:    0.00 PKD
ROOT
HETATM    1  N   UNL     1      -9.984   8.142  69.633  1.00  0.00    -0.189 N  
HETATM    2  H2  UNL     1      -9.868   9.145  69.774  1.00  0.00     0.000 HD 
HETATM    3  H1  UNL     1      -9.428   7.564  69.003  1.00  0.00     0.000 HD 
HETATM    4  S   UNL     1     -11.119   7.177  70.400  1.00  0.00    -0.288 S  
HETATM    5  O   UNL     1     -11.717   6.400  69.341  1.00  0.00    -0.327 OA 
HETATM    6  O   UNL     1     -11.904   7.993  71.290  1.00  0.00    -0.288 OA 
ENDROOT
BRANCH   4   7
HETATM    7  C   UNL     1     -10.087   6.117  71.376  1.00  0.00    -0.194 A  
HETATM    8  C   UNL     1     -10.153   4.746  71.099  1.00  0.00    -0.261 A  
HETATM    9  C   UNL     1      -9.298   3.861  71.759  1.00  0.00    -0.134 A  
HETATM   10  C   UNL     1      -8.370   4.290  72.704  1.00  0.00    -0.101 A  
HETATM   11  C   UNL     1      -8.318   5.666  72.965  1.00  0.00    -0.118 A  
HETATM   12  N   UNL     1      -7.412   3.449  73.267  1.00  0.00    -0.055 NA 
HETATM   13  C   UNL     1      -9.179   6.602  72.336  1.00  0.00    -0.140 A  
HETATM   14  H   UNL     1      -6.550   3.828  73.658  1.00  0.00     0.000 HD 
HETATM   15  C   UNL     1      -7.667   2.029  73.285  1.00  0.00    -0.042 C  
HETATM   16  C   UNL     1      -9.028   8.046  72.767  1.00  0.00    -0.228 C  
HETATM   17  N   UNL     1      -7.921   1.560  71.940  1.00  0.00    -0.041 N  
HETATM   18  F   UNL     1      -7.750   8.487  72.585  1.00  0.00    -0.163 F  
HETATM   19  F   UNL     1      -9.265   8.184  74.104  1.00  0.00    -0.273 F  
HETATM   20  F   UNL     1      -9.812   8.970  72.164  1.00  0.00    -0.379 F  
HETATM   21  S   UNL     1      -9.370   2.158  71.348  1.00  0.00    -0.134 S  
HETATM   22  H   UNL     1      -7.297   0.945  71.418  1.00  0.00     0.000 HD 
HETATM   23  O   UNL     1     -10.420   1.561  72.145  1.00  0.00    -0.161 OA 
HETATM   24  O   UNL     1      -9.338   2.018  69.910  1.00  0.00    -0.110 OA 
ENDBRANCH   4   7
TORSDOF 1
ENDMDL
MODEL      171
REMARK 921   NORMALIZED FREE ENERGY PREDICTED BY IDOCK:   -2.85 KCAL/MOL
REMARK 922        TOTAL FREE ENERGY PREDICTED BY IDOCK:   -2.78 KCAL/MOL
REMARK 923 INTER-LIGAND FREE ENERGY PREDICTED BY IDOCK:   -3.77 KCAL/MOL
REMARK 924 INTRA-LIGAND FREE ENERGY PREDICTED BY IDOCK:    0.99 KCAL/MOL
REMARK 927      BINDING AFFINITY PREDICTED BY RF-SCORE:    0.00 PKD
ROOT
HETATM    1  N   UNL     1     -11.184   4.812  65.575  1.00  0.00    -0.968 N  
HETATM    2  H2  UNL     1     -12.156   4.993  65.326  1.00  0.00     0.000 HD 
HETATM    3  H1  UNL     1     -10.555   4.177  65.082  1.00  0.00     0.000 HD 
HETATM    4  S   UNL     1     -10.363   5.507  66.859  1.00  0.00    -0.286 S  
HETATM    5  O   UNL     1      -9.712   4.402  67.521  1.00  0.00    -0.177 OA 
HETATM    6  O   UNL     1     -11.251   6.402  67.555  1.00  0.00    -0.347 OA 
ENDROOT
BRANCH   4   7
HETATM    7  C   UNL     1      -9.138   6.474  66.019  1.00  0.00    -0.086 A  
HETATM    8  C   UNL     1      -9.189   7.859  66.214  1.00  0.00    -0.231 A  
HETATM    9  C   UNL     1      -8.199   8.676  65.663  1.00  0.00    -0.123 A  
HETATM   10  C   UNL     1      -7.147   8.162  64.908  1.00  0.00    -0.079 A  
HETATM   11  C   UNL     1      -7.113   6.773  64.728  1.00  0.00    -0.060 A  
HETATM   12  N   UNL     1      -6.073   8.937  64.473  1.00  0.00    -0.066 NA 
HETATM   13  C   UNL     1      -8.106   5.904  65.250  1.00  0.00    -0.133 A  
HETATM   14  H   UNL     1      -5.176   8.506  64.251  1.00  0.00     0.000 HD 
HETATM   15  C   UNL     1      -6.259  10.362  64.343  1.00  0.00    -0.065 C  
HETATM   16  C   UNL     1      -7.949   4.435  64.921  1.00  0.00    -0.094 C  
HETATM   17  N   UNL     1      -6.711  10.913  65.602  1.00  0.00    -0.355 N  
HETATM   18  F   UNL     1      -6.740   3.959  65.336  1.00  0.00    -0.045 F  
HETATM   19  F   UNL     1      -7.968   4.230  63.572  1.00  0.00    -0.076 F  
HETATM   20  F   UNL     1      -8.862   3.573  65.429  1.00  0.00    -0.111 F  
HETATM   21  S   UNL     1      -8.263  10.400  65.972  1.00  0.00    -0.149 S  
HETATM   22  H   UNL     1      -6.156  11.535  66.190  1.00  0.00     0.000 HD 
HETATM   23  O   UNL     1      -9.140  10.988  64.982  1.00  0.00    -0.202 OA 
HETATM   24  O   UNL     1      -8.463  10.619  67.386  1.00  0.00    -0.122 OA 
ENDBRANCH   4   7
TORSDOF 1
ENDMDL
MODEL      172
REMARK 921   NORMALIZED FREE ENERGY PREDICTED BY IDOCK:   -2.84 KCAL/MOL
REMARK 922        TOTAL FREE ENERGY PREDICTED BY IDOCK:   -2.77 KCAL/MOL
REMARK 923 INTER-LIGAND FREE ENERGY PREDICTED BY IDOCK:   -2.84 KCAL/MOL
REMARK 924 INTRA-LIGAND FREE ENERGY PREDICTED BY IDOCK:    0.08 KCAL/MOL
REMARK 927      BINDING AFFINITY PREDICTED BY RF-SCORE:    0.00 PKD
ROOT
HETATM    1  N   UNL     1      -9.891   6.728  73.533  1.00  0.00    -0.198 N  
HETATM    2  H2  UNL     1      -9.331   6.970  74.349  1.00  0.00     0.000 HD 
HETATM    3  H1  UNL     1     -10.603   7.322  73.105  1.00  0.00     0.000 HD 
HETATM    4  S   UNL     1      -9.792   5.292  72.675  1.00  0.00    -0.163 S  
HETATM    5  O   UNL     1     -11.160   4.861  72.520  1.00  0.00    -0.184 OA 
HETATM    6  O   UNL     1      -8.788   4.454  73.279  1.00  0.00    -0.106 OA 
ENDROOT
BRANCH   4   7
HETATM    7  C   UNL     1      -9.185   5.853  71.107  1.00  0.00    -0.150 A  
HETATM    8  C   UNL     1      -9.004   7.232  70.960  1.00  0.00    -0.149 A  
HETATM    9  C   UNL     1      -8.438   7.739  69.788  1.00  0.00    -0.133 A  
HETATM   10  C   UNL     1      -8.046   6.915  68.735  1.00  0.00    -0.121 A  
HETATM   11  C   UNL     1      -8.235   5.536  68.904  1.00  0.00    -0.099 A  
HETATM   12  N   UNL     1      -7.351   7.381  67.622  1.00  0.00    -0.090 NA 
HETATM   13  C   UNL     1      -8.824   4.975  70.067  1.00  0.00    -0.130 A  
HETATM   14  H   UNL     1      -6.777   6.749  67.064  1.00  0.00     0.000 HD 
HETATM   15  C   UNL     1      -7.461   8.777  67.276  1.00  0.00    -0.089 C  
HETATM   16  C   UNL     1      -9.002   3.472  70.068  1.00  0.00    -0.105 C  
HETATM   17  N   UNL     1      -7.071   9.594  68.405  1.00  0.00    -0.070 N  
HETATM   18  F   UNL     1      -7.814   2.831  69.868  1.00  0.00    -0.043 F  
HETATM   19  F   UNL     1      -9.799   3.073  69.035  1.00  0.00    -0.193 F  
HETATM   20  F   UNL     1      -9.531   2.900  71.175  1.00  0.00    -0.178 F  
HETATM   21  S   UNL     1      -8.174   9.467  69.659  1.00  0.00    -0.159 S  
HETATM   22  H   UNL     1      -6.231  10.172  68.434  1.00  0.00     0.000 HD 
HETATM   23  O   UNL     1      -9.406  10.063  69.189  1.00  0.00    -0.171 OA 
HETATM   24  O   UNL     1      -7.518   9.935  70.859  1.00  0.00    -0.314 OA 
ENDBRANCH   4   7
TORSDOF 1
ENDMDL
MODEL      173
REMARK 921   NORMALIZED FREE ENERGY PREDICTED BY IDOCK:   -2.80 KCAL/MOL
REMARK 922        TOTAL FREE ENERGY PREDICTED BY IDOCK:   -2.72 KCAL/MOL
REMARK 923 INTER-LIGAND FREE ENERGY PREDICTED BY IDOCK:   -3.72 KCAL/MOL
REMARK 924 INTRA-LIGAND FREE ENERGY PREDICTED BY IDOCK:    1.00 KCAL/MOL
REMARK 927      BINDING AFFINITY PREDICTED BY RF-SCORE:    0.00 PKD
ROOT
HETATM    1  N   UNL     1      -6.973  16.468  69.295  1.00  0.00    -0.225 N  
HETATM    2  H2  UNL     1      -7.402  17.203  69.856  1.00  0.00     0.000 HD 
HETATM    3  H1  UNL     1      -6.392  15.711  69.655  1.00  0.00     0.000 HD 
HETATM    4  S   UNL     1      -7.107  16.309  67.632  1.00  0.00    -0.155 S  
HETATM    5  O   UNL     1      -5.757  16.091  67.173  1.00  0.00    -0.323 OA 
HETATM    6  O   UNL     1      -7.927  17.379  67.124  1.00  0.00    -0.193 OA 
ENDROOT
BRANCH   4   7
HETATM    7  C   UNL     1      -8.013  14.792  67.490  1.00  0.00    -0.188 A  
HETATM    8  C   UNL     1      -9.312  14.881  66.975  1.00  0.00    -0.240 A  
HETATM    9  C   UNL     1     -10.050  13.719  66.744  1.00  0.00    -0.265 A  
HETATM   10  C   UNL     1      -9.542  12.450  67.014  1.00  0.00    -0.211 A  
HETATM   11  C   UNL     1      -8.240  12.384  67.527  1.00  0.00    -0.173 A  
HETATM   12  N   UNL     1     -10.201  11.275  66.658  1.00  0.00    -0.221 NA 
HETATM   13  C   UNL     1      -7.458  13.536  67.798  1.00  0.00    -0.168 A  
HETATM   14  H   UNL     1      -9.684  10.405  66.534  1.00  0.00     0.000 HD 
HETATM   15  C   UNL     1     -11.631  11.317  66.469  1.00  0.00     0.259 C  
HETATM   16  C   UNL     1      -6.090  13.291  68.398  1.00  0.00    -0.086 C  
HETATM   17  N   UNL     1     -11.964  12.319  65.479  1.00  0.00    -0.386 N  
HETATM   18  F   UNL     1      -5.340  12.473  67.605  1.00  0.00    -0.071 F  
HETATM   19  F   UNL     1      -6.189  12.636  69.591  1.00  0.00    -0.102 F  
HETATM   20  F   UNL     1      -5.305  14.367  68.641  1.00  0.00    -0.081 F  
HETATM   21  S   UNL     1     -11.652  13.864  66.047  1.00  0.00    -0.364 S  
HETATM   22  H   UNL     1     -12.341  12.112  64.555  1.00  0.00     0.000 HD 
HETATM   23  O   UNL     1     -12.579  14.102  67.132  1.00  0.00    -0.161 OA 
HETATM   24  O   UNL     1     -11.590  14.740  64.899  1.00  0.00    -0.373 OA 
ENDBRANCH   4   7
TORSDOF 1
ENDMDL
MODEL      174
REMARK 921   NORMALIZED FREE ENERGY PREDICTED BY IDOCK:   -2.78 KCAL/MOL
REMARK 922        TOTAL FREE ENERGY PREDICTED BY IDOCK:   -2.70 KCAL/MOL
REMARK 923 INTER-LIGAND FREE ENERGY PREDICTED BY IDOCK:   -2.76 KCAL/MOL
REMARK 924 INTRA-LIGAND FREE ENERGY PREDICTED BY IDOCK:    0.05 KCAL/MOL
REMARK 927      BINDING AFFINITY PREDICTED BY RF-SCORE:    0.00 PKD
ROOT
HETATM    1  N   UNL     1     -11.310   6.698  66.864  1.00  0.00    -0.824 N  
HETATM    2  H2  UNL     1     -11.630   6.553  65.907  1.00  0.00     0.000 HD 
HETATM    3  H1  UNL     1     -11.694   6.243  67.693  1.00  0.00     0.000 HD 
HETATM    4  S   UNL     1     -10.068   7.722  67.330  1.00  0.00    -0.249 S  
HETATM    5  O   UNL     1     -10.606   8.472  68.439  1.00  0.00    -0.193 OA 
HETATM    6  O   UNL     1      -9.527   8.364  66.160  1.00  0.00    -0.214 OA 
ENDROOT
BRANCH   4   7
HETATM    7  C   UNL     1      -8.867   6.572  67.945  1.00  0.00    -0.114 A  
HETATM    8  C   UNL     1      -9.176   5.213  67.818  1.00  0.00    -0.125 A  
HETATM    9  C   UNL     1      -8.238   4.248  68.191  1.00  0.00    -0.093 A  
HETATM   10  C   UNL     1      -6.986   4.587  68.699  1.00  0.00    -0.052 A  
HETATM   11  C   UNL     1      -6.696   5.953  68.815  1.00  0.00    -0.064 A  
HETATM   12  N   UNL     1      -5.984   3.649  68.941  1.00  0.00    -0.023 NA 
HETATM   13  C   UNL     1      -7.623   6.970  68.470  1.00  0.00    -0.115 A  
HETATM   14  H   UNL     1      -5.003   3.929  68.962  1.00  0.00     0.000 HD 
HETATM   15  C   UNL     1      -6.364   2.275  69.160  1.00  0.00    -0.029 C  
HETATM   16  C   UNL     1      -7.171   8.395  68.704  1.00  0.00    -0.080 C  
HETATM   17  N   UNL     1      -7.144   1.798  68.038  1.00  0.00    -0.039 N  
HETATM   18  F   UNL     1      -6.012   8.664  68.038  1.00  0.00    -0.043 F  
HETATM   19  F   UNL     1      -6.882   8.607  70.021  1.00  0.00    -0.040 F  
HETATM   20  F   UNL     1      -8.019   9.392  68.356  1.00  0.00    -0.091 F  
HETATM   21  S   UNL     1      -8.637   2.556  67.967  1.00  0.00    -0.103 S  
HETATM   22  H   UNL     1      -6.826   1.091  67.375  1.00  0.00     0.000 HD 
HETATM   23  O   UNL     1      -9.376   2.124  69.134  1.00  0.00    -0.130 OA 
HETATM   24  O   UNL     1      -9.153   2.365  66.631  1.00  0.00    -0.136 OA 
ENDBRANCH   4   7
TORSDOF 1
ENDMDL
MODEL      175
REMARK 921   NORMALIZED FREE ENERGY PREDICTED BY IDOCK:   -2.77 KCAL/MOL
REMARK 922        TOTAL FREE ENERGY PREDICTED BY IDOCK:   -2.70 KCAL/MOL
REMARK 923 INTER-LIGAND FREE ENERGY PREDICTED BY IDOCK:   -4.66 KCAL/MOL
REMARK 924 INTRA-LIGAND FREE ENERGY PREDICTED BY IDOCK:    1.96 KCAL/MOL
REMARK 927      BINDING AFFINITY PREDICTED BY RF-SCORE:    0.00 PKD
ROOT
HETATM    1  N   UNL     1     -12.362   8.254  70.502  1.00  0.00    -0.394 N  
HETATM    2  H2  UNL     1     -12.917   7.901  71.281  1.00  0.00     0.000 HD 
HETATM    3  H1  UNL     1     -12.616   8.189  69.516  1.00  0.00     0.000 HD 
HETATM    4  S   UNL     1     -10.884   9.032  70.634  1.00  0.00    -0.261 S  
HETATM    5  O   UNL     1     -10.038   8.382  69.663  1.00  0.00    -0.190 OA 
HETATM    6  O   UNL     1     -10.525   9.123  72.026  1.00  0.00    -0.322 OA 
ENDROOT
BRANCH   4   7
HETATM    7  C   UNL     1     -11.283  10.658  70.050  1.00  0.00    -0.309 A  
HETATM    8  C   UNL     1     -11.937  11.506  70.951  1.00  0.00    -0.220 A  
HETATM    9  C   UNL     1     -12.195  12.832  70.595  1.00  0.00    -0.288 A  
HETATM   10  C   UNL     1     -11.830  13.354  69.356  1.00  0.00    -0.335 A  
HETATM   11  C   UNL     1     -11.175  12.488  68.471  1.00  0.00    -0.322 A  
HETATM   12  N   UNL     1     -11.947  14.705  69.035  1.00  0.00    -0.447 NA 
HETATM   13  C   UNL     1     -10.908  11.129  68.777  1.00  0.00    -0.256 A  
HETATM   14  H   UNL     1     -11.369  15.118  68.304  1.00  0.00     0.000 HD 
HETATM   15  C   UNL     1     -12.904  15.505  69.760  1.00  0.00     0.173 C  
HETATM   16  C   UNL     1     -10.237  10.316  67.690  1.00  0.00    -0.205 C  
HETATM   17  N   UNL     1     -12.640  15.417  71.180  1.00  0.00    -0.387 N  
HETATM   18  F   UNL     1      -9.057  10.882  67.305  1.00  0.00    -0.139 F  
HETATM   19  F   UNL     1     -11.002  10.285  66.560  1.00  0.00    -0.237 F  
HETATM   20  F   UNL     1      -9.939   9.024  67.961  1.00  0.00    -0.167 F  
HETATM   21  S   UNL     1     -12.967  13.882  71.768  1.00  0.00    -0.359 S  
HETATM   22  H   UNL     1     -12.299  16.190  71.751  1.00  0.00     0.000 HD 
HETATM   23  O   UNL     1     -14.397  13.690  71.651  1.00  0.00    -0.101 OA 
HETATM   24  O   UNL     1     -12.287  13.753  73.037  1.00  0.00     0.108 OA 
ENDBRANCH   4   7
TORSDOF 1
ENDMDL
MODEL      176
REMARK 921   NORMALIZED FREE ENERGY PREDICTED BY IDOCK:   -2.68 KCAL/MOL
REMARK 922        TOTAL FREE ENERGY PREDICTED BY IDOCK:   -2.60 KCAL/MOL
REMARK 923 INTER-LIGAND FREE ENERGY PREDICTED BY IDOCK:   -2.65 KCAL/MOL
REMARK 924 INTRA-LIGAND FREE ENERGY PREDICTED BY IDOCK:    0.05 KCAL/MOL
REMARK 927      BINDING AFFINITY PREDICTED BY RF-SCORE:    0.00 PKD
ROOT
HETATM    1  N   UNL     1      -9.621   8.396  69.097  1.00  0.00    -0.162 N  
HETATM    2  H2  UNL     1     -10.444   7.986  69.539  1.00  0.00     0.000 HD 
HETATM    3  H1  UNL     1      -8.654   8.227  69.375  1.00  0.00     0.000 HD 
HETATM    4  S   UNL     1      -9.640   9.453  67.797  1.00  0.00    -0.137 S  
HETATM    5  O   UNL     1      -8.753  10.525  68.182  1.00  0.00    -0.125 OA 
HETATM    6  O   UNL     1     -11.005   9.691  67.406  1.00  0.00    -0.247 OA 
ENDROOT
BRANCH   4   7
HETATM    7  C   UNL     1      -8.855   8.485  66.537  1.00  0.00    -0.140 A  
HETATM    8  C   UNL     1      -8.495   7.177  66.882  1.00  0.00    -0.123 A  
HETATM    9  C   UNL     1      -7.962   6.324  65.913  1.00  0.00    -0.116 A  
HETATM   10  C   UNL     1      -7.762   6.728  64.596  1.00  0.00    -0.112 A  
HETATM   11  C   UNL     1      -8.132   8.040  64.271  1.00  0.00    -0.117 A  
HETATM   12  N   UNL     1      -7.369   5.855  63.583  1.00  0.00    -0.059 NA 
HETATM   13  C   UNL     1      -8.659   8.951  65.223  1.00  0.00    -0.209 A  
HETATM   14  H   UNL     1      -7.572   6.066  62.606  1.00  0.00     0.000 HD 
HETATM   15  C   UNL     1      -6.670   4.647  63.948  1.00  0.00    -0.043 C  
HETATM   16  C   UNL     1      -8.959  10.346  64.720  1.00  0.00    -0.202 C  
HETATM   17  N   UNL     1      -7.463   3.889  64.892  1.00  0.00    -0.075 N  
HETATM   18  F   UNL     1      -9.826  10.319  63.667  1.00  0.00    -0.334 F  
HETATM   19  F   UNL     1      -7.832  10.946  64.237  1.00  0.00    -0.005 F  
HETATM   20  F   UNL     1      -9.492  11.232  65.594  1.00  0.00    -0.213 F  
HETATM   21  S   UNL     1      -7.572   4.676  66.367  1.00  0.00    -0.091 S  
HETATM   22  H   UNL     1      -7.899   2.990  64.686  1.00  0.00     0.000 HD 
HETATM   23  O   UNL     1      -6.241   4.682  66.933  1.00  0.00    -0.030 OA 
HETATM   24  O   UNL     1      -8.694   4.104  67.077  1.00  0.00    -0.107 OA 
ENDBRANCH   4   7
TORSDOF 1
ENDMDL
MODEL      177
REMARK 921   NORMALIZED FREE ENERGY PREDICTED BY IDOCK:   -2.66 KCAL/MOL
REMARK 922        TOTAL FREE ENERGY PREDICTED BY IDOCK:   -2.58 KCAL/MOL
REMARK 923 INTER-LIGAND FREE ENERGY PREDICTED BY IDOCK:   -2.68 KCAL/MOL
REMARK 924 INTRA-LIGAND FREE ENERGY PREDICTED BY IDOCK:    0.10 KCAL/MOL
REMARK 927      BINDING AFFINITY PREDICTED BY RF-SCORE:    0.00 PKD
ROOT
HETATM    1  N   UNL     1     -10.321   7.022  71.021  1.00  0.00    -0.201 N  
HETATM    2  H2  UNL     1     -10.092   6.719  71.967  1.00  0.00     0.000 HD 
HETATM    3  H1  UNL     1     -10.671   7.945  70.763  1.00  0.00     0.000 HD 
HETATM    4  S   UNL     1     -10.182   6.084  69.639  1.00  0.00    -0.231 S  
HETATM    5  O   UNL     1     -11.434   6.265  68.945  1.00  0.00    -0.331 OA 
HETATM    6  O   UNL     1      -9.688   4.781  70.004  1.00  0.00    -0.170 OA 
ENDROOT
BRANCH   4   7
HETATM    7  C   UNL     1      -8.907   6.939  68.753  1.00  0.00    -0.132 A  
HETATM    8  C   UNL     1      -8.438   8.130  69.319  1.00  0.00    -0.134 A  
HETATM    9  C   UNL     1      -7.368   8.806  68.729  1.00  0.00    -0.083 A  
HETATM   10  C   UNL     1      -6.741   8.343  67.575  1.00  0.00    -0.063 A  
HETATM   11  C   UNL     1      -7.225   7.148  67.026  1.00  0.00    -0.091 A  
HETATM   12  N   UNL     1      -5.585   8.920  67.053  1.00  0.00    -0.041 NA 
HETATM   13  C   UNL     1      -8.321   6.435  67.576  1.00  0.00    -0.117 A  
HETATM   14  H   UNL     1      -4.959   8.382  66.455  1.00  0.00     0.000 HD 
HETATM   15  C   UNL     1      -5.295  10.296  67.377  1.00  0.00    -0.041 C  
HETATM   16  C   UNL     1      -8.751   5.190  66.831  1.00  0.00    -0.107 C  
HETATM   17  N   UNL     1      -5.252  10.461  68.814  1.00  0.00    -0.038 N  
HETATM   18  F   UNL     1      -7.720   4.307  66.703  1.00  0.00    -0.088 F  
HETATM   19  F   UNL     1      -9.124   5.488  65.553  1.00  0.00    -0.158 F  
HETATM   20  F   UNL     1      -9.774   4.467  67.346  1.00  0.00    -0.166 F  
HETATM   21  S   UNL     1      -6.770  10.265  69.496  1.00  0.00    -0.087 S  
HETATM   22  H   UNL     1      -4.406  10.671  69.345  1.00  0.00     0.000 HD 
HETATM   23  O   UNL     1      -7.580  11.368  69.027  1.00  0.00    -0.126 OA 
HETATM   24  O   UNL     1      -6.579  10.013  70.907  1.00  0.00    -0.277 OA 
ENDBRANCH   4   7
TORSDOF 1
ENDMDL
MODEL      178
REMARK 921   NORMALIZED FREE ENERGY PREDICTED BY IDOCK:   -2.65 KCAL/MOL
REMARK 922        TOTAL FREE ENERGY PREDICTED BY IDOCK:   -2.57 KCAL/MOL
REMARK 923 INTER-LIGAND FREE ENERGY PREDICTED BY IDOCK:   -2.68 KCAL/MOL
REMARK 924 INTRA-LIGAND FREE ENERGY PREDICTED BY IDOCK:    0.11 KCAL/MOL
REMARK 927      BINDING AFFINITY PREDICTED BY RF-SCORE:    0.00 PKD
ROOT
HETATM    1  N   UNL     1     -11.616   7.387  70.170  1.00  0.00    -0.493 N  
HETATM    2  H2  UNL     1     -12.180   7.825  69.441  1.00  0.00     0.000 HD 
HETATM    3  H1  UNL     1     -11.830   6.504  70.633  1.00  0.00     0.000 HD 
HETATM    4  S   UNL     1     -10.190   8.003  70.798  1.00  0.00    -0.195 S  
HETATM    5  O   UNL     1     -10.346   7.904  72.230  1.00  0.00    -0.216 OA 
HETATM    6  O   UNL     1      -9.889   9.250  70.144  1.00  0.00    -0.186 OA 
ENDROOT
BRANCH   4   7
HETATM    7  C   UNL     1      -9.012   6.791  70.265  1.00  0.00    -0.152 A  
HETATM    8  C   UNL     1      -9.467   5.828  69.358  1.00  0.00    -0.162 A  
HETATM    9  C   UNL     1      -8.572   4.901  68.819  1.00  0.00    -0.089 A  
HETATM   10  C   UNL     1      -7.221   4.888  69.159  1.00  0.00    -0.053 A  
HETATM   11  C   UNL     1      -6.786   5.862  70.067  1.00  0.00    -0.052 A  
HETATM   12  N   UNL     1      -6.286   4.070  68.529  1.00  0.00    -0.031 NA 
HETATM   13  C   UNL     1      -7.660   6.812  70.657  1.00  0.00    -0.095 A  
HETATM   14  H   UNL     1      -5.296   4.317  68.526  1.00  0.00     0.000 HD 
HETATM   15  C   UNL     1      -6.748   2.867  67.880  1.00  0.00    -0.040 C  
HETATM   16  C   UNL     1      -7.038   7.762  71.658  1.00  0.00    -0.064 C  
HETATM   17  N   UNL     1      -7.764   3.197  66.904  1.00  0.00    -0.075 N  
HETATM   18  F   UNL     1      -6.002   8.456  71.106  1.00  0.00    -0.033 F  
HETATM   19  F   UNL     1      -6.491   7.081  72.706  1.00  0.00    -0.055 F  
HETATM   20  F   UNL     1      -7.837   8.702  72.217  1.00  0.00    -0.167 F  
HETATM   21  S   UNL     1      -9.165   3.744  67.643  1.00  0.00    -0.188 S  
HETATM   22  H   UNL     1      -7.644   3.108  65.895  1.00  0.00     0.000 HD 
HETATM   23  O   UNL     1      -9.713   2.621  68.374  1.00  0.00    -0.118 OA 
HETATM   24  O   UNL     1      -9.936   4.443  66.640  1.00  0.00    -0.216 OA 
ENDBRANCH   4   7
TORSDOF 1
ENDMDL
MODEL      179
REMARK 921   NORMALIZED FREE ENERGY PREDICTED BY IDOCK:   -2.63 KCAL/MOL
REMARK 922        TOTAL FREE ENERGY PREDICTED BY IDOCK:   -2.55 KCAL/MOL
REMARK 923 INTER-LIGAND FREE ENERGY PREDICTED BY IDOCK:   -3.39 KCAL/MOL
REMARK 924 INTRA-LIGAND FREE ENERGY PREDICTED BY IDOCK:    0.84 KCAL/MOL
REMARK 927      BINDING AFFINITY PREDICTED BY RF-SCORE:    0.00 PKD
ROOT
HETATM    1  N   UNL     1      -8.805   8.026  69.730  1.00  0.00    -0.143 N  
HETATM    2  H2  UNL     1      -8.638   7.021  69.756  1.00  0.00     0.000 HD 
HETATM    3  H1  UNL     1      -8.102   8.738  69.527  1.00  0.00     0.000 HD 
HETATM    4  S   UNL     1     -10.276   8.777  70.012  1.00  0.00    -0.205 S  
HETATM    5  O   UNL     1      -9.973   9.844  70.935  1.00  0.00    -0.129 OA 
HETATM    6  O   UNL     1     -11.267   7.773  70.299  1.00  0.00    -0.263 OA 
ENDROOT
BRANCH   4   7
HETATM    7  C   UNL     1     -10.631   9.478  68.423  1.00  0.00    -0.219 A  
HETATM    8  C   UNL     1     -10.755  10.871  68.364  1.00  0.00    -0.240 A  
HETATM    9  C   UNL     1     -10.937  11.501  67.131  1.00  0.00    -0.286 A  
HETATM   10  C   UNL     1     -11.011  10.789  65.936  1.00  0.00     0.073 A  
HETATM   11  C   UNL     1     -10.882   9.396  66.018  1.00  0.00     0.829 A  
HETATM   12  N   UNL     1     -11.047  11.403  64.686  1.00  0.00    -0.256 NA 
HETATM   13  C   UNL     1     -10.716   8.708  67.248  1.00  0.00    -0.209 A  
HETATM   14  H   UNL     1     -10.745  10.902  63.851  1.00  0.00     0.000 HD 
HETATM   15  C   UNL     1     -11.522  12.763  64.599  1.00  0.00    -0.324 C  
HETATM   16  C   UNL     1     -10.644   7.198  67.166  1.00  0.00    -0.347 C  
HETATM   17  N   UNL     1     -10.742  13.610  65.476  1.00  0.00    -0.288 N  
HETATM   18  F   UNL     1      -9.639   6.793  66.338  1.00  0.00    -0.195 F  
HETATM   19  F   UNL     1     -11.784   6.683  66.619  1.00  0.00    -0.233 F  
HETATM   20  F   UNL     1     -10.454   6.512  68.317  1.00  0.00    -0.153 F  
HETATM   21  S   UNL     1     -11.033  13.251  67.087  1.00  0.00    -0.277 S  
HETATM   22  H   UNL     1     -10.099  14.333  65.156  1.00  0.00     0.000 HD 
HETATM   23  O   UNL     1     -12.407  13.619  67.352  1.00  0.00    -0.297 OA 
HETATM   24  O   UNL     1      -9.940  13.803  67.855  1.00  0.00    -0.228 OA 
ENDBRANCH   4   7
TORSDOF 1
ENDMDL
MODEL      180
REMARK 921   NORMALIZED FREE ENERGY PREDICTED BY IDOCK:   -2.63 KCAL/MOL
REMARK 922        TOTAL FREE ENERGY PREDICTED BY IDOCK:   -2.55 KCAL/MOL
REMARK 923 INTER-LIGAND FREE ENERGY PREDICTED BY IDOCK:   -4.23 KCAL/MOL
REMARK 924 INTRA-LIGAND FREE ENERGY PREDICTED BY IDOCK:    1.68 KCAL/MOL
REMARK 927      BINDING AFFINITY PREDICTED BY RF-SCORE:    0.00 PKD
ROOT
HETATM    1  N   UNL     1     -11.100  12.561  69.581  1.00  0.00    -0.472 N  
HETATM    2  H2  UNL     1     -11.881  13.089  69.969  1.00  0.00     0.000 HD 
HETATM    3  H1  UNL     1     -10.131  12.879  69.543  1.00  0.00     0.000 HD 
HETATM    4  S   UNL     1     -11.199  11.031  68.903  1.00  0.00    -0.292 S  
HETATM    5  O   UNL     1     -10.471  11.131  67.661  1.00  0.00    -0.182 OA 
HETATM    6  O   UNL     1     -12.567  10.583  68.957  1.00  0.00    -0.134 OA 
ENDROOT
BRANCH   4   7
HETATM    7  C   UNL     1     -10.249  10.070  70.049  1.00  0.00    -0.255 A  
HETATM    8  C   UNL     1      -8.865  10.031  69.841  1.00  0.00    -0.177 A  
HETATM    9  C   UNL     1      -8.042   9.374  70.759  1.00  0.00    -0.116 A  
HETATM   10  C   UNL     1      -8.548   8.738  71.889  1.00  0.00    -0.099 A  
HETATM   11  C   UNL     1      -9.936   8.791  72.080  1.00  0.00    -0.391 A  
HETATM   12  N   UNL     1      -7.738   8.204  72.889  1.00  0.00    -0.137 NA 
HETATM   13  C   UNL     1     -10.816   9.428  71.166  1.00  0.00    -0.427 A  
HETATM   14  H   UNL     1      -8.095   8.076  73.836  1.00  0.00     0.000 HD 
HETATM   15  C   UNL     1      -6.384   7.835  72.555  1.00  0.00    -0.061 C  
HETATM   16  C   UNL     1     -12.291   9.350  71.494  1.00  0.00    -0.370 C  
HETATM   17  N   UNL     1      -5.690   8.976  71.997  1.00  0.00    -0.067 N  
HETATM   18  F   UNL     1     -12.553   9.864  72.730  1.00  0.00    -0.184 F  
HETATM   19  F   UNL     1     -12.713   8.053  71.552  1.00  0.00    -0.296 F  
HETATM   20  F   UNL     1     -13.157   9.974  70.660  1.00  0.00    -0.379 F  
HETATM   21  S   UNL     1      -6.309   9.392  70.496  1.00  0.00    -0.083 S  
HETATM   22  H   UNL     1      -4.923   9.465  72.458  1.00  0.00     0.000 HD 
HETATM   23  O   UNL     1      -5.992   8.300  69.601  1.00  0.00    -0.029 OA 
HETATM   24  O   UNL     1      -5.887  10.746  70.217  1.00  0.00    -0.076 OA 
ENDBRANCH   4   7
TORSDOF 1
ENDMDL
MODEL      181
REMARK 921   NORMALIZED FREE ENERGY PREDICTED BY IDOCK:   -2.61 KCAL/MOL
REMARK 922        TOTAL FREE ENERGY PREDICTED BY IDOCK:   -2.53 KCAL/MOL
REMARK 923 INTER-LIGAND FREE ENERGY PREDICTED BY IDOCK:   -2.60 KCAL/MOL
REMARK 924 INTRA-LIGAND FREE ENERGY PREDICTED BY IDOCK:    0.07 KCAL/MOL
REMARK 927      BINDING AFFINITY PREDICTED BY RF-SCORE:    0.00 PKD
ROOT
HETATM    1  N   UNL     1      -8.402   8.154  69.254  1.00  0.00    -0.128 N  
HETATM    2  H2  UNL     1      -9.267   8.452  69.705  1.00  0.00     0.000 HD 
HETATM    3  H1  UNL     1      -7.939   7.256  69.395  1.00  0.00     0.000 HD 
HETATM    4  S   UNL     1      -7.510   9.062  68.164  1.00  0.00    -0.084 S  
HETATM    5  O   UNL     1      -6.148   8.963  68.630  1.00  0.00    -0.044 OA 
HETATM    6  O   UNL     1      -8.162  10.331  67.966  1.00  0.00    -0.111 OA 
ENDROOT
BRANCH   4   7
HETATM    7  C   UNL     1      -7.679   8.107  66.681  1.00  0.00    -0.094 A  
HETATM    8  C   UNL     1      -8.411   6.918  66.778  1.00  0.00    -0.116 A  
HETATM    9  C   UNL     1      -8.668   6.163  65.632  1.00  0.00    -0.126 A  
HETATM   10  C   UNL     1      -8.213   6.545  64.373  1.00  0.00    -0.010 A  
HETATM   11  C   UNL     1      -7.485   7.740  64.297  1.00  0.00    -0.100 A  
HETATM   12  N   UNL     1      -8.579   5.888  63.199  1.00  0.00    -0.334 NA 
HETATM   13  C   UNL     1      -7.180   8.531  65.434  1.00  0.00    -0.083 A  
HETATM   14  H   UNL     1      -8.542   6.368  62.301  1.00  0.00     0.000 HD 
HETATM   15  C   UNL     1      -9.010   4.514  63.285  1.00  0.00    -0.132 C  
HETATM   16  C   UNL     1      -6.340   9.766  65.186  1.00  0.00    -0.094 C  
HETATM   17  N   UNL     1     -10.119   4.406  64.207  1.00  0.00    -0.388 N  
HETATM   18  F   UNL     1      -6.926  10.588  64.269  1.00  0.00    -0.114 F  
HETATM   19  F   UNL     1      -5.131   9.435  64.646  1.00  0.00    -0.045 F  
HETATM   20  F   UNL     1      -6.057  10.560  66.245  1.00  0.00    -0.063 F  
HETATM   21  S   UNL     1      -9.635   4.708  65.783  1.00  0.00    -0.198 S  
HETATM   22  H   UNL     1     -11.075   4.175  63.934  1.00  0.00     0.000 HD 
HETATM   23  O   UNL     1      -8.745   3.630  66.156  1.00  0.00    -0.112 OA 
HETATM   24  O   UNL     1     -10.823   5.008  66.549  1.00  0.00    -0.226 OA 
ENDBRANCH   4   7
TORSDOF 1
ENDMDL
MODEL      182
REMARK 921   NORMALIZED FREE ENERGY PREDICTED BY IDOCK:   -2.57 KCAL/MOL
REMARK 922        TOTAL FREE ENERGY PREDICTED BY IDOCK:   -2.48 KCAL/MOL
REMARK 923 INTER-LIGAND FREE ENERGY PREDICTED BY IDOCK:   -3.48 KCAL/MOL
REMARK 924 INTRA-LIGAND FREE ENERGY PREDICTED BY IDOCK:    0.99 KCAL/MOL
REMARK 927      BINDING AFFINITY PREDICTED BY RF-SCORE:    0.00 PKD
ROOT
HETATM    1  N   UNL     1      -6.948   9.566  65.450  1.00  0.00    -0.090 N  
HETATM    2  H2  UNL     1      -6.234  10.243  65.715  1.00  0.00     0.000 HD 
HETATM    3  H1  UNL     1      -6.771   8.632  65.079  1.00  0.00     0.000 HD 
HETATM    4  S   UNL     1      -8.603   9.807  65.554  1.00  0.00    -0.154 S  
HETATM    5  O   UNL     1      -9.119   9.376  64.277  1.00  0.00    -0.214 OA 
HETATM    6  O   UNL     1      -8.854  11.125  66.078  1.00  0.00    -0.184 OA 
ENDROOT
BRANCH   4   7
HETATM    7  C   UNL     1      -9.061   8.618  66.787  1.00  0.00    -0.149 A  
HETATM    8  C   UNL     1      -9.628   9.119  67.964  1.00  0.00    -0.165 A  
HETATM    9  C   UNL     1     -10.102   8.238  68.938  1.00  0.00    -0.199 A  
HETATM   10  C   UNL     1     -10.027   6.856  68.790  1.00  0.00    -0.153 A  
HETATM   11  C   UNL     1      -9.458   6.375  67.603  1.00  0.00    -0.120 A  
HETATM   12  N   UNL     1     -10.620   5.961  69.678  1.00  0.00    -0.280 NA 
HETATM   13  C   UNL     1      -8.944   7.228  66.593  1.00  0.00    -0.170 A  
HETATM   14  H   UNL     1     -10.863   5.016  69.381  1.00  0.00     0.000 HD 
HETATM   15  C   UNL     1     -10.884   6.401  71.026  1.00  0.00    -0.262 C  
HETATM   16  C   UNL     1      -8.316   6.547  65.396  1.00  0.00    -0.140 C  
HETATM   17  N   UNL     1     -11.702   7.595  71.000  1.00  0.00    -0.287 N  
HETATM   18  F   UNL     1      -9.194   5.694  64.794  1.00  0.00    -0.028 F  
HETATM   19  F   UNL     1      -7.263   5.765  65.774  1.00  0.00    -0.067 F  
HETATM   20  F   UNL     1      -7.844   7.331  64.398  1.00  0.00    -0.105 F  
HETATM   21  S   UNL     1     -10.856   8.900  70.376  1.00  0.00    -0.242 S  
HETATM   22  H   UNL     1     -12.669   7.638  71.320  1.00  0.00     0.000 HD 
HETATM   23  O   UNL     1      -9.803   9.202  71.322  1.00  0.00    -0.283 OA 
HETATM   24  O   UNL     1     -11.828   9.895  69.984  1.00  0.00    -0.183 OA 
ENDBRANCH   4   7
TORSDOF 1
ENDMDL
MODEL      183
REMARK 921   NORMALIZED FREE ENERGY PREDICTED BY IDOCK:   -2.54 KCAL/MOL
REMARK 922        TOTAL FREE ENERGY PREDICTED BY IDOCK:   -2.45 KCAL/MOL
REMARK 923 INTER-LIGAND FREE ENERGY PREDICTED BY IDOCK:   -2.50 KCAL/MOL
REMARK 924 INTRA-LIGAND FREE ENERGY PREDICTED BY IDOCK:    0.05 KCAL/MOL
REMARK 927      BINDING AFFINITY PREDICTED BY RF-SCORE:    0.00 PKD
ROOT
HETATM    1  N   UNL     1     -11.885   6.257  67.876  1.00  0.00     0.142 N  
HETATM    2  H2  UNL     1     -12.400   5.384  67.765  1.00  0.00     0.000 HD 
HETATM    3  H1  UNL     1     -12.170   7.042  68.464  1.00  0.00     0.000 HD 
HETATM    4  S   UNL     1     -10.437   6.636  67.124  1.00  0.00    -0.329 S  
HETATM    5  O   UNL     1     -10.634   7.963  66.592  1.00  0.00    -0.276 OA 
HETATM    6  O   UNL     1     -10.036   5.529  66.295  1.00  0.00    -0.163 OA 
ENDROOT
BRANCH   4   7
HETATM    7  C   UNL     1      -9.330   6.731  68.505  1.00  0.00    -0.126 A  
HETATM    8  C   UNL     1      -9.872   6.454  69.765  1.00  0.00    -0.189 A  
HETATM    9  C   UNL     1      -9.041   6.414  70.887  1.00  0.00    -0.151 A  
HETATM   10  C   UNL     1      -7.671   6.650  70.805  1.00  0.00    -0.097 A  
HETATM   11  C   UNL     1      -7.149   6.924  69.534  1.00  0.00    -0.075 A  
HETATM   12  N   UNL     1      -6.803   6.475  71.881  1.00  0.00    -0.067 NA 
HETATM   13  C   UNL     1      -7.954   6.995  68.368  1.00  0.00    -0.123 A  
HETATM   14  H   UNL     1      -5.810   6.302  71.726  1.00  0.00     0.000 HD 
HETATM   15  C   UNL     1      -7.340   6.542  73.218  1.00  0.00    -0.085 C  
HETATM   16  C   UNL     1      -7.240   7.352  67.082  1.00  0.00    -0.089 C  
HETATM   17  N   UNL     1      -8.413   5.582  73.364  1.00  0.00    -0.116 N  
HETATM   18  F   UNL     1      -6.227   6.478  66.818  1.00  0.00    -0.033 F  
HETATM   19  F   UNL     1      -6.640   8.573  67.177  1.00  0.00    -0.054 F  
HETATM   20  F   UNL     1      -7.973   7.398  65.945  1.00  0.00    -0.096 F  
HETATM   21  S   UNL     1      -9.744   6.010  72.441  1.00  0.00    -0.157 S  
HETATM   22  H   UNL     1      -8.365   4.750  73.953  1.00  0.00     0.000 HD 
HETATM   23  O   UNL     1     -10.270   7.230  73.013  1.00  0.00    -0.213 OA 
HETATM   24  O   UNL     1     -10.564   4.828  72.295  1.00  0.00    -0.203 OA 
ENDBRANCH   4   7
TORSDOF 1
ENDMDL
MODEL      184
REMARK 921   NORMALIZED FREE ENERGY PREDICTED BY IDOCK:   -2.47 KCAL/MOL
REMARK 922        TOTAL FREE ENERGY PREDICTED BY IDOCK:   -2.37 KCAL/MOL
REMARK 923 INTER-LIGAND FREE ENERGY PREDICTED BY IDOCK:   -2.85 KCAL/MOL
REMARK 924 INTRA-LIGAND FREE ENERGY PREDICTED BY IDOCK:    0.48 KCAL/MOL
REMARK 927      BINDING AFFINITY PREDICTED BY RF-SCORE:    0.00 PKD
ROOT
HETATM    1  N   UNL     1     -11.810   6.575  69.150  1.00  0.00    -0.448 N  
HETATM    2  H2  UNL     1     -12.253   5.889  68.539  1.00  0.00     0.000 HD 
HETATM    3  H1  UNL     1     -12.223   6.970  69.995  1.00  0.00     0.000 HD 
HETATM    4  S   UNL     1     -10.286   7.236  68.927  1.00  0.00    -0.203 S  
HETATM    5  O   UNL     1     -10.473   8.656  69.101  1.00  0.00    -0.220 OA 
HETATM    6  O   UNL     1      -9.703   6.679  67.734  1.00  0.00    -0.122 OA 
ENDROOT
BRANCH   4   7
HETATM    7  C   UNL     1      -9.411   6.597  70.330  1.00  0.00    -0.159 A  
HETATM    8  C   UNL     1      -9.941   5.451  70.934  1.00  0.00    -0.265 A  
HETATM    9  C   UNL     1      -9.254   4.836  71.982  1.00  0.00    -0.136 A  
HETATM   10  C   UNL     1      -8.044   5.326  72.466  1.00  0.00    -0.103 A  
HETATM   11  C   UNL     1      -7.529   6.472  71.846  1.00  0.00    -0.092 A  
HETATM   12  N   UNL     1      -7.271   4.650  73.408  1.00  0.00    -0.078 NA 
HETATM   13  C   UNL     1      -8.199   7.145  70.792  1.00  0.00    -0.120 A  
HETATM   14  H   UNL     1      -6.269   4.822  73.480  1.00  0.00     0.000 HD 
HETATM   15  C   UNL     1      -7.921   3.702  74.280  1.00  0.00    -0.078 C  
HETATM   16  C   UNL     1      -7.532   8.399  70.267  1.00  0.00    -0.063 C  
HETATM   17  N   UNL     1      -8.613   2.706  73.490  1.00  0.00    -0.071 N  
HETATM   18  F   UNL     1      -6.263   8.143  69.838  1.00  0.00    -0.031 F  
HETATM   19  F   UNL     1      -7.393   9.330  71.255  1.00  0.00    -0.113 F  
HETATM   20  F   UNL     1      -8.129   9.048  69.240  1.00  0.00    -0.095 F  
HETATM   21  S   UNL     1      -9.920   3.371  72.678  1.00  0.00    -0.160 S  
HETATM   22  H   UNL     1      -8.342   1.724  73.435  1.00  0.00     0.000 HD 
HETATM   23  O   UNL     1     -10.878   3.765  73.688  1.00  0.00    -0.201 OA 
HETATM   24  O   UNL     1     -10.273   2.460  71.614  1.00  0.00    -0.092 OA 
ENDBRANCH   4   7
TORSDOF 1
ENDMDL
MODEL      185
REMARK 921   NORMALIZED FREE ENERGY PREDICTED BY IDOCK:   -2.39 KCAL/MOL
REMARK 922        TOTAL FREE ENERGY PREDICTED BY IDOCK:   -2.29 KCAL/MOL
REMARK 923 INTER-LIGAND FREE ENERGY PREDICTED BY IDOCK:   -3.12 KCAL/MOL
REMARK 924 INTRA-LIGAND FREE ENERGY PREDICTED BY IDOCK:    0.83 KCAL/MOL
REMARK 927      BINDING AFFINITY PREDICTED BY RF-SCORE:    0.00 PKD
ROOT
HETATM    1  N   UNL     1      -7.125   6.381  67.397  1.00  0.00    -0.075 N  
HETATM    2  H2  UNL     1      -7.380   6.661  66.451  1.00  0.00     0.000 HD 
HETATM    3  H1  UNL     1      -6.544   6.922  68.039  1.00  0.00     0.000 HD 
HETATM    4  S   UNL     1      -7.591   4.959  68.151  1.00  0.00    -0.082 S  
HETATM    5  O   UNL     1      -6.375   4.429  68.721  1.00  0.00    -0.031 OA 
HETATM    6  O   UNL     1      -8.410   4.195  67.245  1.00  0.00    -0.099 OA 
ENDROOT
BRANCH   4   7
HETATM    7  C   UNL     1      -8.620   5.568  69.459  1.00  0.00    -0.105 A  
HETATM    8  C   UNL     1      -8.198   5.301  70.767  1.00  0.00    -0.110 A  
HETATM    9  C   UNL     1      -8.905   5.831  71.848  1.00  0.00    -0.139 A  
HETATM   10  C   UNL     1     -10.037   6.624  71.678  1.00  0.00    -0.184 A  
HETATM   11  C   UNL     1     -10.441   6.881  70.361  1.00  0.00    -0.229 A  
HETATM   12  N   UNL     1     -10.671   7.281  72.731  1.00  0.00    -0.270 NA 
HETATM   13  C   UNL     1      -9.769   6.349  69.231  1.00  0.00    -0.150 A  
HETATM   14  H   UNL     1     -11.244   8.107  72.560  1.00  0.00     0.000 HD 
HETATM   15  C   UNL     1     -10.500   6.766  74.068  1.00  0.00    -0.272 C  
HETATM   16  C   UNL     1     -10.364   6.681  67.880  1.00  0.00    -0.189 C  
HETATM   17  N   UNL     1      -9.090   6.693  74.387  1.00  0.00    -0.180 N  
HETATM   18  F   UNL     1     -10.456   8.030  67.696  1.00  0.00    -0.253 F  
HETATM   19  F   UNL     1     -11.646   6.222  67.783  1.00  0.00    -0.323 F  
HETATM   20  F   UNL     1      -9.730   6.216  66.778  1.00  0.00    -0.146 F  
HETATM   21  S   UNL     1      -8.317   5.522  73.470  1.00  0.00    -0.112 S  
HETATM   22  H   UNL     1      -8.626   7.278  75.081  1.00  0.00     0.000 HD 
HETATM   23  O   UNL     1      -8.852   4.246  73.892  1.00  0.00    -0.097 OA 
HETATM   24  O   UNL     1      -6.900   5.803  73.521  1.00  0.00    -0.077 OA 
ENDBRANCH   4   7
TORSDOF 1
ENDMDL
MODEL      186
REMARK 921   NORMALIZED FREE ENERGY PREDICTED BY IDOCK:   -2.22 KCAL/MOL
REMARK 922        TOTAL FREE ENERGY PREDICTED BY IDOCK:   -2.11 KCAL/MOL
REMARK 923 INTER-LIGAND FREE ENERGY PREDICTED BY IDOCK:   -3.10 KCAL/MOL
REMARK 924 INTRA-LIGAND FREE ENERGY PREDICTED BY IDOCK:    0.99 KCAL/MOL
REMARK 927      BINDING AFFINITY PREDICTED BY RF-SCORE:    0.00 PKD
ROOT
HETATM    1  N   UNL     1      -6.165   5.410  68.042  1.00  0.00    -0.032 N  
HETATM    2  H2  UNL     1      -5.149   5.463  67.975  1.00  0.00     0.000 HD 
HETATM    3  H1  UNL     1      -6.713   5.575  68.887  1.00  0.00     0.000 HD 
HETATM    4  S   UNL     1      -7.205   5.038  66.782  1.00  0.00    -0.078 S  
HETATM    5  O   UNL     1      -8.100   4.044  67.325  1.00  0.00    -0.094 OA 
HETATM    6  O   UNL     1      -6.432   4.804  65.590  1.00  0.00    -0.038 OA 
ENDROOT
BRANCH   4   7
HETATM    7  C   UNL     1      -8.091   6.561  66.588  1.00  0.00    -0.110 A  
HETATM    8  C   UNL     1      -7.928   7.231  65.370  1.00  0.00    -0.125 A  
HETATM    9  C   UNL     1      -8.668   8.386  65.107  1.00  0.00    -0.083 A  
HETATM   10  C   UNL     1      -9.575   8.913  66.024  1.00  0.00    -0.250 A  
HETATM   11  C   UNL     1      -9.725   8.224  67.236  1.00  0.00    -0.234 A  
HETATM   12  N   UNL     1     -10.427   9.975  65.728  1.00  0.00    -0.107 NA 
HETATM   13  C   UNL     1      -8.981   7.060  67.558  1.00  0.00    -0.117 A  
HETATM   14  H   UNL     1     -11.294  10.107  66.248  1.00  0.00     0.000 HD 
HETATM   15  C   UNL     1     -10.055  10.882  64.670  1.00  0.00    -0.328 C  
HETATM   16  C   UNL     1      -9.225   6.467  68.929  1.00  0.00    -0.129 C  
HETATM   17  N   UNL     1      -9.839  10.143  63.445  1.00  0.00    -0.510 N  
HETATM   18  F   UNL     1     -10.543   6.167  69.112  1.00  0.00    -0.215 F  
HETATM   19  F   UNL     1      -8.927   7.366  69.911  1.00  0.00    -0.139 F  
HETATM   20  F   UNL     1      -8.556   5.337  69.258  1.00  0.00    -0.097 F  
HETATM   21  S   UNL     1      -8.480   9.170  63.550  1.00  0.00    -0.163 S  
HETATM   22  H   UNL     1     -10.438  10.207  62.621  1.00  0.00     0.000 HD 
HETATM   23  O   UNL     1      -7.341  10.058  63.644  1.00  0.00    -0.131 OA 
HETATM   24  O   UNL     1      -8.580   8.176  62.506  1.00  0.00    -0.119 OA 
ENDBRANCH   4   7
TORSDOF 1
ENDMDL
MODEL      187
REMARK 921   NORMALIZED FREE ENERGY PREDICTED BY IDOCK:   -2.15 KCAL/MOL
REMARK 922        TOTAL FREE ENERGY PREDICTED BY IDOCK:   -2.04 KCAL/MOL
REMARK 923 INTER-LIGAND FREE ENERGY PREDICTED BY IDOCK:   -2.90 KCAL/MOL
REMARK 924 INTRA-LIGAND FREE ENERGY PREDICTED BY IDOCK:    0.85 KCAL/MOL
REMARK 927      BINDING AFFINITY PREDICTED BY RF-SCORE:    0.00 PKD
ROOT
HETATM    1  N   UNL     1      -6.959   2.649  66.869  1.00  0.00    -0.048 N  
HETATM    2  H2  UNL     1      -6.487   2.367  66.010  1.00  0.00     0.000 HD 
HETATM    3  H1  UNL     1      -6.499   2.995  67.711  1.00  0.00     0.000 HD 
HETATM    4  S   UNL     1      -8.615   2.617  67.124  1.00  0.00    -0.117 S  
HETATM    5  O   UNL     1      -8.777   1.977  68.407  1.00  0.00    -0.069 OA 
HETATM    6  O   UNL     1      -9.263   2.128  65.935  1.00  0.00    -0.091 OA 
ENDROOT
BRANCH   4   7
HETATM    7  C   UNL     1      -8.983   4.343  67.294  1.00  0.00    -0.120 A  
HETATM    8  C   UNL     1      -9.558   4.747  68.504  1.00  0.00    -0.218 A  
HETATM    9  C   UNL     1      -9.787   6.103  68.748  1.00  0.00    -0.136 A  
HETATM   10  C   UNL     1      -9.468   7.089  67.818  1.00  0.00    -0.124 A  
HETATM   11  C   UNL     1      -8.891   6.663  66.613  1.00  0.00    -0.140 A  
HETATM   12  N   UNL     1      -9.552   8.452  68.094  1.00  0.00    -0.141 NA 
HETATM   13  C   UNL     1      -8.658   5.297  66.311  1.00  0.00    -0.116 A  
HETATM   14  H   UNL     1      -8.997   9.126  67.566  1.00  0.00     0.000 HD 
HETATM   15  C   UNL     1     -10.440   8.889  69.144  1.00  0.00    -0.223 C  
HETATM   16  C   UNL     1      -8.075   5.003  64.945  1.00  0.00    -0.112 C  
HETATM   17  N   UNL     1     -10.105   8.214  70.380  1.00  0.00    -0.192 N  
HETATM   18  F   UNL     1      -6.896   5.664  64.756  1.00  0.00    -0.045 F  
HETATM   19  F   UNL     1      -8.898   5.454  63.954  1.00  0.00    -0.115 F  
HETATM   20  F   UNL     1      -7.810   3.712  64.635  1.00  0.00    -0.080 F  
HETATM   21  S   UNL     1     -10.457   6.578  70.296  1.00  0.00    -0.230 S  
HETATM   22  H   UNL     1      -9.707   8.675  71.198  1.00  0.00     0.000 HD 
HETATM   23  O   UNL     1     -11.897   6.468  70.200  1.00  0.00    -0.416 OA 
HETATM   24  O   UNL     1      -9.718   5.924  71.352  1.00  0.00    -0.163 OA 
ENDBRANCH   4   7
TORSDOF 1
ENDMDL
MODEL      188
REMARK 921   NORMALIZED FREE ENERGY PREDICTED BY IDOCK:   -2.08 KCAL/MOL
REMARK 922        TOTAL FREE ENERGY PREDICTED BY IDOCK:   -1.96 KCAL/MOL
REMARK 923 INTER-LIGAND FREE ENERGY PREDICTED BY IDOCK:   -2.99 KCAL/MOL
REMARK 924 INTRA-LIGAND FREE ENERGY PREDICTED BY IDOCK:    1.03 KCAL/MOL
REMARK 927      BINDING AFFINITY PREDICTED BY RF-SCORE:    0.00 PKD
ROOT
HETATM    1  N   UNL     1     -11.836   6.591  69.118  1.00  0.00    -0.448 N  
HETATM    2  H2  UNL     1     -12.349   5.978  68.484  1.00  0.00     0.000 HD 
HETATM    3  H1  UNL     1     -12.192   6.963  69.998  1.00  0.00     0.000 HD 
HETATM    4  S   UNL     1     -10.274   7.148  68.882  1.00  0.00    -0.191 S  
HETATM    5  O   UNL     1     -10.345   8.565  69.144  1.00  0.00    -0.212 OA 
HETATM    6  O   UNL     1      -9.771   6.622  67.638  1.00  0.00    -0.122 OA 
ENDROOT
BRANCH   4   7
HETATM    7  C   UNL     1      -9.408   6.362  70.214  1.00  0.00    -0.158 A  
HETATM    8  C   UNL     1      -8.511   5.345  69.867  1.00  0.00    -0.103 A  
HETATM    9  C   UNL     1      -7.722   4.747  70.852  1.00  0.00    -0.073 A  
HETATM   10  C   UNL     1      -7.797   5.121  72.192  1.00  0.00    -0.108 A  
HETATM   11  C   UNL     1      -8.699   6.143  72.517  1.00  0.00    -0.121 A  
HETATM   12  N   UNL     1      -6.921   4.643  73.165  1.00  0.00    -0.070 NA 
HETATM   13  C   UNL     1      -9.536   6.766  71.556  1.00  0.00    -0.165 A  
HETATM   14  H   UNL     1      -6.756   5.171  74.021  1.00  0.00     0.000 HD 
HETATM   15  C   UNL     1      -6.255   3.384  72.934  1.00  0.00    -0.009 C  
HETATM   16  C   UNL     1     -10.492   7.816  72.081  1.00  0.00    -0.231 C  
HETATM   17  N   UNL     1      -5.528   3.438  71.684  1.00  0.00    -0.007 N  
HETATM   18  F   UNL     1      -9.826   8.808  72.740  1.00  0.00    -0.314 F  
HETATM   19  F   UNL     1     -11.343   7.285  73.006  1.00  0.00    -0.315 F  
HETATM   20  F   UNL     1     -11.283   8.454  71.187  1.00  0.00    -0.256 F  
HETATM   21  S   UNL     1      -6.570   3.515  70.374  1.00  0.00    -0.033 S  
HETATM   22  H   UNL     1      -4.510   3.430  71.609  1.00  0.00     0.000 HD 
HETATM   23  O   UNL     1      -7.275   2.252  70.331  1.00  0.00    -0.033 OA 
HETATM   24  O   UNL     1      -5.807   3.995  69.244  1.00  0.00    -0.020 OA 
ENDBRANCH   4   7
TORSDOF 1
ENDMDL
MODEL      189
REMARK 921   NORMALIZED FREE ENERGY PREDICTED BY IDOCK:   -2.04 KCAL/MOL
REMARK 922        TOTAL FREE ENERGY PREDICTED BY IDOCK:   -1.92 KCAL/MOL
REMARK 923 INTER-LIGAND FREE ENERGY PREDICTED BY IDOCK:   -2.28 KCAL/MOL
REMARK 924 INTRA-LIGAND FREE ENERGY PREDICTED BY IDOCK:    0.37 KCAL/MOL
REMARK 927      BINDING AFFINITY PREDICTED BY RF-SCORE:    0.00 PKD
ROOT
HETATM    1  N   UNL     1      -8.524   7.173  64.205  1.00  0.00    -0.346 N  
HETATM    2  H2  UNL     1      -9.400   7.470  63.777  1.00  0.00     0.000 HD 
HETATM    3  H1  UNL     1      -7.706   7.765  64.352  1.00  0.00     0.000 HD 
HETATM    4  S   UNL     1      -8.193   5.634  64.780  1.00  0.00    -0.126 S  
HETATM    5  O   UNL     1      -6.898   5.307  64.233  1.00  0.00    -0.045 OA 
HETATM    6  O   UNL     1      -9.347   4.798  64.572  1.00  0.00    -0.120 OA 
ENDROOT
BRANCH   4   7
HETATM    7  C   UNL     1      -8.022   5.931  66.519  1.00  0.00    -0.102 A  
HETATM    8  C   UNL     1      -7.881   7.265  66.918  1.00  0.00    -0.111 A  
HETATM    9  C   UNL     1      -7.839   7.584  68.277  1.00  0.00    -0.122 A  
HETATM   10  C   UNL     1      -7.925   6.613  69.272  1.00  0.00    -0.111 A  
HETATM   11  C   UNL     1      -8.069   5.284  68.850  1.00  0.00    -0.086 A  
HETATM   12  N   UNL     1      -8.031   6.918  70.627  1.00  0.00    -0.108 NA 
HETATM   13  C   UNL     1      -8.096   4.907  67.483  1.00  0.00    -0.102 A  
HETATM   14  H   UNL     1      -8.442   6.252  71.281  1.00  0.00     0.000 HD 
HETATM   15  C   UNL     1      -7.545   8.197  71.085  1.00  0.00    -0.082 C  
HETATM   16  C   UNL     1      -8.205   3.424  67.198  1.00  0.00    -0.091 C  
HETATM   17  N   UNL     1      -8.195   9.259  70.348  1.00  0.00    -0.160 N  
HETATM   18  F   UNL     1      -9.312   2.886  67.787  1.00  0.00    -0.188 F  
HETATM   19  F   UNL     1      -7.151   2.744  67.736  1.00  0.00    -0.046 F  
HETATM   20  F   UNL     1      -8.266   3.032  65.904  1.00  0.00    -0.084 F  
HETATM   21  S   UNL     1      -7.716   9.270  68.742  1.00  0.00    -0.084 S  
HETATM   22  H   UNL     1      -8.860   9.918  70.754  1.00  0.00     0.000 HD 
HETATM   23  O   UNL     1      -6.314   9.625  68.731  1.00  0.00    -0.046 OA 
HETATM   24  O   UNL     1      -8.697  10.035  68.006  1.00  0.00    -0.124 OA 
ENDBRANCH   4   7
TORSDOF 1
ENDMDL
MODEL      190
REMARK 921   NORMALIZED FREE ENERGY PREDICTED BY IDOCK:   -1.95 KCAL/MOL
REMARK 922        TOTAL FREE ENERGY PREDICTED BY IDOCK:   -1.82 KCAL/MOL
REMARK 923 INTER-LIGAND FREE ENERGY PREDICTED BY IDOCK:   -3.00 KCAL/MOL
REMARK 924 INTRA-LIGAND FREE ENERGY PREDICTED BY IDOCK:    1.18 KCAL/MOL
REMARK 927      BINDING AFFINITY PREDICTED BY RF-SCORE:    0.00 PKD
ROOT
HETATM    1  N   UNL     1      -7.151  10.369  63.760  1.00  0.00    -0.314 N  
HETATM    2  H2  UNL     1      -7.369  11.354  63.609  1.00  0.00     0.000 HD 
HETATM    3  H1  UNL     1      -6.373  10.013  64.315  1.00  0.00     0.000 HD 
HETATM    4  S   UNL     1      -8.015   9.076  63.136  1.00  0.00    -0.159 S  
HETATM    5  O   UNL     1      -7.013   8.198  62.581  1.00  0.00    -0.085 OA 
HETATM    6  O   UNL     1      -9.113   9.579  62.352  1.00  0.00    -0.264 OA 
ENDROOT
BRANCH   4   7
HETATM    7  C   UNL     1      -8.669   8.339  64.610  1.00  0.00     0.115 A  
HETATM    8  C   UNL     1      -8.529   6.952  64.735  1.00  0.00     0.100 A  
HETATM    9  C   UNL     1      -8.932   6.315  65.910  1.00  0.00    -0.109 A  
HETATM   10  C   UNL     1      -9.485   7.012  66.981  1.00  0.00    -0.149 A  
HETATM   11  C   UNL     1      -9.614   8.400  66.836  1.00  0.00    -0.264 A  
HETATM   12  N   UNL     1      -9.760   6.422  68.213  1.00  0.00    -0.126 NA 
HETATM   13  C   UNL     1      -9.239   9.090  65.655  1.00  0.00    -0.288 A  
HETATM   14  H   UNL     1      -9.816   6.987  69.060  1.00  0.00     0.000 HD 
HETATM   15  C   UNL     1      -9.963   4.994  68.264  1.00  0.00    -0.129 C  
HETATM   16  C   UNL     1      -9.491  10.583  65.642  1.00  0.00    -0.210 C  
HETATM   17  N   UNL     1      -8.813   4.317  67.703  1.00  0.00    -0.106 N  
HETATM   18  F   UNL     1      -8.867  11.200  66.686  1.00  0.00    -0.147 F  
HETATM   19  F   UNL     1     -10.818  10.856  65.810  1.00  0.00    -0.300 F  
HETATM   20  F   UNL     1      -9.116  11.277  64.543  1.00  0.00    -0.190 F  
HETATM   21  S   UNL     1      -8.691   4.584  66.054  1.00  0.00    -0.117 S  
HETATM   22  H   UNL     1      -8.161   3.748  68.244  1.00  0.00     0.000 HD 
HETATM   23  O   UNL     1      -9.830   3.933  65.443  1.00  0.00    -0.184 OA 
HETATM   24  O   UNL     1      -7.337   4.262  65.665  1.00  0.00    -0.074 OA 
ENDBRANCH   4   7
TORSDOF 1
ENDMDL
MODEL      191
REMARK 921   NORMALIZED FREE ENERGY PREDICTED BY IDOCK:   -1.93 KCAL/MOL
REMARK 922        TOTAL FREE ENERGY PREDICTED BY IDOCK:   -1.80 KCAL/MOL
REMARK 923 INTER-LIGAND FREE ENERGY PREDICTED BY IDOCK:   -2.65 KCAL/MOL
REMARK 924 INTRA-LIGAND FREE ENERGY PREDICTED BY IDOCK:    0.85 KCAL/MOL
REMARK 927      BINDING AFFINITY PREDICTED BY RF-SCORE:    0.00 PKD
ROOT
HETATM    1  N   UNL     1     -11.319   6.635  68.966  1.00  0.00    -0.576 N  
HETATM    2  H2  UNL     1     -11.660   6.363  68.045  1.00  0.00     0.000 HD 
HETATM    3  H1  UNL     1     -11.773   6.418  69.854  1.00  0.00     0.000 HD 
HETATM    4  S   UNL     1      -9.922   7.510  69.268  1.00  0.00    -0.183 S  
HETATM    5  O   UNL     1     -10.326   8.538  70.197  1.00  0.00    -0.198 OA 
HETATM    6  O   UNL     1      -9.281   7.817  68.016  1.00  0.00    -0.138 OA 
ENDROOT
BRANCH   4   7
HETATM    7  C   UNL     1      -8.932   6.318  70.128  1.00  0.00    -0.149 A  
HETATM    8  C   UNL     1      -8.535   6.651  71.429  1.00  0.00    -0.124 A  
HETATM    9  C   UNL     1      -7.836   5.722  72.202  1.00  0.00    -0.103 A  
HETATM   10  C   UNL     1      -7.504   4.457  71.724  1.00  0.00    -0.070 A  
HETATM   11  C   UNL     1      -7.913   4.143  70.421  1.00  0.00    -0.051 A  
HETATM   12  N   UNL     1      -6.937   3.466  72.523  1.00  0.00    -0.040 NA 
HETATM   13  C   UNL     1      -8.607   5.059  69.589  1.00  0.00    -0.099 A  
HETATM   14  H   UNL     1      -7.032   2.481  72.277  1.00  0.00     0.000 HD 
HETATM   15  C   UNL     1      -6.213   3.864  73.706  1.00  0.00    -0.024 C  
HETATM   16  C   UNL     1      -8.930   4.580  68.190  1.00  0.00    -0.116 C  
HETATM   17  N   UNL     1      -7.066   4.670  74.552  1.00  0.00    -0.068 N  
HETATM   18  F   UNL     1      -9.659   3.428  68.216  1.00  0.00    -0.224 F  
HETATM   19  F   UNL     1      -7.793   4.265  67.505  1.00  0.00    -0.084 F  
HETATM   20  F   UNL     1      -9.620   5.418  67.379  1.00  0.00    -0.116 F  
HETATM   21  S   UNL     1      -7.403   6.152  73.845  1.00  0.00    -0.087 S  
HETATM   22  H   UNL     1      -7.417   4.375  75.464  1.00  0.00     0.000 HD 
HETATM   23  O   UNL     1      -6.152   6.878  73.791  1.00  0.00    -0.062 OA 
HETATM   24  O   UNL     1      -8.564   6.694  74.514  1.00  0.00    -0.141 OA 
ENDBRANCH   4   7
TORSDOF 1
ENDMDL
MODEL      192
REMARK 921   NORMALIZED FREE ENERGY PREDICTED BY IDOCK:   -1.80 KCAL/MOL
REMARK 922        TOTAL FREE ENERGY PREDICTED BY IDOCK:   -1.67 KCAL/MOL
REMARK 923 INTER-LIGAND FREE ENERGY PREDICTED BY IDOCK:   -2.67 KCAL/MOL
REMARK 924 INTRA-LIGAND FREE ENERGY PREDICTED BY IDOCK:    1.00 KCAL/MOL
REMARK 927      BINDING AFFINITY PREDICTED BY RF-SCORE:    0.00 PKD
ROOT
HETATM    1  N   UNL     1      -9.454   8.546  71.882  1.00  0.00    -0.254 N  
HETATM    2  H2  UNL     1      -9.715   9.332  71.286  1.00  0.00     0.000 HD 
HETATM    3  H1  UNL     1     -10.015   8.171  72.647  1.00  0.00     0.000 HD 
HETATM    4  S   UNL     1      -8.036   7.662  71.761  1.00  0.00    -0.099 S  
HETATM    5  O   UNL     1      -7.536   7.582  73.113  1.00  0.00    -0.087 OA 
HETATM    6  O   UNL     1      -7.244   8.191  70.681  1.00  0.00    -0.050 OA 
ENDROOT
BRANCH   4   7
HETATM    7  C   UNL     1      -8.646   6.069  71.280  1.00  0.00    -0.129 A  
HETATM    8  C   UNL     1      -8.212   5.576  70.045  1.00  0.00    -0.104 A  
HETATM    9  C   UNL     1      -8.573   4.288  69.644  1.00  0.00    -0.072 A  
HETATM   10  C   UNL     1      -9.369   3.460  70.432  1.00  0.00    -0.170 A  
HETATM   11  C   UNL     1      -9.791   3.972  71.666  1.00  0.00    -0.253 A  
HETATM   12  N   UNL     1      -9.621   2.126  70.120  1.00  0.00    -0.057 NA 
HETATM   13  C   UNL     1      -9.468   5.281  72.109  1.00  0.00    -0.168 A  
HETATM   14  H   UNL     1      -9.884   1.461  70.848  1.00  0.00     0.000 HD 
HETATM   15  C   UNL     1      -9.503   1.705  68.745  1.00  0.00    -0.147 C  
HETATM   16  C   UNL     1     -10.046   5.698  73.444  1.00  0.00    -0.189 C  
HETATM   17  N   UNL     1      -8.182   2.025  68.247  1.00  0.00    -0.057 N  
HETATM   18  F   UNL     1      -9.679   4.835  74.435  1.00  0.00    -0.124 F  
HETATM   19  F   UNL     1     -11.410   5.654  73.422  1.00  0.00    -0.292 F  
HETATM   20  F   UNL     1      -9.732   6.929  73.912  1.00  0.00    -0.195 F  
HETATM   21  S   UNL     1      -7.965   3.682  68.115  1.00  0.00    -0.071 S  
HETATM   22  H   UNL     1      -7.474   1.332  68.007  1.00  0.00     0.000 HD 
HETATM   23  O   UNL     1      -8.865   4.136  67.077  1.00  0.00    -0.111 OA 
HETATM   24  O   UNL     1      -6.543   3.925  68.043  1.00  0.00    -0.040 OA 
ENDBRANCH   4   7
TORSDOF 1
ENDMDL
MODEL      193
REMARK 921   NORMALIZED FREE ENERGY PREDICTED BY IDOCK:   -1.71 KCAL/MOL
REMARK 922        TOTAL FREE ENERGY PREDICTED BY IDOCK:   -1.58 KCAL/MOL
REMARK 923 INTER-LIGAND FREE ENERGY PREDICTED BY IDOCK:   -3.11 KCAL/MOL
REMARK 924 INTRA-LIGAND FREE ENERGY PREDICTED BY IDOCK:    1.53 KCAL/MOL
REMARK 927      BINDING AFFINITY PREDICTED BY RF-SCORE:    0.00 PKD
ROOT
HETATM    1  N   UNL     1      -9.119   7.984  65.072  1.00  0.00    -0.286 N  
HETATM    2  H2  UNL     1      -9.738   7.589  64.365  1.00  0.00     0.000 HD 
HETATM    3  H1  UNL     1      -8.307   8.574  64.887  1.00  0.00     0.000 HD 
HETATM    4  S   UNL     1      -9.272   7.771  66.727  1.00  0.00    -0.172 S  
HETATM    5  O   UNL     1      -7.947   7.418  67.176  1.00  0.00    -0.110 OA 
HETATM    6  O   UNL     1     -10.418   6.939  66.989  1.00  0.00    -0.244 OA 
ENDROOT
BRANCH   4   7
HETATM    7  C   UNL     1      -9.640   9.419  67.268  1.00  0.00    -0.151 A  
HETATM    8  C   UNL     1     -10.644   9.554  68.234  1.00  0.00    -0.260 A  
HETATM    9  C   UNL     1     -10.921  10.810  68.777  1.00  0.00    -0.247 A  
HETATM   10  C   UNL     1     -10.234  11.957  68.388  1.00  0.00    -0.204 A  
HETATM   11  C   UNL     1      -9.232  11.799  67.421  1.00  0.00    -0.174 A  
HETATM   12  N   UNL     1     -10.393  13.190  69.017  1.00  0.00    -0.436 NA 
HETATM   13  C   UNL     1      -8.927  10.549  66.824  1.00  0.00    -0.149 A  
HETATM   14  H   UNL     1      -9.659  13.896  68.972  1.00  0.00     0.000 HD 
HETATM   15  C   UNL     1     -11.618  13.445  69.735  1.00  0.00    -0.235 C  
HETATM   16  C   UNL     1      -7.851  10.560  65.759  1.00  0.00    -0.154 C  
HETATM   17  N   UNL     1     -11.822  12.417  70.734  1.00  0.00    -0.394 N  
HETATM   18  F   UNL     1      -6.682  11.072  66.241  1.00  0.00    -0.118 F  
HETATM   19  F   UNL     1      -8.197  11.377  64.722  1.00  0.00     0.183 F  
HETATM   20  F   UNL     1      -7.512   9.379  65.191  1.00  0.00    -0.096 F  
HETATM   21  S   UNL     1     -12.147  10.934  70.025  1.00  0.00    -0.367 S  
HETATM   22  H   UNL     1     -11.776  12.575  71.740  1.00  0.00     0.000 HD 
HETATM   23  O   UNL     1     -13.429  11.061  69.366  1.00  0.00     0.824 OA 
HETATM   24  O   UNL     1     -11.907   9.918  71.025  1.00  0.00    -0.317 OA 
ENDBRANCH   4   7
TORSDOF 1
ENDMDL
MODEL      194
REMARK 921   NORMALIZED FREE ENERGY PREDICTED BY IDOCK:   -1.56 KCAL/MOL
REMARK 922        TOTAL FREE ENERGY PREDICTED BY IDOCK:   -1.42 KCAL/MOL
REMARK 923 INTER-LIGAND FREE ENERGY PREDICTED BY IDOCK:   -2.46 KCAL/MOL
REMARK 924 INTRA-LIGAND FREE ENERGY PREDICTED BY IDOCK:    1.05 KCAL/MOL
REMARK 927      BINDING AFFINITY PREDICTED BY RF-SCORE:    0.00 PKD
ROOT
HETATM    1  N   UNL     1     -10.199  13.151  69.265  1.00  0.00    -0.332 N  
HETATM    2  H2  UNL     1     -11.054  13.672  69.075  1.00  0.00     0.000 HD 
HETATM    3  H1  UNL     1     -10.041  12.545  70.071  1.00  0.00     0.000 HD 
HETATM    4  S   UNL     1      -8.825  13.150  68.304  1.00  0.00    -0.142 S  
HETATM    5  O   UNL     1      -7.733  13.363  69.224  1.00  0.00     0.168 OA 
HETATM    6  O   UNL     1      -9.048  14.006  67.167  1.00  0.00    -0.212 OA 
ENDROOT
BRANCH   4   7
HETATM    7  C   UNL     1      -8.782  11.470  67.742  1.00  0.00    -0.142 A  
HETATM    8  C   UNL     1      -7.575  10.782  67.908  1.00  0.00    -0.091 A  
HETATM    9  C   UNL     1      -7.495   9.428  67.578  1.00  0.00    -0.091 A  
HETATM   10  C   UNL     1      -8.583   8.719  67.076  1.00  0.00    -0.116 A  
HETATM   11  C   UNL     1      -9.784   9.426  66.920  1.00  0.00    -0.242 A  
HETATM   12  N   UNL     1      -8.568   7.340  66.877  1.00  0.00    -0.121 NA 
HETATM   13  C   UNL     1      -9.910  10.807  67.221  1.00  0.00    -0.208 A  
HETATM   14  H   UNL     1      -9.437   6.807  66.860  1.00  0.00     0.000 HD 
HETATM   15  C   UNL     1      -7.296   6.684  66.696  1.00  0.00    -0.078 C  
HETATM   16  C   UNL     1     -11.262  11.431  66.948  1.00  0.00    -0.264 C  
HETATM   17  N   UNL     1      -6.433   6.971  67.823  1.00  0.00    -0.049 N  
HETATM   18  F   UNL     1     -12.254  10.779  67.620  1.00  0.00     0.048 F  
HETATM   19  F   UNL     1     -11.594  11.320  65.629  1.00  0.00    -0.185 F  
HETATM   20  F   UNL     1     -11.426  12.739  67.253  1.00  0.00    -0.294 F  
HETATM   21  S   UNL     1      -5.982   8.584  67.850  1.00  0.00    -0.048 S  
HETATM   22  H   UNL     1      -6.137   6.279  68.511  1.00  0.00     0.000 HD 
HETATM   23  O   UNL     1      -5.147   8.800  66.688  1.00  0.00    -0.033 OA 
HETATM   24  O   UNL     1      -5.511   8.876  69.185  1.00  0.00    -0.035 OA 
ENDBRANCH   4   7
TORSDOF 1
ENDMDL
MODEL      195
REMARK 921   NORMALIZED FREE ENERGY PREDICTED BY IDOCK:   -1.56 KCAL/MOL
REMARK 922        TOTAL FREE ENERGY PREDICTED BY IDOCK:   -1.41 KCAL/MOL
REMARK 923 INTER-LIGAND FREE ENERGY PREDICTED BY IDOCK:   -2.40 KCAL/MOL
REMARK 924 INTRA-LIGAND FREE ENERGY PREDICTED BY IDOCK:    0.99 KCAL/MOL
REMARK 927      BINDING AFFINITY PREDICTED BY RF-SCORE:    0.00 PKD
ROOT
HETATM    1  N   UNL     1     -10.564   8.556  70.182  1.00  0.00    -0.228 N  
HETATM    2  H2  UNL     1     -11.114   9.287  69.732  1.00  0.00     0.000 HD 
HETATM    3  H1  UNL     1     -10.930   7.841  70.812  1.00  0.00     0.000 HD 
HETATM    4  S   UNL     1      -8.912   8.335  70.008  1.00  0.00    -0.143 S  
HETATM    5  O   UNL     1      -8.419   8.170  71.354  1.00  0.00    -0.109 OA 
HETATM    6  O   UNL     1      -8.395   9.344  69.120  1.00  0.00    -0.116 OA 
ENDROOT
BRANCH   4   7
HETATM    7  C   UNL     1      -8.846   6.770  69.178  1.00  0.00    -0.134 A  
HETATM    8  C   UNL     1      -8.339   6.771  67.873  1.00  0.00    -0.120 A  
HETATM    9  C   UNL     1      -8.167   5.564  67.193  1.00  0.00    -0.101 A  
HETATM   10  C   UNL     1      -8.489   4.336  67.765  1.00  0.00    -0.098 A  
HETATM   11  C   UNL     1      -8.992   4.357  69.073  1.00  0.00    -0.154 A  
HETATM   12  N   UNL     1      -8.192   3.115  67.163  1.00  0.00    -0.082 NA 
HETATM   13  C   UNL     1      -9.205   5.558  69.798  1.00  0.00    -0.168 A  
HETATM   14  H   UNL     1      -8.102   2.267  67.722  1.00  0.00     0.000 HD 
HETATM   15  C   UNL     1      -8.014   3.077  65.732  1.00  0.00    -0.086 C  
HETATM   16  C   UNL     1      -9.803   5.408  71.180  1.00  0.00    -0.185 C  
HETATM   17  N   UNL     1      -6.983   4.016  65.343  1.00  0.00    -0.060 N  
HETATM   18  F   UNL     1      -9.041   4.593  71.965  1.00  0.00    -0.128 F  
HETATM   19  F   UNL     1     -11.025   4.804  71.122  1.00  0.00    -0.098 F  
HETATM   20  F   UNL     1      -9.990   6.532  71.912  1.00  0.00    -0.178 F  
HETATM   21  S   UNL     1      -7.479   5.598  65.581  1.00  0.00    -0.075 S  
HETATM   22  H   UNL     1      -6.072   3.748  64.970  1.00  0.00     0.000 HD 
HETATM   23  O   UNL     1      -8.560   5.838  64.650  1.00  0.00    -0.106 OA 
HETATM   24  O   UNL     1      -6.292   6.424  65.591  1.00  0.00    -0.036 OA 
ENDBRANCH   4   7
TORSDOF 1
ENDMDL
MODEL      196
REMARK 921   NORMALIZED FREE ENERGY PREDICTED BY IDOCK:   -1.46 KCAL/MOL
REMARK 922        TOTAL FREE ENERGY PREDICTED BY IDOCK:   -1.31 KCAL/MOL
REMARK 923 INTER-LIGAND FREE ENERGY PREDICTED BY IDOCK:   -2.47 KCAL/MOL
REMARK 924 INTRA-LIGAND FREE ENERGY PREDICTED BY IDOCK:    1.16 KCAL/MOL
REMARK 927      BINDING AFFINITY PREDICTED BY RF-SCORE:    0.00 PKD
ROOT
HETATM    1  N   UNL     1      -8.880   9.423  65.850  1.00  0.00    -0.152 N  
HETATM    2  H2  UNL     1      -8.214   8.651  65.838  1.00  0.00     0.000 HD 
HETATM    3  H1  UNL     1      -9.628   9.549  66.532  1.00  0.00     0.000 HD 
HETATM    4  S   UNL     1      -8.922  10.690  64.754  1.00  0.00    -0.188 S  
HETATM    5  O   UNL     1     -10.308  10.794  64.365  1.00  0.00    -0.353 OA 
HETATM    6  O   UNL     1      -7.866  10.511  63.790  1.00  0.00    -0.105 OA 
ENDROOT
BRANCH   4   7
HETATM    7  C   UNL     1      -8.511  12.071  65.786  1.00  0.00     0.502 A  
HETATM    8  C   UNL     1      -9.330  13.200  65.680  1.00  0.00     0.216 A  
HETATM    9  C   UNL     1      -9.127  14.289  66.530  1.00  0.00    -0.185 A  
HETATM   10  C   UNL     1      -8.121  14.303  67.493  1.00  0.00    -0.187 A  
HETATM   11  C   UNL     1      -7.314  13.161  67.584  1.00  0.00    -0.155 A  
HETATM   12  N   UNL     1      -7.992  15.313  68.445  1.00  0.00    -0.127 NA 
HETATM   13  C   UNL     1      -7.467  12.039  66.730  1.00  0.00     0.023 A  
HETATM   14  H   UNL     1      -7.508  15.139  69.325  1.00  0.00     0.000 HD 
HETATM   15  C   UNL     1      -8.557  16.608  68.156  1.00  0.00    -0.200 C  
HETATM   16  C   UNL     1      -6.480  10.908  66.926  1.00  0.00    -0.097 C  
HETATM   17  N   UNL     1      -9.966  16.471  67.857  1.00  0.00    -0.240 N  
HETATM   18  F   UNL     1      -6.505  10.445  68.209  1.00  0.00    -0.057 F  
HETATM   19  F   UNL     1      -5.199  11.336  66.728  1.00  0.00    -0.053 F  
HETATM   20  F   UNL     1      -6.617   9.808  66.149  1.00  0.00    -0.072 F  
HETATM   21  S   UNL     1     -10.206  15.666  66.407  1.00  0.00    -0.305 S  
HETATM   22  H   UNL     1     -10.718  16.820  68.451  1.00  0.00     0.000 HD 
HETATM   23  O   UNL     1      -9.695  16.529  65.364  1.00  0.00    -0.496 OA 
HETATM   24  O   UNL     1     -11.573  15.195  66.398  1.00  0.00    -0.240 OA 
ENDBRANCH   4   7
TORSDOF 1
ENDMDL
MODEL      197
REMARK 921   NORMALIZED FREE ENERGY PREDICTED BY IDOCK:   -1.42 KCAL/MOL
REMARK 922        TOTAL FREE ENERGY PREDICTED BY IDOCK:   -1.26 KCAL/MOL
REMARK 923 INTER-LIGAND FREE ENERGY PREDICTED BY IDOCK:   -2.25 KCAL/MOL
REMARK 924 INTRA-LIGAND FREE ENERGY PREDICTED BY IDOCK:    0.99 KCAL/MOL
REMARK 927      BINDING AFFINITY PREDICTED BY RF-SCORE:    0.00 PKD
ROOT
HETATM    1  N   UNL     1      -8.012   7.903  65.507  1.00  0.00    -0.112 N  
HETATM    2  H2  UNL     1      -7.666   8.785  65.130  1.00  0.00     0.000 HD 
HETATM    3  H1  UNL     1      -7.661   6.977  65.263  1.00  0.00     0.000 HD 
HETATM    4  S   UNL     1      -9.247   7.742  66.628  1.00  0.00    -0.186 S  
HETATM    5  O   UNL     1     -10.103   6.714  66.086  1.00  0.00     0.051 OA 
HETATM    6  O   UNL     1      -9.742   9.050  66.971  1.00  0.00    -0.163 OA 
ENDROOT
BRANCH   4   7
HETATM    7  C   UNL     1      -8.378   7.086  68.026  1.00  0.00    -0.119 A  
HETATM    8  C   UNL     1      -8.349   7.881  69.178  1.00  0.00    -0.133 A  
HETATM    9  C   UNL     1      -7.767   7.389  70.348  1.00  0.00    -0.093 A  
HETATM   10  C   UNL     1      -7.198   6.120  70.419  1.00  0.00    -0.086 A  
HETATM   11  C   UNL     1      -7.241   5.339  69.256  1.00  0.00    -0.057 A  
HETATM   12  N   UNL     1      -6.744   5.554  71.609  1.00  0.00    -0.055 NA 
HETATM   13  C   UNL     1      -7.802   5.802  68.037  1.00  0.00    -0.100 A  
HETATM   14  H   UNL     1      -6.673   4.542  71.711  1.00  0.00     0.000 HD 
HETATM   15  C   UNL     1      -6.377   6.433  72.693  1.00  0.00    -0.058 C  
HETATM   16  C   UNL     1      -7.721   4.852  66.861  1.00  0.00    -0.092 C  
HETATM   17  N   UNL     1      -7.491   7.298  73.020  1.00  0.00    -0.072 N  
HETATM   18  F   UNL     1      -8.310   3.656  67.147  1.00  0.00    -0.094 F  
HETATM   19  F   UNL     1      -6.424   4.548  66.565  1.00  0.00    -0.036 F  
HETATM   20  F   UNL     1      -8.275   5.249  65.690  1.00  0.00    -0.107 F  
HETATM   21  S   UNL     1      -7.797   8.390  71.787  1.00  0.00    -0.123 S  
HETATM   22  H   UNL     1      -8.021   7.249  73.890  1.00  0.00     0.000 HD 
HETATM   23  O   UNL     1      -6.654   9.276  71.725  1.00  0.00    -0.266 OA 
HETATM   24  O   UNL     1      -9.136   8.896  71.983  1.00  0.00    -0.353 OA 
ENDBRANCH   4   7
TORSDOF 1
ENDMDL
MODEL      198
REMARK 921   NORMALIZED FREE ENERGY PREDICTED BY IDOCK:   -1.35 KCAL/MOL
REMARK 922        TOTAL FREE ENERGY PREDICTED BY IDOCK:   -1.19 KCAL/MOL
REMARK 923 INTER-LIGAND FREE ENERGY PREDICTED BY IDOCK:   -2.06 KCAL/MOL
REMARK 924 INTRA-LIGAND FREE ENERGY PREDICTED BY IDOCK:    0.87 KCAL/MOL
REMARK 927      BINDING AFFINITY PREDICTED BY RF-SCORE:    0.00 PKD
ROOT
HETATM    1  N   UNL     1      -7.187   7.703  65.711  1.00  0.00    -0.064 N  
HETATM    2  H2  UNL     1      -6.941   8.413  65.020  1.00  0.00     0.000 HD 
HETATM    3  H1  UNL     1      -6.574   6.955  66.035  1.00  0.00     0.000 HD 
HETATM    4  S   UNL     1      -8.663   7.579  66.495  1.00  0.00    -0.146 S  
HETATM    5  O   UNL     1      -9.023   6.186  66.381  1.00  0.00    -0.141 OA 
HETATM    6  O   UNL     1      -9.528   8.635  66.036  1.00  0.00    -0.225 OA 
ENDROOT
BRANCH   4   7
HETATM    7  C   UNL     1      -8.206   7.918  68.174  1.00  0.00    -0.123 A  
HETATM    8  C   UNL     1      -8.259   6.843  69.069  1.00  0.00    -0.125 A  
HETATM    9  C   UNL     1      -7.822   7.011  70.384  1.00  0.00    -0.108 A  
HETATM   10  C   UNL     1      -7.331   8.226  70.855  1.00  0.00    -0.059 A  
HETATM   11  C   UNL     1      -7.283   9.288  69.941  1.00  0.00    -0.071 A  
HETATM   12  N   UNL     1      -6.756   8.379  72.115  1.00  0.00    -0.081 NA 
HETATM   13  C   UNL     1      -7.735   9.173  68.601  1.00  0.00    -0.092 A  
HETATM   14  H   UNL     1      -6.103   9.139  72.301  1.00  0.00     0.000 HD 
HETATM   15  C   UNL     1      -7.107   7.437  73.150  1.00  0.00    -0.073 C  
HETATM   16  C   UNL     1      -7.662  10.430  67.760  1.00  0.00    -0.089 C  
HETATM   17  N   UNL     1      -6.823   6.090  72.703  1.00  0.00    -0.073 N  
HETATM   18  F   UNL     1      -6.391  10.924  67.716  1.00  0.00    -0.058 F  
HETATM   19  F   UNL     1      -8.413  11.430  68.307  1.00  0.00    -0.126 F  
HETATM   20  F   UNL     1      -8.055  10.348  66.467  1.00  0.00    -0.111 F  
HETATM   21  S   UNL     1      -7.852   5.630  71.463  1.00  0.00    -0.113 S  
HETATM   22  H   UNL     1      -6.091   5.497  73.093  1.00  0.00     0.000 HD 
HETATM   23  O   UNL     1      -9.179   5.551  72.034  1.00  0.00    -0.140 OA 
HETATM   24  O   UNL     1      -7.246   4.498  70.799  1.00  0.00    -0.040 OA 
ENDBRANCH   4   7
TORSDOF 1
ENDMDL
MODEL      199
REMARK 921   NORMALIZED FREE ENERGY PREDICTED BY IDOCK:   -0.94 KCAL/MOL
REMARK 922        TOTAL FREE ENERGY PREDICTED BY IDOCK:   -0.76 KCAL/MOL
REMARK 923 INTER-LIGAND FREE ENERGY PREDICTED BY IDOCK:   -1.60 KCAL/MOL
REMARK 924 INTRA-LIGAND FREE ENERGY PREDICTED BY IDOCK:    0.84 KCAL/MOL
REMARK 927      BINDING AFFINITY PREDICTED BY RF-SCORE:    0.00 PKD
ROOT
HETATM    1  N   UNL     1      -7.105   4.924  73.319  1.00  0.00    -0.078 N  
HETATM    2  H2  UNL     1      -7.406   4.749  74.277  1.00  0.00     0.000 HD 
HETATM    3  H1  UNL     1      -6.359   4.427  72.832  1.00  0.00     0.000 HD 
HETATM    4  S   UNL     1      -7.757   6.074  72.289  1.00  0.00    -0.102 S  
HETATM    5  O   UNL     1      -6.615   6.757  71.731  1.00  0.00    -0.049 OA 
HETATM    6  O   UNL     1      -8.810   6.776  72.977  1.00  0.00    -0.127 OA 
ENDROOT
BRANCH   4   7
HETATM    7  C   UNL     1      -8.487   5.058  71.034  1.00  0.00    -0.118 A  
HETATM    8  C   UNL     1      -7.898   5.105  69.766  1.00  0.00    -0.072 A  
HETATM    9  C   UNL     1      -8.358   4.260  68.753  1.00  0.00    -0.083 A  
HETATM   10  C   UNL     1      -9.402   3.361  68.953  1.00  0.00    -0.168 A  
HETATM   11  C   UNL     1      -9.976   3.328  70.231  1.00  0.00     0.248 A  
HETATM   12  N   UNL     1      -9.780   2.411  68.006  1.00  0.00    -0.278 NA 
HETATM   13  C   UNL     1      -9.559   4.180  71.286  1.00  0.00    -0.242 A  
HETATM   14  H   UNL     1     -10.272   1.563  68.287  1.00  0.00     0.000 HD 
HETATM   15  C   UNL     1      -9.461   2.654  66.620  1.00  0.00     0.100 C  
HETATM   16  C   UNL     1     -10.318   4.054  72.589  1.00  0.00    -0.158 C  
HETATM   17  N   UNL     1      -8.036   2.868  66.477  1.00  0.00    -0.081 N  
HETATM   18  F   UNL     1     -10.279   2.775  73.064  1.00  0.00    -0.164 F  
HETATM   19  F   UNL     1     -11.643   4.326  72.412  1.00  0.00     0.126 F  
HETATM   20  F   UNL     1      -9.925   4.829  73.627  1.00  0.00    -0.144 F  
HETATM   21  S   UNL     1      -7.560   4.306  67.192  1.00  0.00    -0.078 S  
HETATM   22  H   UNL     1      -7.403   2.225  66.001  1.00  0.00     0.000 HD 
HETATM   23  O   UNL     1      -8.167   5.372  66.424  1.00  0.00    -0.108 OA 
HETATM   24  O   UNL     1      -6.130   4.236  67.390  1.00  0.00    -0.029 OA 
ENDBRANCH   4   7
TORSDOF 1
ENDMDL
MODEL      200
REMARK 921   NORMALIZED FREE ENERGY PREDICTED BY IDOCK:   -0.45 KCAL/MOL
REMARK 922        TOTAL FREE ENERGY PREDICTED BY IDOCK:   -0.24 KCAL/MOL
REMARK 923 INTER-LIGAND FREE ENERGY PREDICTED BY IDOCK:   -1.44 KCAL/MOL
REMARK 924 INTRA-LIGAND FREE ENERGY PREDICTED BY IDOCK:    1.20 KCAL/MOL
REMARK 927      BINDING AFFINITY PREDICTED BY RF-SCORE:    0.00 PKD
ROOT
HETATM    1  N   UNL     1      -5.330  15.659  69.092  1.00  0.00    -0.100 N  
HETATM    2  H2  UNL     1      -5.141  16.539  69.570  1.00  0.00     0.000 HD 
HETATM    3  H1  UNL     1      -5.135  14.729  69.465  1.00  0.00     0.000 HD 
HETATM    4  S   UNL     1      -6.010  15.504  67.568  1.00  0.00     0.006 S  
HETATM    5  O   UNL     1      -5.160  14.562  66.880  1.00  0.00     0.447 OA 
HETATM    6  O   UNL     1      -6.284  16.817  67.042  1.00  0.00    -0.158 OA 
ENDROOT
BRANCH   4   7
HETATM    7  C   UNL     1      -7.553  14.717  67.943  1.00  0.00    -0.142 A  
HETATM    8  C   UNL     1      -8.691  15.531  67.941  1.00  0.00    -0.163 A  
HETATM    9  C   UNL     1      -9.953  14.964  68.132  1.00  0.00    -0.222 A  
HETATM   10  C   UNL     1     -10.130  13.597  68.335  1.00  0.00    -0.241 A  
HETATM   11  C   UNL     1      -8.978  12.800  68.331  1.00  0.00    -0.120 A  
HETATM   12  N   UNL     1     -11.384  12.991  68.383  1.00  0.00    -0.270 NA 
HETATM   13  C   UNL     1      -7.673  13.331  68.162  1.00  0.00    -0.143 A  
HETATM   14  H   UNL     1     -11.492  11.999  68.174  1.00  0.00     0.000 HD 
HETATM   15  C   UNL     1     -12.527  13.799  68.735  1.00  0.00     0.233 C  
HETATM   16  C   UNL     1      -6.532  12.339  68.234  1.00  0.00    -0.056 C  
HETATM   17  N   UNL     1     -12.623  14.928  67.834  1.00  0.00    -0.082 N  
HETATM   18  F   UNL     1      -6.683  11.342  67.316  1.00  0.00    -0.075 F  
HETATM   19  F   UNL     1      -6.507  11.708  69.444  1.00  0.00    -0.072 F  
HETATM   20  F   UNL     1      -5.276  12.807  68.045  1.00  0.00    -0.061 F  
HETATM   21  S   UNL     1     -11.362  16.005  68.069  1.00  0.00    -0.200 S  
HETATM   22  H   UNL     1     -13.365  15.053  67.145  1.00  0.00     0.000 HD 
HETATM   23  O   UNL     1     -11.543  16.574  69.387  1.00  0.00    -0.141 OA 
HETATM   24  O   UNL     1     -11.281  16.837  66.890  1.00  0.00     0.124 OA 
ENDBRANCH   4   7
TORSDOF 1
ENDMDL
MODEL      201
REMARK 921   NORMALIZED FREE ENERGY PREDICTED BY IDOCK:   -0.29 KCAL/MOL
REMARK 922        TOTAL FREE ENERGY PREDICTED BY IDOCK:   -0.07 KCAL/MOL
REMARK 923 INTER-LIGAND FREE ENERGY PREDICTED BY IDOCK:   -1.48 KCAL/MOL
REMARK 924 INTRA-LIGAND FREE ENERGY PREDICTED BY IDOCK:    1.41 KCAL/MOL
REMARK 927      BINDING AFFINITY PREDICTED BY RF-SCORE:    0.00 PKD
ROOT
HETATM    1  N   UNL     1      -5.524   2.195  66.988  1.00  0.00    -0.016 N  
HETATM    2  H2  UNL     1      -4.542   2.344  66.760  1.00  0.00     0.000 HD 
HETATM    3  H1  UNL     1      -5.874   1.741  67.832  1.00  0.00     0.000 HD 
HETATM    4  S   UNL     1      -6.825   2.657  66.038  1.00  0.00    -0.048 S  
HETATM    5  O   UNL     1      -7.676   1.492  65.988  1.00  0.00    -0.064 OA 
HETATM    6  O   UNL     1      -6.331   3.298  64.847  1.00  0.00    -0.023 OA 
ENDROOT
BRANCH   4   7
HETATM    7  C   UNL     1      -7.595   3.885  67.058  1.00  0.00    -0.080 A  
HETATM    8  C   UNL     1      -7.607   3.641  68.436  1.00  0.00    -0.057 A  
HETATM    9  C   UNL     1      -8.108   4.609  69.309  1.00  0.00    -0.069 A  
HETATM   10  C   UNL     1      -8.614   5.826  68.859  1.00  0.00    -0.106 A  
HETATM   11  C   UNL     1      -8.590   6.051  67.476  1.00  0.00    -0.106 A  
HETATM   12  N   UNL     1      -8.984   6.860  69.717  1.00  0.00    -0.141 NA 
HETATM   13  C   UNL     1      -8.110   5.092  66.547  1.00  0.00    -0.108 A  
HETATM   14  H   UNL     1      -9.003   7.826  69.390  1.00  0.00     0.000 HD 
HETATM   15  C   UNL     1      -9.339   6.534  71.077  1.00  0.00    -0.160 C  
HETATM   16  C   UNL     1      -8.202   5.472  65.085  1.00  0.00    -0.141 C  
HETATM   17  N   UNL     1      -8.253   5.814  71.707  1.00  0.00    -0.118 N  
HETATM   18  F   UNL     1      -7.545   6.641  64.834  1.00  0.00    -0.076 F  
HETATM   19  F   UNL     1      -9.496   5.707  64.720  1.00  0.00     0.108 F  
HETATM   20  F   UNL     1      -7.724   4.594  64.173  1.00  0.00    -0.070 F  
HETATM   21  S   UNL     1      -8.057   4.293  71.033  1.00  0.00    -0.073 S  
HETATM   22  H   UNL     1      -7.680   6.185  72.465  1.00  0.00     0.000 HD 
HETATM   23  O   UNL     1      -9.242   3.534  71.373  1.00  0.00    -0.106 OA 
HETATM   24  O   UNL     1      -6.735   3.831  71.390  1.00  0.00    -0.025 OA 
ENDBRANCH   4   7
TORSDOF 1
ENDMDL
MODEL      202
REMARK 921   NORMALIZED FREE ENERGY PREDICTED BY IDOCK:    0.08 KCAL/MOL
REMARK 922        TOTAL FREE ENERGY PREDICTED BY IDOCK:    0.32 KCAL/MOL
REMARK 923 INTER-LIGAND FREE ENERGY PREDICTED BY IDOCK:   -1.68 KCAL/MOL
REMARK 924 INTRA-LIGAND FREE ENERGY PREDICTED BY IDOCK:    2.00 KCAL/MOL
REMARK 927      BINDING AFFINITY PREDICTED BY RF-SCORE:    0.00 PKD
ROOT
HETATM    1  N   UNL     1      -9.798   4.555  66.538  1.00  0.00    -0.209 N  
HETATM    2  H2  UNL     1     -10.744   4.820  66.267  1.00  0.00     0.000 HD 
HETATM    3  H1  UNL     1      -9.007   4.449  65.902  1.00  0.00     0.000 HD 
HETATM    4  S   UNL     1      -9.290   4.226  68.100  1.00  0.00    -0.157 S  
HETATM    5  O   UNL     1      -8.550   2.991  67.993  1.00  0.00    -0.083 OA 
HETATM    6  O   UNL     1     -10.406   4.376  68.998  1.00  0.00     0.085 OA 
ENDROOT
BRANCH   4   7
HETATM    7  C   UNL     1      -8.152   5.552  68.394  1.00  0.00    -0.099 A  
HETATM    8  C   UNL     1      -8.707   6.807  68.671  1.00  0.00    -0.125 A  
HETATM    9  C   UNL     1      -7.875   7.877  69.008  1.00  0.00    -0.110 A  
HETATM   10  C   UNL     1      -6.490   7.749  69.075  1.00  0.00    -0.037 A  
HETATM   11  C   UNL     1      -5.955   6.484  68.797  1.00  0.00    -0.022 A  
HETATM   12  N   UNL     1      -5.654   8.759  69.547  1.00  0.00    -0.034 NA 
HETATM   13  C   UNL     1      -6.756   5.372  68.430  1.00  0.00    -0.054 A  
HETATM   14  H   UNL     1      -4.730   8.539  69.920  1.00  0.00     0.000 HD 
HETATM   15  C   UNL     1      -6.124  10.122  69.498  1.00  0.00    -0.043 C  
HETATM   16  C   UNL     1      -6.016   4.090  68.112  1.00  0.00    -0.027 C  
HETATM   17  N   UNL     1      -7.382  10.231  70.206  1.00  0.00    -0.244 N  
HETATM   18  F   UNL     1      -5.235   3.695  69.158  1.00  0.00    -0.009 F  
HETATM   19  F   UNL     1      -5.153   4.268  67.071  1.00  0.00    -0.006 F  
HETATM   20  F   UNL     1      -6.752   3.000  67.789  1.00  0.00    -0.040 F  
HETATM   21  S   UNL     1      -8.607   9.420  69.402  1.00  0.00    -0.160 S  
HETATM   22  H   UNL     1      -7.506  10.737  71.083  1.00  0.00     0.000 HD 
HETATM   23  O   UNL     1      -8.827  10.129  68.159  1.00  0.00    -0.124 OA 
HETATM   24  O   UNL     1      -9.677   9.207  70.350  1.00  0.00    -0.188 OA 
ENDBRANCH   4   7
TORSDOF 1
ENDMDL
MODEL      203
REMARK 921   NORMALIZED FREE ENERGY PREDICTED BY IDOCK:    0.67 KCAL/MOL
REMARK 922        TOTAL FREE ENERGY PREDICTED BY IDOCK:    0.95 KCAL/MOL
REMARK 923 INTER-LIGAND FREE ENERGY PREDICTED BY IDOCK:   -0.90 KCAL/MOL
REMARK 924 INTRA-LIGAND FREE ENERGY PREDICTED BY IDOCK:    1.84 KCAL/MOL
REMARK 927      BINDING AFFINITY PREDICTED BY RF-SCORE:    0.00 PKD
ROOT
HETATM    1  N   UNL     1      -5.527   1.650  64.642  1.00  0.00    -0.005 N  
HETATM    2  H2  UNL     1      -4.687   1.529  64.078  1.00  0.00     0.000 HD 
HETATM    3  H1  UNL     1      -5.647   1.330  65.603  1.00  0.00     0.000 HD 
HETATM    4  S   UNL     1      -6.936   2.406  64.140  1.00  0.00    -0.041 S  
HETATM    5  O   UNL     1      -7.995   1.504  64.524  1.00  0.00    -0.063 OA 
HETATM    6  O   UNL     1      -6.768   2.857  62.782  1.00  0.00    -0.025 OA 
ENDROOT
BRANCH   4   7
HETATM    7  C   UNL     1      -6.978   3.825  65.201  1.00  0.00    -0.061 A  
HETATM    8  C   UNL     1      -6.791   3.593  66.568  1.00  0.00    -0.054 A  
HETATM    9  C   UNL     1      -6.715   4.671  67.453  1.00  0.00    -0.051 A  
HETATM   10  C   UNL     1      -6.826   5.992  67.026  1.00  0.00    -0.063 A  
HETATM   11  C   UNL     1      -7.011   6.202  65.652  1.00  0.00    -0.057 A  
HETATM   12  N   UNL     1      -6.610   7.084  67.864  1.00  0.00    -0.050 NA 
HETATM   13  C   UNL     1      -7.115   5.140  64.717  1.00  0.00    -0.058 A  
HETATM   14  H   UNL     1      -6.345   7.991  67.480  1.00  0.00     0.000 HD 
HETATM   15  C   UNL     1      -6.769   6.903  69.286  1.00  0.00    -0.050 C  
HETATM   16  C   UNL     1      -7.365   5.537  63.278  1.00  0.00    -0.052 C  
HETATM   17  N   UNL     1      -5.912   5.829  69.741  1.00  0.00    -0.023 N  
HETATM   18  F   UNL     1      -6.396   6.382  62.821  1.00  0.00    -0.028 F  
HETATM   19  F   UNL     1      -8.531   6.235  63.158  1.00  0.00    -0.078 F  
HETATM   20  F   UNL     1      -7.438   4.550  62.354  1.00  0.00    -0.040 F  
HETATM   21  S   UNL     1      -6.425   4.347  69.151  1.00  0.00    -0.037 S  
HETATM   22  H   UNL     1      -5.099   5.957  70.344  1.00  0.00     0.000 HD 
HETATM   23  O   UNL     1      -7.706   4.077  69.768  1.00  0.00    -0.052 OA 
HETATM   24  O   UNL     1      -5.317   3.428  69.274  1.00  0.00    -0.011 OA 
ENDBRANCH   4   7
TORSDOF 1
ENDMDL
MODEL      204
REMARK 921   NORMALIZED FREE ENERGY PREDICTED BY IDOCK:    1.13 KCAL/MOL
REMARK 922        TOTAL FREE ENERGY PREDICTED BY IDOCK:    1.43 KCAL/MOL
REMARK 923 INTER-LIGAND FREE ENERGY PREDICTED BY IDOCK:    0.17 KCAL/MOL
REMARK 924 INTRA-LIGAND FREE ENERGY PREDICTED BY IDOCK:    1.27 KCAL/MOL
REMARK 927      BINDING AFFINITY PREDICTED BY RF-SCORE:    0.00 PKD
ROOT
HETATM    1  N   UNL     1     -13.619  14.644  69.586  1.00  0.00     1.007 N  
HETATM    2  H2  UNL     1     -13.846  15.589  69.279  1.00  0.00     0.000 HD 
HETATM    3  H1  UNL     1     -14.103  13.794  69.294  1.00  0.00     0.000 HD 
HETATM    4  S   UNL     1     -12.393  14.234  70.652  1.00  0.00    -0.382 S  
HETATM    5  O   UNL     1     -13.013  13.337  71.598  1.00  0.00    -0.369 OA 
HETATM    6  O   UNL     1     -11.711  15.433  71.065  1.00  0.00    -0.297 OA 
ENDROOT
BRANCH   4   7
HETATM    7  C   UNL     1     -11.307  13.302  69.606  1.00  0.00    -0.122 A  
HETATM    8  C   UNL     1     -10.185  13.974  69.108  1.00  0.00    -0.025 A  
HETATM    9  C   UNL     1      -9.234  13.278  68.358  1.00  0.00    -0.145 A  
HETATM   10  C   UNL     1      -9.360  11.921  68.073  1.00  0.00    -0.193 A  
HETATM   11  C   UNL     1     -10.489  11.267  68.584  1.00  0.00    -0.226 A  
HETATM   12  N   UNL     1      -8.358  11.177  67.453  1.00  0.00    -0.132 NA 
HETATM   13  C   UNL     1     -11.493  11.933  69.333  1.00  0.00    -0.366 A  
HETATM   14  H   UNL     1      -8.309  10.166  67.574  1.00  0.00     0.000 HD 
HETATM   15  C   UNL     1      -7.390  11.870  66.637  1.00  0.00     0.070 C  
HETATM   16  C   UNL     1     -12.674  11.092  69.767  1.00  0.00     0.041 C  
HETATM   17  N   UNL     1      -6.745  12.905  67.415  1.00  0.00    -0.248 N  
HETATM   18  F   UNL     1     -12.272  10.014  70.501  1.00  0.00    -0.310 F  
HETATM   19  F   UNL     1     -13.323  10.566  68.689  1.00  0.00     1.711 F  
HETATM   20  F   UNL     1     -13.634  11.688  70.511  1.00  0.00     0.370 F  
HETATM   21  S   UNL     1      -7.814  14.139  67.795  1.00  0.00    -0.188 S  
HETATM   22  H   UNL     1      -5.765  12.887  67.697  1.00  0.00     0.000 HD 
HETATM   23  O   UNL     1      -8.160  14.785  66.548  1.00  0.00     0.081 OA 
HETATM   24  O   UNL     1      -7.242  14.879  68.897  1.00  0.00    -0.111 OA 
ENDBRANCH   4   7
TORSDOF 1
ENDMDL
MODEL      205
REMARK 921   NORMALIZED FREE ENERGY PREDICTED BY IDOCK:    2.26 KCAL/MOL
REMARK 922        TOTAL FREE ENERGY PREDICTED BY IDOCK:    2.63 KCAL/MOL
REMARK 923 INTER-LIGAND FREE ENERGY PREDICTED BY IDOCK:    1.62 KCAL/MOL
REMARK 924 INTRA-LIGAND FREE ENERGY PREDICTED BY IDOCK:    1.01 KCAL/MOL
REMARK 927      BINDING AFFINITY PREDICTED BY RF-SCORE:    0.00 PKD
ROOT
HETATM    1  N   UNL     1     -13.363  16.313  73.181  1.00  0.00    -0.376 N  
HETATM    2  H2  UNL     1     -13.821  17.210  73.019  1.00  0.00     0.000 HD 
HETATM    3  H1  UNL     1     -13.832  15.448  73.451  1.00  0.00     0.000 HD 
HETATM    4  S   UNL     1     -11.718  16.022  73.045  1.00  0.00    -0.153 S  
HETATM    5  O   UNL     1     -11.372  15.302  74.248  1.00  0.00     0.608 OA 
HETATM    6  O   UNL     1     -11.056  17.242  72.664  1.00  0.00     1.026 OA 
ENDROOT
BRANCH   4   7
HETATM    7  C   UNL     1     -11.665  14.902  71.672  1.00  0.00    -0.332 A  
HETATM    8  C   UNL     1     -10.934  15.316  70.553  1.00  0.00    -0.318 A  
HETATM    9  C   UNL     1     -10.766  14.447  69.472  1.00  0.00    -0.107 A  
HETATM   10  C   UNL     1     -11.311  13.166  69.457  1.00  0.00    -0.160 A  
HETATM   11  C   UNL     1     -12.037  12.771  70.589  1.00  0.00    -0.316 A  
HETATM   12  N   UNL     1     -11.037  12.234  68.458  1.00  0.00    -0.232 NA 
HETATM   13  C   UNL     1     -12.253  13.624  71.702  1.00  0.00    -0.021 A  
HETATM   14  H   UNL     1     -11.138  11.235  68.635  1.00  0.00     0.000 HD 
HETATM   15  C   UNL     1     -10.609  12.714  67.166  1.00  0.00    -0.236 C  
HETATM   16  C   UNL     1     -13.103  13.061  72.821  1.00  0.00     0.294 C  
HETATM   17  N   UNL     1      -9.434  13.545  67.319  1.00  0.00    -0.222 N  
HETATM   18  F   UNL     1     -12.582  11.895  73.301  1.00  0.00     2.370 F  
HETATM   19  F   UNL     1     -14.350  12.736  72.373  1.00  0.00    -0.388 F  
HETATM   20  F   UNL     1     -13.302  13.836  73.913  1.00  0.00     0.876 F  
HETATM   21  S   UNL     1      -9.799  14.977  68.109  1.00  0.00    -0.219 S  
HETATM   22  H   UNL     1      -8.503  13.293  66.988  1.00  0.00     0.000 HD 
HETATM   23  O   UNL     1     -10.664  15.729  67.226  1.00  0.00    -0.310 OA 
HETATM   24  O   UNL     1      -8.555  15.528  68.598  1.00  0.00    -0.160 OA 
ENDBRANCH   4   7
TORSDOF 1
ENDMDL
MODEL      206
REMARK 921   NORMALIZED FREE ENERGY PREDICTED BY IDOCK:    2.59 KCAL/MOL
REMARK 922        TOTAL FREE ENERGY PREDICTED BY IDOCK:    2.98 KCAL/MOL
REMARK 923 INTER-LIGAND FREE ENERGY PREDICTED BY IDOCK:    1.30 KCAL/MOL
REMARK 924 INTRA-LIGAND FREE ENERGY PREDICTED BY IDOCK:    1.68 KCAL/MOL
REMARK 927      BINDING AFFINITY PREDICTED BY RF-SCORE:    0.00 PKD
ROOT
HETATM    1  N   UNL     1      -7.291   8.869  64.406  1.00  0.00    -0.097 N  
HETATM    2  H2  UNL     1      -6.809   9.737  64.636  1.00  0.00     0.000 HD 
HETATM    3  H1  UNL     1      -7.006   8.205  63.685  1.00  0.00     0.000 HD 
HETATM    4  S   UNL     1      -8.681   8.301  65.150  1.00  0.00     0.020 S  
HETATM    5  O   UNL     1      -9.553   7.924  64.064  1.00  0.00     2.240 OA 
HETATM    6  O   UNL     1      -9.084   9.237  66.167  1.00  0.00    -0.156 OA 
ENDROOT
BRANCH   4   7
HETATM    7  C   UNL     1      -8.087   6.832  65.945  1.00  0.00    -0.123 A  
HETATM    8  C   UNL     1      -7.570   6.981  67.237  1.00  0.00    -0.108 A  
HETATM    9  C   UNL     1      -7.173   5.856  67.962  1.00  0.00    -0.076 A  
HETATM   10  C   UNL     1      -7.264   4.567  67.442  1.00  0.00    -0.069 A  
HETATM   11  C   UNL     1      -7.786   4.440  66.148  1.00  0.00    -0.095 A  
HETATM   12  N   UNL     1      -7.012   3.422  68.196  1.00  0.00    -0.049 NA 
HETATM   13  C   UNL     1      -8.184   5.553  65.364  1.00  0.00    -0.133 A  
HETATM   14  H   UNL     1      -7.415   2.524  67.930  1.00  0.00     0.000 HD 
HETATM   15  C   UNL     1      -6.167   3.536  69.360  1.00  0.00    -0.028 C  
HETATM   16  C   UNL     1      -8.679   5.246  63.966  1.00  0.00    -0.008 C  
HETATM   17  N   UNL     1      -6.704   4.538  70.257  1.00  0.00    -0.035 N  
HETATM   18  F   UNL     1      -9.729   4.376  63.992  1.00  0.00    -0.159 F  
HETATM   19  F   UNL     1      -7.715   4.618  63.233  1.00  0.00    -0.058 F  
HETATM   20  F   UNL     1      -9.096   6.283  63.202  1.00  0.00     0.371 F  
HETATM   21  S   UNL     1      -6.583   6.074  69.598  1.00  0.00    -0.045 S  
HETATM   22  H   UNL     1      -7.104   4.336  71.173  1.00  0.00     0.000 HD 
HETATM   23  O   UNL     1      -5.171   6.379  69.515  1.00  0.00    -0.012 OA 
HETATM   24  O   UNL     1      -7.499   6.926  70.321  1.00  0.00    -0.082 OA 
ENDBRANCH   4   7
TORSDOF 1
ENDMDL
MODEL      207
REMARK 921   NORMALIZED FREE ENERGY PREDICTED BY IDOCK:    3.66 KCAL/MOL
REMARK 922        TOTAL FREE ENERGY PREDICTED BY IDOCK:    4.11 KCAL/MOL
REMARK 923 INTER-LIGAND FREE ENERGY PREDICTED BY IDOCK:    3.19 KCAL/MOL
REMARK 924 INTRA-LIGAND FREE ENERGY PREDICTED BY IDOCK:    0.92 KCAL/MOL
REMARK 927      BINDING AFFINITY PREDICTED BY RF-SCORE:    0.00 PKD
ROOT
HETATM    1  N   UNL     1      -5.133   9.290  65.561  1.00  0.00    -0.035 N  
HETATM    2  H2  UNL     1      -5.025   9.977  64.816  1.00  0.00     0.000 HD 
HETATM    3  H1  UNL     1      -4.537   9.212  66.386  1.00  0.00     0.000 HD 
HETATM    4  S   UNL     1      -6.316   8.106  65.629  1.00  0.00    -0.049 S  
HETATM    5  O   UNL     1      -5.605   6.893  65.952  1.00  0.00    -0.028 OA 
HETATM    6  O   UNL     1      -7.157   8.216  64.464  1.00  0.00    -0.073 OA 
ENDROOT
BRANCH   4   7
HETATM    7  C   UNL     1      -7.252   8.616  67.046  1.00  0.00    -0.076 A  
HETATM    8  C   UNL     1      -7.314   9.992  67.296  1.00  0.00    -0.090 A  
HETATM    9  C   UNL     1      -8.111  10.474  68.336  1.00  0.00    -0.119 A  
HETATM   10  C   UNL     1      -8.856   9.629  69.155  1.00  0.00    -0.157 A  
HETATM   11  C   UNL     1      -8.782   8.256  68.885  1.00  0.00    -0.137 A  
HETATM   12  N   UNL     1      -9.767  10.095  70.101  1.00  0.00    -0.407 NA 
HETATM   13  C   UNL     1      -7.971   7.715  67.855  1.00  0.00    -0.118 A  
HETATM   14  H   UNL     1     -10.534   9.504  70.421  1.00  0.00     0.000 HD 
HETATM   15  C   UNL     1      -9.601  11.431  70.619  1.00  0.00     4.454 C  
HETATM   16  C   UNL     1      -7.964   6.207  67.729  1.00  0.00    -0.106 C  
HETATM   17  N   UNL     1      -9.585  12.380  69.526  1.00  0.00     0.515 N  
HETATM   18  F   UNL     1      -9.225   5.718  67.549  1.00  0.00    -0.113 F  
HETATM   19  F   UNL     1      -7.518   5.622  68.879  1.00  0.00    -0.075 F  
HETATM   20  F   UNL     1      -7.226   5.659  66.736  1.00  0.00    -0.068 F  
HETATM   21  S   UNL     1      -8.209  12.207  68.587  1.00  0.00     0.036 S  
HETATM   22  H   UNL     1     -10.318  13.068  69.351  1.00  0.00     0.000 HD 
HETATM   23  O   UNL     1      -7.088  12.591  69.418  1.00  0.00     0.017 OA 
HETATM   24  O   UNL     1      -8.468  12.853  67.320  1.00  0.00    -0.183 OA 
ENDBRANCH   4   7
TORSDOF 1
ENDMDL
MODEL      208
REMARK 921   NORMALIZED FREE ENERGY PREDICTED BY IDOCK:   22.03 KCAL/MOL
REMARK 922        TOTAL FREE ENERGY PREDICTED BY IDOCK:   23.55 KCAL/MOL
REMARK 923 INTER-LIGAND FREE ENERGY PREDICTED BY IDOCK:   21.60 KCAL/MOL
REMARK 924 INTRA-LIGAND FREE ENERGY PREDICTED BY IDOCK:    1.96 KCAL/MOL
REMARK 927      BINDING AFFINITY PREDICTED BY RF-SCORE:    0.00 PKD
ROOT
HETATM    1  N   UNL     1      -9.291  14.995  72.828  1.00  0.00     5.625 N  
HETATM    2  H2  UNL     1     -10.072  15.483  73.266  1.00  0.00     0.000 HD 
HETATM    3  H1  UNL     1      -8.937  14.079  73.102  1.00  0.00     0.000 HD 
HETATM    4  S   UNL     1      -8.383  15.569  71.542  1.00  0.00     5.739 S  
HETATM    5  O   UNL     1      -7.011  15.362  71.939  1.00  0.00     2.232 OA 
HETATM    6  O   UNL     1      -8.883  16.863  71.155  1.00  0.00     5.394 OA 
ENDROOT
BRANCH   4   7
HETATM    7  C   UNL     1      -8.793  14.406  70.268  1.00  0.00     1.774 A  
HETATM    8  C   UNL     1     -10.147  14.292  69.933  1.00  0.00     0.593 A  
HETATM    9  C   UNL     1     -10.534  13.469  68.873  1.00  0.00    -0.126 A  
HETATM   10  C   UNL     1      -9.614  12.736  68.126  1.00  0.00    -0.223 A  
HETATM   11  C   UNL     1      -8.264  12.867  68.478  1.00  0.00    -0.065 A  
HETATM   12  N   UNL     1      -9.960  12.025  66.979  1.00  0.00    -0.203 NA 
HETATM   13  C   UNL     1      -7.822  13.674  69.558  1.00  0.00     0.647 A  
HETATM   14  H   UNL     1      -9.259  11.807  66.271  1.00  0.00     0.000 HD 
HETATM   15  C   UNL     1     -11.329  11.603  66.816  1.00  0.00    -0.286 C  
HETATM   16  C   UNL     1      -6.335  13.664  69.836  1.00  0.00    -0.083 C  
HETATM   17  N   UNL     1     -12.208  12.750  66.897  1.00  0.00    -0.186 N  
HETATM   18  F   UNL     1      -5.621  14.039  68.736  1.00  0.00    -0.075 F  
HETATM   19  F   UNL     1      -5.899  12.405  70.130  1.00  0.00    -0.109 F  
HETATM   20  F   UNL     1      -5.875  14.448  70.840  1.00  0.00    -0.146 F  
HETATM   21  S   UNL     1     -12.232  13.392  68.445  1.00  0.00     0.079 S  
HETATM   22  H   UNL     1     -12.744  13.121  66.113  1.00  0.00     0.000 HD 
HETATM   23  O   UNL     1     -12.852  12.399  69.295  1.00  0.00     0.680 OA 
HETATM   24  O   UNL     1     -12.755  14.736  68.345  1.00  0.00     0.331 OA 
ENDBRANCH   4   7
TORSDOF 1
ENDMDL
MODEL      209
REMARK 921   NORMALIZED FREE ENERGY PREDICTED BY IDOCK:   29.13 KCAL/MOL
REMARK 922        TOTAL FREE ENERGY PREDICTED BY IDOCK:   31.07 KCAL/MOL
REMARK 923 INTER-LIGAND FREE ENERGY PREDICTED BY IDOCK:   27.79 KCAL/MOL
REMARK 924 INTRA-LIGAND FREE ENERGY PREDICTED BY IDOCK:    3.29 KCAL/MOL
REMARK 927      BINDING AFFINITY PREDICTED BY RF-SCORE:    0.00 PKD
ROOT
HETATM    1  N   UNL     1     -11.563  18.777  74.368  1.00  0.00     2.084 N  
HETATM    2  H2  UNL     1     -12.385  19.010  74.924  1.00  0.00     0.000 HD 
HETATM    3  H1  UNL     1     -10.833  18.116  74.636  1.00  0.00     0.000 HD 
HETATM    4  S   UNL     1     -11.191  19.419  72.865  1.00  0.00     7.230 S  
HETATM    5  O   UNL     1      -9.803  19.803  72.962  1.00  0.00     2.218 OA 
HETATM    6  O   UNL     1     -12.220  20.353  72.487  1.00  0.00    14.470 OA 
ENDROOT
BRANCH   4   7
HETATM    7  C   UNL     1     -11.319  17.991  71.824  1.00  0.00     3.289 A  
HETATM    8  C   UNL     1     -10.788  18.104  70.534  1.00  0.00     2.265 A  
HETATM    9  C   UNL     1     -10.765  16.991  69.691  1.00  0.00    -0.045 A  
HETATM   10  C   UNL     1     -11.265  15.751  70.083  1.00  0.00    -0.349 A  
HETATM   11  C   UNL     1     -11.789  15.660  71.379  1.00  0.00    -0.482 A  
HETATM   12  N   UNL     1     -11.122  14.596  69.317  1.00  0.00    -0.259 NA 
HETATM   13  C   UNL     1     -11.854  16.766  72.265  1.00  0.00     0.023 A  
HETATM   14  H   UNL     1     -11.161  13.675  69.751  1.00  0.00     0.000 HD 
HETATM   15  C   UNL     1     -10.918  14.733  67.895  1.00  0.00    -0.278 C  
HETATM   16  C   UNL     1     -12.497  16.509  73.611  1.00  0.00    -0.380 C  
HETATM   17  N   UNL     1      -9.762  15.566  67.645  1.00  0.00    -0.212 N  
HETATM   18  F   UNL     1     -11.871  15.496  74.276  1.00  0.00    -0.539 F  
HETATM   19  F   UNL     1     -13.789  16.093  73.464  1.00  0.00    -0.607 F  
HETATM   20  F   UNL     1     -12.547  17.535  74.493  1.00  0.00     0.064 F  
HETATM   21  S   UNL     1     -10.043  17.154  68.102  1.00  0.00    -0.331 S  
HETATM   22  H   UNL     1      -8.887  15.230  67.241  1.00  0.00     0.000 HD 
HETATM   23  O   UNL     1     -11.060  17.667  67.210  1.00  0.00    -0.111 OA 
HETATM   24  O   UNL     1      -8.756  17.798  68.232  1.00  0.00    -0.262 OA 
ENDBRANCH   4   7
TORSDOF 1
ENDMDL
