MODEL        1
REMARK 921   NORMALIZED FREE ENERGY PREDICTED BY IDOCK:   -6.05 KCAL/MOL
REMARK 922        TOTAL FREE ENERGY PREDICTED BY IDOCK:   -6.45 KCAL/MOL
REMARK 923 INTER-LIGAND FREE ENERGY PREDICTED BY IDOCK:   -6.41 KCAL/MOL
REMARK 924 INTRA-LIGAND FREE ENERGY PREDICTED BY IDOCK:   -0.04 KCAL/MOL
REMARK 927      BINDING AFFINITY PREDICTED BY RF-SCORE:    0.00 PKD
ROOT
HETATM    1  N   UNL     1     -11.413  16.413  63.831  1.00  0.00    -1.618 NA 
HETATM    2  H1  UNL     1     -11.620  17.399  63.671  1.00  0.00     0.000 HD 
HETATM    3  H2  UNL     1     -10.859  16.050  63.055  1.00  0.00     0.000 HD 
HETATM    4  N   UNL     1     -12.522  15.558  64.066  1.00  0.00    -0.819 NA 
HETATM    5  H   UNL     1     -13.478  15.912  64.074  1.00  0.00     0.000 HD 
ENDROOT
BRANCH   4   6
HETATM    6  C   UNL     1     -12.231  14.169  64.292  1.00  0.00    -0.420 A  
HETATM    7  N   UNL     1     -12.190  13.308  63.241  1.00  0.00    -0.668 NA 
HETATM    8  N   UNL     1     -11.880  11.991  63.425  1.00  0.00    -0.463 NA 
HETATM    9  C   UNL     1     -11.631  11.546  64.668  1.00  0.00    -0.045 A  
HETATM   10  C   UNL     1     -11.696  12.355  65.797  1.00  0.00    -0.470 A  
HETATM   11  C   UNL     1     -11.452  11.845  67.084  1.00  0.00    -0.386 A  
HETATM   12  C   UNL     1     -11.557  12.666  68.206  1.00  0.00    -0.377 A  
HETATM   13  C   UNL     1     -11.907  14.002  68.053  1.00  0.00    -0.403 A  
HETATM   14  C   UNL     1     -12.139  14.521  66.777  1.00  0.00    -0.313 A  
HETATM   15  C   UNL     1     -12.027  13.713  65.616  1.00  0.00    -0.422 A  
ENDBRANCH   4   6
TORSDOF 1
ENDMDL
MODEL        2
REMARK 921   NORMALIZED FREE ENERGY PREDICTED BY IDOCK:   -6.05 KCAL/MOL
REMARK 922        TOTAL FREE ENERGY PREDICTED BY IDOCK:   -6.44 KCAL/MOL
REMARK 923 INTER-LIGAND FREE ENERGY PREDICTED BY IDOCK:   -6.38 KCAL/MOL
REMARK 924 INTRA-LIGAND FREE ENERGY PREDICTED BY IDOCK:   -0.06 KCAL/MOL
REMARK 927      BINDING AFFINITY PREDICTED BY RF-SCORE:    0.00 PKD
ROOT
HETATM    1  N   UNL     1     -11.735  16.221  63.907  1.00  0.00    -1.518 NA 
HETATM    2  H1  UNL     1     -11.978  16.844  63.136  1.00  0.00     0.000 HD 
HETATM    3  H2  UNL     1     -10.727  16.069  63.918  1.00  0.00     0.000 HD 
HETATM    4  N   UNL     1     -12.406  14.971  63.954  1.00  0.00    -1.059 NA 
HETATM    5  H   UNL     1     -13.097  14.708  63.251  1.00  0.00     0.000 HD 
ENDROOT
BRANCH   4   6
HETATM    6  C   UNL     1     -12.064  14.093  65.040  1.00  0.00    -0.421 A  
HETATM    7  N   UNL     1     -12.407  14.427  66.312  1.00  0.00    -0.373 NA 
HETATM    8  N   UNL     1     -12.125  13.594  67.355  1.00  0.00    -0.369 NA 
HETATM    9  C   UNL     1     -11.484  12.438  67.115  1.00  0.00    -0.357 A  
HETATM   10  C   UNL     1     -11.063  12.048  65.848  1.00  0.00    -0.369 A  
HETATM   11  C   UNL     1     -10.372  10.840  65.641  1.00  0.00    -0.297 A  
HETATM   12  C   UNL     1      -9.928  10.484  64.369  1.00  0.00    -0.410 A  
HETATM   13  C   UNL     1     -10.167  11.331  63.293  1.00  0.00    -0.417 A  
HETATM   14  C   UNL     1     -10.863  12.526  63.486  1.00  0.00    -0.443 A  
HETATM   15  C   UNL     1     -11.340  12.908  64.767  1.00  0.00    -0.349 A  
ENDBRANCH   4   6
TORSDOF 1
ENDMDL
MODEL        3
REMARK 921   NORMALIZED FREE ENERGY PREDICTED BY IDOCK:   -5.86 KCAL/MOL
REMARK 922        TOTAL FREE ENERGY PREDICTED BY IDOCK:   -6.24 KCAL/MOL
REMARK 923 INTER-LIGAND FREE ENERGY PREDICTED BY IDOCK:   -6.20 KCAL/MOL
REMARK 924 INTRA-LIGAND FREE ENERGY PREDICTED BY IDOCK:   -0.05 KCAL/MOL
REMARK 927      BINDING AFFINITY PREDICTED BY RF-SCORE:    0.00 PKD
ROOT
HETATM    1  N   UNL     1     -12.144  15.789  63.803  1.00  0.00    -1.173 NA 
HETATM    2  H1  UNL     1     -12.334  15.882  62.804  1.00  0.00     0.000 HD 
HETATM    3  H2  UNL     1     -12.985  16.018  64.333  1.00  0.00     0.000 HD 
HETATM    4  N   UNL     1     -11.043  16.526  64.314  1.00  0.00    -1.300 NA 
HETATM    5  H   UNL     1     -10.470  17.119  63.714  1.00  0.00     0.000 HD 
ENDROOT
BRANCH   4   6
HETATM    6  C   UNL     1     -10.775  16.396  65.721  1.00  0.00    -0.238 A  
HETATM    7  N   UNL     1     -10.819  15.170  66.306  1.00  0.00    -0.330 NA 
HETATM    8  N   UNL     1     -10.534  15.015  67.631  1.00  0.00    -0.244 NA 
HETATM    9  C   UNL     1     -10.222  16.097  68.364  1.00  0.00    -0.240 A  
HETATM   10  C   UNL     1     -10.199  17.388  67.847  1.00  0.00    -0.348 A  
HETATM   11  C   UNL     1      -9.892  18.499  68.653  1.00  0.00    -0.419 A  
HETATM   12  C   UNL     1      -9.907  19.788  68.123  1.00  0.00    -0.536 A  
HETATM   13  C   UNL     1     -10.232  19.980  66.786  1.00  0.00    -0.592 A  
HETATM   14  C   UNL     1     -10.526  18.882  65.974  1.00  0.00    -0.507 A  
HETATM   15  C   UNL     1     -10.504  17.558  66.482  1.00  0.00    -0.270 A  
ENDBRANCH   4   6
TORSDOF 1
ENDMDL
MODEL        4
REMARK 921   NORMALIZED FREE ENERGY PREDICTED BY IDOCK:   -5.65 KCAL/MOL
REMARK 922        TOTAL FREE ENERGY PREDICTED BY IDOCK:   -6.03 KCAL/MOL
REMARK 923 INTER-LIGAND FREE ENERGY PREDICTED BY IDOCK:   -5.97 KCAL/MOL
REMARK 924 INTRA-LIGAND FREE ENERGY PREDICTED BY IDOCK:   -0.06 KCAL/MOL
REMARK 927      BINDING AFFINITY PREDICTED BY RF-SCORE:    0.00 PKD
ROOT
HETATM    1  N   UNL     1     -11.618  16.360  63.832  1.00  0.00    -1.602 NA 
HETATM    2  H1  UNL     1     -11.720  15.929  62.913  1.00  0.00     0.000 HD 
HETATM    3  H2  UNL     1     -11.558  17.373  63.730  1.00  0.00     0.000 HD 
HETATM    4  N   UNL     1     -10.543  15.897  64.637  1.00  0.00    -0.742 NA 
HETATM    5  H   UNL     1      -9.905  15.171  64.313  1.00  0.00     0.000 HD 
ENDROOT
BRANCH   4   6
HETATM    6  C   UNL     1     -10.398  16.504  65.932  1.00  0.00    -0.350 A  
HETATM    7  N   UNL     1      -9.747  17.691  66.053  1.00  0.00    -0.528 NA 
HETATM    8  N   UNL     1      -9.627  18.305  67.266  1.00  0.00    -0.276 NA 
HETATM    9  C   UNL     1     -10.149  17.712  68.353  1.00  0.00    -0.368 A  
HETATM   10  C   UNL     1     -10.790  16.479  68.316  1.00  0.00    -0.352 A  
HETATM   11  C   UNL     1     -11.300  15.879  69.482  1.00  0.00    -0.335 A  
HETATM   12  C   UNL     1     -11.909  14.626  69.428  1.00  0.00    -0.368 A  
HETATM   13  C   UNL     1     -12.011  13.960  68.213  1.00  0.00    -0.392 A  
HETATM   14  C   UNL     1     -11.518  14.553  67.048  1.00  0.00    -0.383 A  
HETATM   15  C   UNL     1     -10.907  15.833  67.069  1.00  0.00    -0.273 A  
ENDBRANCH   4   6
TORSDOF 1
ENDMDL
MODEL        5
REMARK 921   NORMALIZED FREE ENERGY PREDICTED BY IDOCK:   -5.59 KCAL/MOL
REMARK 922        TOTAL FREE ENERGY PREDICTED BY IDOCK:   -5.96 KCAL/MOL
REMARK 923 INTER-LIGAND FREE ENERGY PREDICTED BY IDOCK:   -6.06 KCAL/MOL
REMARK 924 INTRA-LIGAND FREE ENERGY PREDICTED BY IDOCK:    0.11 KCAL/MOL
REMARK 927      BINDING AFFINITY PREDICTED BY RF-SCORE:    0.00 PKD
ROOT
HETATM    1  N   UNL     1     -11.806  12.986  63.071  1.00  0.00    -0.801 NA 
HETATM    2  H1  UNL     1     -12.267  12.302  62.470  1.00  0.00     0.000 HD 
HETATM    3  H2  UNL     1     -11.364  12.509  63.856  1.00  0.00     0.000 HD 
HETATM    4  N   UNL     1     -12.608  14.054  63.552  1.00  0.00    -1.008 NA 
HETATM    5  H   UNL     1     -13.596  14.134  63.310  1.00  0.00     0.000 HD 
ENDROOT
BRANCH   4   6
HETATM    6  C   UNL     1     -11.960  15.019  64.399  1.00  0.00    -0.353 A  
HETATM    7  N   UNL     1     -11.603  16.229  63.893  1.00  0.00    -0.988 NA 
HETATM    8  N   UNL     1     -11.019  17.175  64.684  1.00  0.00    -0.921 NA 
HETATM    9  C   UNL     1     -10.782  16.891  65.976  1.00  0.00    -0.125 A  
HETATM   10  C   UNL     1     -11.078  15.662  66.554  1.00  0.00    -0.135 A  
HETATM   11  C   UNL     1     -10.791  15.395  67.905  1.00  0.00    -0.300 A  
HETATM   12  C   UNL     1     -11.064  14.144  68.456  1.00  0.00    -0.276 A  
HETATM   13  C   UNL     1     -11.624  13.148  67.664  1.00  0.00    -0.392 A  
HETATM   14  C   UNL     1     -11.924  13.408  66.325  1.00  0.00    -0.460 A  
HETATM   15  C   UNL     1     -11.671  14.675  65.740  1.00  0.00    -0.302 A  
ENDBRANCH   4   6
TORSDOF 1
ENDMDL
MODEL        6
REMARK 921   NORMALIZED FREE ENERGY PREDICTED BY IDOCK:   -5.57 KCAL/MOL
REMARK 922        TOTAL FREE ENERGY PREDICTED BY IDOCK:   -5.94 KCAL/MOL
REMARK 923 INTER-LIGAND FREE ENERGY PREDICTED BY IDOCK:   -5.88 KCAL/MOL
REMARK 924 INTRA-LIGAND FREE ENERGY PREDICTED BY IDOCK:   -0.05 KCAL/MOL
REMARK 927      BINDING AFFINITY PREDICTED BY RF-SCORE:    0.00 PKD
ROOT
HETATM    1  N   UNL     1     -10.403  11.090  62.713  1.00  0.00    -0.771 NA 
HETATM    2  H1  UNL     1     -10.212  10.210  62.233  1.00  0.00     0.000 HD 
HETATM    3  H2  UNL     1      -9.679  11.262  63.410  1.00  0.00     0.000 HD 
HETATM    4  N   UNL     1     -11.683  11.226  63.312  1.00  0.00    -0.739 NA 
HETATM    5  H   UNL     1     -12.378  10.481  63.265  1.00  0.00     0.000 HD 
ENDROOT
BRANCH   4   6
HETATM    6  C   UNL     1     -11.952  12.465  63.989  1.00  0.00    -0.460 A  
HETATM    7  N   UNL     1     -12.323  13.559  63.273  1.00  0.00    -0.734 NA 
HETATM    8  N   UNL     1     -12.619  14.737  63.895  1.00  0.00    -0.772 NA 
HETATM    9  C   UNL     1     -12.523  14.812  65.234  1.00  0.00    -0.076 A  
HETATM   10  C   UNL     1     -12.108  13.750  66.030  1.00  0.00    -0.470 A  
HETATM   11  C   UNL     1     -11.996  13.876  67.426  1.00  0.00    -0.436 A  
HETATM   12  C   UNL     1     -11.546  12.809  68.203  1.00  0.00    -0.380 A  
HETATM   13  C   UNL     1     -11.201  11.609  67.592  1.00  0.00    -0.345 A  
HETATM   14  C   UNL     1     -11.321  11.470  66.208  1.00  0.00    -0.222 A  
HETATM   15  C   UNL     1     -11.790  12.533  65.393  1.00  0.00    -0.479 A  
ENDBRANCH   4   6
TORSDOF 1
ENDMDL
MODEL        7
REMARK 921   NORMALIZED FREE ENERGY PREDICTED BY IDOCK:   -5.47 KCAL/MOL
REMARK 922        TOTAL FREE ENERGY PREDICTED BY IDOCK:   -5.83 KCAL/MOL
REMARK 923 INTER-LIGAND FREE ENERGY PREDICTED BY IDOCK:   -5.78 KCAL/MOL
REMARK 924 INTRA-LIGAND FREE ENERGY PREDICTED BY IDOCK:   -0.05 KCAL/MOL
REMARK 927      BINDING AFFINITY PREDICTED BY RF-SCORE:    0.00 PKD
ROOT
HETATM    1  N   UNL     1     -12.523  11.756  63.307  1.00  0.00    -0.904 NA 
HETATM    2  H1  UNL     1     -13.021  10.869  63.229  1.00  0.00     0.000 HD 
HETATM    3  H2  UNL     1     -11.518  11.587  63.280  1.00  0.00     0.000 HD 
HETATM    4  N   UNL     1     -12.839  12.570  64.427  1.00  0.00    -0.747 NA 
HETATM    5  H   UNL     1     -13.530  12.282  65.120  1.00  0.00     0.000 HD 
ENDROOT
BRANCH   4   6
HETATM    6  C   UNL     1     -12.137  13.820  64.537  1.00  0.00    -0.428 A  
HETATM    7  N   UNL     1     -12.566  14.900  63.832  1.00  0.00    -0.760 NA 
HETATM    8  N   UNL     1     -11.940  16.106  63.946  1.00  0.00    -0.864 NA 
HETATM    9  C   UNL     1     -10.874  16.215  64.758  1.00  0.00    -0.262 A  
HETATM   10  C   UNL     1     -10.350  15.146  65.478  1.00  0.00    -0.399 A  
HETATM   11  C   UNL     1      -9.217  15.295  66.297  1.00  0.00    -0.350 A  
HETATM   12  C   UNL     1      -8.687  14.204  66.984  1.00  0.00    -0.222 A  
HETATM   13  C   UNL     1      -9.282  12.954  66.856  1.00  0.00    -0.234 A  
HETATM   14  C   UNL     1     -10.415  12.799  66.054  1.00  0.00    -0.291 A  
HETATM   15  C   UNL     1     -10.985  13.894  65.355  1.00  0.00    -0.316 A  
ENDBRANCH   4   6
TORSDOF 1
ENDMDL
MODEL        8
REMARK 921   NORMALIZED FREE ENERGY PREDICTED BY IDOCK:   -5.44 KCAL/MOL
REMARK 922        TOTAL FREE ENERGY PREDICTED BY IDOCK:   -5.80 KCAL/MOL
REMARK 923 INTER-LIGAND FREE ENERGY PREDICTED BY IDOCK:   -5.74 KCAL/MOL
REMARK 924 INTRA-LIGAND FREE ENERGY PREDICTED BY IDOCK:   -0.06 KCAL/MOL
REMARK 927      BINDING AFFINITY PREDICTED BY RF-SCORE:    0.00 PKD
ROOT
HETATM    1  N   UNL     1     -11.610  16.463  63.895  1.00  0.00    -1.602 NA 
HETATM    2  H1  UNL     1     -11.469  17.413  63.550  1.00  0.00     0.000 HD 
HETATM    3  H2  UNL     1     -12.491  16.412  64.405  1.00  0.00     0.000 HD 
HETATM    4  N   UNL     1     -10.568  15.909  64.685  1.00  0.00    -0.742 NA 
HETATM    5  H   UNL     1      -9.721  16.435  64.898  1.00  0.00     0.000 HD 
ENDROOT
BRANCH   4   6
HETATM    6  C   UNL     1     -10.766  14.571  65.171  1.00  0.00    -0.406 A  
HETATM    7  N   UNL     1     -10.619  13.517  64.325  1.00  0.00    -0.371 NA 
HETATM    8  N   UNL     1     -10.766  12.235  64.770  1.00  0.00    -0.287 NA 
HETATM    9  C   UNL     1     -11.078  12.022  66.060  1.00  0.00    -0.320 A  
HETATM   10  C   UNL     1     -11.288  13.049  66.974  1.00  0.00    -0.343 A  
HETATM   11  C   UNL     1     -11.637  12.785  68.310  1.00  0.00    -0.375 A  
HETATM   12  C   UNL     1     -11.877  13.830  69.202  1.00  0.00    -0.398 A  
HETATM   13  C   UNL     1     -11.772  15.146  68.768  1.00  0.00    -0.366 A  
HETATM   14  C   UNL     1     -11.412  15.418  67.445  1.00  0.00    -0.197 A  
HETATM   15  C   UNL     1     -11.149  14.376  66.519  1.00  0.00    -0.331 A  
ENDBRANCH   4   6
TORSDOF 1
ENDMDL
MODEL        9
REMARK 921   NORMALIZED FREE ENERGY PREDICTED BY IDOCK:   -5.39 KCAL/MOL
REMARK 922        TOTAL FREE ENERGY PREDICTED BY IDOCK:   -5.75 KCAL/MOL
REMARK 923 INTER-LIGAND FREE ENERGY PREDICTED BY IDOCK:   -5.70 KCAL/MOL
REMARK 924 INTRA-LIGAND FREE ENERGY PREDICTED BY IDOCK:   -0.05 KCAL/MOL
REMARK 927      BINDING AFFINITY PREDICTED BY RF-SCORE:    0.00 PKD
ROOT
HETATM    1  N   UNL     1     -13.150  15.975  73.974  1.00  0.00    -0.925 NA 
HETATM    2  H1  UNL     1     -13.644  16.185  74.841  1.00  0.00     0.000 HD 
HETATM    3  H2  UNL     1     -12.892  16.846  73.509  1.00  0.00     0.000 HD 
HETATM    4  N   UNL     1     -13.812  15.121  73.052  1.00  0.00    -0.548 NA 
HETATM    5  H   UNL     1     -14.736  14.736  73.248  1.00  0.00     0.000 HD 
ENDROOT
BRANCH   4   6
HETATM    6  C   UNL     1     -13.117  14.826  71.829  1.00  0.00    -0.336 A  
HETATM    7  N   UNL     1     -12.709  15.841  71.022  1.00  0.00    -0.455 NA 
HETATM    8  N   UNL     1     -12.015  15.589  69.875  1.00  0.00    -0.345 NA 
HETATM    9  C   UNL     1     -11.751  14.315  69.537  1.00  0.00    -0.316 A  
HETATM   10  C   UNL     1     -12.172  13.223  70.288  1.00  0.00    -0.391 A  
HETATM   11  C   UNL     1     -11.897  11.903  69.887  1.00  0.00    -0.418 A  
HETATM   12  C   UNL     1     -12.358  10.822  70.636  1.00  0.00    -0.465 A  
HETATM   13  C   UNL     1     -13.100  11.047  71.789  1.00  0.00    -0.554 A  
HETATM   14  C   UNL     1     -13.368  12.355  72.202  1.00  0.00    -0.508 A  
HETATM   15  C   UNL     1     -12.900  13.475  71.468  1.00  0.00    -0.440 A  
ENDBRANCH   4   6
TORSDOF 1
ENDMDL
MODEL       10
REMARK 921   NORMALIZED FREE ENERGY PREDICTED BY IDOCK:   -5.30 KCAL/MOL
REMARK 922        TOTAL FREE ENERGY PREDICTED BY IDOCK:   -5.65 KCAL/MOL
REMARK 923 INTER-LIGAND FREE ENERGY PREDICTED BY IDOCK:   -6.32 KCAL/MOL
REMARK 924 INTRA-LIGAND FREE ENERGY PREDICTED BY IDOCK:    0.68 KCAL/MOL
REMARK 927      BINDING AFFINITY PREDICTED BY RF-SCORE:    0.00 PKD
ROOT
HETATM    1  N   UNL     1     -10.930  17.462  64.927  1.00  0.00    -0.851 NA 
HETATM    2  H1  UNL     1     -10.778  18.398  64.551  1.00  0.00     0.000 HD 
HETATM    3  H2  UNL     1     -10.086  17.143  65.401  1.00  0.00     0.000 HD 
HETATM    4  N   UNL     1     -11.367  16.469  64.011  1.00  0.00    -1.559 NA 
HETATM    5  H   UNL     1     -11.520  16.681  63.025  1.00  0.00     0.000 HD 
ENDROOT
BRANCH   4   6
HETATM    6  C   UNL     1     -11.582  15.150  64.540  1.00  0.00    -0.329 A  
HETATM    7  N   UNL     1     -12.689  14.449  64.179  1.00  0.00    -0.688 NA 
HETATM    8  N   UNL     1     -12.898  13.182  64.640  1.00  0.00    -0.720 NA 
HETATM    9  C   UNL     1     -11.999  12.633  65.475  1.00  0.00    -0.456 A  
HETATM   10  C   UNL     1     -10.867  13.303  65.924  1.00  0.00    -0.289 A  
HETATM   11  C   UNL     1      -9.963  12.703  66.819  1.00  0.00    -0.237 A  
HETATM   12  C   UNL     1      -8.851  13.404  67.284  1.00  0.00    -0.220 A  
HETATM   13  C   UNL     1      -8.633  14.710  66.862  1.00  0.00    -0.233 A  
HETATM   14  C   UNL     1      -9.518  15.310  65.963  1.00  0.00    -0.372 A  
HETATM   15  C   UNL     1     -10.650  14.617  65.462  1.00  0.00    -0.369 A  
ENDBRANCH   4   6
TORSDOF 1
ENDMDL
MODEL       11
REMARK 921   NORMALIZED FREE ENERGY PREDICTED BY IDOCK:   -5.28 KCAL/MOL
REMARK 922        TOTAL FREE ENERGY PREDICTED BY IDOCK:   -5.63 KCAL/MOL
REMARK 923 INTER-LIGAND FREE ENERGY PREDICTED BY IDOCK:   -5.57 KCAL/MOL
REMARK 924 INTRA-LIGAND FREE ENERGY PREDICTED BY IDOCK:   -0.06 KCAL/MOL
REMARK 927      BINDING AFFINITY PREDICTED BY RF-SCORE:    0.00 PKD
ROOT
HETATM    1  N   UNL     1     -11.905  15.099  67.713  1.00  0.00    -0.418 NA 
HETATM    2  H1  UNL     1     -12.094  15.408  68.667  1.00  0.00     0.000 HD 
HETATM    3  H2  UNL     1     -12.025  15.881  67.070  1.00  0.00     0.000 HD 
HETATM    4  N   UNL     1     -12.643  13.979  67.246  1.00  0.00    -0.411 NA 
HETATM    5  H   UNL     1     -13.330  13.508  67.834  1.00  0.00     0.000 HD 
ENDROOT
BRANCH   4   6
HETATM    6  C   UNL     1     -12.376  13.543  65.902  1.00  0.00    -0.456 A  
HETATM    7  N   UNL     1     -12.919  14.217  64.853  1.00  0.00    -0.683 NA 
HETATM    8  N   UNL     1     -12.652  13.845  63.568  1.00  0.00    -0.805 NA 
HETATM    9  C   UNL     1     -11.853  12.786  63.346  1.00  0.00    -0.518 A  
HETATM   10  C   UNL     1     -11.297  12.022  64.366  1.00  0.00    -0.411 A  
HETATM   11  C   UNL     1     -10.487  10.906  64.092  1.00  0.00    -0.397 A  
HETATM   12  C   UNL     1      -9.967  10.133  65.129  1.00  0.00    -0.379 A  
HETATM   13  C   UNL     1     -10.253  10.465  66.448  1.00  0.00    -0.292 A  
HETATM   14  C   UNL     1     -11.047  11.580  66.730  1.00  0.00    -0.361 A  
HETATM   15  C   UNL     1     -11.578  12.393  65.696  1.00  0.00    -0.441 A  
ENDBRANCH   4   6
TORSDOF 1
ENDMDL
MODEL       12
REMARK 921   NORMALIZED FREE ENERGY PREDICTED BY IDOCK:   -5.25 KCAL/MOL
REMARK 922        TOTAL FREE ENERGY PREDICTED BY IDOCK:   -5.60 KCAL/MOL
REMARK 923 INTER-LIGAND FREE ENERGY PREDICTED BY IDOCK:   -5.56 KCAL/MOL
REMARK 924 INTRA-LIGAND FREE ENERGY PREDICTED BY IDOCK:   -0.04 KCAL/MOL
REMARK 927      BINDING AFFINITY PREDICTED BY RF-SCORE:    0.00 PKD
ROOT
HETATM    1  N   UNL     1     -13.246   8.740  73.073  1.00  0.00    -0.854 NA 
HETATM    2  H1  UNL     1     -13.797   8.261  73.785  1.00  0.00     0.000 HD 
HETATM    3  H2  UNL     1     -12.298   8.889  73.416  1.00  0.00     0.000 HD 
HETATM    4  N   UNL     1     -13.771   9.962  72.575  1.00  0.00    -0.610 NA 
HETATM    5  H   UNL     1     -14.654  10.342  72.914  1.00  0.00     0.000 HD 
ENDROOT
BRANCH   4   6
HETATM    6  C   UNL     1     -12.995  10.637  71.570  1.00  0.00    -0.461 A  
HETATM    7  N   UNL     1     -12.200   9.919  70.735  1.00  0.00    -0.298 NA 
HETATM    8  N   UNL     1     -11.482  10.532  69.750  1.00  0.00    -0.272 NA 
HETATM    9  C   UNL     1     -11.556  11.869  69.623  1.00  0.00    -0.317 A  
HETATM   10  C   UNL     1     -12.312  12.675  70.466  1.00  0.00    -0.350 A  
HETATM   11  C   UNL     1     -12.343  14.073  70.315  1.00  0.00    -0.425 A  
HETATM   12  C   UNL     1     -13.081  14.866  71.192  1.00  0.00    -0.459 A  
HETATM   13  C   UNL     1     -13.792  14.272  72.228  1.00  0.00    -0.622 A  
HETATM   14  C   UNL     1     -13.777  12.883  72.378  1.00  0.00    -0.530 A  
HETATM   15  C   UNL     1     -13.047  12.049  71.493  1.00  0.00    -0.362 A  
ENDBRANCH   4   6
TORSDOF 1
ENDMDL
MODEL       13
REMARK 921   NORMALIZED FREE ENERGY PREDICTED BY IDOCK:   -5.17 KCAL/MOL
REMARK 922        TOTAL FREE ENERGY PREDICTED BY IDOCK:   -5.51 KCAL/MOL
REMARK 923 INTER-LIGAND FREE ENERGY PREDICTED BY IDOCK:   -5.47 KCAL/MOL
REMARK 924 INTRA-LIGAND FREE ENERGY PREDICTED BY IDOCK:   -0.04 KCAL/MOL
REMARK 927      BINDING AFFINITY PREDICTED BY RF-SCORE:    0.00 PKD
ROOT
HETATM    1  N   UNL     1     -12.350  13.458  62.730  1.00  0.00    -0.773 NA 
HETATM    2  H1  UNL     1     -12.701  13.785  61.830  1.00  0.00     0.000 HD 
HETATM    3  H2  UNL     1     -12.801  12.576  62.974  1.00  0.00     0.000 HD 
HETATM    4  N   UNL     1     -12.452  14.362  63.821  1.00  0.00    -1.058 NA 
HETATM    5  H   UNL     1     -12.855  15.292  63.710  1.00  0.00     0.000 HD 
ENDROOT
BRANCH   4   6
HETATM    6  C   UNL     1     -11.957  13.902  65.090  1.00  0.00    -0.385 A  
HETATM    7  N   UNL     1     -12.314  12.674  65.550  1.00  0.00    -0.632 NA 
HETATM    8  N   UNL     1     -11.830  12.200  66.734  1.00  0.00    -0.606 NA 
HETATM    9  C   UNL     1     -11.002  12.972  67.458  1.00  0.00    -0.259 A  
HETATM   10  C   UNL     1     -10.626  14.255  67.075  1.00  0.00    -0.280 A  
HETATM   11  C   UNL     1      -9.776  15.042  67.874  1.00  0.00    -0.212 A  
HETATM   12  C   UNL     1      -9.439  16.339  67.489  1.00  0.00    -0.227 A  
HETATM   13  C   UNL     1      -9.948  16.863  66.307  1.00  0.00    -0.324 A  
HETATM   14  C   UNL     1     -10.782  16.084  65.501  1.00  0.00    -0.374 A  
HETATM   15  C   UNL     1     -11.131  14.756  65.859  1.00  0.00    -0.340 A  
ENDBRANCH   4   6
TORSDOF 1
ENDMDL
MODEL       14
REMARK 921   NORMALIZED FREE ENERGY PREDICTED BY IDOCK:   -5.16 KCAL/MOL
REMARK 922        TOTAL FREE ENERGY PREDICTED BY IDOCK:   -5.50 KCAL/MOL
REMARK 923 INTER-LIGAND FREE ENERGY PREDICTED BY IDOCK:   -5.45 KCAL/MOL
REMARK 924 INTRA-LIGAND FREE ENERGY PREDICTED BY IDOCK:   -0.06 KCAL/MOL
REMARK 927      BINDING AFFINITY PREDICTED BY RF-SCORE:    0.00 PKD
ROOT
HETATM    1  N   UNL     1     -13.294  16.095  73.615  1.00  0.00    -0.889 NA 
HETATM    2  H1  UNL     1     -13.673  16.961  73.996  1.00  0.00     0.000 HD 
HETATM    3  H2  UNL     1     -12.306  16.221  73.396  1.00  0.00     0.000 HD 
HETATM    4  N   UNL     1     -13.964  15.543  72.491  1.00  0.00    -0.565 NA 
HETATM    5  H   UNL     1     -14.785  15.992  72.084  1.00  0.00     0.000 HD 
ENDROOT
BRANCH   4   6
HETATM    6  C   UNL     1     -13.429  14.321  71.954  1.00  0.00    -0.401 A  
HETATM    7  N   UNL     1     -13.676  13.142  72.583  1.00  0.00    -0.656 NA 
HETATM    8  N   UNL     1     -13.210  11.965  72.074  1.00  0.00    -0.456 NA 
HETATM    9  C   UNL     1     -12.484  11.983  70.943  1.00  0.00    -0.288 A  
HETATM   10  C   UNL     1     -12.154  13.153  70.267  1.00  0.00    -0.399 A  
HETATM   11  C   UNL     1     -11.371  13.132  69.099  1.00  0.00    -0.335 A  
HETATM   12  C   UNL     1     -11.022  14.318  68.455  1.00  0.00    -0.267 A  
HETATM   13  C   UNL     1     -11.450  15.535  68.973  1.00  0.00    -0.361 A  
HETATM   14  C   UNL     1     -12.240  15.565  70.125  1.00  0.00    -0.404 A  
HETATM   15  C   UNL     1     -12.622  14.374  70.793  1.00  0.00    -0.426 A  
ENDBRANCH   4   6
TORSDOF 1
ENDMDL
MODEL       15
REMARK 921   NORMALIZED FREE ENERGY PREDICTED BY IDOCK:   -5.14 KCAL/MOL
REMARK 922        TOTAL FREE ENERGY PREDICTED BY IDOCK:   -5.48 KCAL/MOL
REMARK 923 INTER-LIGAND FREE ENERGY PREDICTED BY IDOCK:   -5.50 KCAL/MOL
REMARK 924 INTRA-LIGAND FREE ENERGY PREDICTED BY IDOCK:    0.02 KCAL/MOL
REMARK 927      BINDING AFFINITY PREDICTED BY RF-SCORE:    0.00 PKD
ROOT
HETATM    1  N   UNL     1      -8.222  17.154  65.707  1.00  0.00    -0.451 NA 
HETATM    2  H1  UNL     1      -7.542  17.818  66.077  1.00  0.00     0.000 HD 
HETATM    3  H2  UNL     1      -8.109  17.077  64.697  1.00  0.00     0.000 HD 
HETATM    4  N   UNL     1      -9.587  17.399  66.017  1.00  0.00    -0.504 NA 
HETATM    5  H   UNL     1      -9.872  18.199  66.581  1.00  0.00     0.000 HD 
ENDROOT
BRANCH   4   6
HETATM    6  C   UNL     1     -10.546  16.464  65.496  1.00  0.00    -0.330 A  
HETATM    7  N   UNL     1     -11.257  16.776  64.380  1.00  0.00    -1.107 NA 
HETATM    8  N   UNL     1     -12.147  15.891  63.846  1.00  0.00    -0.750 NA 
HETATM    9  C   UNL     1     -12.329  14.703  64.446  1.00  0.00    -0.398 A  
HETATM   10  C   UNL     1     -11.672  14.329  65.613  1.00  0.00    -0.358 A  
HETATM   11  C   UNL     1     -11.909  13.086  66.226  1.00  0.00    -0.466 A  
HETATM   12  C   UNL     1     -11.265  12.744  67.414  1.00  0.00    -0.337 A  
HETATM   13  C   UNL     1     -10.382  13.641  68.003  1.00  0.00    -0.250 A  
HETATM   14  C   UNL     1     -10.130  14.874  67.395  1.00  0.00    -0.228 A  
HETATM   15  C   UNL     1     -10.760  15.243  66.178  1.00  0.00    -0.322 A  
ENDBRANCH   4   6
TORSDOF 1
ENDMDL
MODEL       16
REMARK 921   NORMALIZED FREE ENERGY PREDICTED BY IDOCK:   -5.13 KCAL/MOL
REMARK 922        TOTAL FREE ENERGY PREDICTED BY IDOCK:   -5.47 KCAL/MOL
REMARK 923 INTER-LIGAND FREE ENERGY PREDICTED BY IDOCK:   -5.43 KCAL/MOL
REMARK 924 INTRA-LIGAND FREE ENERGY PREDICTED BY IDOCK:   -0.04 KCAL/MOL
REMARK 927      BINDING AFFINITY PREDICTED BY RF-SCORE:    0.00 PKD
ROOT
HETATM    1  N   UNL     1     -12.615  14.144  63.394  1.00  0.00    -1.023 NA 
HETATM    2  H1  UNL     1     -12.915  14.641  62.556  1.00  0.00     0.000 HD 
HETATM    3  H2  UNL     1     -11.963  14.725  63.921  1.00  0.00     0.000 HD 
HETATM    4  N   UNL     1     -12.056  12.852  63.204  1.00  0.00    -0.790 NA 
HETATM    5  H   UNL     1     -11.959  12.442  62.276  1.00  0.00     0.000 HD 
ENDROOT
BRANCH   4   6
HETATM    6  C   UNL     1     -11.632  12.151  64.386  1.00  0.00    -0.350 A  
HETATM    7  N   UNL     1     -12.189  12.455  65.588  1.00  0.00    -0.626 NA 
HETATM    8  N   UNL     1     -11.830  11.779  66.718  1.00  0.00    -0.568 NA 
HETATM    9  C   UNL     1     -10.900  10.812  66.634  1.00  0.00    -0.164 A  
HETATM   10  C   UNL     1     -10.255  10.475  65.449  1.00  0.00    -0.340 A  
HETATM   11  C   UNL     1      -9.268   9.473  65.408  1.00  0.00    -0.306 A  
HETATM   12  C   UNL     1      -8.609   9.173  64.217  1.00  0.00    -0.197 A  
HETATM   13  C   UNL     1      -8.926   9.872  63.058  1.00  0.00    -0.273 A  
HETATM   14  C   UNL     1      -9.914  10.859  63.086  1.00  0.00    -0.368 A  
HETATM   15  C   UNL     1     -10.612  11.176  64.280  1.00  0.00    -0.425 A  
ENDBRANCH   4   6
TORSDOF 1
ENDMDL
MODEL       17
REMARK 921   NORMALIZED FREE ENERGY PREDICTED BY IDOCK:   -5.09 KCAL/MOL
REMARK 922        TOTAL FREE ENERGY PREDICTED BY IDOCK:   -5.43 KCAL/MOL
REMARK 923 INTER-LIGAND FREE ENERGY PREDICTED BY IDOCK:   -5.38 KCAL/MOL
REMARK 924 INTRA-LIGAND FREE ENERGY PREDICTED BY IDOCK:   -0.05 KCAL/MOL
REMARK 927      BINDING AFFINITY PREDICTED BY RF-SCORE:    0.00 PKD
ROOT
HETATM    1  N   UNL     1     -11.136  16.389  69.265  1.00  0.00    -0.312 NA 
HETATM    2  H1  UNL     1     -10.725  16.805  68.429  1.00  0.00     0.000 HD 
HETATM    3  H2  UNL     1     -10.400  15.974  69.837  1.00  0.00     0.000 HD 
HETATM    4  N   UNL     1     -12.174  15.441  69.063  1.00  0.00    -0.610 NA 
HETATM    5  H   UNL     1     -12.493  15.188  68.128  1.00  0.00     0.000 HD 
ENDROOT
BRANCH   4   6
HETATM    6  C   UNL     1     -12.753  14.855  70.242  1.00  0.00    -0.271 A  
HETATM    7  N   UNL     1     -13.414  15.641  71.132  1.00  0.00    -0.575 NA 
HETATM    8  N   UNL     1     -14.003  15.104  72.239  1.00  0.00    -0.491 NA 
HETATM    9  C   UNL     1     -13.909  13.780  72.453  1.00  0.00    -0.579 A  
HETATM   10  C   UNL     1     -13.213  12.919  71.612  1.00  0.00    -0.416 A  
HETATM   11  C   UNL     1     -13.116  11.543  71.884  1.00  0.00    -0.492 A  
HETATM   12  C   UNL     1     -12.385  10.702  71.046  1.00  0.00    -0.507 A  
HETATM   13  C   UNL     1     -11.742  11.227  69.932  1.00  0.00    -0.430 A  
HETATM   14  C   UNL     1     -11.843  12.591  69.646  1.00  0.00    -0.382 A  
HETATM   15  C   UNL     1     -12.592  13.468  70.472  1.00  0.00    -0.311 A  
ENDBRANCH   4   6
TORSDOF 1
ENDMDL
MODEL       18
REMARK 921   NORMALIZED FREE ENERGY PREDICTED BY IDOCK:   -4.95 KCAL/MOL
REMARK 922        TOTAL FREE ENERGY PREDICTED BY IDOCK:   -5.28 KCAL/MOL
REMARK 923 INTER-LIGAND FREE ENERGY PREDICTED BY IDOCK:   -5.29 KCAL/MOL
REMARK 924 INTRA-LIGAND FREE ENERGY PREDICTED BY IDOCK:    0.01 KCAL/MOL
REMARK 927      BINDING AFFINITY PREDICTED BY RF-SCORE:    0.00 PKD
ROOT
HETATM    1  N   UNL     1     -12.376  14.200  63.308  1.00  0.00    -1.133 NA 
HETATM    2  H1  UNL     1     -12.970  14.693  62.641  1.00  0.00     0.000 HD 
HETATM    3  H2  UNL     1     -12.304  13.218  63.040  1.00  0.00     0.000 HD 
HETATM    4  N   UNL     1     -12.738  14.294  64.678  1.00  0.00    -0.662 NA 
HETATM    5  H   UNL     1     -13.552  14.829  64.981  1.00  0.00     0.000 HD 
ENDROOT
BRANCH   4   6
HETATM    6  C   UNL     1     -11.902  13.599  65.618  1.00  0.00    -0.364 A  
HETATM    7  N   UNL     1     -12.284  12.384  66.093  1.00  0.00    -0.609 NA 
HETATM    8  N   UNL     1     -11.491  11.688  66.957  1.00  0.00    -0.490 NA 
HETATM    9  C   UNL     1     -10.324  12.227  67.352  1.00  0.00    -0.206 A  
HETATM   10  C   UNL     1      -9.886  13.482  66.945  1.00  0.00    -0.257 A  
HETATM   11  C   UNL     1      -8.670  14.021  67.401  1.00  0.00    -0.212 A  
HETATM   12  C   UNL     1      -8.265  15.296  67.007  1.00  0.00    -0.267 A  
HETATM   13  C   UNL     1      -9.071  16.044  66.157  1.00  0.00    -0.387 A  
HETATM   14  C   UNL     1     -10.275  15.511  65.689  1.00  0.00    -0.403 A  
HETATM   15  C   UNL     1     -10.706  14.212  66.061  1.00  0.00    -0.299 A  
ENDBRANCH   4   6
TORSDOF 1
ENDMDL
MODEL       19
REMARK 921   NORMALIZED FREE ENERGY PREDICTED BY IDOCK:   -4.93 KCAL/MOL
REMARK 922        TOTAL FREE ENERGY PREDICTED BY IDOCK:   -5.26 KCAL/MOL
REMARK 923 INTER-LIGAND FREE ENERGY PREDICTED BY IDOCK:   -5.21 KCAL/MOL
REMARK 924 INTRA-LIGAND FREE ENERGY PREDICTED BY IDOCK:   -0.06 KCAL/MOL
REMARK 927      BINDING AFFINITY PREDICTED BY RF-SCORE:    0.00 PKD
ROOT
HETATM    1  N   UNL     1     -12.455  14.015  63.497  1.00  0.00    -1.099 NA 
HETATM    2  H1  UNL     1     -12.383  14.368  62.542  1.00  0.00     0.000 HD 
HETATM    3  H2  UNL     1     -13.080  14.613  64.036  1.00  0.00     0.000 HD 
HETATM    4  N   UNL     1     -11.237  13.836  64.204  1.00  0.00    -0.593 NA 
HETATM    5  H   UNL     1     -10.335  14.050  63.780  1.00  0.00     0.000 HD 
ENDROOT
BRANCH   4   6
HETATM    6  C   UNL     1     -11.337  13.338  65.549  1.00  0.00    -0.294 A  
HETATM    7  N   UNL     1     -11.816  14.144  66.534  1.00  0.00    -0.401 NA 
HETATM    8  N   UNL     1     -11.955  13.684  67.811  1.00  0.00    -0.367 NA 
HETATM    9  C   UNL     1     -11.595  12.420  68.093  1.00  0.00    -0.341 A  
HETATM   10  C   UNL     1     -11.057  11.551  67.151  1.00  0.00    -0.355 A  
HETATM   11  C   UNL     1     -10.669  10.243  67.492  1.00  0.00    -0.348 A  
HETATM   12  C   UNL     1     -10.099   9.398  66.540  1.00  0.00    -0.332 A  
HETATM   13  C   UNL     1      -9.910   9.853  65.240  1.00  0.00    -0.373 A  
HETATM   14  C   UNL     1     -10.305  11.146  64.889  1.00  0.00    -0.375 A  
HETATM   15  C   UNL     1     -10.899  12.023  65.832  1.00  0.00    -0.329 A  
ENDBRANCH   4   6
TORSDOF 1
ENDMDL
MODEL       20
REMARK 921   NORMALIZED FREE ENERGY PREDICTED BY IDOCK:   -4.93 KCAL/MOL
REMARK 922        TOTAL FREE ENERGY PREDICTED BY IDOCK:   -5.25 KCAL/MOL
REMARK 923 INTER-LIGAND FREE ENERGY PREDICTED BY IDOCK:   -5.21 KCAL/MOL
REMARK 924 INTRA-LIGAND FREE ENERGY PREDICTED BY IDOCK:   -0.05 KCAL/MOL
REMARK 927      BINDING AFFINITY PREDICTED BY RF-SCORE:    0.00 PKD
ROOT
HETATM    1  N   UNL     1     -12.435  14.267  63.380  1.00  0.00    -1.101 NA 
HETATM    2  H1  UNL     1     -12.715  15.223  63.161  1.00  0.00     0.000 HD 
HETATM    3  H2  UNL     1     -13.160  13.818  63.941  1.00  0.00     0.000 HD 
HETATM    4  N   UNL     1     -11.173  14.099  64.010  1.00  0.00    -0.543 NA 
HETATM    5  H   UNL     1     -10.577  14.895  64.232  1.00  0.00     0.000 HD 
ENDROOT
BRANCH   4   6
HETATM    6  C   UNL     1     -10.778  12.751  64.318  1.00  0.00    -0.394 A  
HETATM    7  N   UNL     1     -10.223  11.973  63.352  1.00  0.00    -0.445 NA 
HETATM    8  N   UNL     1      -9.807  10.703  63.628  1.00  0.00    -0.326 NA 
HETATM    9  C   UNL     1      -9.967  10.218  64.872  1.00  0.00    -0.323 A  
HETATM   10  C   UNL     1     -10.565  10.938  65.900  1.00  0.00    -0.244 A  
HETATM   11  C   UNL     1     -10.737  10.386  67.182  1.00  0.00    -0.316 A  
HETATM   12  C   UNL     1     -11.370  11.112  68.190  1.00  0.00    -0.377 A  
HETATM   13  C   UNL     1     -11.839  12.393  67.927  1.00  0.00    -0.370 A  
HETATM   14  C   UNL     1     -11.661  12.955  66.660  1.00  0.00    -0.428 A  
HETATM   15  C   UNL     1     -11.008  12.246  65.619  1.00  0.00    -0.338 A  
ENDBRANCH   4   6
TORSDOF 1
ENDMDL
MODEL       21
REMARK 921   NORMALIZED FREE ENERGY PREDICTED BY IDOCK:   -4.92 KCAL/MOL
REMARK 922        TOTAL FREE ENERGY PREDICTED BY IDOCK:   -5.25 KCAL/MOL
REMARK 923 INTER-LIGAND FREE ENERGY PREDICTED BY IDOCK:   -5.21 KCAL/MOL
REMARK 924 INTRA-LIGAND FREE ENERGY PREDICTED BY IDOCK:   -0.04 KCAL/MOL
REMARK 927      BINDING AFFINITY PREDICTED BY RF-SCORE:    0.00 PKD
ROOT
HETATM    1  N   UNL     1     -11.130  17.586  64.742  1.00  0.00    -0.812 NA 
HETATM    2  H1  UNL     1     -11.594  18.263  64.135  1.00  0.00     0.000 HD 
HETATM    3  H2  UNL     1     -10.189  17.913  64.962  1.00  0.00     0.000 HD 
HETATM    4  N   UNL     1     -11.071  16.246  64.276  1.00  0.00    -1.192 NA 
HETATM    5  H   UNL     1     -11.473  15.973  63.379  1.00  0.00     0.000 HD 
ENDROOT
BRANCH   4   6
HETATM    6  C   UNL     1     -10.418  15.292  65.131  1.00  0.00    -0.411 A  
HETATM    7  N   UNL     1      -9.679  15.726  66.186  1.00  0.00    -0.296 NA 
HETATM    8  N   UNL     1      -9.079  14.840  67.033  1.00  0.00    -0.226 NA 
HETATM    9  C   UNL     1      -9.212  13.522  66.802  1.00  0.00    -0.240 A  
HETATM   10  C   UNL     1      -9.914  13.004  65.720  1.00  0.00    -0.260 A  
HETATM   11  C   UNL     1     -10.008  11.618  65.499  1.00  0.00    -0.277 A  
HETATM   12  C   UNL     1     -10.687  11.119  64.389  1.00  0.00    -0.388 A  
HETATM   13  C   UNL     1     -11.276  11.999  63.488  1.00  0.00    -0.526 A  
HETATM   14  C   UNL     1     -11.199  13.377  63.706  1.00  0.00    -0.133 A  
HETATM   15  C   UNL     1     -10.526  13.913  64.834  1.00  0.00    -0.446 A  
ENDBRANCH   4   6
TORSDOF 1
ENDMDL
MODEL       22
REMARK 921   NORMALIZED FREE ENERGY PREDICTED BY IDOCK:   -4.92 KCAL/MOL
REMARK 922        TOTAL FREE ENERGY PREDICTED BY IDOCK:   -5.24 KCAL/MOL
REMARK 923 INTER-LIGAND FREE ENERGY PREDICTED BY IDOCK:   -5.34 KCAL/MOL
REMARK 924 INTRA-LIGAND FREE ENERGY PREDICTED BY IDOCK:    0.10 KCAL/MOL
REMARK 927      BINDING AFFINITY PREDICTED BY RF-SCORE:    0.00 PKD
ROOT
HETATM    1  N   UNL     1     -11.222  16.805  64.217  1.00  0.00    -1.365 NA 
HETATM    2  H1  UNL     1     -10.895  17.382  63.442  1.00  0.00     0.000 HD 
HETATM    3  H2  UNL     1     -12.111  17.166  64.561  1.00  0.00     0.000 HD 
HETATM    4  N   UNL     1     -10.326  16.630  65.305  1.00  0.00    -0.636 NA 
HETATM    5  H   UNL     1      -9.401  17.061  65.311  1.00  0.00     0.000 HD 
ENDROOT
BRANCH   4   6
HETATM    6  C   UNL     1     -10.785  15.816  66.397  1.00  0.00    -0.277 A  
HETATM    7  N   UNL     1     -11.117  16.397  67.580  1.00  0.00    -0.215 NA 
HETATM    8  N   UNL     1     -11.589  15.651  68.620  1.00  0.00    -0.373 NA 
HETATM    9  C   UNL     1     -11.710  14.321  68.469  1.00  0.00    -0.341 A  
HETATM   10  C   UNL     1     -11.351  13.650  67.305  1.00  0.00    -0.346 A  
HETATM   11  C   UNL     1     -11.469  12.253  67.195  1.00  0.00    -0.419 A  
HETATM   12  C   UNL     1     -11.071  11.595  66.032  1.00  0.00    -0.325 A  
HETATM   13  C   UNL     1     -10.550  12.325  64.970  1.00  0.00    -0.322 A  
HETATM   14  C   UNL     1     -10.441  13.714  65.066  1.00  0.00    -0.406 A  
HETATM   15  C   UNL     1     -10.851  14.412  66.231  1.00  0.00    -0.313 A  
ENDBRANCH   4   6
TORSDOF 1
ENDMDL
MODEL       23
REMARK 921   NORMALIZED FREE ENERGY PREDICTED BY IDOCK:   -4.88 KCAL/MOL
REMARK 922        TOTAL FREE ENERGY PREDICTED BY IDOCK:   -5.21 KCAL/MOL
REMARK 923 INTER-LIGAND FREE ENERGY PREDICTED BY IDOCK:   -5.16 KCAL/MOL
REMARK 924 INTRA-LIGAND FREE ENERGY PREDICTED BY IDOCK:   -0.04 KCAL/MOL
REMARK 927      BINDING AFFINITY PREDICTED BY RF-SCORE:    0.00 PKD
ROOT
HETATM    1  N   UNL     1     -11.615  16.349  63.723  1.00  0.00    -1.515 NA 
HETATM    2  H1  UNL     1     -11.972  15.663  63.058  1.00  0.00     0.000 HD 
HETATM    3  H2  UNL     1     -11.099  17.074  63.223  1.00  0.00     0.000 HD 
HETATM    4  N   UNL     1     -10.823  15.851  64.791  1.00  0.00    -0.738 NA 
HETATM    5  H   UNL     1     -10.620  14.857  64.889  1.00  0.00     0.000 HD 
ENDROOT
BRANCH   4   6
HETATM    6  C   UNL     1     -10.320  16.818  65.729  1.00  0.00    -0.305 A  
HETATM    7  N   UNL     1     -10.518  18.144  65.504  1.00  0.00    -0.593 NA 
HETATM    8  N   UNL     1     -10.082  19.080  66.396  1.00  0.00    -0.388 NA 
HETATM    9  C   UNL     1      -9.434  18.676  67.502  1.00  0.00    -0.291 A  
HETATM   10  C   UNL     1      -9.155  17.343  67.780  1.00  0.00    -0.243 A  
HETATM   11  C   UNL     1      -8.451  16.963  68.937  1.00  0.00    -0.202 A  
HETATM   12  C   UNL     1      -8.152  15.623  69.179  1.00  0.00    -0.238 A  
HETATM   13  C   UNL     1      -8.550  14.651  68.269  1.00  0.00    -0.167 A  
HETATM   14  C   UNL     1      -9.260  15.018  67.123  1.00  0.00    -0.229 A  
HETATM   15  C   UNL     1      -9.592  16.371  66.857  1.00  0.00    -0.255 A  
ENDBRANCH   4   6
TORSDOF 1
ENDMDL
MODEL       24
REMARK 921   NORMALIZED FREE ENERGY PREDICTED BY IDOCK:   -4.85 KCAL/MOL
REMARK 922        TOTAL FREE ENERGY PREDICTED BY IDOCK:   -5.18 KCAL/MOL
REMARK 923 INTER-LIGAND FREE ENERGY PREDICTED BY IDOCK:   -5.17 KCAL/MOL
REMARK 924 INTRA-LIGAND FREE ENERGY PREDICTED BY IDOCK:   -0.01 KCAL/MOL
REMARK 927      BINDING AFFINITY PREDICTED BY RF-SCORE:    0.00 PKD
ROOT
HETATM    1  N   UNL     1     -12.169  10.643  68.574  1.00  0.00    -0.801 NA 
HETATM    2  H1  UNL     1     -12.022   9.633  68.556  1.00  0.00     0.000 HD 
HETATM    3  H2  UNL     1     -12.315  10.984  67.624  1.00  0.00     0.000 HD 
HETATM    4  N   UNL     1     -11.168  11.422  69.211  1.00  0.00    -0.258 NA 
HETATM    5  H   UNL     1     -10.342  10.994  69.630  1.00  0.00     0.000 HD 
ENDROOT
BRANCH   4   6
HETATM    6  C   UNL     1     -11.374  12.845  69.237  1.00  0.00    -0.243 A  
HETATM    7  N   UNL     1     -10.787  13.629  68.295  1.00  0.00    -0.244 NA 
HETATM    8  N   UNL     1     -10.996  14.978  68.276  1.00  0.00    -0.261 NA 
HETATM    9  C   UNL     1     -11.782  15.531  69.216  1.00  0.00    -0.365 A  
HETATM   10  C   UNL     1     -12.380  14.800  70.237  1.00  0.00    -0.400 A  
HETATM   11  C   UNL     1     -13.176  15.420  71.217  1.00  0.00    -0.585 A  
HETATM   12  C   UNL     1     -13.739  14.675  72.252  1.00  0.00    -0.565 A  
HETATM   13  C   UNL     1     -13.512  13.305  72.319  1.00  0.00    -0.679 A  
HETATM   14  C   UNL     1     -12.734  12.679  71.342  1.00  0.00    -0.347 A  
HETATM   15  C   UNL     1     -12.159  13.409  70.270  1.00  0.00    -0.419 A  
ENDBRANCH   4   6
TORSDOF 1
ENDMDL
MODEL       25
REMARK 921   NORMALIZED FREE ENERGY PREDICTED BY IDOCK:   -4.84 KCAL/MOL
REMARK 922        TOTAL FREE ENERGY PREDICTED BY IDOCK:   -5.17 KCAL/MOL
REMARK 923 INTER-LIGAND FREE ENERGY PREDICTED BY IDOCK:   -5.12 KCAL/MOL
REMARK 924 INTRA-LIGAND FREE ENERGY PREDICTED BY IDOCK:   -0.04 KCAL/MOL
REMARK 927      BINDING AFFINITY PREDICTED BY RF-SCORE:    0.00 PKD
ROOT
HETATM    1  N   UNL     1     -13.942  15.478  70.915  1.00  0.00    -0.853 NA 
HETATM    2  H1  UNL     1     -14.199  16.446  71.106  1.00  0.00     0.000 HD 
HETATM    3  H2  UNL     1     -13.878  14.962  71.793  1.00  0.00     0.000 HD 
HETATM    4  N   UNL     1     -12.763  15.267  70.152  1.00  0.00    -0.617 NA 
HETATM    5  H   UNL     1     -12.200  16.047  69.812  1.00  0.00     0.000 HD 
ENDROOT
BRANCH   4   6
HETATM    6  C   UNL     1     -12.401  13.902  69.883  1.00  0.00    -0.300 A  
HETATM    7  N   UNL     1     -12.389  12.995  70.895  1.00  0.00    -0.354 NA 
HETATM    8  N   UNL     1     -12.084  11.686  70.659  1.00  0.00    -0.370 NA 
HETATM    9  C   UNL     1     -11.778  11.301  69.408  1.00  0.00    -0.339 A  
HETATM   10  C   UNL     1     -11.727  12.178  68.331  1.00  0.00    -0.388 A  
HETATM   11  C   UNL     1     -11.377  11.740  67.041  1.00  0.00    -0.387 A  
HETATM   12  C   UNL     1     -11.298  12.642  65.981  1.00  0.00    -0.369 A  
HETATM   13  C   UNL     1     -11.566  13.988  66.199  1.00  0.00    -0.374 A  
HETATM   14  C   UNL     1     -11.927  14.430  67.474  1.00  0.00    -0.389 A  
HETATM   15  C   UNL     1     -12.029  13.534  68.569  1.00  0.00    -0.379 A  
ENDBRANCH   4   6
TORSDOF 1
ENDMDL
MODEL       26
REMARK 921   NORMALIZED FREE ENERGY PREDICTED BY IDOCK:   -4.82 KCAL/MOL
REMARK 922        TOTAL FREE ENERGY PREDICTED BY IDOCK:   -5.14 KCAL/MOL
REMARK 923 INTER-LIGAND FREE ENERGY PREDICTED BY IDOCK:   -5.10 KCAL/MOL
REMARK 924 INTRA-LIGAND FREE ENERGY PREDICTED BY IDOCK:   -0.04 KCAL/MOL
REMARK 927      BINDING AFFINITY PREDICTED BY RF-SCORE:    0.00 PKD
ROOT
HETATM    1  N   UNL     1     -11.835  16.262  63.721  1.00  0.00    -1.413 NA 
HETATM    2  H1  UNL     1     -12.543  16.322  62.989  1.00  0.00     0.000 HD 
HETATM    3  H2  UNL     1     -10.964  16.676  63.389  1.00  0.00     0.000 HD 
HETATM    4  N   UNL     1     -11.575  14.971  64.253  1.00  0.00    -0.666 NA 
HETATM    5  H   UNL     1     -12.072  14.145  63.920  1.00  0.00     0.000 HD 
ENDROOT
BRANCH   4   6
HETATM    6  C   UNL     1     -10.578  14.885  65.285  1.00  0.00    -0.401 A  
HETATM    7  N   UNL     1      -9.588  15.814  65.346  1.00  0.00    -0.349 NA 
HETATM    8  N   UNL     1      -8.650  15.776  66.336  1.00  0.00    -0.307 NA 
HETATM    9  C   UNL     1      -8.704  14.792  67.250  1.00  0.00    -0.210 A  
HETATM   10  C   UNL     1      -9.660  13.782  67.228  1.00  0.00    -0.237 A  
HETATM   11  C   UNL     1      -9.668  12.755  68.190  1.00  0.00    -0.223 A  
HETATM   12  C   UNL     1     -10.614  11.733  68.130  1.00  0.00    -0.230 A  
HETATM   13  C   UNL     1     -11.558  11.725  67.110  1.00  0.00    -0.342 A  
HETATM   14  C   UNL     1     -11.566  12.747  66.158  1.00  0.00    -0.431 A  
HETATM   15  C   UNL     1     -10.625  13.808  66.201  1.00  0.00    -0.291 A  
ENDBRANCH   4   6
TORSDOF 1
ENDMDL
MODEL       27
REMARK 921   NORMALIZED FREE ENERGY PREDICTED BY IDOCK:   -4.82 KCAL/MOL
REMARK 922        TOTAL FREE ENERGY PREDICTED BY IDOCK:   -5.14 KCAL/MOL
REMARK 923 INTER-LIGAND FREE ENERGY PREDICTED BY IDOCK:   -5.08 KCAL/MOL
REMARK 924 INTRA-LIGAND FREE ENERGY PREDICTED BY IDOCK:   -0.06 KCAL/MOL
REMARK 927      BINDING AFFINITY PREDICTED BY RF-SCORE:    0.00 PKD
ROOT
HETATM    1  N   UNL     1     -11.822  11.970  67.221  1.00  0.00    -0.598 NA 
HETATM    2  H1  UNL     1     -11.297  12.137  66.363  1.00  0.00     0.000 HD 
HETATM    3  H2  UNL     1     -12.667  12.542  67.221  1.00  0.00     0.000 HD 
HETATM    4  N   UNL     1     -11.123  12.151  68.443  1.00  0.00    -0.227 NA 
HETATM    5  H   UNL     1     -10.144  12.435  68.463  1.00  0.00     0.000 HD 
ENDROOT
BRANCH   4   6
HETATM    6  C   UNL     1     -11.863  11.915  69.653  1.00  0.00    -0.337 A  
HETATM    7  N   UNL     1     -12.102  10.641  70.061  1.00  0.00    -0.313 NA 
HETATM    8  N   UNL     1     -12.771  10.391  71.224  1.00  0.00    -0.395 NA 
HETATM    9  C   UNL     1     -13.211  11.426  71.961  1.00  0.00    -0.327 A  
HETATM   10  C   UNL     1     -13.043  12.754  71.588  1.00  0.00    -0.428 A  
HETATM   11  C   UNL     1     -13.540  13.809  72.375  1.00  0.00    -0.690 A  
HETATM   12  C   UNL     1     -13.391  15.133  71.965  1.00  0.00    -0.494 A  
HETATM   13  C   UNL     1     -12.748  15.416  70.766  1.00  0.00    -0.516 A  
HETATM   14  C   UNL     1     -12.239  14.376  69.984  1.00  0.00    -0.408 A  
HETATM   15  C   UNL     1     -12.363  13.020  70.382  1.00  0.00    -0.351 A  
ENDBRANCH   4   6
TORSDOF 1
ENDMDL
MODEL       28
REMARK 921   NORMALIZED FREE ENERGY PREDICTED BY IDOCK:   -4.81 KCAL/MOL
REMARK 922        TOTAL FREE ENERGY PREDICTED BY IDOCK:   -5.14 KCAL/MOL
REMARK 923 INTER-LIGAND FREE ENERGY PREDICTED BY IDOCK:   -5.10 KCAL/MOL
REMARK 924 INTRA-LIGAND FREE ENERGY PREDICTED BY IDOCK:   -0.04 KCAL/MOL
REMARK 927      BINDING AFFINITY PREDICTED BY RF-SCORE:    0.00 PKD
ROOT
HETATM    1  N   UNL     1      -9.394   9.379  62.541  1.00  0.00    -0.577 NA 
HETATM    2  H1  UNL     1      -9.156   9.228  61.561  1.00  0.00     0.000 HD 
HETATM    3  H2  UNL     1      -9.993   8.621  62.868  1.00  0.00     0.000 HD 
HETATM    4  N   UNL     1      -9.982  10.629  62.870  1.00  0.00    -0.670 NA 
HETATM    5  H   UNL     1     -10.159  11.340  62.161  1.00  0.00     0.000 HD 
ENDROOT
BRANCH   4   6
HETATM    6  C   UNL     1     -10.317  10.842  64.252  1.00  0.00    -0.368 A  
HETATM    7  N   UNL     1      -9.909   9.949  65.192  1.00  0.00    -0.313 NA 
HETATM    8  N   UNL     1     -10.183  10.148  66.514  1.00  0.00    -0.229 NA 
HETATM    9  C   UNL     1     -10.881  11.236  66.880  1.00  0.00    -0.282 A  
HETATM   10  C   UNL     1     -11.370  12.170  65.974  1.00  0.00    -0.410 A  
HETATM   11  C   UNL     1     -12.119  13.283  66.396  1.00  0.00    -0.454 A  
HETATM   12  C   UNL     1     -12.629  14.190  65.468  1.00  0.00    -0.501 A  
HETATM   13  C   UNL     1     -12.398  13.993  64.112  1.00  0.00    -0.374 A  
HETATM   14  C   UNL     1     -11.645  12.897  63.684  1.00  0.00    -0.547 A  
HETATM   15  C   UNL     1     -11.101  11.966  64.606  1.00  0.00    -0.373 A  
ENDBRANCH   4   6
TORSDOF 1
ENDMDL
MODEL       29
REMARK 921   NORMALIZED FREE ENERGY PREDICTED BY IDOCK:   -4.80 KCAL/MOL
REMARK 922        TOTAL FREE ENERGY PREDICTED BY IDOCK:   -5.13 KCAL/MOL
REMARK 923 INTER-LIGAND FREE ENERGY PREDICTED BY IDOCK:   -5.09 KCAL/MOL
REMARK 924 INTRA-LIGAND FREE ENERGY PREDICTED BY IDOCK:   -0.04 KCAL/MOL
REMARK 927      BINDING AFFINITY PREDICTED BY RF-SCORE:    0.00 PKD
ROOT
HETATM    1  N   UNL     1     -13.630  10.264  72.367  1.00  0.00    -0.554 NA 
HETATM    2  H1  UNL     1     -13.476   9.257  72.328  1.00  0.00     0.000 HD 
HETATM    3  H2  UNL     1     -14.613  10.467  72.182  1.00  0.00     0.000 HD 
HETATM    4  N   UNL     1     -12.812  11.068  71.529  1.00  0.00    -0.445 NA 
HETATM    5  H   UNL     1     -12.106  10.657  70.918  1.00  0.00     0.000 HD 
ENDROOT
BRANCH   4   6
HETATM    6  C   UNL     1     -13.029  12.488  71.582  1.00  0.00    -0.302 A  
HETATM    7  N   UNL     1     -13.817  13.015  72.557  1.00  0.00    -0.631 NA 
HETATM    8  N   UNL     1     -14.009  14.362  72.651  1.00  0.00    -0.575 NA 
HETATM    9  C   UNL     1     -13.420  15.171  71.753  1.00  0.00    -0.433 A  
HETATM   10  C   UNL     1     -12.636  14.704  70.704  1.00  0.00    -0.419 A  
HETATM   11  C   UNL     1     -12.057  15.582  69.770  1.00  0.00    -0.372 A  
HETATM   12  C   UNL     1     -11.303  15.092  68.706  1.00  0.00    -0.306 A  
HETATM   13  C   UNL     1     -11.122  13.721  68.562  1.00  0.00    -0.292 A  
HETATM   14  C   UNL     1     -11.682  12.842  69.492  1.00  0.00    -0.383 A  
HETATM   15  C   UNL     1     -12.443  13.313  70.593  1.00  0.00    -0.373 A  
ENDBRANCH   4   6
TORSDOF 1
ENDMDL
MODEL       30
REMARK 921   NORMALIZED FREE ENERGY PREDICTED BY IDOCK:   -4.79 KCAL/MOL
REMARK 922        TOTAL FREE ENERGY PREDICTED BY IDOCK:   -5.11 KCAL/MOL
REMARK 923 INTER-LIGAND FREE ENERGY PREDICTED BY IDOCK:   -5.06 KCAL/MOL
REMARK 924 INTRA-LIGAND FREE ENERGY PREDICTED BY IDOCK:   -0.05 KCAL/MOL
REMARK 927      BINDING AFFINITY PREDICTED BY RF-SCORE:    0.00 PKD
ROOT
HETATM    1  N   UNL     1     -11.189   9.587  68.121  1.00  0.00    -0.509 NA 
HETATM    2  H1  UNL     1     -11.291   8.661  68.535  1.00  0.00     0.000 HD 
HETATM    3  H2  UNL     1     -10.218   9.889  68.193  1.00  0.00     0.000 HD 
HETATM    4  N   UNL     1     -12.043  10.607  68.620  1.00  0.00    -0.812 NA 
HETATM    5  H   UNL     1     -12.724  10.421  69.357  1.00  0.00     0.000 HD 
ENDROOT
BRANCH   4   6
HETATM    6  C   UNL     1     -11.901  11.913  68.037  1.00  0.00    -0.253 A  
HETATM    7  N   UNL     1     -11.740  12.039  66.693  1.00  0.00    -0.577 NA 
HETATM    8  N   UNL     1     -11.639  13.268  66.111  1.00  0.00    -0.333 NA 
HETATM    9  C   UNL     1     -11.683  14.365  66.887  1.00  0.00    -0.402 A  
HETATM   10  C   UNL     1     -11.801  14.315  68.272  1.00  0.00    -0.370 A  
HETATM   11  C   UNL     1     -11.818  15.486  69.052  1.00  0.00    -0.373 A  
HETATM   12  C   UNL     1     -11.903  15.413  70.441  1.00  0.00    -0.366 A  
HETATM   13  C   UNL     1     -11.969  14.173  71.065  1.00  0.00    -0.351 A  
HETATM   14  C   UNL     1     -11.965  13.005  70.298  1.00  0.00    -0.360 A  
HETATM   15  C   UNL     1     -11.894  13.048  68.882  1.00  0.00    -0.358 A  
ENDBRANCH   4   6
TORSDOF 1
ENDMDL
MODEL       31
REMARK 921   NORMALIZED FREE ENERGY PREDICTED BY IDOCK:   -4.74 KCAL/MOL
REMARK 922        TOTAL FREE ENERGY PREDICTED BY IDOCK:   -5.06 KCAL/MOL
REMARK 923 INTER-LIGAND FREE ENERGY PREDICTED BY IDOCK:   -5.12 KCAL/MOL
REMARK 924 INTRA-LIGAND FREE ENERGY PREDICTED BY IDOCK:    0.05 KCAL/MOL
REMARK 927      BINDING AFFINITY PREDICTED BY RF-SCORE:    0.00 PKD
ROOT
HETATM    1  N   UNL     1     -12.118  11.019  68.263  1.00  0.00    -0.788 NA 
HETATM    2  H1  UNL     1     -12.042  10.963  69.279  1.00  0.00     0.000 HD 
HETATM    3  H2  UNL     1     -11.756  10.162  67.846  1.00  0.00     0.000 HD 
HETATM    4  N   UNL     1     -11.515  12.144  67.639  1.00  0.00    -0.310 NA 
HETATM    5  H   UNL     1     -11.031  12.860  68.179  1.00  0.00     0.000 HD 
ENDROOT
BRANCH   4   6
HETATM    6  C   UNL     1     -11.622  12.223  66.207  1.00  0.00    -0.385 A  
HETATM    7  N   UNL     1     -12.588  12.995  65.644  1.00  0.00    -0.532 NA 
HETATM    8  N   UNL     1     -12.688  13.115  64.288  1.00  0.00    -0.674 NA 
HETATM    9  C   UNL     1     -11.824  12.444  63.507  1.00  0.00    -0.521 A  
HETATM   10  C   UNL     1     -10.837  11.602  64.008  1.00  0.00    -0.455 A  
HETATM   11  C   UNL     1      -9.968  10.898  63.156  1.00  0.00    -0.368 A  
HETATM   12  C   UNL     1      -9.008  10.032  63.677  1.00  0.00    -0.280 A  
HETATM   13  C   UNL     1      -8.908   9.860  65.053  1.00  0.00    -0.220 A  
HETATM   14  C   UNL     1      -9.759  10.565  65.908  1.00  0.00    -0.270 A  
HETATM   15  C   UNL     1     -10.736  11.464  65.407  1.00  0.00    -0.313 A  
ENDBRANCH   4   6
TORSDOF 1
ENDMDL
MODEL       32
REMARK 921   NORMALIZED FREE ENERGY PREDICTED BY IDOCK:   -4.73 KCAL/MOL
REMARK 922        TOTAL FREE ENERGY PREDICTED BY IDOCK:   -5.04 KCAL/MOL
REMARK 923 INTER-LIGAND FREE ENERGY PREDICTED BY IDOCK:   -5.00 KCAL/MOL
REMARK 924 INTRA-LIGAND FREE ENERGY PREDICTED BY IDOCK:   -0.05 KCAL/MOL
REMARK 927      BINDING AFFINITY PREDICTED BY RF-SCORE:    0.00 PKD
ROOT
HETATM    1  N   UNL     1     -11.750  10.971  67.760  1.00  0.00    -0.614 NA 
HETATM    2  H1  UNL     1     -11.774  10.514  68.671  1.00  0.00     0.000 HD 
HETATM    3  H2  UNL     1     -10.827  10.852  67.342  1.00  0.00     0.000 HD 
HETATM    4  N   UNL     1     -12.117  12.342  67.723  1.00  0.00    -0.423 NA 
HETATM    5  H   UNL     1     -12.390  12.846  68.567  1.00  0.00     0.000 HD 
ENDROOT
BRANCH   4   6
HETATM    6  C   UNL     1     -12.084  12.987  66.439  1.00  0.00    -0.358 A  
HETATM    7  N   UNL     1     -12.616  12.362  65.356  1.00  0.00    -0.557 NA 
HETATM    8  N   UNL     1     -12.630  12.967  64.133  1.00  0.00    -0.664 NA 
HETATM    9  C   UNL     1     -12.091  14.192  64.004  1.00  0.00    -0.348 A  
HETATM   10  C   UNL     1     -11.490  14.876  65.054  1.00  0.00    -0.379 A  
HETATM   11  C   UNL     1     -10.915  16.146  64.873  1.00  0.00    -0.364 A  
HETATM   12  C   UNL     1     -10.286  16.801  65.931  1.00  0.00    -0.345 A  
HETATM   13  C   UNL     1     -10.223  16.192  67.179  1.00  0.00    -0.281 A  
HETATM   14  C   UNL     1     -10.803  14.935  67.372  1.00  0.00    -0.304 A  
HETATM   15  C   UNL     1     -11.461  14.252  66.318  1.00  0.00    -0.360 A  
ENDBRANCH   4   6
TORSDOF 1
ENDMDL
MODEL       33
REMARK 921   NORMALIZED FREE ENERGY PREDICTED BY IDOCK:   -4.66 KCAL/MOL
REMARK 922        TOTAL FREE ENERGY PREDICTED BY IDOCK:   -4.97 KCAL/MOL
REMARK 923 INTER-LIGAND FREE ENERGY PREDICTED BY IDOCK:   -4.92 KCAL/MOL
REMARK 924 INTRA-LIGAND FREE ENERGY PREDICTED BY IDOCK:   -0.05 KCAL/MOL
REMARK 927      BINDING AFFINITY PREDICTED BY RF-SCORE:    0.00 PKD
ROOT
HETATM    1  N   UNL     1     -14.401   8.607  73.112  1.00  0.00    -1.044 NA 
HETATM    2  H1  UNL     1     -14.972   8.801  73.935  1.00  0.00     0.000 HD 
HETATM    3  H2  UNL     1     -14.233   7.603  73.042  1.00  0.00     0.000 HD 
HETATM    4  N   UNL     1     -13.169   9.305  73.011  1.00  0.00    -0.688 NA 
HETATM    5  H   UNL     1     -12.869   9.967  73.725  1.00  0.00     0.000 HD 
ENDROOT
BRANCH   4   6
HETATM    6  C   UNL     1     -12.364   9.031  71.851  1.00  0.00    -0.384 A  
HETATM    7  N   UNL     1     -11.831   7.793  71.675  1.00  0.00    -0.276 NA 
HETATM    8  N   UNL     1     -11.094   7.498  70.566  1.00  0.00    -0.257 NA 
HETATM    9  C   UNL     1     -10.884   8.456  69.646  1.00  0.00    -0.148 A  
HETATM   10  C   UNL     1     -11.360   9.756  69.777  1.00  0.00    -0.201 A  
HETATM   11  C   UNL     1     -11.097  10.737  68.804  1.00  0.00    -0.312 A  
HETATM   12  C   UNL     1     -11.554  12.044  68.970  1.00  0.00    -0.370 A  
HETATM   13  C   UNL     1     -12.274  12.383  70.109  1.00  0.00    -0.303 A  
HETATM   14  C   UNL     1     -12.551  11.412  71.074  1.00  0.00    -0.487 A  
HETATM   15  C   UNL     1     -12.112  10.072  70.926  1.00  0.00    -0.448 A  
ENDBRANCH   4   6
TORSDOF 1
ENDMDL
MODEL       34
REMARK 921   NORMALIZED FREE ENERGY PREDICTED BY IDOCK:   -4.63 KCAL/MOL
REMARK 922        TOTAL FREE ENERGY PREDICTED BY IDOCK:   -4.94 KCAL/MOL
REMARK 923 INTER-LIGAND FREE ENERGY PREDICTED BY IDOCK:   -4.90 KCAL/MOL
REMARK 924 INTRA-LIGAND FREE ENERGY PREDICTED BY IDOCK:   -0.04 KCAL/MOL
REMARK 927      BINDING AFFINITY PREDICTED BY RF-SCORE:    0.00 PKD
ROOT
HETATM    1  N   UNL     1     -13.593   9.249  72.991  1.00  0.00    -0.856 NA 
HETATM    2  H1  UNL     1     -13.623   8.247  73.180  1.00  0.00     0.000 HD 
HETATM    3  H2  UNL     1     -14.542   9.619  72.959  1.00  0.00     0.000 HD 
HETATM    4  N   UNL     1     -12.883   9.659  71.831  1.00  0.00    -0.403 NA 
HETATM    5  H   UNL     1     -12.426   8.985  71.217  1.00  0.00     0.000 HD 
ENDROOT
BRANCH   4   6
HETATM    6  C   UNL     1     -12.840  11.071  71.565  1.00  0.00    -0.450 A  
HETATM    7  N   UNL     1     -13.392  11.943  72.450  1.00  0.00    -0.210 NA 
HETATM    8  N   UNL     1     -13.333  13.289  72.238  1.00  0.00    -0.526 NA 
HETATM    9  C   UNL     1     -12.733  13.750  71.127  1.00  0.00    -0.362 A  
HETATM   10  C   UNL     1     -12.185  12.921  70.155  1.00  0.00    -0.336 A  
HETATM   11  C   UNL     1     -11.588  13.442  68.993  1.00  0.00    -0.358 A  
HETATM   12  C   UNL     1     -11.075  12.592  68.014  1.00  0.00    -0.288 A  
HETATM   13  C   UNL     1     -11.156  11.215  68.185  1.00  0.00    -0.324 A  
HETATM   14  C   UNL     1     -11.735  10.688  69.342  1.00  0.00    -0.344 A  
HETATM   15  C   UNL     1     -12.253  11.528  70.361  1.00  0.00    -0.442 A  
ENDBRANCH   4   6
TORSDOF 1
ENDMDL
MODEL       35
REMARK 921   NORMALIZED FREE ENERGY PREDICTED BY IDOCK:   -4.63 KCAL/MOL
REMARK 922        TOTAL FREE ENERGY PREDICTED BY IDOCK:   -4.94 KCAL/MOL
REMARK 923 INTER-LIGAND FREE ENERGY PREDICTED BY IDOCK:   -4.88 KCAL/MOL
REMARK 924 INTRA-LIGAND FREE ENERGY PREDICTED BY IDOCK:   -0.06 KCAL/MOL
REMARK 927      BINDING AFFINITY PREDICTED BY RF-SCORE:    0.00 PKD
ROOT
HETATM    1  N   UNL     1     -11.489  14.067  70.422  1.00  0.00    -0.501 NA 
HETATM    2  H1  UNL     1     -11.982  13.643  71.209  1.00  0.00     0.000 HD 
HETATM    3  H2  UNL     1     -10.801  14.735  70.769  1.00  0.00     0.000 HD 
HETATM    4  N   UNL     1     -12.291  14.683  69.424  1.00  0.00    -0.551 NA 
HETATM    5  H   UNL     1     -13.308  14.701  69.491  1.00  0.00     0.000 HD 
ENDROOT
BRANCH   4   6
HETATM    6  C   UNL     1     -11.597  15.280  68.315  1.00  0.00    -0.341 A  
HETATM    7  N   UNL     1     -11.109  16.543  68.425  1.00  0.00    -0.359 NA 
HETATM    8  N   UNL     1     -10.416  17.119  67.400  1.00  0.00    -0.343 NA 
HETATM    9  C   UNL     1     -10.233  16.425  66.263  1.00  0.00    -0.330 A  
HETATM   10  C   UNL     1     -10.740  15.146  66.060  1.00  0.00    -0.333 A  
HETATM   11  C   UNL     1     -10.548  14.462  64.846  1.00  0.00    -0.456 A  
HETATM   12  C   UNL     1     -11.093  13.194  64.650  1.00  0.00    -0.366 A  
HETATM   13  C   UNL     1     -11.836  12.598  65.663  1.00  0.00    -0.488 A  
HETATM   14  C   UNL     1     -12.021  13.264  66.877  1.00  0.00    -0.430 A  
HETATM   15  C   UNL     1     -11.466  14.549  67.110  1.00  0.00    -0.383 A  
ENDBRANCH   4   6
TORSDOF 1
ENDMDL
MODEL       36
REMARK 921   NORMALIZED FREE ENERGY PREDICTED BY IDOCK:   -4.63 KCAL/MOL
REMARK 922        TOTAL FREE ENERGY PREDICTED BY IDOCK:   -4.94 KCAL/MOL
REMARK 923 INTER-LIGAND FREE ENERGY PREDICTED BY IDOCK:   -4.89 KCAL/MOL
REMARK 924 INTRA-LIGAND FREE ENERGY PREDICTED BY IDOCK:   -0.04 KCAL/MOL
REMARK 927      BINDING AFFINITY PREDICTED BY RF-SCORE:    0.00 PKD
ROOT
HETATM    1  N   UNL     1     -10.208  18.535  65.885  1.00  0.00    -0.580 NA 
HETATM    2  H1  UNL     1      -9.713  19.200  65.289  1.00  0.00     0.000 HD 
HETATM    3  H2  UNL     1     -10.170  18.851  66.854  1.00  0.00     0.000 HD 
HETATM    4  N   UNL     1      -9.793  17.179  65.809  1.00  0.00    -0.558 NA 
HETATM    5  H   UNL     1      -9.039  16.884  65.190  1.00  0.00     0.000 HD 
ENDROOT
BRANCH   4   6
HETATM    6  C   UNL     1     -10.490  16.242  66.648  1.00  0.00    -0.290 A  
HETATM    7  N   UNL     1     -10.805  16.583  67.925  1.00  0.00    -0.344 NA 
HETATM    8  N   UNL     1     -11.497  15.726  68.730  1.00  0.00    -0.370 NA 
HETATM    9  C   UNL     1     -11.854  14.522  68.249  1.00  0.00    -0.312 A  
HETATM   10  C   UNL     1     -11.531  14.085  66.969  1.00  0.00    -0.370 A  
HETATM   11  C   UNL     1     -11.902  12.808  66.512  1.00  0.00    -0.471 A  
HETATM   12  C   UNL     1     -11.538  12.376  65.237  1.00  0.00    -0.419 A  
HETATM   13  C   UNL     1     -10.800  13.213  64.409  1.00  0.00    -0.417 A  
HETATM   14  C   UNL     1     -10.438  14.488  64.850  1.00  0.00    -0.435 A  
HETATM   15  C   UNL     1     -10.806  14.961  66.136  1.00  0.00    -0.327 A  
ENDBRANCH   4   6
TORSDOF 1
ENDMDL
MODEL       37
REMARK 921   NORMALIZED FREE ENERGY PREDICTED BY IDOCK:   -4.60 KCAL/MOL
REMARK 922        TOTAL FREE ENERGY PREDICTED BY IDOCK:   -4.91 KCAL/MOL
REMARK 923 INTER-LIGAND FREE ENERGY PREDICTED BY IDOCK:   -4.86 KCAL/MOL
REMARK 924 INTRA-LIGAND FREE ENERGY PREDICTED BY IDOCK:   -0.05 KCAL/MOL
REMARK 927      BINDING AFFINITY PREDICTED BY RF-SCORE:    0.00 PKD
ROOT
HETATM    1  N   UNL     1      -8.200  17.589  65.911  1.00  0.00    -0.553 NA 
HETATM    2  H1  UNL     1      -7.669  18.459  65.883  1.00  0.00     0.000 HD 
HETATM    3  H2  UNL     1      -7.910  16.985  65.142  1.00  0.00     0.000 HD 
HETATM    4  N   UNL     1      -9.616  17.704  65.918  1.00  0.00    -0.528 NA 
HETATM    5  H   UNL     1     -10.079  18.612  65.895  1.00  0.00     0.000 HD 
ENDROOT
BRANCH   4   6
HETATM    6  C   UNL     1     -10.365  16.477  65.958  1.00  0.00    -0.345 A  
HETATM    7  N   UNL     1     -10.698  15.851  64.799  1.00  0.00    -0.576 NA 
HETATM    8  N   UNL     1     -11.377  14.667  64.812  1.00  0.00    -0.394 NA 
HETATM    9  C   UNL     1     -11.731  14.130  65.992  1.00  0.00    -0.382 A  
HETATM   10  C   UNL     1     -11.465  14.732  67.216  1.00  0.00    -0.378 A  
HETATM   11  C   UNL     1     -11.875  14.150  68.428  1.00  0.00    -0.388 A  
HETATM   12  C   UNL     1     -11.629  14.787  69.643  1.00  0.00    -0.342 A  
HETATM   13  C   UNL     1     -10.973  16.012  69.659  1.00  0.00    -0.326 A  
HETATM   14  C   UNL     1     -10.550  16.593  68.460  1.00  0.00    -0.338 A  
HETATM   15  C   UNL     1     -10.775  15.961  67.210  1.00  0.00    -0.306 A  
ENDBRANCH   4   6
TORSDOF 1
ENDMDL
MODEL       38
REMARK 921   NORMALIZED FREE ENERGY PREDICTED BY IDOCK:   -4.57 KCAL/MOL
REMARK 922        TOTAL FREE ENERGY PREDICTED BY IDOCK:   -4.88 KCAL/MOL
REMARK 923 INTER-LIGAND FREE ENERGY PREDICTED BY IDOCK:   -4.82 KCAL/MOL
REMARK 924 INTRA-LIGAND FREE ENERGY PREDICTED BY IDOCK:   -0.06 KCAL/MOL
REMARK 927      BINDING AFFINITY PREDICTED BY RF-SCORE:    0.00 PKD
ROOT
HETATM    1  N   UNL     1     -12.383  16.092  71.589  1.00  0.00    -0.593 NA 
HETATM    2  H1  UNL     1     -12.522  17.096  71.468  1.00  0.00     0.000 HD 
HETATM    3  H2  UNL     1     -11.385  15.883  71.592  1.00  0.00     0.000 HD 
HETATM    4  N   UNL     1     -13.046  15.241  70.665  1.00  0.00    -0.638 NA 
HETATM    5  H   UNL     1     -13.631  15.614  69.919  1.00  0.00     0.000 HD 
ENDROOT
BRANCH   4   6
HETATM    6  C   UNL     1     -12.851  13.826  70.835  1.00  0.00    -0.271 A  
HETATM    7  N   UNL     1     -13.311  13.211  71.957  1.00  0.00    -0.483 NA 
HETATM    8  N   UNL     1     -13.170  11.865  72.125  1.00  0.00    -0.423 NA 
HETATM    9  C   UNL     1     -12.553  11.147  71.170  1.00  0.00    -0.409 A  
HETATM   10  C   UNL     1     -12.019  11.711  70.017  1.00  0.00    -0.429 A  
HETATM   11  C   UNL     1     -11.358  10.929  69.053  1.00  0.00    -0.348 A  
HETATM   12  C   UNL     1     -10.800  11.518  67.920  1.00  0.00    -0.257 A  
HETATM   13  C   UNL     1     -10.894  12.893  67.741  1.00  0.00    -0.248 A  
HETATM   14  C   UNL     1     -11.559  13.677  68.686  1.00  0.00    -0.364 A  
HETATM   15  C   UNL     1     -12.150  13.103  69.842  1.00  0.00    -0.357 A  
ENDBRANCH   4   6
TORSDOF 1
ENDMDL
MODEL       39
REMARK 921   NORMALIZED FREE ENERGY PREDICTED BY IDOCK:   -4.55 KCAL/MOL
REMARK 922        TOTAL FREE ENERGY PREDICTED BY IDOCK:   -4.86 KCAL/MOL
REMARK 923 INTER-LIGAND FREE ENERGY PREDICTED BY IDOCK:   -4.81 KCAL/MOL
REMARK 924 INTRA-LIGAND FREE ENERGY PREDICTED BY IDOCK:   -0.05 KCAL/MOL
REMARK 927      BINDING AFFINITY PREDICTED BY RF-SCORE:    0.00 PKD
ROOT
HETATM    1  N   UNL     1     -11.928  12.151  66.535  1.00  0.00    -0.631 NA 
HETATM    2  H1  UNL     1     -11.621  11.441  65.870  1.00  0.00     0.000 HD 
HETATM    3  H2  UNL     1     -12.232  12.984  66.030  1.00  0.00     0.000 HD 
HETATM    4  N   UNL     1     -11.004  12.520  67.548  1.00  0.00    -0.241 NA 
HETATM    5  H   UNL     1     -10.078  12.096  67.608  1.00  0.00     0.000 HD 
ENDROOT
BRANCH   4   6
HETATM    6  C   UNL     1     -11.436  13.521  68.485  1.00  0.00    -0.310 A  
HETATM    7  N   UNL     1     -11.242  14.837  68.206  1.00  0.00    -0.273 NA 
HETATM    8  N   UNL     1     -11.676  15.807  69.062  1.00  0.00    -0.398 NA 
HETATM    9  C   UNL     1     -12.287  15.446  70.203  1.00  0.00    -0.361 A  
HETATM   10  C   UNL     1     -12.483  14.121  70.578  1.00  0.00    -0.431 A  
HETATM   11  C   UNL     1     -13.105  13.785  71.794  1.00  0.00    -0.463 A  
HETATM   12  C   UNL     1     -13.261  12.451  72.168  1.00  0.00    -0.491 A  
HETATM   13  C   UNL     1     -12.794  11.442  71.333  1.00  0.00    -0.502 A  
HETATM   14  C   UNL     1     -12.186  11.766  70.118  1.00  0.00    -0.342 A  
HETATM   15  C   UNL     1     -12.027  13.114  69.705  1.00  0.00    -0.370 A  
ENDBRANCH   4   6
TORSDOF 1
ENDMDL
MODEL       40
REMARK 921   NORMALIZED FREE ENERGY PREDICTED BY IDOCK:   -4.55 KCAL/MOL
REMARK 922        TOTAL FREE ENERGY PREDICTED BY IDOCK:   -4.85 KCAL/MOL
REMARK 923 INTER-LIGAND FREE ENERGY PREDICTED BY IDOCK:   -4.81 KCAL/MOL
REMARK 924 INTRA-LIGAND FREE ENERGY PREDICTED BY IDOCK:   -0.04 KCAL/MOL
REMARK 927      BINDING AFFINITY PREDICTED BY RF-SCORE:    0.00 PKD
ROOT
HETATM    1  N   UNL     1     -11.224   9.388  68.785  1.00  0.00    -0.457 NA 
HETATM    2  H1  UNL     1     -10.921   8.919  67.931  1.00  0.00     0.000 HD 
HETATM    3  H2  UNL     1     -11.835   8.768  69.317  1.00  0.00     0.000 HD 
HETATM    4  N   UNL     1     -11.848  10.654  68.631  1.00  0.00    -0.708 NA 
HETATM    5  H   UNL     1     -11.986  11.074  67.712  1.00  0.00     0.000 HD 
ENDROOT
BRANCH   4   6
HETATM    6  C   UNL     1     -12.274  11.316  69.835  1.00  0.00    -0.288 A  
HETATM    7  N   UNL     1     -12.843  10.595  70.836  1.00  0.00    -0.381 NA 
HETATM    8  N   UNL     1     -13.224  11.193  72.002  1.00  0.00    -0.447 NA 
HETATM    9  C   UNL     1     -13.044  12.517  72.146  1.00  0.00    -0.323 A  
HETATM   10  C   UNL     1     -12.510  13.328  71.151  1.00  0.00    -0.397 A  
HETATM   11  C   UNL     1     -12.362  14.715  71.332  1.00  0.00    -0.411 A  
HETATM   12  C   UNL     1     -11.855  15.515  70.309  1.00  0.00    -0.381 A  
HETATM   13  C   UNL     1     -11.495  14.939  69.096  1.00  0.00    -0.324 A  
HETATM   14  C   UNL     1     -11.627  13.561  68.912  1.00  0.00    -0.364 A  
HETATM   15  C   UNL     1     -12.126  12.719  69.940  1.00  0.00    -0.329 A  
ENDBRANCH   4   6
TORSDOF 1
ENDMDL
MODEL       41
REMARK 921   NORMALIZED FREE ENERGY PREDICTED BY IDOCK:   -4.53 KCAL/MOL
REMARK 922        TOTAL FREE ENERGY PREDICTED BY IDOCK:   -4.83 KCAL/MOL
REMARK 923 INTER-LIGAND FREE ENERGY PREDICTED BY IDOCK:   -4.79 KCAL/MOL
REMARK 924 INTRA-LIGAND FREE ENERGY PREDICTED BY IDOCK:   -0.04 KCAL/MOL
REMARK 927      BINDING AFFINITY PREDICTED BY RF-SCORE:    0.00 PKD
ROOT
HETATM    1  N   UNL     1     -12.344  10.799  69.325  1.00  0.00    -0.691 NA 
HETATM    2  H1  UNL     1     -12.319  10.024  69.988  1.00  0.00     0.000 HD 
HETATM    3  H2  UNL     1     -13.310  10.984  69.053  1.00  0.00     0.000 HD 
HETATM    4  N   UNL     1     -11.538  10.671  68.163  1.00  0.00    -0.666 NA 
HETATM    5  H   UNL     1     -10.962   9.846  68.000  1.00  0.00     0.000 HD 
ENDROOT
BRANCH   4   6
HETATM    6  C   UNL     1     -11.573  11.763  67.228  1.00  0.00    -0.269 A  
HETATM    7  N   UNL     1     -12.239  12.904  67.547  1.00  0.00    -0.292 NA 
HETATM    8  N   UNL     1     -12.257  13.967  66.693  1.00  0.00    -0.448 NA 
HETATM    9  C   UNL     1     -11.619  13.870  65.514  1.00  0.00    -0.327 A  
HETATM   10  C   UNL     1     -10.953  12.722  65.099  1.00  0.00    -0.323 A  
HETATM   11  C   UNL     1     -10.318  12.651  63.846  1.00  0.00    -0.405 A  
HETATM   12  C   UNL     1      -9.686  11.478  63.435  1.00  0.00    -0.379 A  
HETATM   13  C   UNL     1      -9.684  10.366  64.268  1.00  0.00    -0.389 A  
HETATM   14  C   UNL     1     -10.302  10.431  65.520  1.00  0.00    -0.265 A  
HETATM   15  C   UNL     1     -10.940  11.615  65.971  1.00  0.00    -0.338 A  
ENDBRANCH   4   6
TORSDOF 1
ENDMDL
MODEL       42
REMARK 921   NORMALIZED FREE ENERGY PREDICTED BY IDOCK:   -4.53 KCAL/MOL
REMARK 922        TOTAL FREE ENERGY PREDICTED BY IDOCK:   -4.83 KCAL/MOL
REMARK 923 INTER-LIGAND FREE ENERGY PREDICTED BY IDOCK:   -4.78 KCAL/MOL
REMARK 924 INTRA-LIGAND FREE ENERGY PREDICTED BY IDOCK:   -0.05 KCAL/MOL
REMARK 927      BINDING AFFINITY PREDICTED BY RF-SCORE:    0.00 PKD
ROOT
HETATM    1  N   UNL     1     -12.632  10.662  69.143  1.00  0.00    -0.676 NA 
HETATM    2  H1  UNL     1     -13.038  10.910  70.045  1.00  0.00     0.000 HD 
HETATM    3  H2  UNL     1     -12.167   9.757  69.214  1.00  0.00     0.000 HD 
HETATM    4  N   UNL     1     -11.747  11.608  68.560  1.00  0.00    -0.344 NA 
HETATM    5  H   UNL     1     -11.528  12.491  69.021  1.00  0.00     0.000 HD 
ENDROOT
BRANCH   4   6
HETATM    6  C   UNL     1     -11.174  11.260  67.288  1.00  0.00    -0.296 A  
HETATM    7  N   UNL     1     -10.350  10.183  67.191  1.00  0.00    -0.224 NA 
HETATM    8  N   UNL     1      -9.822   9.811  65.989  1.00  0.00    -0.256 NA 
HETATM    9  C   UNL     1     -10.114  10.534  64.894  1.00  0.00    -0.333 A  
HETATM   10  C   UNL     1     -10.914  11.671  64.922  1.00  0.00    -0.345 A  
HETATM   11  C   UNL     1     -11.175  12.416  63.758  1.00  0.00    -0.520 A  
HETATM   12  C   UNL     1     -11.951  13.573  63.813  1.00  0.00    -0.475 A  
HETATM   13  C   UNL     1     -12.470  13.998  65.030  1.00  0.00    -0.446 A  
HETATM   14  C   UNL     1     -12.226  13.258  66.189  1.00  0.00    -0.466 A  
HETATM   15  C   UNL     1     -11.452  12.069  66.162  1.00  0.00    -0.401 A  
ENDBRANCH   4   6
TORSDOF 1
ENDMDL
MODEL       43
REMARK 921   NORMALIZED FREE ENERGY PREDICTED BY IDOCK:   -4.48 KCAL/MOL
REMARK 922        TOTAL FREE ENERGY PREDICTED BY IDOCK:   -4.79 KCAL/MOL
REMARK 923 INTER-LIGAND FREE ENERGY PREDICTED BY IDOCK:   -4.73 KCAL/MOL
REMARK 924 INTRA-LIGAND FREE ENERGY PREDICTED BY IDOCK:   -0.05 KCAL/MOL
REMARK 927      BINDING AFFINITY PREDICTED BY RF-SCORE:    0.00 PKD
ROOT
HETATM    1  N   UNL     1     -12.384  10.866  68.497  1.00  0.00    -0.744 NA 
HETATM    2  H1  UNL     1     -12.230  10.042  69.079  1.00  0.00     0.000 HD 
HETATM    3  H2  UNL     1     -13.325  10.837  68.104  1.00  0.00     0.000 HD 
HETATM    4  N   UNL     1     -11.442  11.099  67.460  1.00  0.00    -0.510 NA 
HETATM    5  H   UNL     1     -10.652  10.474  67.304  1.00  0.00     0.000 HD 
ENDROOT
BRANCH   4   6
HETATM    6  C   UNL     1     -11.658  12.260  66.640  1.00  0.00    -0.375 A  
HETATM    7  N   UNL     1     -12.468  12.178  65.552  1.00  0.00    -0.393 NA 
HETATM    8  N   UNL     1     -12.718  13.274  64.778  1.00  0.00    -0.689 NA 
HETATM    9  C   UNL     1     -12.135  14.443  65.095  1.00  0.00    -0.395 A  
HETATM   10  C   UNL     1     -11.261  14.596  66.165  1.00  0.00    -0.341 A  
HETATM   11  C   UNL     1     -10.652  15.831  66.448  1.00  0.00    -0.307 A  
HETATM   12  C   UNL     1      -9.751  15.955  67.505  1.00  0.00    -0.223 A  
HETATM   13  C   UNL     1      -9.449  14.846  68.286  1.00  0.00    -0.210 A  
HETATM   14  C   UNL     1     -10.058  13.618  68.021  1.00  0.00    -0.250 A  
HETATM   15  C   UNL     1     -10.989  13.465  66.961  1.00  0.00    -0.298 A  
ENDBRANCH   4   6
TORSDOF 1
ENDMDL
MODEL       44
REMARK 921   NORMALIZED FREE ENERGY PREDICTED BY IDOCK:   -4.48 KCAL/MOL
REMARK 922        TOTAL FREE ENERGY PREDICTED BY IDOCK:   -4.78 KCAL/MOL
REMARK 923 INTER-LIGAND FREE ENERGY PREDICTED BY IDOCK:   -4.74 KCAL/MOL
REMARK 924 INTRA-LIGAND FREE ENERGY PREDICTED BY IDOCK:   -0.04 KCAL/MOL
REMARK 927      BINDING AFFINITY PREDICTED BY RF-SCORE:    0.00 PKD
ROOT
HETATM    1  N   UNL     1     -10.188  16.692  68.099  1.00  0.00    -0.267 NA 
HETATM    2  H1  UNL     1     -10.066  17.683  67.889  1.00  0.00     0.000 HD 
HETATM    3  H2  UNL     1     -10.226  16.161  67.229  1.00  0.00     0.000 HD 
HETATM    4  N   UNL     1     -11.295  16.345  68.919  1.00  0.00    -0.311 NA 
HETATM    5  H   UNL     1     -11.936  17.051  69.280  1.00  0.00     0.000 HD 
ENDROOT
BRANCH   4   6
HETATM    6  C   UNL     1     -11.467  14.949  69.214  1.00  0.00    -0.303 A  
HETATM    7  N   UNL     1     -10.859  14.013  68.437  1.00  0.00    -0.242 NA 
HETATM    8  N   UNL     1     -10.978  12.684  68.719  1.00  0.00    -0.246 NA 
HETATM    9  C   UNL     1     -11.721  12.302  69.771  1.00  0.00    -0.298 A  
HETATM   10  C   UNL     1     -12.408  13.196  70.586  1.00  0.00    -0.405 A  
HETATM   11  C   UNL     1     -13.196  12.754  71.663  1.00  0.00    -0.410 A  
HETATM   12  C   UNL     1     -13.904  13.665  72.447  1.00  0.00    -0.691 A  
HETATM   13  C   UNL     1     -13.832  15.023  72.160  1.00  0.00    -0.584 A  
HETATM   14  C   UNL     1     -13.042  15.472  71.100  1.00  0.00    -0.573 A  
HETATM   15  C   UNL     1     -12.299  14.570  70.294  1.00  0.00    -0.408 A  
ENDBRANCH   4   6
TORSDOF 1
ENDMDL
MODEL       45
REMARK 921   NORMALIZED FREE ENERGY PREDICTED BY IDOCK:   -4.43 KCAL/MOL
REMARK 922        TOTAL FREE ENERGY PREDICTED BY IDOCK:   -4.74 KCAL/MOL
REMARK 923 INTER-LIGAND FREE ENERGY PREDICTED BY IDOCK:   -4.70 KCAL/MOL
REMARK 924 INTRA-LIGAND FREE ENERGY PREDICTED BY IDOCK:   -0.04 KCAL/MOL
REMARK 927      BINDING AFFINITY PREDICTED BY RF-SCORE:    0.00 PKD
ROOT
HETATM    1  N   UNL     1     -11.216   9.490  69.169  1.00  0.00    -0.447 NA 
HETATM    2  H1  UNL     1     -11.094   8.487  69.026  1.00  0.00     0.000 HD 
HETATM    3  H2  UNL     1     -11.965   9.650  69.843  1.00  0.00     0.000 HD 
HETATM    4  N   UNL     1     -11.441  10.278  68.010  1.00  0.00    -0.654 NA 
HETATM    5  H   UNL     1     -11.479   9.863  67.079  1.00  0.00     0.000 HD 
ENDROOT
BRANCH   4   6
HETATM    6  C   UNL     1     -11.613  11.691  68.212  1.00  0.00    -0.310 A  
HETATM    7  N   UNL     1     -11.712  12.186  69.474  1.00  0.00    -0.321 NA 
HETATM    8  N   UNL     1     -11.839  13.526  69.694  1.00  0.00    -0.319 NA 
HETATM    9  C   UNL     1     -11.883  14.361  68.641  1.00  0.00    -0.331 A  
HETATM   10  C   UNL     1     -11.831  13.926  67.321  1.00  0.00    -0.442 A  
HETATM   11  C   UNL     1     -11.904  14.829  66.245  1.00  0.00    -0.215 A  
HETATM   12  C   UNL     1     -11.885  14.371  64.929  1.00  0.00    -0.419 A  
HETATM   13  C   UNL     1     -11.795  13.007  64.674  1.00  0.00    -0.422 A  
HETATM   14  C   UNL     1     -11.708  12.104  65.736  1.00  0.00    -0.391 A  
HETATM   15  C   UNL     1     -11.711  12.542  67.086  1.00  0.00    -0.425 A  
ENDBRANCH   4   6
TORSDOF 1
ENDMDL
MODEL       46
REMARK 921   NORMALIZED FREE ENERGY PREDICTED BY IDOCK:   -4.43 KCAL/MOL
REMARK 922        TOTAL FREE ENERGY PREDICTED BY IDOCK:   -4.73 KCAL/MOL
REMARK 923 INTER-LIGAND FREE ENERGY PREDICTED BY IDOCK:   -4.69 KCAL/MOL
REMARK 924 INTRA-LIGAND FREE ENERGY PREDICTED BY IDOCK:   -0.04 KCAL/MOL
REMARK 927      BINDING AFFINITY PREDICTED BY RF-SCORE:    0.00 PKD
ROOT
HETATM    1  N   UNL     1     -14.348   8.896  73.185  1.00  0.00    -1.145 NA 
HETATM    2  H1  UNL     1     -14.849   8.404  73.925  1.00  0.00     0.000 HD 
HETATM    3  H2  UNL     1     -14.878   8.838  72.316  1.00  0.00     0.000 HD 
HETATM    4  N   UNL     1     -13.004   8.500  72.951  1.00  0.00    -0.694 NA 
HETATM    5  H   UNL     1     -12.562   7.760  73.496  1.00  0.00     0.000 HD 
ENDROOT
BRANCH   4   6
HETATM    6  C   UNL     1     -12.297   9.193  71.909  1.00  0.00    -0.385 A  
HETATM    7  N   UNL     1     -12.896  10.225  71.257  1.00  0.00    -0.389 NA 
HETATM    8  N   UNL     1     -12.234  10.922  70.289  1.00  0.00    -0.322 NA 
HETATM    9  C   UNL     1     -10.977  10.566  69.971  1.00  0.00    -0.286 A  
HETATM   10  C   UNL     1     -10.314   9.496  70.562  1.00  0.00    -0.350 A  
HETATM   11  C   UNL     1      -9.008   9.140  70.183  1.00  0.00    -0.219 A  
HETATM   12  C   UNL     1      -8.373   8.042  70.763  1.00  0.00    -0.115 A  
HETATM   13  C   UNL     1      -9.038   7.290  71.725  1.00  0.00    -0.141 A  
HETATM   14  C   UNL     1     -10.331   7.644  72.117  1.00  0.00    -0.270 A  
HETATM   15  C   UNL     1     -10.996   8.764  71.554  1.00  0.00    -0.377 A  
ENDBRANCH   4   6
TORSDOF 1
ENDMDL
MODEL       47
REMARK 921   NORMALIZED FREE ENERGY PREDICTED BY IDOCK:   -4.43 KCAL/MOL
REMARK 922        TOTAL FREE ENERGY PREDICTED BY IDOCK:   -4.73 KCAL/MOL
REMARK 923 INTER-LIGAND FREE ENERGY PREDICTED BY IDOCK:   -4.69 KCAL/MOL
REMARK 924 INTRA-LIGAND FREE ENERGY PREDICTED BY IDOCK:   -0.04 KCAL/MOL
REMARK 927      BINDING AFFINITY PREDICTED BY RF-SCORE:    0.00 PKD
ROOT
HETATM    1  N   UNL     1     -12.158  15.207  68.521  1.00  0.00    -0.581 NA 
HETATM    2  H1  UNL     1     -12.779  16.006  68.653  1.00  0.00     0.000 HD 
HETATM    3  H2  UNL     1     -11.189  15.523  68.530  1.00  0.00     0.000 HD 
HETATM    4  N   UNL     1     -12.388  14.402  67.374  1.00  0.00    -0.600 NA 
HETATM    5  H   UNL     1     -13.136  14.613  66.714  1.00  0.00     0.000 HD 
ENDROOT
BRANCH   4   6
HETATM    6  C   UNL     1     -11.513  13.276  67.188  1.00  0.00    -0.341 A  
HETATM    7  N   UNL     1     -10.845  12.757  68.252  1.00  0.00    -0.238 NA 
HETATM    8  N   UNL     1     -10.037  11.667  68.108  1.00  0.00    -0.190 NA 
HETATM    9  C   UNL     1      -9.893  11.116  66.891  1.00  0.00    -0.194 A  
HETATM   10  C   UNL     1     -10.508  11.616  65.749  1.00  0.00    -0.308 A  
HETATM   11  C   UNL     1     -10.312  11.025  64.488  1.00  0.00    -0.420 A  
HETATM   12  C   UNL     1     -10.911  11.562  63.350  1.00  0.00    -0.423 A  
HETATM   13  C   UNL     1     -11.708  12.695  63.459  1.00  0.00    -0.604 A  
HETATM   14  C   UNL     1     -11.920  13.282  64.710  1.00  0.00    -0.431 A  
HETATM   15  C   UNL     1     -11.335  12.749  65.887  1.00  0.00    -0.363 A  
ENDBRANCH   4   6
TORSDOF 1
ENDMDL
MODEL       48
REMARK 921   NORMALIZED FREE ENERGY PREDICTED BY IDOCK:   -4.41 KCAL/MOL
REMARK 922        TOTAL FREE ENERGY PREDICTED BY IDOCK:   -4.70 KCAL/MOL
REMARK 923 INTER-LIGAND FREE ENERGY PREDICTED BY IDOCK:   -4.66 KCAL/MOL
REMARK 924 INTRA-LIGAND FREE ENERGY PREDICTED BY IDOCK:   -0.05 KCAL/MOL
REMARK 927      BINDING AFFINITY PREDICTED BY RF-SCORE:    0.00 PKD
ROOT
HETATM    1  N   UNL     1     -10.199  16.863  65.203  1.00  0.00    -0.475 NA 
HETATM    2  H1  UNL     1      -9.837  17.650  65.742  1.00  0.00     0.000 HD 
HETATM    3  H2  UNL     1     -10.905  17.196  64.545  1.00  0.00     0.000 HD 
HETATM    4  N   UNL     1     -10.716  15.766  65.942  1.00  0.00    -0.325 NA 
HETATM    5  H   UNL     1     -10.725  15.765  66.962  1.00  0.00     0.000 HD 
ENDROOT
BRANCH   4   6
HETATM    6  C   UNL     1     -11.226  14.657  65.182  1.00  0.00    -0.374 A  
HETATM    7  N   UNL     1     -12.156  14.873  64.215  1.00  0.00    -0.497 NA 
HETATM    8  N   UNL     1     -12.630  13.842  63.456  1.00  0.00    -0.805 NA 
HETATM    9  C   UNL     1     -12.177  12.598  63.687  1.00  0.00    -0.536 A  
HETATM   10  C   UNL     1     -11.260  12.293  64.686  1.00  0.00    -0.363 A  
HETATM   11  C   UNL     1     -10.829  10.974  64.912  1.00  0.00    -0.211 A  
HETATM   12  C   UNL     1      -9.935  10.684  65.942  1.00  0.00    -0.312 A  
HETATM   13  C   UNL     1      -9.465  11.708  66.756  1.00  0.00    -0.197 A  
HETATM   14  C   UNL     1      -9.877  13.023  66.531  1.00  0.00    -0.263 A  
HETATM   15  C   UNL     1     -10.775  13.350  65.482  1.00  0.00    -0.301 A  
ENDBRANCH   4   6
TORSDOF 1
ENDMDL
MODEL       49
REMARK 921   NORMALIZED FREE ENERGY PREDICTED BY IDOCK:   -4.40 KCAL/MOL
REMARK 922        TOTAL FREE ENERGY PREDICTED BY IDOCK:   -4.70 KCAL/MOL
REMARK 923 INTER-LIGAND FREE ENERGY PREDICTED BY IDOCK:   -4.65 KCAL/MOL
REMARK 924 INTRA-LIGAND FREE ENERGY PREDICTED BY IDOCK:   -0.05 KCAL/MOL
REMARK 927      BINDING AFFINITY PREDICTED BY RF-SCORE:    0.00 PKD
ROOT
HETATM    1  N   UNL     1      -8.565  18.961  66.438  1.00  0.00    -0.325 NA 
HETATM    2  H1  UNL     1      -8.151  19.645  67.072  1.00  0.00     0.000 HD 
HETATM    3  H2  UNL     1      -8.948  19.440  65.623  1.00  0.00     0.000 HD 
HETATM    4  N   UNL     1      -9.547  18.094  66.987  1.00  0.00    -0.278 NA 
HETATM    5  H   UNL     1      -9.824  18.152  67.967  1.00  0.00     0.000 HD 
ENDROOT
BRANCH   4   6
HETATM    6  C   UNL     1     -10.130  17.130  66.094  1.00  0.00    -0.305 A  
HETATM    7  N   UNL     1     -10.916  17.550  65.068  1.00  0.00    -0.749 NA 
HETATM    8  N   UNL     1     -11.453  16.658  64.186  1.00  0.00    -1.112 NA 
HETATM    9  C   UNL     1     -11.208  15.347  64.351  1.00  0.00    -0.202 A  
HETATM   10  C   UNL     1     -10.450  14.838  65.400  1.00  0.00    -0.401 A  
HETATM   11  C   UNL     1     -10.238  13.456  65.553  1.00  0.00    -0.300 A  
HETATM   12  C   UNL     1      -9.503  12.965  66.632  1.00  0.00    -0.255 A  
HETATM   13  C   UNL     1      -8.977  13.847  67.568  1.00  0.00    -0.197 A  
HETATM   14  C   UNL     1      -9.172  15.222  67.417  1.00  0.00    -0.201 A  
HETATM   15  C   UNL     1      -9.903  15.753  66.323  1.00  0.00    -0.320 A  
ENDBRANCH   4   6
TORSDOF 1
ENDMDL
MODEL       50
REMARK 921   NORMALIZED FREE ENERGY PREDICTED BY IDOCK:   -4.39 KCAL/MOL
REMARK 922        TOTAL FREE ENERGY PREDICTED BY IDOCK:   -4.69 KCAL/MOL
REMARK 923 INTER-LIGAND FREE ENERGY PREDICTED BY IDOCK:   -4.63 KCAL/MOL
REMARK 924 INTRA-LIGAND FREE ENERGY PREDICTED BY IDOCK:   -0.06 KCAL/MOL
REMARK 927      BINDING AFFINITY PREDICTED BY RF-SCORE:    0.00 PKD
ROOT
HETATM    1  N   UNL     1     -14.031   7.621  72.258  1.00  0.00    -0.542 NA 
HETATM    2  H1  UNL     1     -14.555   7.184  73.016  1.00  0.00     0.000 HD 
HETATM    3  H2  UNL     1     -13.799   6.921  71.554  1.00  0.00     0.000 HD 
HETATM    4  N   UNL     1     -12.859   8.336  72.623  1.00  0.00    -0.608 NA 
HETATM    5  H   UNL     1     -12.556   8.408  73.594  1.00  0.00     0.000 HD 
ENDROOT
BRANCH   4   6
HETATM    6  C   UNL     1     -12.120   8.953  71.555  1.00  0.00    -0.330 A  
HETATM    7  N   UNL     1     -11.247   8.213  70.821  1.00  0.00    -0.261 NA 
HETATM    8  N   UNL     1     -10.561   8.766  69.780  1.00  0.00    -0.223 NA 
HETATM    9  C   UNL     1     -10.743  10.067  69.494  1.00  0.00    -0.244 A  
HETATM   10  C   UNL     1     -11.584  10.898  70.225  1.00  0.00    -0.426 A  
HETATM   11  C   UNL     1     -11.729  12.261  69.909  1.00  0.00    -0.346 A  
HETATM   12  C   UNL     1     -12.551  13.085  70.676  1.00  0.00    -0.270 A  
HETATM   13  C   UNL     1     -13.233  12.558  71.766  1.00  0.00    -0.444 A  
HETATM   14  C   UNL     1     -13.106  11.203  72.080  1.00  0.00    -0.433 A  
HETATM   15  C   UNL     1     -12.288  10.336  71.310  1.00  0.00    -0.506 A  
ENDBRANCH   4   6
TORSDOF 1
ENDMDL
MODEL       51
REMARK 921   NORMALIZED FREE ENERGY PREDICTED BY IDOCK:   -4.39 KCAL/MOL
REMARK 922        TOTAL FREE ENERGY PREDICTED BY IDOCK:   -4.68 KCAL/MOL
REMARK 923 INTER-LIGAND FREE ENERGY PREDICTED BY IDOCK:   -4.69 KCAL/MOL
REMARK 924 INTRA-LIGAND FREE ENERGY PREDICTED BY IDOCK:    0.01 KCAL/MOL
REMARK 927      BINDING AFFINITY PREDICTED BY RF-SCORE:    0.00 PKD
ROOT
HETATM    1  N   UNL     1     -10.668  11.163  62.985  1.00  0.00    -0.818 NA 
HETATM    2  H1  UNL     1     -10.227  10.533  62.316  1.00  0.00     0.000 HD 
HETATM    3  H2  UNL     1     -11.310  11.787  62.496  1.00  0.00     0.000 HD 
HETATM    4  N   UNL     1      -9.801  11.926  63.812  1.00  0.00    -0.492 NA 
HETATM    5  H   UNL     1      -8.787  11.847  63.740  1.00  0.00     0.000 HD 
ENDROOT
BRANCH   4   6
HETATM    6  C   UNL     1     -10.422  12.814  64.757  1.00  0.00    -0.335 A  
HETATM    7  N   UNL     1     -10.537  14.136  64.465  1.00  0.00    -0.362 NA 
HETATM    8  N   UNL     1     -11.155  14.993  65.329  1.00  0.00    -0.367 NA 
HETATM    9  C   UNL     1     -11.639  14.517  66.489  1.00  0.00    -0.371 A  
HETATM   10  C   UNL     1     -11.521  13.187  66.876  1.00  0.00    -0.384 A  
HETATM   11  C   UNL     1     -12.019  12.732  68.110  1.00  0.00    -0.295 A  
HETATM   12  C   UNL     1     -11.861  11.401  68.494  1.00  0.00    -0.364 A  
HETATM   13  C   UNL     1     -11.202  10.514  67.652  1.00  0.00    -0.338 A  
HETATM   14  C   UNL     1     -10.715  10.953  66.418  1.00  0.00    -0.257 A  
HETATM   15  C   UNL     1     -10.874  12.298  65.994  1.00  0.00    -0.310 A  
ENDBRANCH   4   6
TORSDOF 1
ENDMDL
MODEL       52
REMARK 921   NORMALIZED FREE ENERGY PREDICTED BY IDOCK:   -4.36 KCAL/MOL
REMARK 922        TOTAL FREE ENERGY PREDICTED BY IDOCK:   -4.66 KCAL/MOL
REMARK 923 INTER-LIGAND FREE ENERGY PREDICTED BY IDOCK:   -4.71 KCAL/MOL
REMARK 924 INTRA-LIGAND FREE ENERGY PREDICTED BY IDOCK:    0.05 KCAL/MOL
REMARK 927      BINDING AFFINITY PREDICTED BY RF-SCORE:    0.00 PKD
ROOT
HETATM    1  N   UNL     1     -13.923  14.236  72.591  1.00  0.00    -0.610 NA 
HETATM    2  H1  UNL     1     -14.130  14.193  73.589  1.00  0.00     0.000 HD 
HETATM    3  H2  UNL     1     -14.234  13.376  72.140  1.00  0.00     0.000 HD 
HETATM    4  N   UNL     1     -12.575  14.503  72.231  1.00  0.00    -0.320 NA 
HETATM    5  H   UNL     1     -11.851  14.644  72.935  1.00  0.00     0.000 HD 
ENDROOT
BRANCH   4   6
HETATM    6  C   UNL     1     -12.282  14.564  70.825  1.00  0.00    -0.333 A  
HETATM    7  N   UNL     1     -12.219  15.770  70.200  1.00  0.00    -0.357 NA 
HETATM    8  N   UNL     1     -11.908  15.857  68.875  1.00  0.00    -0.377 NA 
HETATM    9  C   UNL     1     -11.676  14.729  68.181  1.00  0.00    -0.325 A  
HETATM   10  C   UNL     1     -11.764  13.459  68.740  1.00  0.00    -0.377 A  
HETATM   11  C   UNL     1     -11.539  12.301  67.974  1.00  0.00    -0.408 A  
HETATM   12  C   UNL     1     -11.666  11.035  68.545  1.00  0.00    -0.348 A  
HETATM   13  C   UNL     1     -12.020  10.914  69.883  1.00  0.00    -0.430 A  
HETATM   14  C   UNL     1     -12.233  12.059  70.655  1.00  0.00    -0.409 A  
HETATM   15  C   UNL     1     -12.097  13.360  70.106  1.00  0.00    -0.415 A  
ENDBRANCH   4   6
TORSDOF 1
ENDMDL
MODEL       53
REMARK 921   NORMALIZED FREE ENERGY PREDICTED BY IDOCK:   -4.35 KCAL/MOL
REMARK 922        TOTAL FREE ENERGY PREDICTED BY IDOCK:   -4.65 KCAL/MOL
REMARK 923 INTER-LIGAND FREE ENERGY PREDICTED BY IDOCK:   -4.59 KCAL/MOL
REMARK 924 INTRA-LIGAND FREE ENERGY PREDICTED BY IDOCK:   -0.05 KCAL/MOL
REMARK 927      BINDING AFFINITY PREDICTED BY RF-SCORE:    0.00 PKD
ROOT
HETATM    1  N   UNL     1     -10.742  13.811  64.108  1.00  0.00    -0.553 NA 
HETATM    2  H1  UNL     1     -10.267  14.203  63.295  1.00  0.00     0.000 HD 
HETATM    3  H2  UNL     1     -11.643  14.273  64.233  1.00  0.00     0.000 HD 
HETATM    4  N   UNL     1     -10.025  13.827  65.334  1.00  0.00    -0.507 NA 
HETATM    5  H   UNL     1      -9.082  14.210  65.398  1.00  0.00     0.000 HD 
ENDROOT
BRANCH   4   6
HETATM    6  C   UNL     1     -10.693  13.275  66.481  1.00  0.00    -0.285 A  
HETATM    7  N   UNL     1     -11.064  11.967  66.483  1.00  0.00    -0.299 NA 
HETATM    8  N   UNL     1     -11.667  11.411  67.573  1.00  0.00    -0.609 NA 
HETATM    9  C   UNL     1     -11.908  12.178  68.650  1.00  0.00    -0.306 A  
HETATM   10  C   UNL     1     -11.598  13.532  68.707  1.00  0.00    -0.362 A  
HETATM   11  C   UNL     1     -11.890  14.307  69.843  1.00  0.00    -0.382 A  
HETATM   12  C   UNL     1     -11.603  15.672  69.867  1.00  0.00    -0.354 A  
HETATM   13  C   UNL     1     -11.023  16.274  68.756  1.00  0.00    -0.343 A  
HETATM   14  C   UNL     1     -10.718  15.509  67.628  1.00  0.00    -0.302 A  
HETATM   15  C   UNL     1     -10.986  14.117  67.580  1.00  0.00    -0.292 A  
ENDBRANCH   4   6
TORSDOF 1
ENDMDL
MODEL       54
REMARK 921   NORMALIZED FREE ENERGY PREDICTED BY IDOCK:   -4.32 KCAL/MOL
REMARK 922        TOTAL FREE ENERGY PREDICTED BY IDOCK:   -4.61 KCAL/MOL
REMARK 923 INTER-LIGAND FREE ENERGY PREDICTED BY IDOCK:   -4.57 KCAL/MOL
REMARK 924 INTRA-LIGAND FREE ENERGY PREDICTED BY IDOCK:   -0.04 KCAL/MOL
REMARK 927      BINDING AFFINITY PREDICTED BY RF-SCORE:    0.00 PKD
ROOT
HETATM    1  N   UNL     1      -9.227   9.261  64.284  1.00  0.00    -0.425 NA 
HETATM    2  H1  UNL     1      -8.808   8.348  64.464  1.00  0.00     0.000 HD 
HETATM    3  H2  UNL     1      -8.500   9.922  64.012  1.00  0.00     0.000 HD 
HETATM    4  N   UNL     1     -10.014   9.819  65.326  1.00  0.00    -0.382 NA 
HETATM    5  H   UNL     1     -10.154   9.331  66.211  1.00  0.00     0.000 HD 
ENDROOT
BRANCH   4   6
HETATM    6  C   UNL     1     -10.605  11.105  65.072  1.00  0.00    -0.273 A  
HETATM    7  N   UNL     1     -10.695  11.567  63.798  1.00  0.00    -0.377 NA 
HETATM    8  N   UNL     1     -11.283  12.768  63.527  1.00  0.00    -0.431 NA 
HETATM    9  C   UNL     1     -11.763  13.505  64.544  1.00  0.00    -0.397 A  
HETATM   10  C   UNL     1     -11.668  13.120  65.877  1.00  0.00    -0.427 A  
HETATM   11  C   UNL     1     -12.161  13.931  66.914  1.00  0.00    -0.467 A  
HETATM   12  C   UNL     1     -12.026  13.542  68.247  1.00  0.00    -0.377 A  
HETATM   13  C   UNL     1     -11.396  12.342  68.554  1.00  0.00    -0.332 A  
HETATM   14  C   UNL     1     -10.916  11.523  67.529  1.00  0.00    -0.308 A  
HETATM   15  C   UNL     1     -11.051  11.886  66.165  1.00  0.00    -0.374 A  
ENDBRANCH   4   6
TORSDOF 1
ENDMDL
MODEL       55
REMARK 921   NORMALIZED FREE ENERGY PREDICTED BY IDOCK:   -4.32 KCAL/MOL
REMARK 922        TOTAL FREE ENERGY PREDICTED BY IDOCK:   -4.61 KCAL/MOL
REMARK 923 INTER-LIGAND FREE ENERGY PREDICTED BY IDOCK:   -4.92 KCAL/MOL
REMARK 924 INTRA-LIGAND FREE ENERGY PREDICTED BY IDOCK:    0.31 KCAL/MOL
REMARK 927      BINDING AFFINITY PREDICTED BY RF-SCORE:    0.00 PKD
ROOT
HETATM    1  N   UNL     1     -13.955  15.470  70.874  1.00  0.00    -0.853 NA 
HETATM    2  H1  UNL     1     -14.324  16.236  71.438  1.00  0.00     0.000 HD 
HETATM    3  H2  UNL     1     -14.281  14.581  71.251  1.00  0.00     0.000 HD 
HETATM    4  N   UNL     1     -12.547  15.427  70.698  1.00  0.00    -0.416 NA 
HETATM    5  H   UNL     1     -11.934  16.127  71.115  1.00  0.00     0.000 HD 
ENDROOT
BRANCH   4   6
HETATM    6  C   UNL     1     -12.027  14.348  69.902  1.00  0.00    -0.335 A  
HETATM    7  N   UNL     1     -11.380  14.618  68.738  1.00  0.00    -0.266 NA 
HETATM    8  N   UNL     1     -10.847  13.615  67.983  1.00  0.00    -0.241 NA 
HETATM    9  C   UNL     1     -10.983  12.343  68.396  1.00  0.00    -0.241 A  
HETATM   10  C   UNL     1     -11.668  11.985  69.552  1.00  0.00    -0.408 A  
HETATM   11  C   UNL     1     -11.809  10.640  69.937  1.00  0.00    -0.392 A  
HETATM   12  C   UNL     1     -12.529  10.299  71.081  1.00  0.00    -0.495 A  
HETATM   13  C   UNL     1     -13.116  11.298  71.849  1.00  0.00    -0.510 A  
HETATM   14  C   UNL     1     -12.970  12.638  71.481  1.00  0.00    -0.380 A  
HETATM   15  C   UNL     1     -12.232  13.015  70.331  1.00  0.00    -0.386 A  
ENDBRANCH   4   6
TORSDOF 1
ENDMDL
MODEL       56
REMARK 921   NORMALIZED FREE ENERGY PREDICTED BY IDOCK:   -4.29 KCAL/MOL
REMARK 922        TOTAL FREE ENERGY PREDICTED BY IDOCK:   -4.58 KCAL/MOL
REMARK 923 INTER-LIGAND FREE ENERGY PREDICTED BY IDOCK:   -4.53 KCAL/MOL
REMARK 924 INTRA-LIGAND FREE ENERGY PREDICTED BY IDOCK:   -0.05 KCAL/MOL
REMARK 927      BINDING AFFINITY PREDICTED BY RF-SCORE:    0.00 PKD
ROOT
HETATM    1  N   UNL     1     -10.868  14.491  70.399  1.00  0.00    -0.474 NA 
HETATM    2  H1  UNL     1     -10.748  14.253  71.383  1.00  0.00     0.000 HD 
HETATM    3  H2  UNL     1     -10.978  13.638  69.851  1.00  0.00     0.000 HD 
HETATM    4  N   UNL     1      -9.866  15.309  69.812  1.00  0.00    -0.427 NA 
HETATM    5  H   UNL     1      -9.065  15.640  70.348  1.00  0.00     0.000 HD 
ENDROOT
BRANCH   4   6
HETATM    6  C   UNL     1     -10.036  15.645  68.424  1.00  0.00    -0.210 A  
HETATM    7  N   UNL     1     -10.069  14.659  67.490  1.00  0.00    -0.224 NA 
HETATM    8  N   UNL     1     -10.265  14.949  66.171  1.00  0.00    -0.285 NA 
HETATM    9  C   UNL     1     -10.410  16.233  65.798  1.00  0.00    -0.374 A  
HETATM   10  C   UNL     1     -10.345  17.298  66.690  1.00  0.00    -0.305 A  
HETATM   11  C   UNL     1     -10.477  18.629  66.256  1.00  0.00    -0.468 A  
HETATM   12  C   UNL     1     -10.374  19.685  67.161  1.00  0.00    -0.581 A  
HETATM   13  C   UNL     1     -10.136  19.422  68.505  1.00  0.00    -0.527 A  
HETATM   14  C   UNL     1     -10.017  18.102  68.947  1.00  0.00    -0.352 A  
HETATM   15  C   UNL     1     -10.131  17.007  68.052  1.00  0.00    -0.305 A  
ENDBRANCH   4   6
TORSDOF 1
ENDMDL
MODEL       57
REMARK 921   NORMALIZED FREE ENERGY PREDICTED BY IDOCK:   -4.27 KCAL/MOL
REMARK 922        TOTAL FREE ENERGY PREDICTED BY IDOCK:   -4.56 KCAL/MOL
REMARK 923 INTER-LIGAND FREE ENERGY PREDICTED BY IDOCK:   -4.50 KCAL/MOL
REMARK 924 INTRA-LIGAND FREE ENERGY PREDICTED BY IDOCK:   -0.05 KCAL/MOL
REMARK 927      BINDING AFFINITY PREDICTED BY RF-SCORE:    0.00 PKD
ROOT
HETATM    1  N   UNL     1     -12.681  14.069  65.645  1.00  0.00    -0.543 NA 
HETATM    2  H1  UNL     1     -12.889  13.331  64.973  1.00  0.00     0.000 HD 
HETATM    3  H2  UNL     1     -12.746  14.978  65.187  1.00  0.00     0.000 HD 
HETATM    4  N   UNL     1     -11.444  13.972  66.337  1.00  0.00    -0.339 NA 
HETATM    5  H   UNL     1     -10.797  13.202  66.170  1.00  0.00     0.000 HD 
ENDROOT
BRANCH   4   6
HETATM    6  C   UNL     1     -11.150  15.012  67.285  1.00  0.00    -0.334 A  
HETATM    7  N   UNL     1     -10.555  16.160  66.866  1.00  0.00    -0.306 NA 
HETATM    8  N   UNL     1     -10.298  17.176  67.739  1.00  0.00    -0.334 NA 
HETATM    9  C   UNL     1     -10.626  17.024  69.034  1.00  0.00    -0.314 A  
HETATM   10  C   UNL     1     -11.196  15.863  69.546  1.00  0.00    -0.325 A  
HETATM   11  C   UNL     1     -11.501  15.734  70.912  1.00  0.00    -0.438 A  
HETATM   12  C   UNL     1     -12.041  14.549  71.412  1.00  0.00    -0.420 A  
HETATM   13  C   UNL     1     -12.278  13.483  70.552  1.00  0.00    -0.433 A  
HETATM   14  C   UNL     1     -11.990  13.607  69.191  1.00  0.00    -0.394 A  
HETATM   15  C   UNL     1     -11.454  14.805  68.652  1.00  0.00    -0.325 A  
ENDBRANCH   4   6
TORSDOF 1
ENDMDL
MODEL       58
REMARK 921   NORMALIZED FREE ENERGY PREDICTED BY IDOCK:   -4.25 KCAL/MOL
REMARK 922        TOTAL FREE ENERGY PREDICTED BY IDOCK:   -4.54 KCAL/MOL
REMARK 923 INTER-LIGAND FREE ENERGY PREDICTED BY IDOCK:   -4.50 KCAL/MOL
REMARK 924 INTRA-LIGAND FREE ENERGY PREDICTED BY IDOCK:   -0.05 KCAL/MOL
REMARK 927      BINDING AFFINITY PREDICTED BY RF-SCORE:    0.00 PKD
ROOT
HETATM    1  N   UNL     1     -14.295  13.785  72.562  1.00  0.00    -0.658 NA 
HETATM    2  H1  UNL     1     -14.575  14.464  73.269  1.00  0.00     0.000 HD 
HETATM    3  H2  UNL     1     -14.412  12.841  72.929  1.00  0.00     0.000 HD 
HETATM    4  N   UNL     1     -12.990  13.927  72.021  1.00  0.00    -0.347 NA 
HETATM    5  H   UNL     1     -12.363  14.672  72.324  1.00  0.00     0.000 HD 
ENDROOT
BRANCH   4   6
HETATM    6  C   UNL     1     -12.595  12.969  71.024  1.00  0.00    -0.299 A  
HETATM    7  N   UNL     1     -12.670  11.640  71.296  1.00  0.00    -0.383 NA 
HETATM    8  N   UNL     1     -12.336  10.711  70.355  1.00  0.00    -0.323 NA 
HETATM    9  C   UNL     1     -11.910  11.126  69.149  1.00  0.00    -0.350 A  
HETATM   10  C   UNL     1     -11.765  12.467  68.811  1.00  0.00    -0.379 A  
HETATM   11  C   UNL     1     -11.293  12.860  67.546  1.00  0.00    -0.354 A  
HETATM   12  C   UNL     1     -11.122  14.209  67.238  1.00  0.00    -0.315 A  
HETATM   13  C   UNL     1     -11.419  15.176  68.191  1.00  0.00    -0.356 A  
HETATM   14  C   UNL     1     -11.900  14.796  69.445  1.00  0.00    -0.360 A  
HETATM   15  C   UNL     1     -12.098  13.432  69.782  1.00  0.00    -0.374 A  
ENDBRANCH   4   6
TORSDOF 1
ENDMDL
MODEL       59
REMARK 921   NORMALIZED FREE ENERGY PREDICTED BY IDOCK:   -4.25 KCAL/MOL
REMARK 922        TOTAL FREE ENERGY PREDICTED BY IDOCK:   -4.54 KCAL/MOL
REMARK 923 INTER-LIGAND FREE ENERGY PREDICTED BY IDOCK:   -4.50 KCAL/MOL
REMARK 924 INTRA-LIGAND FREE ENERGY PREDICTED BY IDOCK:   -0.04 KCAL/MOL
REMARK 927      BINDING AFFINITY PREDICTED BY RF-SCORE:    0.00 PKD
ROOT
HETATM    1  N   UNL     1      -9.941   7.890  65.988  1.00  0.00    -0.405 NA 
HETATM    2  H1  UNL     1      -9.481   7.149  65.459  1.00  0.00     0.000 HD 
HETATM    3  H2  UNL     1     -10.933   7.676  66.085  1.00  0.00     0.000 HD 
HETATM    4  N   UNL     1      -9.784   9.214  65.498  1.00  0.00    -0.462 NA 
HETATM    5  H   UNL     1      -9.239   9.414  64.659  1.00  0.00     0.000 HD 
ENDROOT
BRANCH   4   6
HETATM    6  C   UNL     1     -10.432  10.260  66.243  1.00  0.00    -0.144 A  
HETATM    7  N   UNL     1     -10.538  10.160  67.594  1.00  0.00    -0.245 NA 
HETATM    8  N   UNL     1     -11.116  11.155  68.327  1.00  0.00    -0.229 NA 
HETATM    9  C   UNL     1     -11.599  12.238  67.694  1.00  0.00    -0.354 A  
HETATM   10  C   UNL     1     -11.566  12.392  66.312  1.00  0.00    -0.449 A  
HETATM   11  C   UNL     1     -12.104  13.530  65.685  1.00  0.00    -0.467 A  
HETATM   12  C   UNL     1     -12.092  13.649  64.296  1.00  0.00    -0.480 A  
HETATM   13  C   UNL     1     -11.544  12.634  63.521  1.00  0.00    -0.584 A  
HETATM   14  C   UNL     1     -10.995  11.506  64.136  1.00  0.00    -0.434 A  
HETATM   15  C   UNL     1     -10.981  11.363  65.547  1.00  0.00    -0.248 A  
ENDBRANCH   4   6
TORSDOF 1
ENDMDL
MODEL       60
REMARK 921   NORMALIZED FREE ENERGY PREDICTED BY IDOCK:   -4.25 KCAL/MOL
REMARK 922        TOTAL FREE ENERGY PREDICTED BY IDOCK:   -4.54 KCAL/MOL
REMARK 923 INTER-LIGAND FREE ENERGY PREDICTED BY IDOCK:   -4.49 KCAL/MOL
REMARK 924 INTRA-LIGAND FREE ENERGY PREDICTED BY IDOCK:   -0.05 KCAL/MOL
REMARK 927      BINDING AFFINITY PREDICTED BY RF-SCORE:    0.00 PKD
ROOT
HETATM    1  N   UNL     1     -11.661  15.554  68.231  1.00  0.00    -0.422 NA 
HETATM    2  H1  UNL     1     -12.112  16.057  68.995  1.00  0.00     0.000 HD 
HETATM    3  H2  UNL     1     -11.447  16.203  67.474  1.00  0.00     0.000 HD 
HETATM    4  N   UNL     1     -12.353  14.427  67.712  1.00  0.00    -0.603 NA 
HETATM    5  H   UNL     1     -13.256  14.136  68.084  1.00  0.00     0.000 HD 
ENDROOT
BRANCH   4   6
HETATM    6  C   UNL     1     -11.717  13.718  66.635  1.00  0.00    -0.394 A  
HETATM    7  N   UNL     1     -11.531  14.333  65.438  1.00  0.00    -0.323 NA 
HETATM    8  N   UNL     1     -10.898  13.693  64.412  1.00  0.00    -0.394 NA 
HETATM    9  C   UNL     1     -10.471  12.432  64.592  1.00  0.00    -0.309 A  
HETATM   10  C   UNL     1     -10.663  11.722  65.772  1.00  0.00    -0.328 A  
HETATM   11  C   UNL     1     -10.223  10.394  65.912  1.00  0.00    -0.302 A  
HETATM   12  C   UNL     1     -10.456   9.688  67.092  1.00  0.00    -0.317 A  
HETATM   13  C   UNL     1     -11.132  10.301  68.140  1.00  0.00    -0.324 A  
HETATM   14  C   UNL     1     -11.562  11.625  68.015  1.00  0.00    -0.383 A  
HETATM   15  C   UNL     1     -11.327  12.372  66.832  1.00  0.00    -0.392 A  
ENDBRANCH   4   6
TORSDOF 1
ENDMDL
MODEL       61
REMARK 921   NORMALIZED FREE ENERGY PREDICTED BY IDOCK:   -4.25 KCAL/MOL
REMARK 922        TOTAL FREE ENERGY PREDICTED BY IDOCK:   -4.54 KCAL/MOL
REMARK 923 INTER-LIGAND FREE ENERGY PREDICTED BY IDOCK:   -4.50 KCAL/MOL
REMARK 924 INTRA-LIGAND FREE ENERGY PREDICTED BY IDOCK:   -0.04 KCAL/MOL
REMARK 927      BINDING AFFINITY PREDICTED BY RF-SCORE:    0.00 PKD
ROOT
HETATM    1  N   UNL     1     -11.398  12.509  69.737  1.00  0.00    -0.490 NA 
HETATM    2  H1  UNL     1     -10.894  13.143  69.117  1.00  0.00     0.000 HD 
HETATM    3  H2  UNL     1     -11.477  12.929  70.664  1.00  0.00     0.000 HD 
HETATM    4  N   UNL     1     -10.886  11.190  69.854  1.00  0.00    -0.470 NA 
HETATM    5  H   UNL     1     -10.056  10.890  69.344  1.00  0.00     0.000 HD 
ENDROOT
BRANCH   4   6
HETATM    6  C   UNL     1     -11.596  10.296  70.728  1.00  0.00    -0.355 A  
HETATM    7  N   UNL     1     -12.946  10.402  70.851  1.00  0.00    -0.394 NA 
HETATM    8  N   UNL     1     -13.647   9.543  71.646  1.00  0.00    -0.372 NA 
HETATM    9  C   UNL     1     -12.984   8.591  72.325  1.00  0.00    -0.341 A  
HETATM   10  C   UNL     1     -11.601   8.448  72.285  1.00  0.00    -0.453 A  
HETATM   11  C   UNL     1     -10.942   7.455  73.031  1.00  0.00    -0.422 A  
HETATM   12  C   UNL     1      -9.552   7.350  73.003  1.00  0.00    -0.242 A  
HETATM   13  C   UNL     1      -8.809   8.235  72.232  1.00  0.00    -0.274 A  
HETATM   14  C   UNL     1      -9.456   9.217  71.478  1.00  0.00    -0.239 A  
HETATM   15  C   UNL     1     -10.869   9.339  71.475  1.00  0.00    -0.442 A  
ENDBRANCH   4   6
TORSDOF 1
ENDMDL
MODEL       62
REMARK 921   NORMALIZED FREE ENERGY PREDICTED BY IDOCK:   -4.16 KCAL/MOL
REMARK 922        TOTAL FREE ENERGY PREDICTED BY IDOCK:   -4.44 KCAL/MOL
REMARK 923 INTER-LIGAND FREE ENERGY PREDICTED BY IDOCK:   -4.39 KCAL/MOL
REMARK 924 INTRA-LIGAND FREE ENERGY PREDICTED BY IDOCK:   -0.05 KCAL/MOL
REMARK 927      BINDING AFFINITY PREDICTED BY RF-SCORE:    0.00 PKD
ROOT
HETATM    1  N   UNL     1     -13.442  15.530  70.498  1.00  0.00    -0.820 NA 
HETATM    2  H1  UNL     1     -13.690  15.618  71.483  1.00  0.00     0.000 HD 
HETATM    3  H2  UNL     1     -13.966  14.762  70.080  1.00  0.00     0.000 HD 
HETATM    4  N   UNL     1     -12.061  15.383  70.198  1.00  0.00    -0.347 NA 
HETATM    5  H   UNL     1     -11.353  15.366  70.932  1.00  0.00     0.000 HD 
ENDROOT
BRANCH   4   6
HETATM    6  C   UNL     1     -11.710  15.260  68.810  1.00  0.00    -0.353 A  
HETATM    7  N   UNL     1     -12.065  14.144  68.120  1.00  0.00    -0.319 NA 
HETATM    8  N   UNL     1     -11.775  14.018  66.792  1.00  0.00    -0.385 NA 
HETATM    9  C   UNL     1     -11.115  15.010  66.171  1.00  0.00    -0.329 A  
HETATM   10  C   UNL     1     -10.681  16.161  66.818  1.00  0.00    -0.235 A  
HETATM   11  C   UNL     1      -9.970  17.165  66.137  1.00  0.00    -0.296 A  
HETATM   12  C   UNL     1      -9.513  18.297  66.813  1.00  0.00    -0.300 A  
HETATM   13  C   UNL     1      -9.760  18.434  68.174  1.00  0.00    -0.352 A  
HETATM   14  C   UNL     1     -10.477  17.447  68.856  1.00  0.00    -0.312 A  
HETATM   15  C   UNL     1     -10.966  16.293  68.192  1.00  0.00    -0.343 A  
ENDBRANCH   4   6
TORSDOF 1
ENDMDL
MODEL       63
REMARK 921   NORMALIZED FREE ENERGY PREDICTED BY IDOCK:   -4.16 KCAL/MOL
REMARK 922        TOTAL FREE ENERGY PREDICTED BY IDOCK:   -4.44 KCAL/MOL
REMARK 923 INTER-LIGAND FREE ENERGY PREDICTED BY IDOCK:   -4.42 KCAL/MOL
REMARK 924 INTRA-LIGAND FREE ENERGY PREDICTED BY IDOCK:   -0.03 KCAL/MOL
REMARK 927      BINDING AFFINITY PREDICTED BY RF-SCORE:    0.00 PKD
ROOT
HETATM    1  N   UNL     1     -11.774   6.128  72.743  1.00  0.00    -0.508 NA 
HETATM    2  H1  UNL     1     -11.460   5.366  73.345  1.00  0.00     0.000 HD 
HETATM    3  H2  UNL     1     -11.383   6.008  71.809  1.00  0.00     0.000 HD 
HETATM    4  N   UNL     1     -11.520   7.448  73.200  1.00  0.00    -0.604 NA 
HETATM    5  H   UNL     1     -11.048   7.627  74.086  1.00  0.00     0.000 HD 
ENDROOT
BRANCH   4   6
HETATM    6  C   UNL     1     -11.962   8.522  72.351  1.00  0.00    -0.364 A  
HETATM    7  N   UNL     1     -13.226   9.007  72.478  1.00  0.00    -0.446 NA 
HETATM    8  N   UNL     1     -13.657  10.048  71.710  1.00  0.00    -0.290 NA 
HETATM    9  C   UNL     1     -12.820  10.586  70.806  1.00  0.00    -0.367 A  
HETATM   10  C   UNL     1     -11.529  10.116  70.589  1.00  0.00    -0.432 A  
HETATM   11  C   UNL     1     -10.691  10.690  69.615  1.00  0.00    -0.290 A  
HETATM   12  C   UNL     1      -9.413  10.183  69.389  1.00  0.00    -0.240 A  
HETATM   13  C   UNL     1      -8.960   9.098  70.130  1.00  0.00    -0.219 A  
HETATM   14  C   UNL     1      -9.780   8.529  71.108  1.00  0.00    -0.257 A  
HETATM   15  C   UNL     1     -11.080   9.033  71.370  1.00  0.00    -0.399 A  
ENDBRANCH   4   6
TORSDOF 1
ENDMDL
MODEL       64
REMARK 921   NORMALIZED FREE ENERGY PREDICTED BY IDOCK:   -4.12 KCAL/MOL
REMARK 922        TOTAL FREE ENERGY PREDICTED BY IDOCK:   -4.40 KCAL/MOL
REMARK 923 INTER-LIGAND FREE ENERGY PREDICTED BY IDOCK:   -4.35 KCAL/MOL
REMARK 924 INTRA-LIGAND FREE ENERGY PREDICTED BY IDOCK:   -0.06 KCAL/MOL
REMARK 927      BINDING AFFINITY PREDICTED BY RF-SCORE:    0.00 PKD
ROOT
HETATM    1  N   UNL     1     -12.244  15.672  69.263  1.00  0.00    -0.565 NA 
HETATM    2  H1  UNL     1     -13.164  15.266  69.090  1.00  0.00     0.000 HD 
HETATM    3  H2  UNL     1     -12.351  16.604  69.662  1.00  0.00     0.000 HD 
HETATM    4  N   UNL     1     -11.352  15.726  68.158  1.00  0.00    -0.353 NA 
HETATM    5  H   UNL     1     -11.619  15.376  67.238  1.00  0.00     0.000 HD 
ENDROOT
BRANCH   4   6
HETATM    6  C   UNL     1     -10.056  16.297  68.401  1.00  0.00    -0.237 A  
HETATM    7  N   UNL     1      -9.093  15.554  69.009  1.00  0.00    -0.218 NA 
HETATM    8  N   UNL     1      -7.844  16.061  69.218  1.00  0.00    -0.235 NA 
HETATM    9  C   UNL     1      -7.575  17.319  68.830  1.00  0.00    -0.256 A  
HETATM   10  C   UNL     1      -8.519  18.155  68.243  1.00  0.00    -0.294 A  
HETATM   11  C   UNL     1      -8.205  19.475  67.873  1.00  0.00    -0.345 A  
HETATM   12  C   UNL     1      -9.176  20.307  67.317  1.00  0.00    -0.523 A  
HETATM   13  C   UNL     1     -10.467  19.831  67.127  1.00  0.00    -0.592 A  
HETATM   14  C   UNL     1     -10.785  18.517  67.479  1.00  0.00    -0.419 A  
HETATM   15  C   UNL     1      -9.815  17.642  68.034  1.00  0.00    -0.310 A  
ENDBRANCH   4   6
TORSDOF 1
ENDMDL
MODEL       65
REMARK 921   NORMALIZED FREE ENERGY PREDICTED BY IDOCK:   -4.12 KCAL/MOL
REMARK 922        TOTAL FREE ENERGY PREDICTED BY IDOCK:   -4.40 KCAL/MOL
REMARK 923 INTER-LIGAND FREE ENERGY PREDICTED BY IDOCK:   -4.35 KCAL/MOL
REMARK 924 INTRA-LIGAND FREE ENERGY PREDICTED BY IDOCK:   -0.05 KCAL/MOL
REMARK 927      BINDING AFFINITY PREDICTED BY RF-SCORE:    0.00 PKD
ROOT
HETATM    1  N   UNL     1      -5.878  20.682  70.620  1.00  0.00    -0.552 NA 
HETATM    2  H1  UNL     1      -5.689  20.515  71.609  1.00  0.00     0.000 HD 
HETATM    3  H2  UNL     1      -6.420  21.540  70.516  1.00  0.00     0.000 HD 
HETATM    4  N   UNL     1      -6.508  19.630  69.904  1.00  0.00    -0.317 NA 
HETATM    5  H   UNL     1      -6.759  18.751  70.356  1.00  0.00     0.000 HD 
ENDROOT
BRANCH   4   6
HETATM    6  C   UNL     1      -6.774  19.865  68.511  1.00  0.00    -0.303 A  
HETATM    7  N   UNL     1      -5.752  20.180  67.672  1.00  0.00    -0.185 NA 
HETATM    8  N   UNL     1      -5.973  20.372  66.339  1.00  0.00    -0.176 NA 
HETATM    9  C   UNL     1      -7.225  20.263  65.861  1.00  0.00    -0.239 A  
HETATM   10  C   UNL     1      -8.327  19.987  66.664  1.00  0.00    -0.363 A  
HETATM   11  C   UNL     1      -9.625  19.905  66.129  1.00  0.00    -0.492 A  
HETATM   12  C   UNL     1     -10.720  19.661  66.956  1.00  0.00    -0.575 A  
HETATM   13  C   UNL     1     -10.530  19.499  68.323  1.00  0.00    -0.442 A  
HETATM   14  C   UNL     1      -9.243  19.566  68.862  1.00  0.00    -0.368 A  
HETATM   15  C   UNL     1      -8.108  19.798  68.043  1.00  0.00    -0.338 A  
ENDBRANCH   4   6
TORSDOF 1
ENDMDL
MODEL       66
REMARK 921   NORMALIZED FREE ENERGY PREDICTED BY IDOCK:   -4.03 KCAL/MOL
REMARK 922        TOTAL FREE ENERGY PREDICTED BY IDOCK:   -4.31 KCAL/MOL
REMARK 923 INTER-LIGAND FREE ENERGY PREDICTED BY IDOCK:   -4.27 KCAL/MOL
REMARK 924 INTRA-LIGAND FREE ENERGY PREDICTED BY IDOCK:   -0.04 KCAL/MOL
REMARK 927      BINDING AFFINITY PREDICTED BY RF-SCORE:    0.00 PKD
ROOT
HETATM    1  N   UNL     1     -12.217  14.266  68.496  1.00  0.00    -0.577 NA 
HETATM    2  H1  UNL     1     -11.779  14.872  67.802  1.00  0.00     0.000 HD 
HETATM    3  H2  UNL     1     -12.756  14.831  69.152  1.00  0.00     0.000 HD 
HETATM    4  N   UNL     1     -11.358  13.392  69.214  1.00  0.00    -0.324 NA 
HETATM    5  H   UNL     1     -10.352  13.372  69.044  1.00  0.00     0.000 HD 
ENDROOT
BRANCH   4   6
HETATM    6  C   UNL     1     -11.974  12.537  70.192  1.00  0.00    -0.301 A  
HETATM    7  N   UNL     1     -12.852  13.060  71.088  1.00  0.00    -0.295 NA 
HETATM    8  N   UNL     1     -13.478  12.264  72.003  1.00  0.00    -0.423 NA 
HETATM    9  C   UNL     1     -13.204  10.948  72.021  1.00  0.00    -0.351 A  
HETATM   10  C   UNL     1     -12.287  10.348  71.165  1.00  0.00    -0.505 A  
HETATM   11  C   UNL     1     -12.009   8.971  71.232  1.00  0.00    -0.374 A  
HETATM   12  C   UNL     1     -11.061   8.395  70.388  1.00  0.00    -0.240 A  
HETATM   13  C   UNL     1     -10.379   9.188  69.473  1.00  0.00    -0.220 A  
HETATM   14  C   UNL     1     -10.658  10.554  69.390  1.00  0.00    -0.269 A  
HETATM   15  C   UNL     1     -11.627  11.166  70.226  1.00  0.00    -0.388 A  
ENDBRANCH   4   6
TORSDOF 1
ENDMDL
MODEL       67
REMARK 921   NORMALIZED FREE ENERGY PREDICTED BY IDOCK:   -4.01 KCAL/MOL
REMARK 922        TOTAL FREE ENERGY PREDICTED BY IDOCK:   -4.28 KCAL/MOL
REMARK 923 INTER-LIGAND FREE ENERGY PREDICTED BY IDOCK:   -4.24 KCAL/MOL
REMARK 924 INTRA-LIGAND FREE ENERGY PREDICTED BY IDOCK:   -0.04 KCAL/MOL
REMARK 927      BINDING AFFINITY PREDICTED BY RF-SCORE:    0.00 PKD
ROOT
HETATM    1  N   UNL     1     -10.304  13.098  64.398  1.00  0.00    -0.530 NA 
HETATM    2  H1  UNL     1      -9.784  12.676  63.628  1.00  0.00     0.000 HD 
HETATM    3  H2  UNL     1     -11.079  13.648  64.026  1.00  0.00     0.000 HD 
HETATM    4  N   UNL     1      -9.558  13.886  65.316  1.00  0.00    -0.546 NA 
HETATM    5  H   UNL     1      -8.553  14.022  65.210  1.00  0.00     0.000 HD 
ENDROOT
BRANCH   4   6
HETATM    6  C   UNL     1     -10.290  14.481  66.401  1.00  0.00    -0.293 A  
HETATM    7  N   UNL     1     -11.254  13.765  67.038  1.00  0.00    -0.302 NA 
HETATM    8  N   UNL     1     -11.938  14.294  68.093  1.00  0.00    -0.333 NA 
HETATM    9  C   UNL     1     -11.659  15.548  68.491  1.00  0.00    -0.368 A  
HETATM   10  C   UNL     1     -10.719  16.356  67.862  1.00  0.00    -0.332 A  
HETATM   11  C   UNL     1     -10.474  17.673  68.293  1.00  0.00    -0.376 A  
HETATM   12  C   UNL     1      -9.552  18.479  67.627  1.00  0.00    -0.304 A  
HETATM   13  C   UNL     1      -8.868  17.979  66.525  1.00  0.00    -0.276 A  
HETATM   14  C   UNL     1      -9.095  16.669  66.098  1.00  0.00    -0.318 A  
HETATM   15  C   UNL     1     -10.017  15.821  66.763  1.00  0.00    -0.260 A  
ENDBRANCH   4   6
TORSDOF 1
ENDMDL
MODEL       68
REMARK 921   NORMALIZED FREE ENERGY PREDICTED BY IDOCK:   -3.99 KCAL/MOL
REMARK 922        TOTAL FREE ENERGY PREDICTED BY IDOCK:   -4.27 KCAL/MOL
REMARK 923 INTER-LIGAND FREE ENERGY PREDICTED BY IDOCK:   -4.21 KCAL/MOL
REMARK 924 INTRA-LIGAND FREE ENERGY PREDICTED BY IDOCK:   -0.05 KCAL/MOL
REMARK 927      BINDING AFFINITY PREDICTED BY RF-SCORE:    0.00 PKD
ROOT
HETATM    1  N   UNL     1      -7.942  13.235  68.705  1.00  0.00    -0.326 NA 
HETATM    2  H1  UNL     1      -7.145  12.844  69.206  1.00  0.00     0.000 HD 
HETATM    3  H2  UNL     1      -8.249  14.092  69.167  1.00  0.00     0.000 HD 
HETATM    4  N   UNL     1      -9.055  12.376  68.506  1.00  0.00    -0.363 NA 
HETATM    5  H   UNL     1      -9.057  11.415  68.847  1.00  0.00     0.000 HD 
ENDROOT
BRANCH   4   6
HETATM    6  C   UNL     1     -10.180  12.927  67.800  1.00  0.00    -0.224 A  
HETATM    7  N   UNL     1     -10.935  13.895  68.383  1.00  0.00    -0.244 NA 
HETATM    8  N   UNL     1     -11.986  14.459  67.719  1.00  0.00    -0.362 NA 
HETATM    9  C   UNL     1     -12.280  14.034  66.479  1.00  0.00    -0.451 A  
HETATM   10  C   UNL     1     -11.581  13.019  65.834  1.00  0.00    -0.405 A  
HETATM   11  C   UNL     1     -11.937  12.586  64.544  1.00  0.00    -0.472 A  
HETATM   12  C   UNL     1     -11.245  11.543  63.928  1.00  0.00    -0.439 A  
HETATM   13  C   UNL     1     -10.195  10.924  64.596  1.00  0.00    -0.411 A  
HETATM   14  C   UNL     1      -9.826  11.356  65.872  1.00  0.00    -0.262 A  
HETATM   15  C   UNL     1     -10.503  12.423  66.517  1.00  0.00    -0.254 A  
ENDBRANCH   4   6
TORSDOF 1
ENDMDL
MODEL       69
REMARK 921   NORMALIZED FREE ENERGY PREDICTED BY IDOCK:   -3.99 KCAL/MOL
REMARK 922        TOTAL FREE ENERGY PREDICTED BY IDOCK:   -4.26 KCAL/MOL
REMARK 923 INTER-LIGAND FREE ENERGY PREDICTED BY IDOCK:   -4.22 KCAL/MOL
REMARK 924 INTRA-LIGAND FREE ENERGY PREDICTED BY IDOCK:   -0.04 KCAL/MOL
REMARK 927      BINDING AFFINITY PREDICTED BY RF-SCORE:    0.00 PKD
ROOT
HETATM    1  N   UNL     1     -13.832  15.386  70.594  1.00  0.00    -0.837 NA 
HETATM    2  H1  UNL     1     -14.394  16.042  71.136  1.00  0.00     0.000 HD 
HETATM    3  H2  UNL     1     -13.740  14.509  71.106  1.00  0.00     0.000 HD 
HETATM    4  N   UNL     1     -12.548  15.834  70.183  1.00  0.00    -0.508 NA 
HETATM    5  H   UNL     1     -12.206  16.765  70.418  1.00  0.00     0.000 HD 
ENDROOT
BRANCH   4   6
HETATM    6  C   UNL     1     -11.755  14.910  69.418  1.00  0.00    -0.319 A  
HETATM    7  N   UNL     1     -11.664  13.612  69.811  1.00  0.00    -0.299 NA 
HETATM    8  N   UNL     1     -10.947  12.708  69.083  1.00  0.00    -0.190 NA 
HETATM    9  C   UNL     1     -10.312  13.119  67.972  1.00  0.00    -0.238 A  
HETATM   10  C   UNL     1     -10.322  14.437  67.531  1.00  0.00    -0.251 A  
HETATM   11  C   UNL     1      -9.624  14.833  66.376  1.00  0.00    -0.324 A  
HETATM   12  C   UNL     1      -9.619  16.166  65.969  1.00  0.00    -0.381 A  
HETATM   13  C   UNL     1     -10.309  17.117  66.713  1.00  0.00    -0.302 A  
HETATM   14  C   UNL     1     -11.016  16.731  67.854  1.00  0.00    -0.260 A  
HETATM   15  C   UNL     1     -11.051  15.379  68.284  1.00  0.00    -0.309 A  
ENDBRANCH   4   6
TORSDOF 1
ENDMDL
MODEL       70
REMARK 921   NORMALIZED FREE ENERGY PREDICTED BY IDOCK:   -3.96 KCAL/MOL
REMARK 922        TOTAL FREE ENERGY PREDICTED BY IDOCK:   -4.23 KCAL/MOL
REMARK 923 INTER-LIGAND FREE ENERGY PREDICTED BY IDOCK:   -4.19 KCAL/MOL
REMARK 924 INTRA-LIGAND FREE ENERGY PREDICTED BY IDOCK:   -0.04 KCAL/MOL
REMARK 927      BINDING AFFINITY PREDICTED BY RF-SCORE:    0.00 PKD
ROOT
HETATM    1  N   UNL     1      -9.328  17.216  66.162  1.00  0.00    -0.452 NA 
HETATM    2  H1  UNL     1      -9.514  18.196  65.948  1.00  0.00     0.000 HD 
HETATM    3  H2  UNL     1      -8.332  17.026  66.055  1.00  0.00     0.000 HD 
HETATM    4  N   UNL     1     -10.078  16.252  65.437  1.00  0.00    -0.547 NA 
HETATM    5  H   UNL     1     -10.767  16.525  64.738  1.00  0.00     0.000 HD 
ENDROOT
BRANCH   4   6
HETATM    6  C   UNL     1      -9.816  14.870  65.738  1.00  0.00    -0.348 A  
HETATM    7  N   UNL     1      -8.880  14.547  66.669  1.00  0.00    -0.222 NA 
HETATM    8  N   UNL     1      -8.638  13.245  66.998  1.00  0.00    -0.193 NA 
HETATM    9  C   UNL     1      -9.330  12.275  66.376  1.00  0.00    -0.219 A  
HETATM   10  C   UNL     1     -10.271  12.524  65.384  1.00  0.00    -0.303 A  
HETATM   11  C   UNL     1     -10.956  11.479  64.739  1.00  0.00    -0.338 A  
HETATM   12  C   UNL     1     -11.871  11.748  63.722  1.00  0.00    -0.484 A  
HETATM   13  C   UNL     1     -12.109  13.063  63.339  1.00  0.00    -0.591 A  
HETATM   14  C   UNL     1     -11.443  14.109  63.983  1.00  0.00    -0.063 A  
HETATM   15  C   UNL     1     -10.517  13.866  65.030  1.00  0.00    -0.428 A  
ENDBRANCH   4   6
TORSDOF 1
ENDMDL
MODEL       71
REMARK 921   NORMALIZED FREE ENERGY PREDICTED BY IDOCK:   -3.96 KCAL/MOL
REMARK 922        TOTAL FREE ENERGY PREDICTED BY IDOCK:   -4.23 KCAL/MOL
REMARK 923 INTER-LIGAND FREE ENERGY PREDICTED BY IDOCK:   -4.18 KCAL/MOL
REMARK 924 INTRA-LIGAND FREE ENERGY PREDICTED BY IDOCK:   -0.05 KCAL/MOL
REMARK 927      BINDING AFFINITY PREDICTED BY RF-SCORE:    0.00 PKD
ROOT
HETATM    1  N   UNL     1     -10.959  16.616  64.271  1.00  0.00    -1.120 NA 
HETATM    2  H1  UNL     1     -11.389  16.925  63.399  1.00  0.00     0.000 HD 
HETATM    3  H2  UNL     1     -11.475  15.818  64.643  1.00  0.00     0.000 HD 
HETATM    4  N   UNL     1     -10.800  17.596  65.286  1.00  0.00    -0.561 NA 
HETATM    5  H   UNL     1     -11.101  18.561  65.151  1.00  0.00     0.000 HD 
ENDROOT
BRANCH   4   6
HETATM    6  C   UNL     1     -10.194  17.161  66.515  1.00  0.00    -0.322 A  
HETATM    7  N   UNL     1     -10.816  16.227  67.282  1.00  0.00    -0.267 NA 
HETATM    8  N   UNL     1     -10.244  15.771  68.434  1.00  0.00    -0.220 NA 
HETATM    9  C   UNL     1      -9.057  16.272  68.817  1.00  0.00    -0.245 A  
HETATM   10  C   UNL     1      -8.381  17.260  68.110  1.00  0.00    -0.233 A  
HETATM   11  C   UNL     1      -7.152  17.775  68.558  1.00  0.00    -0.245 A  
HETATM   12  C   UNL     1      -6.507  18.790  67.852  1.00  0.00    -0.217 A  
HETATM   13  C   UNL     1      -7.084  19.301  66.695  1.00  0.00    -0.219 A  
HETATM   14  C   UNL     1      -8.299  18.786  66.236  1.00  0.00    -0.262 A  
HETATM   15  C   UNL     1      -8.971  17.744  66.925  1.00  0.00    -0.265 A  
ENDBRANCH   4   6
TORSDOF 1
ENDMDL
MODEL       72
REMARK 921   NORMALIZED FREE ENERGY PREDICTED BY IDOCK:   -3.93 KCAL/MOL
REMARK 922        TOTAL FREE ENERGY PREDICTED BY IDOCK:   -4.21 KCAL/MOL
REMARK 923 INTER-LIGAND FREE ENERGY PREDICTED BY IDOCK:   -4.17 KCAL/MOL
REMARK 924 INTRA-LIGAND FREE ENERGY PREDICTED BY IDOCK:   -0.04 KCAL/MOL
REMARK 927      BINDING AFFINITY PREDICTED BY RF-SCORE:    0.00 PKD
ROOT
HETATM    1  N   UNL     1      -9.882  13.196  68.930  1.00  0.00    -0.418 NA 
HETATM    2  H1  UNL     1     -10.053  14.192  68.795  1.00  0.00     0.000 HD 
HETATM    3  H2  UNL     1      -9.493  12.797  68.075  1.00  0.00     0.000 HD 
HETATM    4  N   UNL     1     -10.983  12.412  69.364  1.00  0.00    -0.453 NA 
HETATM    5  H   UNL     1     -11.900  12.824  69.533  1.00  0.00     0.000 HD 
ENDROOT
BRANCH   4   6
HETATM    6  C   UNL     1     -10.742  11.007  69.555  1.00  0.00    -0.183 A  
HETATM    7  N   UNL     1      -9.768  10.386  68.839  1.00  0.00    -0.188 NA 
HETATM    8  N   UNL     1      -9.496   9.062  69.027  1.00  0.00    -0.154 NA 
HETATM    9  C   UNL     1     -10.217   8.367  69.924  1.00  0.00    -0.201 A  
HETATM   10  C   UNL     1     -11.256   8.922  70.662  1.00  0.00    -0.308 A  
HETATM   11  C   UNL     1     -12.004   8.155  71.573  1.00  0.00    -0.334 A  
HETATM   12  C   UNL     1     -13.065   8.722  72.278  1.00  0.00    -0.458 A  
HETATM   13  C   UNL     1     -13.390  10.058  72.078  1.00  0.00    -0.513 A  
HETATM   14  C   UNL     1     -12.645  10.832  71.185  1.00  0.00    -0.532 A  
HETATM   15  C   UNL     1     -11.552  10.286  70.464  1.00  0.00    -0.424 A  
ENDBRANCH   4   6
TORSDOF 1
ENDMDL
MODEL       73
REMARK 921   NORMALIZED FREE ENERGY PREDICTED BY IDOCK:   -3.92 KCAL/MOL
REMARK 922        TOTAL FREE ENERGY PREDICTED BY IDOCK:   -4.19 KCAL/MOL
REMARK 923 INTER-LIGAND FREE ENERGY PREDICTED BY IDOCK:   -4.14 KCAL/MOL
REMARK 924 INTRA-LIGAND FREE ENERGY PREDICTED BY IDOCK:   -0.06 KCAL/MOL
REMARK 927      BINDING AFFINITY PREDICTED BY RF-SCORE:    0.00 PKD
ROOT
HETATM    1  N   UNL     1      -8.737  10.107  69.809  1.00  0.00    -0.341 NA 
HETATM    2  H1  UNL     1      -8.168  10.953  69.849  1.00  0.00     0.000 HD 
HETATM    3  H2  UNL     1      -9.500  10.239  69.146  1.00  0.00     0.000 HD 
HETATM    4  N   UNL     1      -9.254   9.626  71.041  1.00  0.00    -0.343 NA 
HETATM    5  H   UNL     1      -9.067  10.104  71.923  1.00  0.00     0.000 HD 
ENDROOT
BRANCH   4   6
HETATM    6  C   UNL     1     -10.054   8.433  70.985  1.00  0.00    -0.196 A  
HETATM    7  N   UNL     1      -9.475   7.245  70.669  1.00  0.00    -0.165 NA 
HETATM    8  N   UNL     1     -10.206   6.094  70.644  1.00  0.00    -0.192 NA 
HETATM    9  C   UNL     1     -11.520   6.147  70.922  1.00  0.00    -0.248 A  
HETATM   10  C   UNL     1     -12.192   7.329  71.211  1.00  0.00    -0.389 A  
HETATM   11  C   UNL     1     -13.573   7.346  71.472  1.00  0.00    -0.454 A  
HETATM   12  C   UNL     1     -14.234   8.547  71.727  1.00  0.00    -0.525 A  
HETATM   13  C   UNL     1     -13.523   9.741  71.721  1.00  0.00    -0.463 A  
HETATM   14  C   UNL     1     -12.147   9.733  71.475  1.00  0.00    -0.493 A  
HETATM   15  C   UNL     1     -11.446   8.525  71.227  1.00  0.00    -0.329 A  
ENDBRANCH   4   6
TORSDOF 1
ENDMDL
MODEL       74
REMARK 921   NORMALIZED FREE ENERGY PREDICTED BY IDOCK:   -3.90 KCAL/MOL
REMARK 922        TOTAL FREE ENERGY PREDICTED BY IDOCK:   -4.16 KCAL/MOL
REMARK 923 INTER-LIGAND FREE ENERGY PREDICTED BY IDOCK:   -4.15 KCAL/MOL
REMARK 924 INTRA-LIGAND FREE ENERGY PREDICTED BY IDOCK:   -0.02 KCAL/MOL
REMARK 927      BINDING AFFINITY PREDICTED BY RF-SCORE:    0.00 PKD
ROOT
HETATM    1  N   UNL     1      -7.598   9.116  71.510  1.00  0.00    -0.341 NA 
HETATM    2  H1  UNL     1      -6.876   8.439  71.757  1.00  0.00     0.000 HD 
HETATM    3  H2  UNL     1      -8.135   9.363  72.341  1.00  0.00     0.000 HD 
HETATM    4  N   UNL     1      -8.484   8.751  70.462  1.00  0.00    -0.149 NA 
HETATM    5  H   UNL     1      -8.403   7.856  69.980  1.00  0.00     0.000 HD 
ENDROOT
BRANCH   4   6
HETATM    6  C   UNL     1      -9.502   9.705  70.113  1.00  0.00    -0.253 A  
HETATM    7  N   UNL     1      -9.245  10.653  69.174  1.00  0.00    -0.178 NA 
HETATM    8  N   UNL     1     -10.205  11.547  68.800  1.00  0.00    -0.211 NA 
HETATM    9  C   UNL     1     -11.414  11.492  69.385  1.00  0.00    -0.309 A  
HETATM   10  C   UNL     1     -11.738  10.579  70.382  1.00  0.00    -0.434 A  
HETATM   11  C   UNL     1     -13.007  10.570  70.988  1.00  0.00    -0.475 A  
HETATM   12  C   UNL     1     -13.301   9.669  72.010  1.00  0.00    -0.547 A  
HETATM   13  C   UNL     1     -12.330   8.772  72.439  1.00  0.00    -0.414 A  
HETATM   14  C   UNL     1     -11.070   8.765  71.835  1.00  0.00    -0.434 A  
HETATM   15  C   UNL     1     -10.747   9.660  70.783  1.00  0.00    -0.401 A  
ENDBRANCH   4   6
TORSDOF 1
ENDMDL
MODEL       75
REMARK 921   NORMALIZED FREE ENERGY PREDICTED BY IDOCK:   -3.87 KCAL/MOL
REMARK 922        TOTAL FREE ENERGY PREDICTED BY IDOCK:   -4.13 KCAL/MOL
REMARK 923 INTER-LIGAND FREE ENERGY PREDICTED BY IDOCK:   -4.09 KCAL/MOL
REMARK 924 INTRA-LIGAND FREE ENERGY PREDICTED BY IDOCK:   -0.05 KCAL/MOL
REMARK 927      BINDING AFFINITY PREDICTED BY RF-SCORE:    0.00 PKD
ROOT
HETATM    1  N   UNL     1     -10.639  15.277  70.669  1.00  0.00    -0.507 NA 
HETATM    2  H1  UNL     1     -11.250  15.199  71.483  1.00  0.00     0.000 HD 
HETATM    3  H2  UNL     1      -9.712  15.584  70.966  1.00  0.00     0.000 HD 
HETATM    4  N   UNL     1     -11.095  16.098  69.605  1.00  0.00    -0.328 NA 
HETATM    5  H   UNL     1     -11.989  16.587  69.651  1.00  0.00     0.000 HD 
ENDROOT
BRANCH   4   6
HETATM    6  C   UNL     1     -10.235  16.208  68.458  1.00  0.00    -0.241 A  
HETATM    7  N   UNL     1      -9.696  15.088  67.908  1.00  0.00    -0.211 NA 
HETATM    8  N   UNL     1      -8.906  15.163  66.798  1.00  0.00    -0.254 NA 
HETATM    9  C   UNL     1      -8.648  16.366  66.258  1.00  0.00    -0.340 A  
HETATM   10  C   UNL     1      -9.127  17.559  66.789  1.00  0.00    -0.276 A  
HETATM   11  C   UNL     1      -8.814  18.801  66.209  1.00  0.00    -0.242 A  
HETATM   12  C   UNL     1      -9.275  19.988  66.777  1.00  0.00    -0.494 A  
HETATM   13  C   UNL     1     -10.051  19.946  67.929  1.00  0.00    -0.571 A  
HETATM   14  C   UNL     1     -10.377  18.716  68.505  1.00  0.00    -0.311 A  
HETATM   15  C   UNL     1      -9.934  17.491  67.942  1.00  0.00    -0.312 A  
ENDBRANCH   4   6
TORSDOF 1
ENDMDL
MODEL       76
REMARK 921   NORMALIZED FREE ENERGY PREDICTED BY IDOCK:   -3.86 KCAL/MOL
REMARK 922        TOTAL FREE ENERGY PREDICTED BY IDOCK:   -4.12 KCAL/MOL
REMARK 923 INTER-LIGAND FREE ENERGY PREDICTED BY IDOCK:   -4.11 KCAL/MOL
REMARK 924 INTRA-LIGAND FREE ENERGY PREDICTED BY IDOCK:   -0.02 KCAL/MOL
REMARK 927      BINDING AFFINITY PREDICTED BY RF-SCORE:    0.00 PKD
ROOT
HETATM    1  N   UNL     1     -11.685   6.593  69.189  1.00  0.00    -0.589 NA 
HETATM    2  H1  UNL     1     -11.673   5.591  69.379  1.00  0.00     0.000 HD 
HETATM    3  H2  UNL     1     -11.656   6.751  68.182  1.00  0.00     0.000 HD 
HETATM    4  N   UNL     1     -10.682   7.375  69.823  1.00  0.00    -0.240 NA 
HETATM    5  H   UNL     1      -9.984   6.954  70.436  1.00  0.00     0.000 HD 
ENDROOT
BRANCH   4   6
HETATM    6  C   UNL     1     -10.698   8.787  69.556  1.00  0.00    -0.188 A  
HETATM    7  N   UNL     1      -9.904   9.300  68.580  1.00  0.00    -0.154 NA 
HETATM    8  N   UNL     1      -9.927  10.631  68.284  1.00  0.00    -0.154 NA 
HETATM    9  C   UNL     1     -10.739  11.443  68.983  1.00  0.00    -0.205 A  
HETATM   10  C   UNL     1     -11.548  11.000  70.024  1.00  0.00    -0.427 A  
HETATM   11  C   UNL     1     -12.365  11.886  70.749  1.00  0.00    -0.416 A  
HETATM   12  C   UNL     1     -13.142  11.428  71.812  1.00  0.00    -0.523 A  
HETATM   13  C   UNL     1     -13.110  10.083  72.161  1.00  0.00    -0.482 A  
HETATM   14  C   UNL     1     -12.311   9.194  71.439  1.00  0.00    -0.404 A  
HETATM   15  C   UNL     1     -11.520   9.628  70.344  1.00  0.00    -0.325 A  
ENDBRANCH   4   6
TORSDOF 1
ENDMDL
MODEL       77
REMARK 921   NORMALIZED FREE ENERGY PREDICTED BY IDOCK:   -3.83 KCAL/MOL
REMARK 922        TOTAL FREE ENERGY PREDICTED BY IDOCK:   -4.10 KCAL/MOL
REMARK 923 INTER-LIGAND FREE ENERGY PREDICTED BY IDOCK:   -4.06 KCAL/MOL
REMARK 924 INTRA-LIGAND FREE ENERGY PREDICTED BY IDOCK:   -0.04 KCAL/MOL
REMARK 927      BINDING AFFINITY PREDICTED BY RF-SCORE:    0.00 PKD
ROOT
HETATM    1  N   UNL     1     -10.895   5.975  66.474  1.00  0.00    -0.650 NA 
HETATM    2  H1  UNL     1     -11.491   5.362  65.919  1.00  0.00     0.000 HD 
HETATM    3  H2  UNL     1      -9.981   5.540  66.602  1.00  0.00     0.000 HD 
HETATM    4  N   UNL     1     -11.403   6.393  67.732  1.00  0.00    -0.655 NA 
HETATM    5  H   UNL     1     -12.320   6.095  68.065  1.00  0.00     0.000 HD 
ENDROOT
BRANCH   4   6
HETATM    6  C   UNL     1     -10.563   7.259  68.515  1.00  0.00    -0.175 A  
HETATM    7  N   UNL     1      -9.480   7.847  67.942  1.00  0.00    -0.143 NA 
HETATM    8  N   UNL     1      -8.687   8.700  68.653  1.00  0.00    -0.137 NA 
HETATM    9  C   UNL     1      -8.980   8.943  69.942  1.00  0.00    -0.156 A  
HETATM   10  C   UNL     1     -10.043   8.346  70.609  1.00  0.00    -0.220 A  
HETATM   11  C   UNL     1     -10.301   8.607  71.966  1.00  0.00    -0.416 A  
HETATM   12  C   UNL     1     -11.352   7.971  72.626  1.00  0.00    -0.469 A  
HETATM   13  C   UNL     1     -12.153   7.068  71.937  1.00  0.00    -0.358 A  
HETATM   14  C   UNL     1     -11.913   6.812  70.585  1.00  0.00    -0.418 A  
HETATM   15  C   UNL     1     -10.860   7.454  69.884  1.00  0.00    -0.259 A  
ENDBRANCH   4   6
TORSDOF 1
ENDMDL
MODEL       78
REMARK 921   NORMALIZED FREE ENERGY PREDICTED BY IDOCK:   -3.83 KCAL/MOL
REMARK 922        TOTAL FREE ENERGY PREDICTED BY IDOCK:   -4.10 KCAL/MOL
REMARK 923 INTER-LIGAND FREE ENERGY PREDICTED BY IDOCK:   -4.05 KCAL/MOL
REMARK 924 INTRA-LIGAND FREE ENERGY PREDICTED BY IDOCK:   -0.04 KCAL/MOL
REMARK 927      BINDING AFFINITY PREDICTED BY RF-SCORE:    0.00 PKD
ROOT
HETATM    1  N   UNL     1      -7.019  21.351  67.204  1.00  0.00    -0.803 NA 
HETATM    2  H1  UNL     1      -6.270  21.865  67.669  1.00  0.00     0.000 HD 
HETATM    3  H2  UNL     1      -7.735  22.005  66.887  1.00  0.00     0.000 HD 
HETATM    4  N   UNL     1      -7.626  20.300  67.941  1.00  0.00    -0.276 NA 
HETATM    5  H   UNL     1      -7.327  20.070  68.889  1.00  0.00     0.000 HD 
ENDROOT
BRANCH   4   6
HETATM    6  C   UNL     1      -8.681  19.576  67.286  1.00  0.00    -0.300 A  
HETATM    7  N   UNL     1      -9.488  20.214  66.398  1.00  0.00    -0.381 NA 
HETATM    8  N   UNL     1     -10.473  19.542  65.736  1.00  0.00    -0.483 NA 
HETATM    9  C   UNL     1     -10.652  18.233  65.985  1.00  0.00    -0.296 A  
HETATM   10  C   UNL     1      -9.896  17.522  66.911  1.00  0.00    -0.302 A  
HETATM   11  C   UNL     1     -10.131  16.158  67.162  1.00  0.00    -0.269 A  
HETATM   12  C   UNL     1      -9.385  15.472  68.119  1.00  0.00    -0.197 A  
HETATM   13  C   UNL     1      -8.400  16.141  68.836  1.00  0.00    -0.233 A  
HETATM   14  C   UNL     1      -8.151  17.492  68.585  1.00  0.00    -0.263 A  
HETATM   15  C   UNL     1      -8.884  18.213  67.607  1.00  0.00    -0.253 A  
ENDBRANCH   4   6
TORSDOF 1
ENDMDL
MODEL       79
REMARK 921   NORMALIZED FREE ENERGY PREDICTED BY IDOCK:   -3.82 KCAL/MOL
REMARK 922        TOTAL FREE ENERGY PREDICTED BY IDOCK:   -4.09 KCAL/MOL
REMARK 923 INTER-LIGAND FREE ENERGY PREDICTED BY IDOCK:   -4.06 KCAL/MOL
REMARK 924 INTRA-LIGAND FREE ENERGY PREDICTED BY IDOCK:   -0.03 KCAL/MOL
REMARK 927      BINDING AFFINITY PREDICTED BY RF-SCORE:    0.00 PKD
ROOT
HETATM    1  N   UNL     1      -8.459  15.544  69.184  1.00  0.00    -0.231 NA 
HETATM    2  H1  UNL     1      -8.191  15.624  70.165  1.00  0.00     0.000 HD 
HETATM    3  H2  UNL     1      -7.766  16.013  68.601  1.00  0.00     0.000 HD 
HETATM    4  N   UNL     1      -9.759  15.999  68.838  1.00  0.00    -0.220 NA 
HETATM    5  H   UNL     1     -10.394  16.387  69.536  1.00  0.00     0.000 HD 
ENDROOT
BRANCH   4   6
HETATM    6  C   UNL     1     -10.137  15.886  67.456  1.00  0.00    -0.247 A  
HETATM    7  N   UNL     1      -9.925  16.929  66.610  1.00  0.00    -0.283 NA 
HETATM    8  N   UNL     1     -10.242  16.834  65.286  1.00  0.00    -0.610 NA 
HETATM    9  C   UNL     1     -10.787  15.695  64.824  1.00  0.00    -0.355 A  
HETATM   10  C   UNL     1     -11.074  14.603  65.635  1.00  0.00    -0.338 A  
HETATM   11  C   UNL     1     -11.668  13.438  65.118  1.00  0.00    -0.345 A  
HETATM   12  C   UNL     1     -11.980  12.367  65.954  1.00  0.00    -0.434 A  
HETATM   13  C   UNL     1     -11.703  12.450  67.314  1.00  0.00    -0.419 A  
HETATM   14  C   UNL     1     -11.102  13.598  67.835  1.00  0.00    -0.283 A  
HETATM   15  C   UNL     1     -10.760  14.698  67.006  1.00  0.00    -0.290 A  
ENDBRANCH   4   6
TORSDOF 1
ENDMDL
MODEL       80
REMARK 921   NORMALIZED FREE ENERGY PREDICTED BY IDOCK:   -3.79 KCAL/MOL
REMARK 922        TOTAL FREE ENERGY PREDICTED BY IDOCK:   -4.05 KCAL/MOL
REMARK 923 INTER-LIGAND FREE ENERGY PREDICTED BY IDOCK:   -3.99 KCAL/MOL
REMARK 924 INTRA-LIGAND FREE ENERGY PREDICTED BY IDOCK:   -0.05 KCAL/MOL
REMARK 927      BINDING AFFINITY PREDICTED BY RF-SCORE:    0.00 PKD
ROOT
HETATM    1  N   UNL     1     -10.925   7.466  66.899  1.00  0.00    -0.572 NA 
HETATM    2  H1  UNL     1     -10.599   7.060  66.022  1.00  0.00     0.000 HD 
HETATM    3  H2  UNL     1     -11.904   7.738  66.806  1.00  0.00     0.000 HD 
HETATM    4  N   UNL     1     -10.175   8.556  67.416  1.00  0.00    -0.239 NA 
HETATM    5  H   UNL     1      -9.351   8.914  66.934  1.00  0.00     0.000 HD 
ENDROOT
BRANCH   4   6
HETATM    6  C   UNL     1     -10.635   9.129  68.652  1.00  0.00    -0.174 A  
HETATM    7  N   UNL     1     -10.654   8.373  69.781  1.00  0.00    -0.222 NA 
HETATM    8  N   UNL     1     -11.051   8.903  70.974  1.00  0.00    -0.258 NA 
HETATM    9  C   UNL     1     -11.443  10.188  71.019  1.00  0.00    -0.354 A  
HETATM   10  C   UNL     1     -11.493  11.011  69.900  1.00  0.00    -0.400 A  
HETATM   11  C   UNL     1     -11.933  12.344  69.985  1.00  0.00    -0.372 A  
HETATM   12  C   UNL     1     -12.008  13.143  68.845  1.00  0.00    -0.317 A  
HETATM   13  C   UNL     1     -11.646  12.618  67.610  1.00  0.00    -0.414 A  
HETATM   14  C   UNL     1     -11.195  11.299  67.518  1.00  0.00    -0.357 A  
HETATM   15  C   UNL     1     -11.095  10.467  68.662  1.00  0.00    -0.313 A  
ENDBRANCH   4   6
TORSDOF 1
ENDMDL
MODEL       81
REMARK 921   NORMALIZED FREE ENERGY PREDICTED BY IDOCK:   -3.78 KCAL/MOL
REMARK 922        TOTAL FREE ENERGY PREDICTED BY IDOCK:   -4.04 KCAL/MOL
REMARK 923 INTER-LIGAND FREE ENERGY PREDICTED BY IDOCK:   -4.01 KCAL/MOL
REMARK 924 INTRA-LIGAND FREE ENERGY PREDICTED BY IDOCK:   -0.03 KCAL/MOL
REMARK 927      BINDING AFFINITY PREDICTED BY RF-SCORE:    0.00 PKD
ROOT
HETATM    1  N   UNL     1     -12.658  14.020  64.039  1.00  0.00    -0.678 NA 
HETATM    2  H1  UNL     1     -13.230  14.238  63.224  1.00  0.00     0.000 HD 
HETATM    3  H2  UNL     1     -12.851  14.692  64.782  1.00  0.00     0.000 HD 
HETATM    4  N   UNL     1     -11.256  13.930  63.830  1.00  0.00    -0.527 NA 
HETATM    5  H   UNL     1     -10.842  14.077  62.910  1.00  0.00     0.000 HD 
ENDROOT
BRANCH   4   6
HETATM    6  C   UNL     1     -10.449  13.622  64.980  1.00  0.00    -0.391 A  
HETATM    7  N   UNL     1     -10.217  12.326  65.315  1.00  0.00    -0.275 NA 
HETATM    8  N   UNL     1      -9.426  12.007  66.379  1.00  0.00    -0.227 NA 
HETATM    9  C   UNL     1      -8.885  12.997  67.111  1.00  0.00    -0.218 A  
HETATM   10  C   UNL     1      -9.111  14.345  66.857  1.00  0.00    -0.269 A  
HETATM   11  C   UNL     1      -8.546  15.350  67.662  1.00  0.00    -0.176 A  
HETATM   12  C   UNL     1      -8.813  16.696  67.411  1.00  0.00    -0.198 A  
HETATM   13  C   UNL     1      -9.647  17.049  66.357  1.00  0.00    -0.301 A  
HETATM   14  C   UNL     1     -10.202  16.057  65.544  1.00  0.00    -0.389 A  
HETATM   15  C   UNL     1      -9.937  14.681  65.766  1.00  0.00    -0.365 A  
ENDBRANCH   4   6
TORSDOF 1
ENDMDL
MODEL       82
REMARK 921   NORMALIZED FREE ENERGY PREDICTED BY IDOCK:   -3.77 KCAL/MOL
REMARK 922        TOTAL FREE ENERGY PREDICTED BY IDOCK:   -4.03 KCAL/MOL
REMARK 923 INTER-LIGAND FREE ENERGY PREDICTED BY IDOCK:   -3.99 KCAL/MOL
REMARK 924 INTRA-LIGAND FREE ENERGY PREDICTED BY IDOCK:   -0.04 KCAL/MOL
REMARK 927      BINDING AFFINITY PREDICTED BY RF-SCORE:    0.00 PKD
ROOT
HETATM    1  N   UNL     1     -12.105  13.617  70.765  1.00  0.00    -0.466 NA 
HETATM    2  H1  UNL     1     -12.214  13.572  71.778  1.00  0.00     0.000 HD 
HETATM    3  H2  UNL     1     -12.878  14.146  70.361  1.00  0.00     0.000 HD 
HETATM    4  N   UNL     1     -11.966  12.380  70.082  1.00  0.00    -0.443 NA 
HETATM    5  H   UNL     1     -11.975  11.490  70.579  1.00  0.00     0.000 HD 
ENDROOT
BRANCH   4   6
HETATM    6  C   UNL     1     -11.811  12.444  68.654  1.00  0.00    -0.302 A  
HETATM    7  N   UNL     1     -12.251  13.536  67.975  1.00  0.00    -0.241 NA 
HETATM    8  N   UNL     1     -12.085  13.636  66.624  1.00  0.00    -0.415 NA 
HETATM    9  C   UNL     1     -11.490  12.628  65.962  1.00  0.00    -0.368 A  
HETATM   10  C   UNL     1     -11.054  11.462  66.580  1.00  0.00    -0.333 A  
HETATM   11  C   UNL     1     -10.459  10.419  65.848  1.00  0.00    -0.196 A  
HETATM   12  C   UNL     1     -10.059   9.243  66.481  1.00  0.00    -0.343 A  
HETATM   13  C   UNL     1     -10.251   9.097  67.850  1.00  0.00    -0.266 A  
HETATM   14  C   UNL     1     -10.830  10.133  68.588  1.00  0.00    -0.272 A  
HETATM   15  C   UNL     1     -11.233  11.346  67.973  1.00  0.00    -0.346 A  
ENDBRANCH   4   6
TORSDOF 1
ENDMDL
MODEL       83
REMARK 921   NORMALIZED FREE ENERGY PREDICTED BY IDOCK:   -3.74 KCAL/MOL
REMARK 922        TOTAL FREE ENERGY PREDICTED BY IDOCK:   -4.00 KCAL/MOL
REMARK 923 INTER-LIGAND FREE ENERGY PREDICTED BY IDOCK:   -3.95 KCAL/MOL
REMARK 924 INTRA-LIGAND FREE ENERGY PREDICTED BY IDOCK:   -0.05 KCAL/MOL
REMARK 927      BINDING AFFINITY PREDICTED BY RF-SCORE:    0.00 PKD
ROOT
HETATM    1  N   UNL     1      -9.830  14.582  69.303  1.00  0.00    -0.416 NA 
HETATM    2  H1  UNL     1     -10.333  14.182  70.094  1.00  0.00     0.000 HD 
HETATM    3  H2  UNL     1      -9.089  13.946  69.011  1.00  0.00     0.000 HD 
HETATM    4  N   UNL     1      -9.296  15.886  69.480  1.00  0.00    -0.244 NA 
HETATM    5  H   UNL     1      -9.410  16.397  70.355  1.00  0.00     0.000 HD 
ENDROOT
BRANCH   4   6
HETATM    6  C   UNL     1      -8.587  16.452  68.364  1.00  0.00    -0.209 A  
HETATM    7  N   UNL     1      -7.494  15.816  67.866  1.00  0.00    -0.126 NA 
HETATM    8  N   UNL     1      -6.826  16.313  66.785  1.00  0.00    -0.245 NA 
HETATM    9  C   UNL     1      -7.251  17.457  66.223  1.00  0.00    -0.311 A  
HETATM   10  C   UNL     1      -8.333  18.187  66.702  1.00  0.00    -0.283 A  
HETATM   11  C   UNL     1      -8.732  19.394  66.100  1.00  0.00    -0.294 A  
HETATM   12  C   UNL     1      -9.799  20.128  66.617  1.00  0.00    -0.588 A  
HETATM   13  C   UNL     1     -10.475  19.665  67.740  1.00  0.00    -0.573 A  
HETATM   14  C   UNL     1     -10.094  18.461  68.337  1.00  0.00    -0.418 A  
HETATM   15  C   UNL     1      -9.022  17.686  67.825  1.00  0.00    -0.247 A  
ENDBRANCH   4   6
TORSDOF 1
ENDMDL
MODEL       84
REMARK 921   NORMALIZED FREE ENERGY PREDICTED BY IDOCK:   -3.73 KCAL/MOL
REMARK 922        TOTAL FREE ENERGY PREDICTED BY IDOCK:   -3.98 KCAL/MOL
REMARK 923 INTER-LIGAND FREE ENERGY PREDICTED BY IDOCK:   -3.94 KCAL/MOL
REMARK 924 INTRA-LIGAND FREE ENERGY PREDICTED BY IDOCK:   -0.05 KCAL/MOL
REMARK 927      BINDING AFFINITY PREDICTED BY RF-SCORE:    0.00 PKD
ROOT
HETATM    1  N   UNL     1     -11.534  15.180  68.417  1.00  0.00    -0.319 NA 
HETATM    2  H1  UNL     1     -12.067  16.044  68.318  1.00  0.00     0.000 HD 
HETATM    3  H2  UNL     1     -10.840  15.120  67.672  1.00  0.00     0.000 HD 
HETATM    4  N   UNL     1     -12.280  13.972  68.471  1.00  0.00    -0.537 NA 
HETATM    5  H   UNL     1     -13.299  13.970  68.414  1.00  0.00     0.000 HD 
ENDROOT
BRANCH   4   6
HETATM    6  C   UNL     1     -11.530  12.754  68.610  1.00  0.00    -0.303 A  
HETATM    7  N   UNL     1     -10.567  12.446  67.701  1.00  0.00    -0.213 NA 
HETATM    8  N   UNL     1      -9.817  11.314  67.830  1.00  0.00    -0.172 NA 
HETATM    9  C   UNL     1     -10.051  10.489  68.865  1.00  0.00    -0.202 A  
HETATM   10  C   UNL     1     -11.046  10.714  69.810  1.00  0.00    -0.358 A  
HETATM   11  C   UNL     1     -11.276   9.813  70.865  1.00  0.00    -0.429 A  
HETATM   12  C   UNL     1     -12.301  10.039  71.783  1.00  0.00    -0.434 A  
HETATM   13  C   UNL     1     -13.106  11.164  71.654  1.00  0.00    -0.529 A  
HETATM   14  C   UNL     1     -12.877  12.071  70.616  1.00  0.00    -0.035 A  
HETATM   15  C   UNL     1     -11.833  11.875  69.676  1.00  0.00    -0.406 A  
ENDBRANCH   4   6
TORSDOF 1
ENDMDL
MODEL       85
REMARK 921   NORMALIZED FREE ENERGY PREDICTED BY IDOCK:   -3.72 KCAL/MOL
REMARK 922        TOTAL FREE ENERGY PREDICTED BY IDOCK:   -3.98 KCAL/MOL
REMARK 923 INTER-LIGAND FREE ENERGY PREDICTED BY IDOCK:   -3.93 KCAL/MOL
REMARK 924 INTRA-LIGAND FREE ENERGY PREDICTED BY IDOCK:   -0.06 KCAL/MOL
REMARK 927      BINDING AFFINITY PREDICTED BY RF-SCORE:    0.00 PKD
ROOT
HETATM    1  N   UNL     1      -9.764  13.417  65.487  1.00  0.00    -0.499 NA 
HETATM    2  H1  UNL     1      -9.890  14.313  65.016  1.00  0.00     0.000 HD 
HETATM    3  H2  UNL     1      -9.132  12.831  64.941  1.00  0.00     0.000 HD 
HETATM    4  N   UNL     1     -10.942  12.687  65.798  1.00  0.00    -0.274 NA 
HETATM    5  H   UNL     1     -11.868  13.042  65.563  1.00  0.00     0.000 HD 
ENDROOT
BRANCH   4   6
HETATM    6  C   UNL     1     -10.763  11.424  66.462  1.00  0.00    -0.277 A  
HETATM    7  N   UNL     1     -10.286  10.358  65.767  1.00  0.00    -0.255 NA 
HETATM    8  N   UNL     1     -10.074   9.159  66.382  1.00  0.00    -0.289 NA 
HETATM    9  C   UNL     1     -10.360   9.034  67.689  1.00  0.00    -0.257 A  
HETATM   10  C   UNL     1     -10.892  10.066  68.455  1.00  0.00    -0.270 A  
HETATM   11  C   UNL     1     -11.201   9.888  69.816  1.00  0.00    -0.279 A  
HETATM   12  C   UNL     1     -11.766  10.924  70.558  1.00  0.00    -0.441 A  
HETATM   13  C   UNL     1     -12.028  12.146  69.949  1.00  0.00    -0.380 A  
HETATM   14  C   UNL     1     -11.712  12.335  68.601  1.00  0.00    -0.377 A  
HETATM   15  C   UNL     1     -11.124  11.304  67.825  1.00  0.00    -0.328 A  
ENDBRANCH   4   6
TORSDOF 1
ENDMDL
MODEL       86
REMARK 921   NORMALIZED FREE ENERGY PREDICTED BY IDOCK:   -3.72 KCAL/MOL
REMARK 922        TOTAL FREE ENERGY PREDICTED BY IDOCK:   -3.98 KCAL/MOL
REMARK 923 INTER-LIGAND FREE ENERGY PREDICTED BY IDOCK:   -3.94 KCAL/MOL
REMARK 924 INTRA-LIGAND FREE ENERGY PREDICTED BY IDOCK:   -0.04 KCAL/MOL
REMARK 927      BINDING AFFINITY PREDICTED BY RF-SCORE:    0.00 PKD
ROOT
HETATM    1  N   UNL     1     -10.976   6.430  66.645  1.00  0.00    -0.671 NA 
HETATM    2  H1  UNL     1     -11.458   6.942  65.906  1.00  0.00     0.000 HD 
HETATM    3  H2  UNL     1     -10.937   5.440  66.405  1.00  0.00     0.000 HD 
HETATM    4  N   UNL     1     -11.483   6.582  67.963  1.00  0.00    -0.611 NA 
HETATM    5  H   UNL     1     -12.290   7.173  68.161  1.00  0.00     0.000 HD 
ENDROOT
BRANCH   4   6
HETATM    6  C   UNL     1     -10.804   5.861  69.005  1.00  0.00    -0.313 A  
HETATM    7  N   UNL     1     -10.118   4.726  68.704  1.00  0.00    -0.094 NA 
HETATM    8  N   UNL     1      -9.436   4.043  69.668  1.00  0.00    -0.178 NA 
HETATM    9  C   UNL     1      -9.460   4.498  70.933  1.00  0.00    -0.166 A  
HETATM   10  C   UNL     1     -10.173   5.625  71.325  1.00  0.00    -0.279 A  
HETATM   11  C   UNL     1     -10.194   6.054  72.664  1.00  0.00    -0.205 A  
HETATM   12  C   UNL     1     -10.943   7.167  73.043  1.00  0.00    -0.357 A  
HETATM   13  C   UNL     1     -11.680   7.860  72.089  1.00  0.00    -0.385 A  
HETATM   14  C   UNL     1     -11.655   7.449  70.754  1.00  0.00    -0.317 A  
HETATM   15  C   UNL     1     -10.891   6.328  70.337  1.00  0.00    -0.360 A  
ENDBRANCH   4   6
TORSDOF 1
ENDMDL
MODEL       87
REMARK 921   NORMALIZED FREE ENERGY PREDICTED BY IDOCK:   -3.70 KCAL/MOL
REMARK 922        TOTAL FREE ENERGY PREDICTED BY IDOCK:   -3.96 KCAL/MOL
REMARK 923 INTER-LIGAND FREE ENERGY PREDICTED BY IDOCK:   -3.90 KCAL/MOL
REMARK 924 INTRA-LIGAND FREE ENERGY PREDICTED BY IDOCK:   -0.06 KCAL/MOL
REMARK 927      BINDING AFFINITY PREDICTED BY RF-SCORE:    0.00 PKD
ROOT
HETATM    1  N   UNL     1      -7.805  13.273  66.903  1.00  0.00    -0.384 NA 
HETATM    2  H1  UNL     1      -7.422  12.467  66.408  1.00  0.00     0.000 HD 
HETATM    3  H2  UNL     1      -7.731  13.123  67.909  1.00  0.00     0.000 HD 
HETATM    4  N   UNL     1      -9.133  13.653  66.574  1.00  0.00    -0.441 NA 
HETATM    5  H   UNL     1      -9.678  13.145  65.877  1.00  0.00     0.000 HD 
ENDROOT
BRANCH   4   6
HETATM    6  C   UNL     1      -9.672  14.789  67.270  1.00  0.00    -0.230 A  
HETATM    7  N   UNL     1      -9.252  16.041  66.947  1.00  0.00    -0.213 NA 
HETATM    8  N   UNL     1      -9.774  17.138  67.568  1.00  0.00    -0.251 NA 
HETATM    9  C   UNL     1     -10.705  16.967  68.524  1.00  0.00    -0.352 A  
HETATM   10  C   UNL     1     -11.152  15.718  68.939  1.00  0.00    -0.298 A  
HETATM   11  C   UNL     1     -12.109  15.581  69.960  1.00  0.00    -0.391 A  
HETATM   12  C   UNL     1     -12.519  14.318  70.385  1.00  0.00    -0.426 A  
HETATM   13  C   UNL     1     -11.976  13.182  69.797  1.00  0.00    -0.382 A  
HETATM   14  C   UNL     1     -11.034  13.309  68.773  1.00  0.00    -0.294 A  
HETATM   15  C   UNL     1     -10.608  14.580  68.310  1.00  0.00    -0.241 A  
ENDBRANCH   4   6
TORSDOF 1
ENDMDL
MODEL       88
REMARK 921   NORMALIZED FREE ENERGY PREDICTED BY IDOCK:   -3.69 KCAL/MOL
REMARK 922        TOTAL FREE ENERGY PREDICTED BY IDOCK:   -3.95 KCAL/MOL
REMARK 923 INTER-LIGAND FREE ENERGY PREDICTED BY IDOCK:   -3.95 KCAL/MOL
REMARK 924 INTRA-LIGAND FREE ENERGY PREDICTED BY IDOCK:    0.00 KCAL/MOL
REMARK 927      BINDING AFFINITY PREDICTED BY RF-SCORE:    0.00 PKD
ROOT
HETATM    1  N   UNL     1     -10.909   7.481  66.970  1.00  0.00    -0.524 NA 
HETATM    2  H1  UNL     1     -10.595   6.540  67.210  1.00  0.00     0.000 HD 
HETATM    3  H2  UNL     1     -11.454   7.449  66.109  1.00  0.00     0.000 HD 
HETATM    4  N   UNL     1      -9.906   8.481  66.863  1.00  0.00    -0.217 NA 
HETATM    5  H   UNL     1      -8.921   8.269  67.019  1.00  0.00     0.000 HD 
ENDROOT
BRANCH   4   6
HETATM    6  C   UNL     1     -10.349   9.806  66.526  1.00  0.00    -0.192 A  
HETATM    7  N   UNL     1     -10.273  10.236  65.238  1.00  0.00    -0.289 NA 
HETATM    8  N   UNL     1     -10.719  11.476  64.886  1.00  0.00    -0.297 NA 
HETATM    9  C   UNL     1     -11.224  12.284  65.834  1.00  0.00    -0.340 A  
HETATM   10  C   UNL     1     -11.294  11.932  67.178  1.00  0.00    -0.393 A  
HETATM   11  C   UNL     1     -11.807  12.815  68.144  1.00  0.00    -0.372 A  
HETATM   12  C   UNL     1     -11.837  12.456  69.491  1.00  0.00    -0.368 A  
HETATM   13  C   UNL     1     -11.354  11.214  69.885  1.00  0.00    -0.348 A  
HETATM   14  C   UNL     1     -10.855  10.325  68.930  1.00  0.00    -0.263 A  
HETATM   15  C   UNL     1     -10.824  10.657  67.551  1.00  0.00    -0.351 A  
ENDBRANCH   4   6
TORSDOF 1
ENDMDL
MODEL       89
REMARK 921   NORMALIZED FREE ENERGY PREDICTED BY IDOCK:   -3.68 KCAL/MOL
REMARK 922        TOTAL FREE ENERGY PREDICTED BY IDOCK:   -3.94 KCAL/MOL
REMARK 923 INTER-LIGAND FREE ENERGY PREDICTED BY IDOCK:   -3.89 KCAL/MOL
REMARK 924 INTRA-LIGAND FREE ENERGY PREDICTED BY IDOCK:   -0.05 KCAL/MOL
REMARK 927      BINDING AFFINITY PREDICTED BY RF-SCORE:    0.00 PKD
ROOT
HETATM    1  N   UNL     1     -14.284   8.799  73.020  1.00  0.00    -1.132 NA 
HETATM    2  H1  UNL     1     -15.288   8.969  72.960  1.00  0.00     0.000 HD 
HETATM    3  H2  UNL     1     -13.788   9.689  73.067  1.00  0.00     0.000 HD 
HETATM    4  N   UNL     1     -13.712   7.988  72.003  1.00  0.00    -0.494 NA 
HETATM    5  H   UNL     1     -14.278   7.596  71.251  1.00  0.00     0.000 HD 
ENDROOT
BRANCH   4   6
HETATM    6  C   UNL     1     -12.298   7.747  72.087  1.00  0.00    -0.265 A  
HETATM    7  N   UNL     1     -11.826   6.767  72.903  1.00  0.00     0.092 NA 
HETATM    8  N   UNL     1     -10.491   6.495  72.974  1.00  0.00    -0.219 NA 
HETATM    9  C   UNL     1      -9.636   7.222  72.235  1.00  0.00    -0.146 A  
HETATM   10  C   UNL     1     -10.037   8.268  71.411  1.00  0.00    -0.257 A  
HETATM   11  C   UNL     1      -9.108   9.022  70.673  1.00  0.00    -0.280 A  
HETATM   12  C   UNL     1      -9.527  10.089  69.879  1.00  0.00    -0.221 A  
HETATM   13  C   UNL     1     -10.877  10.414  69.818  1.00  0.00    -0.342 A  
HETATM   14  C   UNL     1     -11.809   9.662  70.538  1.00  0.00    -0.284 A  
HETATM   15  C   UNL     1     -11.414   8.563  71.342  1.00  0.00    -0.344 A  
ENDBRANCH   4   6
TORSDOF 1
ENDMDL
MODEL       90
REMARK 921   NORMALIZED FREE ENERGY PREDICTED BY IDOCK:   -3.67 KCAL/MOL
REMARK 922        TOTAL FREE ENERGY PREDICTED BY IDOCK:   -3.93 KCAL/MOL
REMARK 923 INTER-LIGAND FREE ENERGY PREDICTED BY IDOCK:   -3.88 KCAL/MOL
REMARK 924 INTRA-LIGAND FREE ENERGY PREDICTED BY IDOCK:   -0.04 KCAL/MOL
REMARK 927      BINDING AFFINITY PREDICTED BY RF-SCORE:    0.00 PKD
ROOT
HETATM    1  N   UNL     1      -8.515   7.766  69.823  1.00  0.00    -0.132 NA 
HETATM    2  H1  UNL     1      -7.754   7.724  69.145  1.00  0.00     0.000 HD 
HETATM    3  H2  UNL     1      -8.861   6.824  70.007  1.00  0.00     0.000 HD 
HETATM    4  N   UNL     1      -9.605   8.620  69.507  1.00  0.00    -0.168 NA 
HETATM    5  H   UNL     1      -9.626   9.165  68.646  1.00  0.00     0.000 HD 
ENDROOT
BRANCH   4   6
HETATM    6  C   UNL     1     -10.678   8.680  70.463  1.00  0.00    -0.221 A  
HETATM    7  N   UNL     1     -11.008   7.572  71.178  1.00  0.00    -0.243 NA 
HETATM    8  N   UNL     1     -11.998   7.612  72.115  1.00  0.00    -0.303 NA 
HETATM    9  C   UNL     1     -12.662   8.763  72.316  1.00  0.00    -0.402 A  
HETATM   10  C   UNL     1     -12.412   9.924  71.594  1.00  0.00    -0.507 A  
HETATM   11  C   UNL     1     -13.147  11.102  71.817  1.00  0.00    -0.536 A  
HETATM   12  C   UNL     1     -12.904  12.247  71.059  1.00  0.00    -0.251 A  
HETATM   13  C   UNL     1     -11.927  12.224  70.070  1.00  0.00    -0.379 A  
HETATM   14  C   UNL     1     -11.183  11.062  69.850  1.00  0.00    -0.327 A  
HETATM   15  C   UNL     1     -11.399   9.888  70.616  1.00  0.00    -0.413 A  
ENDBRANCH   4   6
TORSDOF 1
ENDMDL
MODEL       91
REMARK 921   NORMALIZED FREE ENERGY PREDICTED BY IDOCK:   -3.67 KCAL/MOL
REMARK 922        TOTAL FREE ENERGY PREDICTED BY IDOCK:   -3.92 KCAL/MOL
REMARK 923 INTER-LIGAND FREE ENERGY PREDICTED BY IDOCK:   -3.88 KCAL/MOL
REMARK 924 INTRA-LIGAND FREE ENERGY PREDICTED BY IDOCK:   -0.04 KCAL/MOL
REMARK 927      BINDING AFFINITY PREDICTED BY RF-SCORE:    0.00 PKD
ROOT
HETATM    1  N   UNL     1      -5.681  16.856  69.869  1.00  0.00    -0.214 NA 
HETATM    2  H1  UNL     1      -4.666  16.953  69.901  1.00  0.00     0.000 HD 
HETATM    3  H2  UNL     1      -5.934  15.874  69.978  1.00  0.00     0.000 HD 
HETATM    4  N   UNL     1      -6.339  17.395  68.732  1.00  0.00    -0.179 NA 
HETATM    5  H   UNL     1      -5.822  17.856  67.984  1.00  0.00     0.000 HD 
ENDROOT
BRANCH   4   6
HETATM    6  C   UNL     1      -7.769  17.259  68.687  1.00  0.00    -0.265 A  
HETATM    7  N   UNL     1      -8.369  16.219  69.324  1.00  0.00    -0.200 NA 
HETATM    8  N   UNL     1      -9.727  16.087  69.326  1.00  0.00    -0.248 NA 
HETATM    9  C   UNL     1     -10.473  16.994  68.673  1.00  0.00    -0.363 A  
HETATM   10  C   UNL     1      -9.931  18.060  67.963  1.00  0.00    -0.346 A  
HETATM   11  C   UNL     1     -10.745  18.974  67.271  1.00  0.00    -0.556 A  
HETATM   12  C   UNL     1     -10.180  20.016  66.536  1.00  0.00    -0.598 A  
HETATM   13  C   UNL     1      -8.798  20.152  66.484  1.00  0.00    -0.370 A  
HETATM   14  C   UNL     1      -7.981  19.256  67.179  1.00  0.00    -0.287 A  
HETATM   15  C   UNL     1      -8.528  18.196  67.946  1.00  0.00    -0.259 A  
ENDBRANCH   4   6
TORSDOF 1
ENDMDL
MODEL       92
REMARK 921   NORMALIZED FREE ENERGY PREDICTED BY IDOCK:   -3.64 KCAL/MOL
REMARK 922        TOTAL FREE ENERGY PREDICTED BY IDOCK:   -3.89 KCAL/MOL
REMARK 923 INTER-LIGAND FREE ENERGY PREDICTED BY IDOCK:   -3.85 KCAL/MOL
REMARK 924 INTRA-LIGAND FREE ENERGY PREDICTED BY IDOCK:   -0.04 KCAL/MOL
REMARK 927      BINDING AFFINITY PREDICTED BY RF-SCORE:    0.00 PKD
ROOT
HETATM    1  N   UNL     1      -6.496  15.190  67.355  1.00  0.00    -0.310 NA 
HETATM    2  H1  UNL     1      -6.563  14.200  67.594  1.00  0.00     0.000 HD 
HETATM    3  H2  UNL     1      -6.199  15.720  68.174  1.00  0.00     0.000 HD 
HETATM    4  N   UNL     1      -7.652  15.791  66.791  1.00  0.00    -0.194 NA 
HETATM    5  H   UNL     1      -8.509  15.260  66.633  1.00  0.00     0.000 HD 
ENDROOT
BRANCH   4   6
HETATM    6  C   UNL     1      -7.557  17.185  66.453  1.00  0.00    -0.312 A  
HETATM    7  N   UNL     1      -6.416  17.669  65.897  1.00  0.00    -0.222 NA 
HETATM    8  N   UNL     1      -6.313  18.981  65.535  1.00  0.00    -0.243 NA 
HETATM    9  C   UNL     1      -7.356  19.802  65.750  1.00  0.00    -0.315 A  
HETATM   10  C   UNL     1      -8.539  19.391  66.353  1.00  0.00    -0.372 A  
HETATM   11  C   UNL     1      -9.598  20.287  66.584  1.00  0.00    -0.522 A  
HETATM   12  C   UNL     1     -10.763  19.863  67.221  1.00  0.00    -0.460 A  
HETATM   13  C   UNL     1     -10.881  18.541  67.635  1.00  0.00    -0.319 A  
HETATM   14  C   UNL     1      -9.839  17.641  67.399  1.00  0.00    -0.305 A  
HETATM   15  C   UNL     1      -8.648  18.040  66.741  1.00  0.00    -0.270 A  
ENDBRANCH   4   6
TORSDOF 1
ENDMDL
MODEL       93
REMARK 921   NORMALIZED FREE ENERGY PREDICTED BY IDOCK:   -3.63 KCAL/MOL
REMARK 922        TOTAL FREE ENERGY PREDICTED BY IDOCK:   -3.89 KCAL/MOL
REMARK 923 INTER-LIGAND FREE ENERGY PREDICTED BY IDOCK:   -3.83 KCAL/MOL
REMARK 924 INTRA-LIGAND FREE ENERGY PREDICTED BY IDOCK:   -0.06 KCAL/MOL
REMARK 927      BINDING AFFINITY PREDICTED BY RF-SCORE:    0.00 PKD
ROOT
HETATM    1  N   UNL     1     -11.978   8.899  70.588  1.00  0.00    -0.471 NA 
HETATM    2  H1  UNL     1     -12.641   9.636  70.827  1.00  0.00     0.000 HD 
HETATM    3  H2  UNL     1     -11.575   9.086  69.670  1.00  0.00     0.000 HD 
HETATM    4  N   UNL     1     -12.462   7.565  70.633  1.00  0.00    -0.545 NA 
HETATM    5  H   UNL     1     -13.426   7.354  70.892  1.00  0.00     0.000 HD 
ENDROOT
BRANCH   4   6
HETATM    6  C   UNL     1     -11.528   6.526  70.297  1.00  0.00    -0.411 A  
HETATM    7  N   UNL     1     -11.180   6.324  68.999  1.00  0.00    -0.387 NA 
HETATM    8  N   UNL     1     -10.268   5.368  68.658  1.00  0.00    -0.184 NA 
HETATM    9  C   UNL     1      -9.724   4.609  69.624  1.00  0.00    -0.213 A  
HETATM   10  C   UNL     1     -10.062   4.726  70.968  1.00  0.00    -0.269 A  
HETATM   11  C   UNL     1      -9.488   3.895  71.946  1.00  0.00    -0.204 A  
HETATM   12  C   UNL     1      -9.866   4.005  73.284  1.00  0.00    -0.173 A  
HETATM   13  C   UNL     1     -10.821   4.944  73.656  1.00  0.00    -0.374 A  
HETATM   14  C   UNL     1     -11.387   5.783  72.692  1.00  0.00    -0.349 A  
HETATM   15  C   UNL     1     -11.012   5.703  71.327  1.00  0.00    -0.251 A  
ENDBRANCH   4   6
TORSDOF 1
ENDMDL
MODEL       94
REMARK 921   NORMALIZED FREE ENERGY PREDICTED BY IDOCK:   -3.63 KCAL/MOL
REMARK 922        TOTAL FREE ENERGY PREDICTED BY IDOCK:   -3.88 KCAL/MOL
REMARK 923 INTER-LIGAND FREE ENERGY PREDICTED BY IDOCK:   -3.84 KCAL/MOL
REMARK 924 INTRA-LIGAND FREE ENERGY PREDICTED BY IDOCK:   -0.04 KCAL/MOL
REMARK 927      BINDING AFFINITY PREDICTED BY RF-SCORE:    0.00 PKD
ROOT
HETATM    1  N   UNL     1      -9.065   9.502  64.151  1.00  0.00    -0.393 NA 
HETATM    2  H1  UNL     1      -8.873   9.506  63.149  1.00  0.00     0.000 HD 
HETATM    3  H2  UNL     1      -9.243   8.547  64.461  1.00  0.00     0.000 HD 
HETATM    4  N   UNL     1     -10.108  10.352  64.605  1.00  0.00    -0.345 NA 
HETATM    5  H   UNL     1     -10.639  10.938  63.961  1.00  0.00     0.000 HD 
ENDROOT
BRANCH   4   6
HETATM    6  C   UNL     1     -10.378  10.347  66.017  1.00  0.00    -0.192 A  
HETATM    7  N   UNL     1     -10.132   9.228  66.748  1.00  0.00    -0.245 NA 
HETATM    8  N   UNL     1     -10.346   9.209  68.095  1.00  0.00    -0.207 NA 
HETATM    9  C   UNL     1     -10.823  10.312  68.697  1.00  0.00    -0.234 A  
HETATM   10  C   UNL     1     -11.139  11.479  68.011  1.00  0.00    -0.313 A  
HETATM   11  C   UNL     1     -11.660  12.604  68.675  1.00  0.00    -0.356 A  
HETATM   12  C   UNL     1     -12.004  13.753  67.964  1.00  0.00    -0.390 A  
HETATM   13  C   UNL     1     -11.832  13.788  66.585  1.00  0.00    -0.445 A  
HETATM   14  C   UNL     1     -11.304  12.680  65.919  1.00  0.00    -0.373 A  
HETATM   15  C   UNL     1     -10.932  11.502  66.618  1.00  0.00    -0.349 A  
ENDBRANCH   4   6
TORSDOF 1
ENDMDL
MODEL       95
REMARK 921   NORMALIZED FREE ENERGY PREDICTED BY IDOCK:   -3.60 KCAL/MOL
REMARK 922        TOTAL FREE ENERGY PREDICTED BY IDOCK:   -3.85 KCAL/MOL
REMARK 923 INTER-LIGAND FREE ENERGY PREDICTED BY IDOCK:   -3.84 KCAL/MOL
REMARK 924 INTRA-LIGAND FREE ENERGY PREDICTED BY IDOCK:   -0.01 KCAL/MOL
REMARK 927      BINDING AFFINITY PREDICTED BY RF-SCORE:    0.00 PKD
ROOT
HETATM    1  N   UNL     1     -10.158  16.057  68.940  1.00  0.00    -0.218 NA 
HETATM    2  H1  UNL     1     -10.148  15.102  69.298  1.00  0.00     0.000 HD 
HETATM    3  H2  UNL     1     -11.118  16.397  68.898  1.00  0.00     0.000 HD 
HETATM    4  N   UNL     1      -9.520  16.276  67.690  1.00  0.00    -0.220 NA 
HETATM    5  H   UNL     1      -9.075  15.515  67.176  1.00  0.00     0.000 HD 
ENDROOT
BRANCH   4   6
HETATM    6  C   UNL     1      -9.533  17.621  67.184  1.00  0.00    -0.267 A  
HETATM    7  N   UNL     1     -10.480  17.995  66.283  1.00  0.00    -0.366 NA 
HETATM    8  N   UNL     1     -10.535  19.275  65.815  1.00  0.00    -0.528 NA 
HETATM    9  C   UNL     1      -9.627  20.169  66.244  1.00  0.00    -0.370 A  
HETATM   10  C   UNL     1      -8.603  19.851  67.130  1.00  0.00    -0.384 A  
HETATM   11  C   UNL     1      -7.657  20.809  67.535  1.00  0.00    -0.312 A  
HETATM   12  C   UNL     1      -6.618  20.461  68.397  1.00  0.00    -0.315 A  
HETATM   13  C   UNL     1      -6.513  19.155  68.860  1.00  0.00    -0.299 A  
HETATM   14  C   UNL     1      -7.457  18.200  68.473  1.00  0.00    -0.289 A  
HETATM   15  C   UNL     1      -8.532  18.527  67.608  1.00  0.00    -0.276 A  
ENDBRANCH   4   6
TORSDOF 1
ENDMDL
MODEL       96
REMARK 921   NORMALIZED FREE ENERGY PREDICTED BY IDOCK:   -3.59 KCAL/MOL
REMARK 922        TOTAL FREE ENERGY PREDICTED BY IDOCK:   -3.85 KCAL/MOL
REMARK 923 INTER-LIGAND FREE ENERGY PREDICTED BY IDOCK:   -3.80 KCAL/MOL
REMARK 924 INTRA-LIGAND FREE ENERGY PREDICTED BY IDOCK:   -0.05 KCAL/MOL
REMARK 927      BINDING AFFINITY PREDICTED BY RF-SCORE:    0.00 PKD
ROOT
HETATM    1  N   UNL     1      -8.886   8.109  66.336  1.00  0.00    -0.146 NA 
HETATM    2  H1  UNL     1      -8.598   7.572  65.518  1.00  0.00     0.000 HD 
HETATM    3  H2  UNL     1      -8.862   7.512  67.163  1.00  0.00     0.000 HD 
HETATM    4  N   UNL     1     -10.143   8.765  66.258  1.00  0.00    -0.397 NA 
HETATM    5  H   UNL     1     -10.729   8.702  65.426  1.00  0.00     0.000 HD 
ENDROOT
BRANCH   4   6
HETATM    6  C   UNL     1     -10.550   9.522  67.411  1.00  0.00    -0.271 A  
HETATM    7  N   UNL     1     -10.529   8.944  68.641  1.00  0.00    -0.212 NA 
HETATM    8  N   UNL     1     -10.876   9.652  69.754  1.00  0.00    -0.240 NA 
HETATM    9  C   UNL     1     -11.258  10.933  69.622  1.00  0.00    -0.282 A  
HETATM   10  C   UNL     1     -11.347  11.580  68.394  1.00  0.00    -0.342 A  
HETATM   11  C   UNL     1     -11.775  12.916  68.295  1.00  0.00    -0.390 A  
HETATM   12  C   UNL     1     -11.890  13.536  67.051  1.00  0.00    -0.447 A  
HETATM   13  C   UNL     1     -11.580  12.827  65.896  1.00  0.00    -0.428 A  
HETATM   14  C   UNL     1     -11.141  11.504  65.986  1.00  0.00    -0.289 A  
HETATM   15  C   UNL     1     -11.001  10.852  67.238  1.00  0.00    -0.355 A  
ENDBRANCH   4   6
TORSDOF 1
ENDMDL
MODEL       97
REMARK 921   NORMALIZED FREE ENERGY PREDICTED BY IDOCK:   -3.59 KCAL/MOL
REMARK 922        TOTAL FREE ENERGY PREDICTED BY IDOCK:   -3.84 KCAL/MOL
REMARK 923 INTER-LIGAND FREE ENERGY PREDICTED BY IDOCK:   -3.80 KCAL/MOL
REMARK 924 INTRA-LIGAND FREE ENERGY PREDICTED BY IDOCK:   -0.04 KCAL/MOL
REMARK 927      BINDING AFFINITY PREDICTED BY RF-SCORE:    0.00 PKD
ROOT
HETATM    1  N   UNL     1      -9.889  11.014  69.291  1.00  0.00    -0.414 NA 
HETATM    2  H1  UNL     1      -9.754  10.873  70.293  1.00  0.00     0.000 HD 
HETATM    3  H2  UNL     1      -9.065  10.686  68.786  1.00  0.00     0.000 HD 
HETATM    4  N   UNL     1     -10.214  12.330  68.869  1.00  0.00    -0.421 NA 
HETATM    5  H   UNL     1     -10.308  13.097  69.534  1.00  0.00     0.000 HD 
ENDROOT
BRANCH   4   6
HETATM    6  C   UNL     1     -10.404  12.529  67.458  1.00  0.00    -0.220 A  
HETATM    7  N   UNL     1     -10.517  11.454  66.634  1.00  0.00    -0.234 NA 
HETATM    8  N   UNL     1     -10.733  11.615  65.297  1.00  0.00    -0.286 NA 
HETATM    9  C   UNL     1     -10.819  12.859  64.793  1.00  0.00    -0.327 A  
HETATM   10  C   UNL     1     -10.671  14.006  65.565  1.00  0.00    -0.317 A  
HETATM   11  C   UNL     1     -10.743  15.290  64.996  1.00  0.00    -0.461 A  
HETATM   12  C   UNL     1     -10.558  16.427  65.781  1.00  0.00    -0.327 A  
HETATM   13  C   UNL     1     -10.297  16.293  67.140  1.00  0.00    -0.285 A  
HETATM   14  C   UNL     1     -10.237  15.021  67.716  1.00  0.00    -0.236 A  
HETATM   15  C   UNL     1     -10.435  13.847  66.945  1.00  0.00    -0.276 A  
ENDBRANCH   4   6
TORSDOF 1
ENDMDL
MODEL       98
REMARK 921   NORMALIZED FREE ENERGY PREDICTED BY IDOCK:   -3.58 KCAL/MOL
REMARK 922        TOTAL FREE ENERGY PREDICTED BY IDOCK:   -3.83 KCAL/MOL
REMARK 923 INTER-LIGAND FREE ENERGY PREDICTED BY IDOCK:   -3.78 KCAL/MOL
REMARK 924 INTRA-LIGAND FREE ENERGY PREDICTED BY IDOCK:   -0.05 KCAL/MOL
REMARK 927      BINDING AFFINITY PREDICTED BY RF-SCORE:    0.00 PKD
ROOT
HETATM    1  N   UNL     1      -7.079  14.632  67.259  1.00  0.00    -0.311 NA 
HETATM    2  H1  UNL     1      -6.166  14.953  66.937  1.00  0.00     0.000 HD 
HETATM    3  H2  UNL     1      -7.064  13.618  67.373  1.00  0.00     0.000 HD 
HETATM    4  N   UNL     1      -8.201  15.006  66.472  1.00  0.00    -0.353 NA 
HETATM    5  H   UNL     1      -8.099  15.568  65.627  1.00  0.00     0.000 HD 
ENDROOT
BRANCH   4   6
HETATM    6  C   UNL     1      -9.488  14.553  66.925  1.00  0.00    -0.252 A  
HETATM    7  N   UNL     1      -9.813  14.646  68.241  1.00  0.00    -0.216 NA 
HETATM    8  N   UNL     1     -11.041  14.257  68.690  1.00  0.00    -0.242 NA 
HETATM    9  C   UNL     1     -11.930  13.760  67.813  1.00  0.00    -0.356 A  
HETATM   10  C   UNL     1     -11.657  13.593  66.460  1.00  0.00    -0.392 A  
HETATM   11  C   UNL     1     -12.606  13.045  65.579  1.00  0.00    -0.422 A  
HETATM   12  C   UNL     1     -12.300  12.855  64.232  1.00  0.00    -0.458 A  
HETATM   13  C   UNL     1     -11.043  13.206  63.754  1.00  0.00    -0.274 A  
HETATM   14  C   UNL     1     -10.098  13.763  64.620  1.00  0.00    -0.193 A  
HETATM   15  C   UNL     1     -10.386  13.982  65.991  1.00  0.00    -0.312 A  
ENDBRANCH   4   6
TORSDOF 1
ENDMDL
MODEL       99
REMARK 921   NORMALIZED FREE ENERGY PREDICTED BY IDOCK:   -3.54 KCAL/MOL
REMARK 922        TOTAL FREE ENERGY PREDICTED BY IDOCK:   -3.79 KCAL/MOL
REMARK 923 INTER-LIGAND FREE ENERGY PREDICTED BY IDOCK:   -3.76 KCAL/MOL
REMARK 924 INTRA-LIGAND FREE ENERGY PREDICTED BY IDOCK:   -0.03 KCAL/MOL
REMARK 927      BINDING AFFINITY PREDICTED BY RF-SCORE:    0.00 PKD
ROOT
HETATM    1  N   UNL     1      -8.613   9.675  68.122  1.00  0.00    -0.119 NA 
HETATM    2  H1  UNL     1      -8.357   9.070  68.902  1.00  0.00     0.000 HD 
HETATM    3  H2  UNL     1      -8.451  10.649  68.376  1.00  0.00     0.000 HD 
HETATM    4  N   UNL     1      -9.929   9.529  67.608  1.00  0.00    -0.169 NA 
HETATM    5  H   UNL     1     -10.586   8.854  68.000  1.00  0.00     0.000 HD 
ENDROOT
BRANCH   4   6
HETATM    6  C   UNL     1     -10.292  10.380  66.507  1.00  0.00    -0.224 A  
HETATM    7  N   UNL     1     -10.005   9.998  65.235  1.00  0.00    -0.324 NA 
HETATM    8  N   UNL     1     -10.370  10.771  64.171  1.00  0.00    -0.356 NA 
HETATM    9  C   UNL     1     -11.008  11.933  64.396  1.00  0.00    -0.337 A  
HETATM   10  C   UNL     1     -11.296  12.412  65.669  1.00  0.00    -0.387 A  
HETATM   11  C   UNL     1     -11.942  13.646  65.863  1.00  0.00    -0.438 A  
HETATM   12  C   UNL     1     -12.192  14.124  67.148  1.00  0.00    -0.348 A  
HETATM   13  C   UNL     1     -11.797  13.376  68.251  1.00  0.00    -0.393 A  
HETATM   14  C   UNL     1     -11.166  12.143  68.069  1.00  0.00    -0.319 A  
HETATM   15  C   UNL     1     -10.911  11.624  66.773  1.00  0.00    -0.341 A  
ENDBRANCH   4   6
TORSDOF 1
ENDMDL
MODEL      100
REMARK 921   NORMALIZED FREE ENERGY PREDICTED BY IDOCK:   -3.52 KCAL/MOL
REMARK 922        TOTAL FREE ENERGY PREDICTED BY IDOCK:   -3.77 KCAL/MOL
REMARK 923 INTER-LIGAND FREE ENERGY PREDICTED BY IDOCK:   -3.72 KCAL/MOL
REMARK 924 INTRA-LIGAND FREE ENERGY PREDICTED BY IDOCK:   -0.05 KCAL/MOL
REMARK 927      BINDING AFFINITY PREDICTED BY RF-SCORE:    0.00 PKD
ROOT
HETATM    1  N   UNL     1     -10.086  20.388  66.122  1.00  0.00    -0.557 NA 
HETATM    2  H1  UNL     1     -10.518  21.134  65.575  1.00  0.00     0.000 HD 
HETATM    3  H2  UNL     1      -9.227  20.083  65.664  1.00  0.00     0.000 HD 
HETATM    4  N   UNL     1     -10.896  19.260  66.415  1.00  0.00    -0.349 NA 
HETATM    5  H   UNL     1     -11.863  19.197  66.095  1.00  0.00     0.000 HD 
ENDROOT
BRANCH   4   6
HETATM    6  C   UNL     1     -10.288  18.209  67.185  1.00  0.00    -0.379 A  
HETATM    7  N   UNL     1      -9.760  18.485  68.406  1.00  0.00    -0.345 NA 
HETATM    8  N   UNL     1      -9.210  17.499  69.172  1.00  0.00    -0.043 NA 
HETATM    9  C   UNL     1      -9.179  16.242  68.696  1.00  0.00    -0.227 A  
HETATM   10  C   UNL     1      -9.658  15.890  67.439  1.00  0.00    -0.221 A  
HETATM   11  C   UNL     1      -9.585  14.568  66.967  1.00  0.00    -0.250 A  
HETATM   12  C   UNL     1     -10.040  14.241  65.690  1.00  0.00    -0.364 A  
HETATM   13  C   UNL     1     -10.571  15.233  64.873  1.00  0.00    -0.379 A  
HETATM   14  C   UNL     1     -10.660  16.547  65.339  1.00  0.00    -0.293 A  
HETATM   15  C   UNL     1     -10.218  16.906  66.638  1.00  0.00    -0.312 A  
ENDBRANCH   4   6
TORSDOF 1
ENDMDL
MODEL      101
REMARK 921   NORMALIZED FREE ENERGY PREDICTED BY IDOCK:   -3.52 KCAL/MOL
REMARK 922        TOTAL FREE ENERGY PREDICTED BY IDOCK:   -3.76 KCAL/MOL
REMARK 923 INTER-LIGAND FREE ENERGY PREDICTED BY IDOCK:   -3.72 KCAL/MOL
REMARK 924 INTRA-LIGAND FREE ENERGY PREDICTED BY IDOCK:   -0.04 KCAL/MOL
REMARK 927      BINDING AFFINITY PREDICTED BY RF-SCORE:    0.00 PKD
ROOT
HETATM    1  N   UNL     1      -7.502  12.461  69.122  1.00  0.00    -0.328 NA 
HETATM    2  H1  UNL     1      -7.241  11.587  69.578  1.00  0.00     0.000 HD 
HETATM    3  H2  UNL     1      -8.004  13.055  69.782  1.00  0.00     0.000 HD 
HETATM    4  N   UNL     1      -8.246  12.355  67.916  1.00  0.00    -0.152 NA 
HETATM    5  H   UNL     1      -8.506  11.450  67.526  1.00  0.00     0.000 HD 
ENDROOT
BRANCH   4   6
HETATM    6  C   UNL     1      -8.614  13.587  67.273  1.00  0.00    -0.213 A  
HETATM    7  N   UNL     1      -7.798  14.670  67.371  1.00  0.00    -0.192 NA 
HETATM    8  N   UNL     1      -8.107  15.840  66.740  1.00  0.00    -0.256 NA 
HETATM    9  C   UNL     1      -9.244  15.918  66.027  1.00  0.00    -0.337 A  
HETATM   10  C   UNL     1     -10.149  14.869  65.917  1.00  0.00    -0.348 A  
HETATM   11  C   UNL     1     -11.341  14.999  65.183  1.00  0.00    -0.372 A  
HETATM   12  C   UNL     1     -12.252  13.945  65.113  1.00  0.00    -0.443 A  
HETATM   13  C   UNL     1     -11.982  12.755  65.777  1.00  0.00    -0.502 A  
HETATM   14  C   UNL     1     -10.795  12.612  66.499  1.00  0.00    -0.285 A  
HETATM   15  C   UNL     1      -9.843  13.661  66.576  1.00  0.00    -0.295 A  
ENDBRANCH   4   6
TORSDOF 1
ENDMDL
MODEL      102
REMARK 921   NORMALIZED FREE ENERGY PREDICTED BY IDOCK:   -3.51 KCAL/MOL
REMARK 922        TOTAL FREE ENERGY PREDICTED BY IDOCK:   -3.76 KCAL/MOL
REMARK 923 INTER-LIGAND FREE ENERGY PREDICTED BY IDOCK:   -3.70 KCAL/MOL
REMARK 924 INTRA-LIGAND FREE ENERGY PREDICTED BY IDOCK:   -0.06 KCAL/MOL
REMARK 927      BINDING AFFINITY PREDICTED BY RF-SCORE:    0.00 PKD
ROOT
HETATM    1  N   UNL     1      -7.668  10.606  70.042  1.00  0.00    -0.398 NA 
HETATM    2  H1  UNL     1      -7.176  11.451  69.752  1.00  0.00     0.000 HD 
HETATM    3  H2  UNL     1      -7.231   9.791  69.613  1.00  0.00     0.000 HD 
HETATM    4  N   UNL     1      -9.069  10.572  69.812  1.00  0.00    -0.397 NA 
HETATM    5  H   UNL     1      -9.559  11.354  69.378  1.00  0.00     0.000 HD 
ENDROOT
BRANCH   4   6
HETATM    6  C   UNL     1      -9.763   9.381  70.221  1.00  0.00    -0.246 A  
HETATM    7  N   UNL     1     -10.039   9.178  71.537  1.00  0.00    -0.328 NA 
HETATM    8  N   UNL     1     -10.728   8.074  71.947  1.00  0.00    -0.237 NA 
HETATM    9  C   UNL     1     -11.121   7.171  71.032  1.00  0.00    -0.260 A  
HETATM   10  C   UNL     1     -10.838   7.287  69.675  1.00  0.00    -0.238 A  
HETATM   11  C   UNL     1     -11.246   6.308  68.752  1.00  0.00    -0.357 A  
HETATM   12  C   UNL     1     -10.923   6.426  67.401  1.00  0.00    -0.463 A  
HETATM   13  C   UNL     1     -10.189   7.521  66.960  1.00  0.00    -0.368 A  
HETATM   14  C   UNL     1      -9.791   8.505  67.868  1.00  0.00    -0.208 A  
HETATM   15  C   UNL     1     -10.117   8.419  69.246  1.00  0.00    -0.202 A  
ENDBRANCH   4   6
TORSDOF 1
ENDMDL
MODEL      103
REMARK 921   NORMALIZED FREE ENERGY PREDICTED BY IDOCK:   -3.51 KCAL/MOL
REMARK 922        TOTAL FREE ENERGY PREDICTED BY IDOCK:   -3.76 KCAL/MOL
REMARK 923 INTER-LIGAND FREE ENERGY PREDICTED BY IDOCK:   -3.70 KCAL/MOL
REMARK 924 INTRA-LIGAND FREE ENERGY PREDICTED BY IDOCK:   -0.05 KCAL/MOL
REMARK 927      BINDING AFFINITY PREDICTED BY RF-SCORE:    0.00 PKD
ROOT
HETATM    1  N   UNL     1     -10.685   5.498  66.168  1.00  0.00    -0.624 NA 
HETATM    2  H1  UNL     1     -11.043   5.216  65.256  1.00  0.00     0.000 HD 
HETATM    3  H2  UNL     1     -10.571   4.676  66.761  1.00  0.00     0.000 HD 
HETATM    4  N   UNL     1     -11.425   6.490  66.865  1.00  0.00    -0.780 NA 
HETATM    5  H   UNL     1     -12.273   6.899  66.473  1.00  0.00     0.000 HD 
ENDROOT
BRANCH   4   6
HETATM    6  C   UNL     1     -10.920   6.889  68.151  1.00  0.00    -0.147 A  
HETATM    7  N   UNL     1     -10.983   6.025  69.199  1.00  0.00    -0.357 NA 
HETATM    8  N   UNL     1     -10.479   6.366  70.420  1.00  0.00    -0.208 NA 
HETATM    9  C   UNL     1      -9.929   7.582  70.584  1.00  0.00    -0.183 A  
HETATM   10  C   UNL     1      -9.868   8.535  69.573  1.00  0.00    -0.187 A  
HETATM   11  C   UNL     1      -9.307   9.805  69.792  1.00  0.00    -0.249 A  
HETATM   12  C   UNL     1      -9.287  10.759  68.775  1.00  0.00    -0.186 A  
HETATM   13  C   UNL     1      -9.828  10.453  67.532  1.00  0.00    -0.202 A  
HETATM   14  C   UNL     1     -10.376   9.188  67.301  1.00  0.00    -0.338 A  
HETATM   15  C   UNL     1     -10.398   8.194  68.312  1.00  0.00    -0.241 A  
ENDBRANCH   4   6
TORSDOF 1
ENDMDL
MODEL      104
REMARK 921   NORMALIZED FREE ENERGY PREDICTED BY IDOCK:   -3.51 KCAL/MOL
REMARK 922        TOTAL FREE ENERGY PREDICTED BY IDOCK:   -3.75 KCAL/MOL
REMARK 923 INTER-LIGAND FREE ENERGY PREDICTED BY IDOCK:   -3.91 KCAL/MOL
REMARK 924 INTRA-LIGAND FREE ENERGY PREDICTED BY IDOCK:    0.16 KCAL/MOL
REMARK 927      BINDING AFFINITY PREDICTED BY RF-SCORE:    0.00 PKD
ROOT
HETATM    1  N   UNL     1      -9.748  13.581  65.348  1.00  0.00    -0.530 NA 
HETATM    2  H1  UNL     1      -9.640  14.246  64.582  1.00  0.00     0.000 HD 
HETATM    3  H2  UNL     1      -9.031  12.859  65.279  1.00  0.00     0.000 HD 
HETATM    4  N   UNL     1     -11.024  12.973  65.490  1.00  0.00    -0.272 NA 
HETATM    5  H   UNL     1     -11.793  13.190  64.858  1.00  0.00     0.000 HD 
ENDROOT
BRANCH   4   6
HETATM    6  C   UNL     1     -11.177  12.036  66.570  1.00  0.00    -0.334 A  
HETATM    7  N   UNL     1     -11.899  12.383  67.668  1.00  0.00    -0.465 NA 
HETATM    8  N   UNL     1     -12.089  11.499  68.690  1.00  0.00    -0.505 NA 
HETATM    9  C   UNL     1     -11.537  10.277  68.609  1.00  0.00    -0.025 A  
HETATM   10  C   UNL     1     -10.750   9.864  67.539  1.00  0.00    -0.333 A  
HETATM   11  C   UNL     1     -10.169   8.584  67.503  1.00  0.00    -0.307 A  
HETATM   12  C   UNL     1      -9.354   8.202  66.438  1.00  0.00    -0.269 A  
HETATM   13  C   UNL     1      -9.112   9.095  65.401  1.00  0.00    -0.271 A  
HETATM   14  C   UNL     1      -9.695  10.364  65.422  1.00  0.00    -0.325 A  
HETATM   15  C   UNL     1     -10.539  10.776  66.485  1.00  0.00    -0.279 A  
ENDBRANCH   4   6
TORSDOF 1
ENDMDL
MODEL      105
REMARK 921   NORMALIZED FREE ENERGY PREDICTED BY IDOCK:   -3.51 KCAL/MOL
REMARK 922        TOTAL FREE ENERGY PREDICTED BY IDOCK:   -3.75 KCAL/MOL
REMARK 923 INTER-LIGAND FREE ENERGY PREDICTED BY IDOCK:   -3.71 KCAL/MOL
REMARK 924 INTRA-LIGAND FREE ENERGY PREDICTED BY IDOCK:   -0.04 KCAL/MOL
REMARK 927      BINDING AFFINITY PREDICTED BY RF-SCORE:    0.00 PKD
ROOT
HETATM    1  N   UNL     1     -10.948   8.517  67.714  1.00  0.00    -0.486 NA 
HETATM    2  H1  UNL     1     -10.691   8.386  66.735  1.00  0.00     0.000 HD 
HETATM    3  H2  UNL     1     -10.603   9.420  68.040  1.00  0.00     0.000 HD 
HETATM    4  N   UNL     1     -10.548   7.499  68.620  1.00  0.00    -0.316 NA 
HETATM    5  H   UNL     1     -10.030   6.678  68.308  1.00  0.00     0.000 HD 
ENDROOT
BRANCH   4   6
HETATM    6  C   UNL     1     -10.909   7.683  70.000  1.00  0.00    -0.243 A  
HETATM    7  N   UNL     1     -11.382   8.886  70.420  1.00  0.00    -0.239 NA 
HETATM    8  N   UNL     1     -11.765   9.075  71.715  1.00  0.00    -0.347 NA 
HETATM    9  C   UNL     1     -11.655   8.057  72.585  1.00  0.00    -0.387 A  
HETATM   10  C   UNL     1     -11.140   6.812  72.241  1.00  0.00    -0.286 A  
HETATM   11  C   UNL     1     -11.018   5.779  73.188  1.00  0.00    -0.309 A  
HETATM   12  C   UNL     1     -10.468   4.549  72.831  1.00  0.00    -0.254 A  
HETATM   13  C   UNL     1     -10.033   4.340  71.527  1.00  0.00    -0.243 A  
HETATM   14  C   UNL     1     -10.163   5.355  70.577  1.00  0.00    -0.326 A  
HETATM   15  C   UNL     1     -10.731   6.612  70.908  1.00  0.00    -0.278 A  
ENDBRANCH   4   6
TORSDOF 1
ENDMDL
MODEL      106
REMARK 921   NORMALIZED FREE ENERGY PREDICTED BY IDOCK:   -3.50 KCAL/MOL
REMARK 922        TOTAL FREE ENERGY PREDICTED BY IDOCK:   -3.75 KCAL/MOL
REMARK 923 INTER-LIGAND FREE ENERGY PREDICTED BY IDOCK:   -3.82 KCAL/MOL
REMARK 924 INTRA-LIGAND FREE ENERGY PREDICTED BY IDOCK:    0.07 KCAL/MOL
REMARK 927      BINDING AFFINITY PREDICTED BY RF-SCORE:    0.00 PKD
ROOT
HETATM    1  N   UNL     1     -14.015   7.681  71.061  1.00  0.00    -0.647 NA 
HETATM    2  H1  UNL     1     -15.003   7.425  71.030  1.00  0.00     0.000 HD 
HETATM    3  H2  UNL     1     -13.651   7.754  70.111  1.00  0.00     0.000 HD 
HETATM    4  N   UNL     1     -13.164   6.847  71.835  1.00  0.00    -0.523 NA 
HETATM    5  H   UNL     1     -13.523   6.034  72.334  1.00  0.00     0.000 HD 
ENDROOT
BRANCH   4   6
HETATM    6  C   UNL     1     -11.773   7.207  71.879  1.00  0.00    -0.292 A  
HETATM    7  N   UNL     1     -11.285   7.889  72.948  1.00  0.00    -0.409 NA 
HETATM    8  N   UNL     1      -9.962   8.210  73.031  1.00  0.00    -0.276 NA 
HETATM    9  C   UNL     1      -9.139   7.857  72.027  1.00  0.00    -0.148 A  
HETATM   10  C   UNL     1      -9.572   7.198  70.882  1.00  0.00    -0.167 A  
HETATM   11  C   UNL     1      -8.684   6.868  69.843  1.00  0.00    -0.142 A  
HETATM   12  C   UNL     1      -9.144   6.237  68.687  1.00  0.00    -0.126 A  
HETATM   13  C   UNL     1     -10.494   5.932  68.559  1.00  0.00    -0.297 A  
HETATM   14  C   UNL     1     -11.381   6.244  69.592  1.00  0.00    -0.492 A  
HETATM   15  C   UNL     1     -10.940   6.873  70.785  1.00  0.00    -0.297 A  
ENDBRANCH   4   6
TORSDOF 1
ENDMDL
MODEL      107
REMARK 921   NORMALIZED FREE ENERGY PREDICTED BY IDOCK:   -3.49 KCAL/MOL
REMARK 922        TOTAL FREE ENERGY PREDICTED BY IDOCK:   -3.74 KCAL/MOL
REMARK 923 INTER-LIGAND FREE ENERGY PREDICTED BY IDOCK:   -3.71 KCAL/MOL
REMARK 924 INTRA-LIGAND FREE ENERGY PREDICTED BY IDOCK:   -0.03 KCAL/MOL
REMARK 927      BINDING AFFINITY PREDICTED BY RF-SCORE:    0.00 PKD
ROOT
HETATM    1  N   UNL     1      -7.183  14.549  66.913  1.00  0.00    -0.273 NA 
HETATM    2  H1  UNL     1      -6.239  14.935  66.906  1.00  0.00     0.000 HD 
HETATM    3  H2  UNL     1      -7.215  13.714  66.329  1.00  0.00     0.000 HD 
HETATM    4  N   UNL     1      -8.236  15.429  66.547  1.00  0.00    -0.359 NA 
HETATM    5  H   UNL     1      -8.057  16.399  66.289  1.00  0.00     0.000 HD 
ENDROOT
BRANCH   4   6
HETATM    6  C   UNL     1      -9.567  14.885  66.558  1.00  0.00    -0.276 A  
HETATM    7  N   UNL     1     -10.092  14.362  65.418  1.00  0.00    -0.362 NA 
HETATM    8  N   UNL     1     -11.338  13.807  65.411  1.00  0.00    -0.304 NA 
HETATM    9  C   UNL     1     -12.056  13.797  66.547  1.00  0.00    -0.443 A  
HETATM   10  C   UNL     1     -11.605  14.352  67.740  1.00  0.00    -0.384 A  
HETATM   11  C   UNL     1     -12.397  14.344  68.902  1.00  0.00    -0.104 A  
HETATM   12  C   UNL     1     -11.940  14.935  70.079  1.00  0.00    -0.377 A  
HETATM   13  C   UNL     1     -10.690  15.542  70.105  1.00  0.00    -0.345 A  
HETATM   14  C   UNL     1      -9.890  15.543  68.960  1.00  0.00    -0.235 A  
HETATM   15  C   UNL     1     -10.323  14.937  67.752  1.00  0.00    -0.244 A  
ENDBRANCH   4   6
TORSDOF 1
ENDMDL
MODEL      108
REMARK 921   NORMALIZED FREE ENERGY PREDICTED BY IDOCK:   -3.48 KCAL/MOL
REMARK 922        TOTAL FREE ENERGY PREDICTED BY IDOCK:   -3.72 KCAL/MOL
REMARK 923 INTER-LIGAND FREE ENERGY PREDICTED BY IDOCK:   -3.67 KCAL/MOL
REMARK 924 INTRA-LIGAND FREE ENERGY PREDICTED BY IDOCK:   -0.06 KCAL/MOL
REMARK 927      BINDING AFFINITY PREDICTED BY RF-SCORE:    0.00 PKD
ROOT
HETATM    1  N   UNL     1     -13.098  15.063  70.131  1.00  0.00    -0.629 NA 
HETATM    2  H1  UNL     1     -13.633  15.754  70.657  1.00  0.00     0.000 HD 
HETATM    3  H2  UNL     1     -12.517  14.521  70.770  1.00  0.00     0.000 HD 
HETATM    4  N   UNL     1     -12.302  15.552  69.061  1.00  0.00    -0.611 NA 
HETATM    5  H   UNL     1     -12.267  16.545  68.830  1.00  0.00     0.000 HD 
ENDROOT
BRANCH   4   6
HETATM    6  C   UNL     1     -11.549  14.578  68.318  1.00  0.00    -0.329 A  
HETATM    7  N   UNL     1     -12.196  13.694  67.514  1.00  0.00    -0.300 NA 
HETATM    8  N   UNL     1     -11.502  12.784  66.771  1.00  0.00    -0.324 NA 
HETATM    9  C   UNL     1     -10.160  12.758  66.855  1.00  0.00    -0.232 A  
HETATM   10  C   UNL     1      -9.431  13.601  67.687  1.00  0.00    -0.221 A  
HETATM   11  C   UNL     1      -8.029  13.526  67.765  1.00  0.00    -0.168 A  
HETATM   12  C   UNL     1      -7.320  14.357  68.631  1.00  0.00    -0.123 A  
HETATM   13  C   UNL     1      -8.003  15.267  69.428  1.00  0.00    -0.223 A  
HETATM   14  C   UNL     1      -9.395  15.358  69.348  1.00  0.00    -0.266 A  
HETATM   15  C   UNL     1     -10.142  14.536  68.466  1.00  0.00    -0.242 A  
ENDBRANCH   4   6
TORSDOF 1
ENDMDL
MODEL      109
REMARK 921   NORMALIZED FREE ENERGY PREDICTED BY IDOCK:   -3.48 KCAL/MOL
REMARK 922        TOTAL FREE ENERGY PREDICTED BY IDOCK:   -3.72 KCAL/MOL
REMARK 923 INTER-LIGAND FREE ENERGY PREDICTED BY IDOCK:   -3.71 KCAL/MOL
REMARK 924 INTRA-LIGAND FREE ENERGY PREDICTED BY IDOCK:   -0.01 KCAL/MOL
REMARK 927      BINDING AFFINITY PREDICTED BY RF-SCORE:    0.00 PKD
ROOT
HETATM    1  N   UNL     1     -13.660   9.464  70.983  1.00  0.00    -0.569 NA 
HETATM    2  H1  UNL     1     -13.894   8.745  71.667  1.00  0.00     0.000 HD 
HETATM    3  H2  UNL     1     -13.745   9.081  70.042  1.00  0.00     0.000 HD 
HETATM    4  N   UNL     1     -12.396  10.095  71.128  1.00  0.00    -0.352 NA 
HETATM    5  H   UNL     1     -11.754   9.842  71.879  1.00  0.00     0.000 HD 
ENDROOT
BRANCH   4   6
HETATM    6  C   UNL     1     -12.065  11.109  70.164  1.00  0.00    -0.362 A  
HETATM    7  N   UNL     1     -12.393  12.405  70.407  1.00  0.00    -0.274 NA 
HETATM    8  N   UNL     1     -12.058  13.391  69.525  1.00  0.00    -0.304 NA 
HETATM    9  C   UNL     1     -11.410  13.063  68.394  1.00  0.00    -0.291 A  
HETATM   10  C   UNL     1     -11.079  11.756  68.055  1.00  0.00    -0.297 A  
HETATM   11  C   UNL     1     -10.423  11.451  66.849  1.00  0.00    -0.278 A  
HETATM   12  C   UNL     1     -10.131  10.130  66.512  1.00  0.00    -0.296 A  
HETATM   13  C   UNL     1     -10.494   9.102  67.374  1.00  0.00    -0.339 A  
HETATM   14  C   UNL     1     -11.136   9.396  68.579  1.00  0.00     0.020 A  
HETATM   15  C   UNL     1     -11.433  10.731  68.956  1.00  0.00    -0.368 A  
ENDBRANCH   4   6
TORSDOF 1
ENDMDL
MODEL      110
REMARK 921   NORMALIZED FREE ENERGY PREDICTED BY IDOCK:   -3.44 KCAL/MOL
REMARK 922        TOTAL FREE ENERGY PREDICTED BY IDOCK:   -3.68 KCAL/MOL
REMARK 923 INTER-LIGAND FREE ENERGY PREDICTED BY IDOCK:   -3.66 KCAL/MOL
REMARK 924 INTRA-LIGAND FREE ENERGY PREDICTED BY IDOCK:   -0.02 KCAL/MOL
REMARK 927      BINDING AFFINITY PREDICTED BY RF-SCORE:    0.00 PKD
ROOT
HETATM    1  N   UNL     1      -9.913  20.334  65.853  1.00  0.00    -0.612 NA 
HETATM    2  H1  UNL     1     -10.454  20.561  65.018  1.00  0.00     0.000 HD 
HETATM    3  H2  UNL     1     -10.058  21.054  66.560  1.00  0.00     0.000 HD 
HETATM    4  N   UNL     1      -8.522  20.115  65.673  1.00  0.00    -0.487 NA 
HETATM    5  H   UNL     1      -8.084  20.182  64.754  1.00  0.00     0.000 HD 
ENDROOT
BRANCH   4   6
HETATM    6  C   UNL     1      -7.760  19.795  66.849  1.00  0.00    -0.272 A  
HETATM    7  N   UNL     1      -7.121  20.782  67.530  1.00  0.00    -0.347 NA 
HETATM    8  N   UNL     1      -6.422  20.510  68.670  1.00  0.00    -0.293 NA 
HETATM    9  C   UNL     1      -6.355  19.241  69.108  1.00  0.00    -0.283 A  
HETATM   10  C   UNL     1      -6.945  18.172  68.443  1.00  0.00    -0.243 A  
HETATM   11  C   UNL     1      -6.831  16.854  68.921  1.00  0.00    -0.209 A  
HETATM   12  C   UNL     1      -7.400  15.791  68.220  1.00  0.00    -0.121 A  
HETATM   13  C   UNL     1      -8.086  16.035  67.036  1.00  0.00    -0.257 A  
HETATM   14  C   UNL     1      -8.216  17.342  66.560  1.00  0.00    -0.311 A  
HETATM   15  C   UNL     1      -7.659  18.444  67.259  1.00  0.00    -0.228 A  
ENDBRANCH   4   6
TORSDOF 1
ENDMDL
MODEL      111
REMARK 921   NORMALIZED FREE ENERGY PREDICTED BY IDOCK:   -3.44 KCAL/MOL
REMARK 922        TOTAL FREE ENERGY PREDICTED BY IDOCK:   -3.68 KCAL/MOL
REMARK 923 INTER-LIGAND FREE ENERGY PREDICTED BY IDOCK:   -3.62 KCAL/MOL
REMARK 924 INTRA-LIGAND FREE ENERGY PREDICTED BY IDOCK:   -0.06 KCAL/MOL
REMARK 927      BINDING AFFINITY PREDICTED BY RF-SCORE:    0.00 PKD
ROOT
HETATM    1  N   UNL     1      -9.905  17.818  65.733  1.00  0.00    -0.543 NA 
HETATM    2  H1  UNL     1     -10.357  18.728  65.641  1.00  0.00     0.000 HD 
HETATM    3  H2  UNL     1     -10.035  17.283  64.874  1.00  0.00     0.000 HD 
HETATM    4  N   UNL     1     -10.283  17.026  66.850  1.00  0.00    -0.299 NA 
HETATM    5  H   UNL     1     -10.973  17.351  67.527  1.00  0.00     0.000 HD 
ENDROOT
BRANCH   4   6
HETATM    6  C   UNL     1      -9.646  15.744  66.979  1.00  0.00    -0.226 A  
HETATM    7  N   UNL     1      -8.346  15.672  67.369  1.00  0.00    -0.165 NA 
HETATM    8  N   UNL     1      -7.729  14.466  67.534  1.00  0.00    -0.180 NA 
HETATM    9  C   UNL     1      -8.420  13.340  67.290  1.00  0.00    -0.201 A  
HETATM   10  C   UNL     1      -9.738  13.333  66.847  1.00  0.00    -0.248 A  
HETATM   11  C   UNL     1     -10.419  12.132  66.579  1.00  0.00    -0.254 A  
HETATM   12  C   UNL     1     -11.730  12.149  66.103  1.00  0.00    -0.384 A  
HETATM   13  C   UNL     1     -12.371  13.363  65.889  1.00  0.00    -0.493 A  
HETATM   14  C   UNL     1     -11.707  14.561  66.165  1.00  0.00    -0.355 A  
HETATM   15  C   UNL     1     -10.378  14.575  66.663  1.00  0.00    -0.274 A  
ENDBRANCH   4   6
TORSDOF 1
ENDMDL
MODEL      112
REMARK 921   NORMALIZED FREE ENERGY PREDICTED BY IDOCK:   -3.43 KCAL/MOL
REMARK 922        TOTAL FREE ENERGY PREDICTED BY IDOCK:   -3.67 KCAL/MOL
REMARK 923 INTER-LIGAND FREE ENERGY PREDICTED BY IDOCK:   -3.61 KCAL/MOL
REMARK 924 INTRA-LIGAND FREE ENERGY PREDICTED BY IDOCK:   -0.06 KCAL/MOL
REMARK 927      BINDING AFFINITY PREDICTED BY RF-SCORE:    0.00 PKD
ROOT
HETATM    1  N   UNL     1      -7.030  13.196  66.992  1.00  0.00    -0.406 NA 
HETATM    2  H1  UNL     1      -6.356  12.720  66.392  1.00  0.00     0.000 HD 
HETATM    3  H2  UNL     1      -6.869  12.929  67.964  1.00  0.00     0.000 HD 
HETATM    4  N   UNL     1      -8.403  13.025  66.672  1.00  0.00    -0.416 NA 
HETATM    5  H   UNL     1      -8.700  12.455  65.880  1.00  0.00     0.000 HD 
ENDROOT
BRANCH   4   6
HETATM    6  C   UNL     1      -9.352  13.695  67.518  1.00  0.00    -0.223 A  
HETATM    7  N   UNL     1      -9.420  15.053  67.514  1.00  0.00    -0.202 NA 
HETATM    8  N   UNL     1     -10.337  15.711  68.280  1.00  0.00    -0.239 NA 
HETATM    9  C   UNL     1     -11.169  15.000  69.060  1.00  0.00    -0.268 A  
HETATM   10  C   UNL     1     -11.131  13.613  69.150  1.00  0.00    -0.275 A  
HETATM   11  C   UNL     1     -12.004  12.906  69.998  1.00  0.00    -0.380 A  
HETATM   12  C   UNL     1     -11.926  11.518  70.100  1.00  0.00    -0.452 A  
HETATM   13  C   UNL     1     -10.977  10.823  69.360  1.00  0.00    -0.305 A  
HETATM   14  C   UNL     1     -10.115  11.516  68.506  1.00  0.00    -0.211 A  
HETATM   15  C   UNL     1     -10.179  12.926  68.371  1.00  0.00    -0.238 A  
ENDBRANCH   4   6
TORSDOF 1
ENDMDL
MODEL      113
REMARK 921   NORMALIZED FREE ENERGY PREDICTED BY IDOCK:   -3.42 KCAL/MOL
REMARK 922        TOTAL FREE ENERGY PREDICTED BY IDOCK:   -3.66 KCAL/MOL
REMARK 923 INTER-LIGAND FREE ENERGY PREDICTED BY IDOCK:   -3.62 KCAL/MOL
REMARK 924 INTRA-LIGAND FREE ENERGY PREDICTED BY IDOCK:   -0.04 KCAL/MOL
REMARK 927      BINDING AFFINITY PREDICTED BY RF-SCORE:    0.00 PKD
ROOT
HETATM    1  N   UNL     1     -10.434   8.434  66.987  1.00  0.00    -0.318 NA 
HETATM    2  H1  UNL     1      -9.829   7.921  66.347  1.00  0.00     0.000 HD 
HETATM    3  H2  UNL     1     -11.004   9.097  66.462  1.00  0.00     0.000 HD 
HETATM    4  N   UNL     1      -9.801   9.102  68.068  1.00  0.00    -0.162 NA 
HETATM    5  H   UNL     1      -8.790   9.071  68.198  1.00  0.00     0.000 HD 
ENDROOT
BRANCH   4   6
HETATM    6  C   UNL     1     -10.654   9.825  68.972  1.00  0.00    -0.219 A  
HETATM    7  N   UNL     1     -10.942  11.131  68.729  1.00  0.00    -0.201 NA 
HETATM    8  N   UNL     1     -11.778  11.829  69.552  1.00  0.00    -0.317 NA 
HETATM    9  C   UNL     1     -12.306  11.213  70.623  1.00  0.00    -0.388 A  
HETATM   10  C   UNL     1     -12.024   9.894  70.960  1.00  0.00    -0.456 A  
HETATM   11  C   UNL     1     -12.578   9.292  72.105  1.00  0.00    -0.443 A  
HETATM   12  C   UNL     1     -12.256   7.979  72.444  1.00  0.00    -0.337 A  
HETATM   13  C   UNL     1     -11.377   7.256  71.647  1.00  0.00    -0.285 A  
HETATM   14  C   UNL     1     -10.832   7.841  70.501  1.00  0.00    -0.245 A  
HETATM   15  C   UNL     1     -11.152   9.170  70.123  1.00  0.00    -0.248 A  
ENDBRANCH   4   6
TORSDOF 1
ENDMDL
MODEL      114
REMARK 921   NORMALIZED FREE ENERGY PREDICTED BY IDOCK:   -3.42 KCAL/MOL
REMARK 922        TOTAL FREE ENERGY PREDICTED BY IDOCK:   -3.66 KCAL/MOL
REMARK 923 INTER-LIGAND FREE ENERGY PREDICTED BY IDOCK:   -3.62 KCAL/MOL
REMARK 924 INTRA-LIGAND FREE ENERGY PREDICTED BY IDOCK:   -0.04 KCAL/MOL
REMARK 927      BINDING AFFINITY PREDICTED BY RF-SCORE:    0.00 PKD
ROOT
HETATM    1  N   UNL     1      -8.683  16.697  65.948  1.00  0.00    -0.492 NA 
HETATM    2  H1  UNL     1      -7.859  17.298  65.945  1.00  0.00     0.000 HD 
HETATM    3  H2  UNL     1      -9.419  17.129  66.508  1.00  0.00     0.000 HD 
HETATM    4  N   UNL     1      -8.492  15.354  66.368  1.00  0.00    -0.406 NA 
HETATM    5  H   UNL     1      -7.575  15.007  66.652  1.00  0.00     0.000 HD 
ENDROOT
BRANCH   4   6
HETATM    6  C   UNL     1      -9.653  14.506  66.373  1.00  0.00    -0.303 A  
HETATM    7  N   UNL     1     -10.858  15.009  65.995  1.00  0.00    -0.327 NA 
HETATM    8  N   UNL     1     -11.967  14.216  65.957  1.00  0.00    -0.396 NA 
HETATM    9  C   UNL     1     -11.861  12.925  66.315  1.00  0.00    -0.416 A  
HETATM   10  C   UNL     1     -10.674  12.350  66.754  1.00  0.00    -0.263 A  
HETATM   11  C   UNL     1     -10.609  11.000  67.145  1.00  0.00    -0.294 A  
HETATM   12  C   UNL     1      -9.417  10.452  67.615  1.00  0.00    -0.165 A  
HETATM   13  C   UNL     1      -8.279  11.246  67.701  1.00  0.00    -0.120 A  
HETATM   14  C   UNL     1      -8.330  12.584  67.303  1.00  0.00    -0.185 A  
HETATM   15  C   UNL     1      -9.526  13.166  66.808  1.00  0.00    -0.252 A  
ENDBRANCH   4   6
TORSDOF 1
ENDMDL
MODEL      115
REMARK 921   NORMALIZED FREE ENERGY PREDICTED BY IDOCK:   -3.41 KCAL/MOL
REMARK 922        TOTAL FREE ENERGY PREDICTED BY IDOCK:   -3.65 KCAL/MOL
REMARK 923 INTER-LIGAND FREE ENERGY PREDICTED BY IDOCK:   -3.60 KCAL/MOL
REMARK 924 INTRA-LIGAND FREE ENERGY PREDICTED BY IDOCK:   -0.04 KCAL/MOL
REMARK 927      BINDING AFFINITY PREDICTED BY RF-SCORE:    0.00 PKD
ROOT
HETATM    1  N   UNL     1     -14.383   7.605  71.083  1.00  0.00    -0.672 NA 
HETATM    2  H1  UNL     1     -15.373   7.638  71.327  1.00  0.00     0.000 HD 
HETATM    3  H2  UNL     1     -14.264   7.096  70.207  1.00  0.00     0.000 HD 
HETATM    4  N   UNL     1     -13.501   7.079  72.064  1.00  0.00    -0.556 NA 
HETATM    5  H   UNL     1     -13.840   6.750  72.967  1.00  0.00     0.000 HD 
ENDROOT
BRANCH   4   6
HETATM    6  C   UNL     1     -12.105   7.031  71.720  1.00  0.00    -0.336 A  
HETATM    7  N   UNL     1     -11.585   7.964  70.879  1.00  0.00    -0.284 NA 
HETATM    8  N   UNL     1     -10.257   7.962  70.566  1.00  0.00    -0.197 NA 
HETATM    9  C   UNL     1      -9.463   7.011  71.088  1.00  0.00    -0.165 A  
HETATM   10  C   UNL     1      -9.930   5.999  71.920  1.00  0.00    -0.195 A  
HETATM   11  C   UNL     1      -9.071   5.007  72.426  1.00  0.00    -0.146 A  
HETATM   12  C   UNL     1      -9.565   3.982  73.230  1.00  0.00    -0.140 A  
HETATM   13  C   UNL     1     -10.920   3.936  73.535  1.00  0.00    -0.343 A  
HETATM   14  C   UNL     1     -11.779   4.924  73.047  1.00  0.00    -0.217 A  
HETATM   15  C   UNL     1     -11.303   5.988  72.238  1.00  0.00    -0.353 A  
ENDBRANCH   4   6
TORSDOF 1
ENDMDL
MODEL      116
REMARK 921   NORMALIZED FREE ENERGY PREDICTED BY IDOCK:   -3.40 KCAL/MOL
REMARK 922        TOTAL FREE ENERGY PREDICTED BY IDOCK:   -3.64 KCAL/MOL
REMARK 923 INTER-LIGAND FREE ENERGY PREDICTED BY IDOCK:   -3.59 KCAL/MOL
REMARK 924 INTRA-LIGAND FREE ENERGY PREDICTED BY IDOCK:   -0.05 KCAL/MOL
REMARK 927      BINDING AFFINITY PREDICTED BY RF-SCORE:    0.00 PKD
ROOT
HETATM    1  N   UNL     1      -7.186  13.938  69.937  1.00  0.00    -0.299 NA 
HETATM    2  H1  UNL     1      -6.222  13.607  69.976  1.00  0.00     0.000 HD 
HETATM    3  H2  UNL     1      -7.784  13.314  70.479  1.00  0.00     0.000 HD 
HETATM    4  N   UNL     1      -7.744  14.129  68.645  1.00  0.00    -0.133 NA 
HETATM    5  H   UNL     1      -7.207  13.944  67.798  1.00  0.00     0.000 HD 
ENDROOT
BRANCH   4   6
HETATM    6  C   UNL     1      -9.102  14.597  68.589  1.00  0.00    -0.189 A  
HETATM    7  N   UNL     1      -9.518  15.568  69.444  1.00  0.00    -0.267 NA 
HETATM    8  N   UNL     1     -10.792  16.054  69.388  1.00  0.00    -0.275 NA 
HETATM    9  C   UNL     1     -11.645  15.547  68.482  1.00  0.00    -0.368 A  
HETATM   10  C   UNL     1     -11.307  14.523  67.604  1.00  0.00    -0.354 A  
HETATM   11  C   UNL     1     -12.237  14.002  66.687  1.00  0.00    -0.463 A  
HETATM   12  C   UNL     1     -11.888  12.952  65.838  1.00  0.00    -0.476 A  
HETATM   13  C   UNL     1     -10.609  12.411  65.900  1.00  0.00    -0.289 A  
HETATM   14  C   UNL     1      -9.675  12.931  66.799  1.00  0.00    -0.246 A  
HETATM   15  C   UNL     1      -9.996  14.008  67.664  1.00  0.00    -0.237 A  
ENDBRANCH   4   6
TORSDOF 1
ENDMDL
MODEL      117
REMARK 921   NORMALIZED FREE ENERGY PREDICTED BY IDOCK:   -3.38 KCAL/MOL
REMARK 922        TOTAL FREE ENERGY PREDICTED BY IDOCK:   -3.62 KCAL/MOL
REMARK 923 INTER-LIGAND FREE ENERGY PREDICTED BY IDOCK:   -3.85 KCAL/MOL
REMARK 924 INTRA-LIGAND FREE ENERGY PREDICTED BY IDOCK:    0.24 KCAL/MOL
REMARK 927      BINDING AFFINITY PREDICTED BY RF-SCORE:    0.00 PKD
ROOT
HETATM    1  N   UNL     1     -10.987  15.936  68.725  1.00  0.00    -0.281 NA 
HETATM    2  H1  UNL     1     -11.268  16.877  69.003  1.00  0.00     0.000 HD 
HETATM    3  H2  UNL     1      -9.992  15.929  68.501  1.00  0.00     0.000 HD 
HETATM    4  N   UNL     1     -11.719  15.340  67.663  1.00  0.00    -0.315 NA 
HETATM    5  H   UNL     1     -12.486  15.828  67.202  1.00  0.00     0.000 HD 
ENDROOT
BRANCH   4   6
HETATM    6  C   UNL     1     -11.324  14.015  67.270  1.00  0.00    -0.330 A  
HETATM    7  N   UNL     1     -10.868  13.792  66.009  1.00  0.00    -0.281 NA 
HETATM    8  N   UNL     1     -10.454  12.551  65.623  1.00  0.00    -0.267 NA 
HETATM    9  C   UNL     1     -10.515  11.537  66.503  1.00  0.00    -0.244 A  
HETATM   10  C   UNL     1     -11.009  11.678  67.795  1.00  0.00    -0.287 A  
HETATM   11  C   UNL     1     -11.081  10.586  68.679  1.00  0.00    -0.319 A  
HETATM   12  C   UNL     1     -11.611  10.741  69.959  1.00  0.00    -0.417 A  
HETATM   13  C   UNL     1     -12.077  11.985  70.367  1.00  0.00    -0.407 A  
HETATM   14  C   UNL     1     -11.998  13.078  69.501  1.00  0.00    -0.350 A  
HETATM   15  C   UNL     1     -11.451  12.954  68.198  1.00  0.00    -0.354 A  
ENDBRANCH   4   6
TORSDOF 1
ENDMDL
MODEL      118
REMARK 921   NORMALIZED FREE ENERGY PREDICTED BY IDOCK:   -3.37 KCAL/MOL
REMARK 922        TOTAL FREE ENERGY PREDICTED BY IDOCK:   -3.61 KCAL/MOL
REMARK 923 INTER-LIGAND FREE ENERGY PREDICTED BY IDOCK:   -3.57 KCAL/MOL
REMARK 924 INTRA-LIGAND FREE ENERGY PREDICTED BY IDOCK:   -0.04 KCAL/MOL
REMARK 927      BINDING AFFINITY PREDICTED BY RF-SCORE:    0.00 PKD
ROOT
HETATM    1  N   UNL     1     -10.409   8.690  66.442  1.00  0.00    -0.358 NA 
HETATM    2  H1  UNL     1      -9.992   9.155  65.636  1.00  0.00     0.000 HD 
HETATM    3  H2  UNL     1     -11.341   9.067  66.610  1.00  0.00     0.000 HD 
HETATM    4  N   UNL     1      -9.661   8.712  67.649  1.00  0.00    -0.152 NA 
HETATM    5  H   UNL     1      -8.752   9.170  67.708  1.00  0.00     0.000 HD 
ENDROOT
BRANCH   4   6
HETATM    6  C   UNL     1     -10.249   8.056  68.786  1.00  0.00    -0.206 A  
HETATM    7  N   UNL     1     -10.105   6.713  68.940  1.00  0.00    -0.159 NA 
HETATM    8  N   UNL     1     -10.622   6.072  70.028  1.00  0.00    -0.246 NA 
HETATM    9  C   UNL     1     -11.296   6.785  70.947  1.00  0.00    -0.315 A  
HETATM   10  C   UNL     1     -11.522   8.152  70.837  1.00  0.00    -0.288 A  
HETATM   11  C   UNL     1     -12.255   8.858  71.808  1.00  0.00    -0.429 A  
HETATM   12  C   UNL     1     -12.500  10.223  71.662  1.00  0.00    -0.491 A  
HETATM   13  C   UNL     1     -12.018  10.894  70.544  1.00  0.00    -0.466 A  
HETATM   14  C   UNL     1     -11.279  10.204  69.581  1.00  0.00    -0.310 A  
HETATM   15  C   UNL     1     -11.001   8.819  69.710  1.00  0.00    -0.146 A  
ENDBRANCH   4   6
TORSDOF 1
ENDMDL
MODEL      119
REMARK 921   NORMALIZED FREE ENERGY PREDICTED BY IDOCK:   -3.34 KCAL/MOL
REMARK 922        TOTAL FREE ENERGY PREDICTED BY IDOCK:   -3.58 KCAL/MOL
REMARK 923 INTER-LIGAND FREE ENERGY PREDICTED BY IDOCK:   -3.67 KCAL/MOL
REMARK 924 INTRA-LIGAND FREE ENERGY PREDICTED BY IDOCK:    0.09 KCAL/MOL
REMARK 927      BINDING AFFINITY PREDICTED BY RF-SCORE:    0.00 PKD
ROOT
HETATM    1  N   UNL     1     -12.391  15.292  68.964  1.00  0.00    -0.602 NA 
HETATM    2  H1  UNL     1     -12.928  16.157  68.896  1.00  0.00     0.000 HD 
HETATM    3  H2  UNL     1     -11.444  15.502  69.276  1.00  0.00     0.000 HD 
HETATM    4  N   UNL     1     -12.341  14.479  67.800  1.00  0.00    -0.595 NA 
HETATM    5  H   UNL     1     -12.817  14.747  66.939  1.00  0.00     0.000 HD 
ENDROOT
BRANCH   4   6
HETATM    6  C   UNL     1     -11.585  13.260  67.896  1.00  0.00    -0.334 A  
HETATM    7  N   UNL     1     -12.231  12.076  68.063  1.00  0.00    -0.360 NA 
HETATM    8  N   UNL     1     -11.539  10.902  68.120  1.00  0.00    -0.501 NA 
HETATM    9  C   UNL     1     -10.198  10.927  68.026  1.00  0.00    -0.178 A  
HETATM   10  C   UNL     1      -9.465  12.102  67.897  1.00  0.00    -0.195 A  
HETATM   11  C   UNL     1      -8.060  12.088  67.826  1.00  0.00    -0.149 A  
HETATM   12  C   UNL     1      -7.341  13.279  67.732  1.00  0.00    -0.147 A  
HETATM   13  C   UNL     1      -8.018  14.493  67.710  1.00  0.00    -0.168 A  
HETATM   14  C   UNL     1      -9.413  14.516  67.767  1.00  0.00    -0.210 A  
HETATM   15  C   UNL     1     -10.172  13.320  67.849  1.00  0.00    -0.233 A  
ENDBRANCH   4   6
TORSDOF 1
ENDMDL
MODEL      120
REMARK 921   NORMALIZED FREE ENERGY PREDICTED BY IDOCK:   -3.32 KCAL/MOL
REMARK 922        TOTAL FREE ENERGY PREDICTED BY IDOCK:   -3.55 KCAL/MOL
REMARK 923 INTER-LIGAND FREE ENERGY PREDICTED BY IDOCK:   -3.51 KCAL/MOL
REMARK 924 INTRA-LIGAND FREE ENERGY PREDICTED BY IDOCK:   -0.04 KCAL/MOL
REMARK 927      BINDING AFFINITY PREDICTED BY RF-SCORE:    0.00 PKD
ROOT
HETATM    1  N   UNL     1      -7.095  14.288  70.030  1.00  0.00    -0.386 NA 
HETATM    2  H1  UNL     1      -6.180  13.856  70.156  1.00  0.00     0.000 HD 
HETATM    3  H2  UNL     1      -7.805  13.729  70.504  1.00  0.00     0.000 HD 
HETATM    4  N   UNL     1      -7.503  14.542  68.694  1.00  0.00    -0.121 NA 
HETATM    5  H   UNL     1      -6.910  14.304  67.899  1.00  0.00     0.000 HD 
ENDROOT
BRANCH   4   6
HETATM    6  C   UNL     1      -8.793  15.151  68.516  1.00  0.00    -0.185 A  
HETATM    7  N   UNL     1      -9.896  14.369  68.373  1.00  0.00    -0.228 NA 
HETATM    8  N   UNL     1     -11.135  14.922  68.239  1.00  0.00    -0.270 NA 
HETATM    9  C   UNL     1     -11.257  16.261  68.233  1.00  0.00    -0.324 A  
HETATM   10  C   UNL     1     -10.173  17.126  68.330  1.00  0.00    -0.334 A  
HETATM   11  C   UNL     1     -10.339  18.522  68.294  1.00  0.00    -0.380 A  
HETATM   12  C   UNL     1      -9.236  19.371  68.358  1.00  0.00    -0.415 A  
HETATM   13  C   UNL     1      -7.957  18.835  68.456  1.00  0.00    -0.377 A  
HETATM   14  C   UNL     1      -7.783  17.450  68.506  1.00  0.00    -0.267 A  
HETATM   15  C   UNL     1      -8.887  16.561  68.457  1.00  0.00    -0.228 A  
ENDBRANCH   4   6
TORSDOF 1
ENDMDL
MODEL      121
REMARK 921   NORMALIZED FREE ENERGY PREDICTED BY IDOCK:   -3.31 KCAL/MOL
REMARK 922        TOTAL FREE ENERGY PREDICTED BY IDOCK:   -3.55 KCAL/MOL
REMARK 923 INTER-LIGAND FREE ENERGY PREDICTED BY IDOCK:   -3.49 KCAL/MOL
REMARK 924 INTRA-LIGAND FREE ENERGY PREDICTED BY IDOCK:   -0.06 KCAL/MOL
REMARK 927      BINDING AFFINITY PREDICTED BY RF-SCORE:    0.00 PKD
ROOT
HETATM    1  N   UNL     1      -6.210  20.221  71.189  1.00  0.00    -0.534 NA 
HETATM    2  H1  UNL     1      -5.733  20.166  72.089  1.00  0.00     0.000 HD 
HETATM    3  H2  UNL     1      -7.053  19.647  71.214  1.00  0.00     0.000 HD 
HETATM    4  N   UNL     1      -5.445  19.893  70.038  1.00  0.00    -0.223 NA 
HETATM    5  H   UNL     1      -4.466  19.616  70.108  1.00  0.00     0.000 HD 
ENDROOT
BRANCH   4   6
HETATM    6  C   UNL     1      -6.117  19.971  68.770  1.00  0.00    -0.280 A  
HETATM    7  N   UNL     1      -6.335  21.182  68.194  1.00  0.00    -0.274 NA 
HETATM    8  N   UNL     1      -6.939  21.280  66.975  1.00  0.00    -0.483 NA 
HETATM    9  C   UNL     1      -7.336  20.158  66.349  1.00  0.00    -0.281 A  
HETATM   10  C   UNL     1      -7.187  18.888  66.894  1.00  0.00    -0.225 A  
HETATM   11  C   UNL     1      -7.638  17.740  66.218  1.00  0.00    -0.322 A  
HETATM   12  C   UNL     1      -7.510  16.478  66.797  1.00  0.00    -0.281 A  
HETATM   13  C   UNL     1      -6.934  16.351  68.055  1.00  0.00    -0.150 A  
HETATM   14  C   UNL     1      -6.471  17.484  68.728  1.00  0.00    -0.207 A  
HETATM   15  C   UNL     1      -6.575  18.779  68.158  1.00  0.00    -0.235 A  
ENDBRANCH   4   6
TORSDOF 1
ENDMDL
MODEL      122
REMARK 921   NORMALIZED FREE ENERGY PREDICTED BY IDOCK:   -3.29 KCAL/MOL
REMARK 922        TOTAL FREE ENERGY PREDICTED BY IDOCK:   -3.53 KCAL/MOL
REMARK 923 INTER-LIGAND FREE ENERGY PREDICTED BY IDOCK:   -3.49 KCAL/MOL
REMARK 924 INTRA-LIGAND FREE ENERGY PREDICTED BY IDOCK:   -0.04 KCAL/MOL
REMARK 927      BINDING AFFINITY PREDICTED BY RF-SCORE:    0.00 PKD
ROOT
HETATM    1  N   UNL     1      -8.180  10.473  66.107  1.00  0.00    -0.145 NA 
HETATM    2  H1  UNL     1      -7.268  10.138  65.799  1.00  0.00     0.000 HD 
HETATM    3  H2  UNL     1      -8.915   9.987  65.591  1.00  0.00     0.000 HD 
HETATM    4  N   UNL     1      -8.401  11.874  66.044  1.00  0.00    -0.376 NA 
HETATM    5  H   UNL     1      -7.682  12.514  65.708  1.00  0.00     0.000 HD 
ENDROOT
BRANCH   4   6
HETATM    6  C   UNL     1      -9.687  12.347  66.479  1.00  0.00    -0.240 A  
HETATM    7  N   UNL     1     -10.715  11.470  66.625  1.00  0.00    -0.257 NA 
HETATM    8  N   UNL     1     -11.935  11.887  67.071  1.00  0.00    -0.601 NA 
HETATM    9  C   UNL     1     -12.118  13.189  67.351  1.00  0.00    -0.263 A  
HETATM   10  C   UNL     1     -11.129  14.152  67.185  1.00  0.00    -0.315 A  
HETATM   11  C   UNL     1     -11.369  15.509  67.466  1.00  0.00    -0.232 A  
HETATM   12  C   UNL     1     -10.374  16.464  67.260  1.00  0.00    -0.287 A  
HETATM   13  C   UNL     1      -9.133  16.073  66.771  1.00  0.00    -0.271 A  
HETATM   14  C   UNL     1      -8.882  14.726  66.501  1.00  0.00    -0.223 A  
HETATM   15  C   UNL     1      -9.870  13.730  66.714  1.00  0.00    -0.275 A  
ENDBRANCH   4   6
TORSDOF 1
ENDMDL
MODEL      123
REMARK 921   NORMALIZED FREE ENERGY PREDICTED BY IDOCK:   -3.29 KCAL/MOL
REMARK 922        TOTAL FREE ENERGY PREDICTED BY IDOCK:   -3.52 KCAL/MOL
REMARK 923 INTER-LIGAND FREE ENERGY PREDICTED BY IDOCK:   -4.07 KCAL/MOL
REMARK 924 INTRA-LIGAND FREE ENERGY PREDICTED BY IDOCK:    0.55 KCAL/MOL
REMARK 927      BINDING AFFINITY PREDICTED BY RF-SCORE:    0.00 PKD
ROOT
HETATM    1  N   UNL     1     -12.414   9.825  70.096  1.00  0.00    -0.462 NA 
HETATM    2  H1  UNL     1     -12.539   9.249  70.929  1.00  0.00     0.000 HD 
HETATM    3  H2  UNL     1     -13.222   9.717  69.483  1.00  0.00     0.000 HD 
HETATM    4  N   UNL     1     -11.221   9.623  69.353  1.00  0.00    -0.420 NA 
HETATM    5  H   UNL     1     -10.523   8.936  69.637  1.00  0.00     0.000 HD 
ENDROOT
BRANCH   4   6
HETATM    6  C   UNL     1     -11.046  10.435  68.179  1.00  0.00    -0.285 A  
HETATM    7  N   UNL     1     -10.604   9.868  67.026  1.00  0.00    -0.227 NA 
HETATM    8  N   UNL     1     -10.463  10.609  65.889  1.00  0.00    -0.211 NA 
HETATM    9  C   UNL     1     -10.753  11.921  65.924  1.00  0.00    -0.284 A  
HETATM   10  C   UNL     1     -11.169  12.581  67.075  1.00  0.00    -0.353 A  
HETATM   11  C   UNL     1     -11.438  13.961  67.077  1.00  0.00    -0.367 A  
HETATM   12  C   UNL     1     -11.821  14.610  68.250  1.00  0.00    -0.333 A  
HETATM   13  C   UNL     1     -11.935  13.887  69.432  1.00  0.00    -0.402 A  
HETATM   14  C   UNL     1     -11.682  12.513  69.437  1.00  0.00    -0.383 A  
HETATM   15  C   UNL     1     -11.305  11.824  68.256  1.00  0.00    -0.343 A  
ENDBRANCH   4   6
TORSDOF 1
ENDMDL
MODEL      124
REMARK 921   NORMALIZED FREE ENERGY PREDICTED BY IDOCK:   -3.26 KCAL/MOL
REMARK 922        TOTAL FREE ENERGY PREDICTED BY IDOCK:   -3.49 KCAL/MOL
REMARK 923 INTER-LIGAND FREE ENERGY PREDICTED BY IDOCK:   -3.45 KCAL/MOL
REMARK 924 INTRA-LIGAND FREE ENERGY PREDICTED BY IDOCK:   -0.04 KCAL/MOL
REMARK 927      BINDING AFFINITY PREDICTED BY RF-SCORE:    0.00 PKD
ROOT
HETATM    1  N   UNL     1     -10.154  20.273  65.255  1.00  0.00    -0.291 NA 
HETATM    2  H1  UNL     1     -10.883  20.612  64.627  1.00  0.00     0.000 HD 
HETATM    3  H2  UNL     1      -9.397  19.862  64.710  1.00  0.00     0.000 HD 
HETATM    4  N   UNL     1     -10.556  19.367  66.272  1.00  0.00    -0.473 NA 
HETATM    5  H   UNL     1     -11.527  19.069  66.369  1.00  0.00     0.000 HD 
ENDROOT
BRANCH   4   6
HETATM    6  C   UNL     1      -9.529  18.890  67.157  1.00  0.00    -0.304 A  
HETATM    7  N   UNL     1      -8.517  19.719  67.527  1.00  0.00    -0.312 NA 
HETATM    8  N   UNL     1      -7.550  19.302  68.394  1.00  0.00    -0.302 NA 
HETATM    9  C   UNL     1      -7.597  18.046  68.871  1.00  0.00    -0.218 A  
HETATM   10  C   UNL     1      -8.575  17.127  68.506  1.00  0.00    -0.258 A  
HETATM   11  C   UNL     1      -8.575  15.814  69.009  1.00  0.00    -0.236 A  
HETATM   12  C   UNL     1      -9.544  14.897  68.603  1.00  0.00    -0.222 A  
HETATM   13  C   UNL     1     -10.520  15.283  67.691  1.00  0.00    -0.263 A  
HETATM   14  C   UNL     1     -10.535  16.589  67.196  1.00  0.00    -0.300 A  
HETATM   15  C   UNL     1      -9.570  17.547  67.601  1.00  0.00    -0.266 A  
ENDBRANCH   4   6
TORSDOF 1
ENDMDL
MODEL      125
REMARK 921   NORMALIZED FREE ENERGY PREDICTED BY IDOCK:   -3.25 KCAL/MOL
REMARK 922        TOTAL FREE ENERGY PREDICTED BY IDOCK:   -3.48 KCAL/MOL
REMARK 923 INTER-LIGAND FREE ENERGY PREDICTED BY IDOCK:   -3.44 KCAL/MOL
REMARK 924 INTRA-LIGAND FREE ENERGY PREDICTED BY IDOCK:   -0.05 KCAL/MOL
REMARK 927      BINDING AFFINITY PREDICTED BY RF-SCORE:    0.00 PKD
ROOT
HETATM    1  N   UNL     1     -11.223  16.081  70.148  1.00  0.00    -0.350 NA 
HETATM    2  H1  UNL     1     -11.846  16.288  70.929  1.00  0.00     0.000 HD 
HETATM    3  H2  UNL     1     -11.549  16.566  69.313  1.00  0.00     0.000 HD 
HETATM    4  N   UNL     1     -11.008  14.709  69.850  1.00  0.00    -0.414 NA 
HETATM    5  H   UNL     1     -11.454  13.967  70.389  1.00  0.00     0.000 HD 
ENDROOT
BRANCH   4   6
HETATM    6  C   UNL     1     -10.129  14.416  68.750  1.00  0.00    -0.234 A  
HETATM    7  N   UNL     1      -8.784  14.395  68.947  1.00  0.00    -0.119 NA 
HETATM    8  N   UNL     1      -7.931  14.085  67.929  1.00  0.00    -0.142 NA 
HETATM    9  C   UNL     1      -8.436  13.815  66.713  1.00  0.00     0.032 A  
HETATM   10  C   UNL     1      -9.795  13.859  66.423  1.00  0.00    -0.304 A  
HETATM   11  C   UNL     1     -10.281  13.594  65.131  1.00  0.00    -0.349 A  
HETATM   12  C   UNL     1     -11.645  13.677  64.853  1.00  0.00    -0.360 A  
HETATM   13  C   UNL     1     -12.534  14.028  65.862  1.00  0.00    -0.513 A  
HETATM   14  C   UNL     1     -12.062  14.281  67.152  1.00  0.00    -0.412 A  
HETATM   15  C   UNL     1     -10.681  14.190  67.467  1.00  0.00    -0.270 A  
ENDBRANCH   4   6
TORSDOF 1
ENDMDL
MODEL      126
REMARK 921   NORMALIZED FREE ENERGY PREDICTED BY IDOCK:   -3.25 KCAL/MOL
REMARK 922        TOTAL FREE ENERGY PREDICTED BY IDOCK:   -3.48 KCAL/MOL
REMARK 923 INTER-LIGAND FREE ENERGY PREDICTED BY IDOCK:   -3.42 KCAL/MOL
REMARK 924 INTRA-LIGAND FREE ENERGY PREDICTED BY IDOCK:   -0.06 KCAL/MOL
REMARK 927      BINDING AFFINITY PREDICTED BY RF-SCORE:    0.00 PKD
ROOT
HETATM    1  N   UNL     1     -10.489   5.996  67.665  1.00  0.00    -0.207 NA 
HETATM    2  H1  UNL     1     -10.901   5.311  67.032  1.00  0.00     0.000 HD 
HETATM    3  H2  UNL     1      -9.666   5.595  68.115  1.00  0.00     0.000 HD 
HETATM    4  N   UNL     1     -11.347   6.553  68.650  1.00  0.00    -0.582 NA 
HETATM    5  H   UNL     1     -12.327   6.280  68.721  1.00  0.00     0.000 HD 
ENDROOT
BRANCH   4   6
HETATM    6  C   UNL     1     -10.767   7.519  69.542  1.00  0.00    -0.217 A  
HETATM    7  N   UNL     1     -10.343   8.717  69.058  1.00  0.00    -0.212 NA 
HETATM    8  N   UNL     1      -9.822   9.664  69.890  1.00  0.00    -0.224 NA 
HETATM    9  C   UNL     1      -9.714   9.395  71.203  1.00  0.00    -0.187 A  
HETATM   10  C   UNL     1     -10.085   8.178  71.765  1.00  0.00    -0.267 A  
HETATM   11  C   UNL     1      -9.933   7.926  73.140  1.00  0.00    -0.358 A  
HETATM   12  C   UNL     1     -10.279   6.687  73.678  1.00  0.00    -0.325 A  
HETATM   13  C   UNL     1     -10.776   5.689  72.849  1.00  0.00    -0.286 A  
HETATM   14  C   UNL     1     -10.943   5.935  71.483  1.00  0.00    -0.323 A  
HETATM   15  C   UNL     1     -10.613   7.190  70.910  1.00  0.00    -0.238 A  
ENDBRANCH   4   6
TORSDOF 1
ENDMDL
MODEL      127
REMARK 921   NORMALIZED FREE ENERGY PREDICTED BY IDOCK:   -3.25 KCAL/MOL
REMARK 922        TOTAL FREE ENERGY PREDICTED BY IDOCK:   -3.48 KCAL/MOL
REMARK 923 INTER-LIGAND FREE ENERGY PREDICTED BY IDOCK:   -3.44 KCAL/MOL
REMARK 924 INTRA-LIGAND FREE ENERGY PREDICTED BY IDOCK:   -0.04 KCAL/MOL
REMARK 927      BINDING AFFINITY PREDICTED BY RF-SCORE:    0.00 PKD
ROOT
HETATM    1  N   UNL     1     -10.527  20.830  69.838  1.00  0.00    -0.147 NA 
HETATM    2  H1  UNL     1     -11.270  21.029  70.508  1.00  0.00     0.000 HD 
HETATM    3  H2  UNL     1     -10.581  21.490  69.062  1.00  0.00     0.000 HD 
HETATM    4  N   UNL     1     -10.462  19.504  69.332  1.00  0.00    -0.427 NA 
HETATM    5  H   UNL     1     -11.126  18.787  69.625  1.00  0.00     0.000 HD 
ENDROOT
BRANCH   4   6
HETATM    6  C   UNL     1      -9.416  19.223  68.388  1.00  0.00    -0.376 A  
HETATM    7  N   UNL     1      -8.451  20.150  68.153  1.00  0.00    -0.171 NA 
HETATM    8  N   UNL     1      -7.427  19.894  67.288  1.00  0.00    -0.252 NA 
HETATM    9  C   UNL     1      -7.389  18.710  66.652  1.00  0.00    -0.229 A  
HETATM   10  C   UNL     1      -8.362  17.729  66.808  1.00  0.00    -0.271 A  
HETATM   11  C   UNL     1      -8.300  16.512  66.105  1.00  0.00    -0.305 A  
HETATM   12  C   UNL     1      -9.304  15.556  66.249  1.00  0.00    -0.355 A  
HETATM   13  C   UNL     1     -10.379  15.806  67.093  1.00  0.00    -0.291 A  
HETATM   14  C   UNL     1     -10.443  17.006  67.805  1.00  0.00    -0.349 A  
HETATM   15  C   UNL     1      -9.429  17.992  67.690  1.00  0.00    -0.264 A  
ENDBRANCH   4   6
TORSDOF 1
ENDMDL
MODEL      128
REMARK 921   NORMALIZED FREE ENERGY PREDICTED BY IDOCK:   -3.23 KCAL/MOL
REMARK 922        TOTAL FREE ENERGY PREDICTED BY IDOCK:   -3.46 KCAL/MOL
REMARK 923 INTER-LIGAND FREE ENERGY PREDICTED BY IDOCK:   -3.42 KCAL/MOL
REMARK 924 INTRA-LIGAND FREE ENERGY PREDICTED BY IDOCK:   -0.04 KCAL/MOL
REMARK 927      BINDING AFFINITY PREDICTED BY RF-SCORE:    0.00 PKD
ROOT
HETATM    1  N   UNL     1      -9.600   5.301  70.284  1.00  0.00    -0.167 NA 
HETATM    2  H1  UNL     1      -9.066   4.666  69.691  1.00  0.00     0.000 HD 
HETATM    3  H2  UNL     1     -10.420   4.818  70.652  1.00  0.00     0.000 HD 
HETATM    4  N   UNL     1      -9.995   6.536  69.704  1.00  0.00    -0.162 NA 
HETATM    5  H   UNL     1      -9.757   6.775  68.742  1.00  0.00     0.000 HD 
ENDROOT
BRANCH   4   6
HETATM    6  C   UNL     1     -10.747   7.432  70.539  1.00  0.00    -0.233 A  
HETATM    7  N   UNL     1     -11.243   6.993  71.726  1.00  0.00    -0.240 NA 
HETATM    8  N   UNL     1     -11.929   7.834  72.553  1.00  0.00    -0.291 NA 
HETATM    9  C   UNL     1     -12.127   9.108  72.173  1.00  0.00    -0.318 A  
HETATM   10  C   UNL     1     -11.689   9.618  70.956  1.00  0.00    -0.433 A  
HETATM   11  C   UNL     1     -11.938  10.951  70.585  1.00  0.00    -0.467 A  
HETATM   12  C   UNL     1     -11.520  11.434  69.345  1.00  0.00    -0.378 A  
HETATM   13  C   UNL     1     -10.852  10.590  68.466  1.00  0.00    -0.275 A  
HETATM   14  C   UNL     1     -10.589   9.267  68.832  1.00  0.00    -0.222 A  
HETATM   15  C   UNL     1     -10.990   8.752  70.092  1.00  0.00    -0.236 A  
ENDBRANCH   4   6
TORSDOF 1
ENDMDL
MODEL      129
REMARK 921   NORMALIZED FREE ENERGY PREDICTED BY IDOCK:   -3.23 KCAL/MOL
REMARK 922        TOTAL FREE ENERGY PREDICTED BY IDOCK:   -3.46 KCAL/MOL
REMARK 923 INTER-LIGAND FREE ENERGY PREDICTED BY IDOCK:   -3.42 KCAL/MOL
REMARK 924 INTRA-LIGAND FREE ENERGY PREDICTED BY IDOCK:   -0.04 KCAL/MOL
REMARK 927      BINDING AFFINITY PREDICTED BY RF-SCORE:    0.00 PKD
ROOT
HETATM    1  N   UNL     1     -11.749  15.928  69.241  1.00  0.00    -0.370 NA 
HETATM    2  H1  UNL     1     -12.205  15.421  70.000  1.00  0.00     0.000 HD 
HETATM    3  H2  UNL     1     -11.267  15.268  68.631  1.00  0.00     0.000 HD 
HETATM    4  N   UNL     1     -10.859  16.970  69.614  1.00  0.00    -0.358 NA 
HETATM    5  H   UNL     1     -10.684  17.199  70.592  1.00  0.00     0.000 HD 
ENDROOT
BRANCH   4   6
HETATM    6  C   UNL     1     -10.216  17.684  68.545  1.00  0.00    -0.386 A  
HETATM    7  N   UNL     1     -10.855  18.724  67.948  1.00  0.00    -0.291 NA 
HETATM    8  N   UNL     1     -10.253  19.441  66.955  1.00  0.00    -0.376 NA 
HETATM    9  C   UNL     1      -9.015  19.097  66.559  1.00  0.00    -0.341 A  
HETATM   10  C   UNL     1      -8.315  18.020  67.091  1.00  0.00    -0.241 A  
HETATM   11  C   UNL     1      -7.032  17.676  66.631  1.00  0.00    -0.257 A  
HETATM   12  C   UNL     1      -6.361  16.572  67.155  1.00  0.00    -0.220 A  
HETATM   13  C   UNL     1      -6.966  15.800  68.139  1.00  0.00    -0.125 A  
HETATM   14  C   UNL     1      -8.235  16.141  68.612  1.00  0.00    -0.202 A  
HETATM   15  C   UNL     1      -8.936  17.267  68.108  1.00  0.00    -0.254 A  
ENDBRANCH   4   6
TORSDOF 1
ENDMDL
MODEL      130
REMARK 921   NORMALIZED FREE ENERGY PREDICTED BY IDOCK:   -3.23 KCAL/MOL
REMARK 922        TOTAL FREE ENERGY PREDICTED BY IDOCK:   -3.46 KCAL/MOL
REMARK 923 INTER-LIGAND FREE ENERGY PREDICTED BY IDOCK:   -3.44 KCAL/MOL
REMARK 924 INTRA-LIGAND FREE ENERGY PREDICTED BY IDOCK:   -0.02 KCAL/MOL
REMARK 927      BINDING AFFINITY PREDICTED BY RF-SCORE:    0.00 PKD
ROOT
HETATM    1  N   UNL     1      -8.238   9.968  65.791  1.00  0.00    -0.125 NA 
HETATM    2  H1  UNL     1      -7.686   9.392  65.155  1.00  0.00     0.000 HD 
HETATM    3  H2  UNL     1      -9.227   9.746  65.681  1.00  0.00     0.000 HD 
HETATM    4  N   UNL     1      -8.051  11.373  65.704  1.00  0.00    -0.357 NA 
HETATM    5  H   UNL     1      -7.398  11.786  65.039  1.00  0.00     0.000 HD 
ENDROOT
BRANCH   4   6
HETATM    6  C   UNL     1      -8.829  12.185  66.601  1.00  0.00    -0.182 A  
HETATM    7  N   UNL     1      -8.343  12.484  67.834  1.00  0.00    -0.155 NA 
HETATM    8  N   UNL     1      -9.045  13.282  68.690  1.00  0.00    -0.049 NA 
HETATM    9  C   UNL     1     -10.241  13.761  68.305  1.00  0.00    -0.245 A  
HETATM   10  C   UNL     1     -10.822  13.463  67.077  1.00  0.00    -0.280 A  
HETATM   11  C   UNL     1     -12.088  13.964  66.722  1.00  0.00    -0.476 A  
HETATM   12  C   UNL     1     -12.669  13.627  65.500  1.00  0.00    -0.514 A  
HETATM   13  C   UNL     1     -11.993  12.785  64.624  1.00  0.00    -0.453 A  
HETATM   14  C   UNL     1     -10.731  12.293  64.964  1.00  0.00    -0.336 A  
HETATM   15  C   UNL     1     -10.108  12.630  66.193  1.00  0.00    -0.268 A  
ENDBRANCH   4   6
TORSDOF 1
ENDMDL
MODEL      131
REMARK 921   NORMALIZED FREE ENERGY PREDICTED BY IDOCK:   -3.19 KCAL/MOL
REMARK 922        TOTAL FREE ENERGY PREDICTED BY IDOCK:   -3.42 KCAL/MOL
REMARK 923 INTER-LIGAND FREE ENERGY PREDICTED BY IDOCK:   -3.38 KCAL/MOL
REMARK 924 INTRA-LIGAND FREE ENERGY PREDICTED BY IDOCK:   -0.04 KCAL/MOL
REMARK 927      BINDING AFFINITY PREDICTED BY RF-SCORE:    0.00 PKD
ROOT
HETATM    1  N   UNL     1      -5.888  17.882  66.304  1.00  0.00    -0.172 NA 
HETATM    2  H1  UNL     1      -5.063  17.653  65.749  1.00  0.00     0.000 HD 
HETATM    3  H2  UNL     1      -5.604  18.117  67.255  1.00  0.00     0.000 HD 
HETATM    4  N   UNL     1      -6.923  16.911  66.342  1.00  0.00    -0.231 NA 
HETATM    5  H   UNL     1      -6.847  16.028  65.838  1.00  0.00     0.000 HD 
ENDROOT
BRANCH   4   6
HETATM    6  C   UNL     1      -8.085  17.235  67.124  1.00  0.00    -0.203 A  
HETATM    7  N   UNL     1      -8.128  18.403  67.819  1.00  0.00    -0.250 NA 
HETATM    8  N   UNL     1      -9.233  18.749  68.540  1.00  0.00    -0.338 NA 
HETATM    9  C   UNL     1     -10.283  17.911  68.571  1.00  0.00    -0.390 A  
HETATM   10  C   UNL     1     -10.297  16.681  67.923  1.00  0.00    -0.310 A  
HETATM   11  C   UNL     1     -11.407  15.820  68.001  1.00  0.00    -0.310 A  
HETATM   12  C   UNL     1     -11.387  14.576  67.371  1.00  0.00    -0.370 A  
HETATM   13  C   UNL     1     -10.260  14.180  66.661  1.00  0.00    -0.270 A  
HETATM   14  C   UNL     1      -9.158  15.033  66.568  1.00  0.00    -0.319 A  
HETATM   15  C   UNL     1      -9.155  16.311  67.186  1.00  0.00    -0.217 A  
ENDBRANCH   4   6
TORSDOF 1
ENDMDL
MODEL      132
REMARK 921   NORMALIZED FREE ENERGY PREDICTED BY IDOCK:   -3.17 KCAL/MOL
REMARK 922        TOTAL FREE ENERGY PREDICTED BY IDOCK:   -3.40 KCAL/MOL
REMARK 923 INTER-LIGAND FREE ENERGY PREDICTED BY IDOCK:   -3.34 KCAL/MOL
REMARK 924 INTRA-LIGAND FREE ENERGY PREDICTED BY IDOCK:   -0.06 KCAL/MOL
REMARK 927      BINDING AFFINITY PREDICTED BY RF-SCORE:    0.00 PKD
ROOT
HETATM    1  N   UNL     1      -8.387   8.061  70.339  1.00  0.00    -0.118 NA 
HETATM    2  H1  UNL     1      -7.727   7.292  70.226  1.00  0.00     0.000 HD 
HETATM    3  H2  UNL     1      -8.550   8.229  71.332  1.00  0.00     0.000 HD 
HETATM    4  N   UNL     1      -9.632   7.938  69.666  1.00  0.00    -0.164 NA 
HETATM    5  H   UNL     1      -9.854   7.121  69.098  1.00  0.00     0.000 HD 
ENDROOT
BRANCH   4   6
HETATM    6  C   UNL     1     -10.562   9.022  69.824  1.00  0.00    -0.228 A  
HETATM    7  N   UNL     1     -11.287   9.129  70.968  1.00  0.00    -0.286 NA 
HETATM    8  N   UNL     1     -12.151  10.169  71.157  1.00  0.00    -0.358 NA 
HETATM    9  C   UNL     1     -12.292  11.086  70.186  1.00  0.00    -0.311 A  
HETATM   10  C   UNL     1     -11.618  11.021  68.971  1.00  0.00    -0.392 A  
HETATM   11  C   UNL     1     -11.813  11.988  67.969  1.00  0.00    -0.338 A  
HETATM   12  C   UNL     1     -11.154  11.886  66.744  1.00  0.00    -0.359 A  
HETATM   13  C   UNL     1     -10.298  10.817  66.509  1.00  0.00    -0.300 A  
HETATM   14  C   UNL     1     -10.088   9.859  67.503  1.00  0.00    -0.244 A  
HETATM   15  C   UNL     1     -10.734   9.944  68.764  1.00  0.00    -0.247 A  
ENDBRANCH   4   6
TORSDOF 1
ENDMDL
MODEL      133
REMARK 921   NORMALIZED FREE ENERGY PREDICTED BY IDOCK:   -3.13 KCAL/MOL
REMARK 922        TOTAL FREE ENERGY PREDICTED BY IDOCK:   -3.36 KCAL/MOL
REMARK 923 INTER-LIGAND FREE ENERGY PREDICTED BY IDOCK:   -3.30 KCAL/MOL
REMARK 924 INTRA-LIGAND FREE ENERGY PREDICTED BY IDOCK:   -0.06 KCAL/MOL
REMARK 927      BINDING AFFINITY PREDICTED BY RF-SCORE:    0.00 PKD
ROOT
HETATM    1  N   UNL     1     -11.146   5.549  66.399  1.00  0.00    -0.726 NA 
HETATM    2  H1  UNL     1     -10.970   5.136  65.483  1.00  0.00     0.000 HD 
HETATM    3  H2  UNL     1     -11.679   6.412  66.289  1.00  0.00     0.000 HD 
HETATM    4  N   UNL     1     -10.011   5.792  67.218  1.00  0.00    -0.140 NA 
HETATM    5  H   UNL     1      -9.068   5.565  66.906  1.00  0.00     0.000 HD 
ENDROOT
BRANCH   4   6
HETATM    6  C   UNL     1     -10.259   6.374  68.510  1.00  0.00    -0.175 A  
HETATM    7  N   UNL     1     -10.588   7.689  68.606  1.00  0.00    -0.171 NA 
HETATM    8  N   UNL     1     -10.863   8.257  69.816  1.00  0.00    -0.222 NA 
HETATM    9  C   UNL     1     -10.787   7.501  70.925  1.00  0.00    -0.240 A  
HETATM   10  C   UNL     1     -10.415   6.161  70.911  1.00  0.00    -0.282 A  
HETATM   11  C   UNL     1     -10.324   5.410  72.097  1.00  0.00    -0.265 A  
HETATM   12  C   UNL     1      -9.915   4.078  72.065  1.00  0.00    -0.246 A  
HETATM   13  C   UNL     1      -9.592   3.484  70.851  1.00  0.00    -0.242 A  
HETATM   14  C   UNL     1      -9.692   4.218  69.667  1.00  0.00    -0.284 A  
HETATM   15  C   UNL     1     -10.118   5.571  69.666  1.00  0.00    -0.309 A  
ENDBRANCH   4   6
TORSDOF 1
ENDMDL
MODEL      134
REMARK 921   NORMALIZED FREE ENERGY PREDICTED BY IDOCK:   -3.13 KCAL/MOL
REMARK 922        TOTAL FREE ENERGY PREDICTED BY IDOCK:   -3.36 KCAL/MOL
REMARK 923 INTER-LIGAND FREE ENERGY PREDICTED BY IDOCK:   -3.32 KCAL/MOL
REMARK 924 INTRA-LIGAND FREE ENERGY PREDICTED BY IDOCK:   -0.04 KCAL/MOL
REMARK 927      BINDING AFFINITY PREDICTED BY RF-SCORE:    0.00 PKD
ROOT
HETATM    1  N   UNL     1     -14.108   7.610  71.159  1.00  0.00    -0.661 NA 
HETATM    2  H1  UNL     1     -15.045   7.433  71.521  1.00  0.00     0.000 HD 
HETATM    3  H2  UNL     1     -14.005   7.166  70.246  1.00  0.00     0.000 HD 
HETATM    4  N   UNL     1     -13.021   7.241  71.994  1.00  0.00    -0.517 NA 
HETATM    5  H   UNL     1     -13.169   6.819  72.910  1.00  0.00     0.000 HD 
ENDROOT
BRANCH   4   6
HETATM    6  C   UNL     1     -11.700   7.490  71.484  1.00  0.00    -0.280 A  
HETATM    7  N   UNL     1     -11.535   7.857  70.186  1.00  0.00    -0.100 NA 
HETATM    8  N   UNL     1     -10.295   8.134  69.687  1.00  0.00    -0.217 NA 
HETATM    9  C   UNL     1      -9.226   8.023  70.494  1.00  0.00    -0.154 A  
HETATM   10  C   UNL     1      -9.310   7.612  71.820  1.00  0.00    -0.176 A  
HETATM   11  C   UNL     1      -8.164   7.485  72.625  1.00  0.00    -0.138 A  
HETATM   12  C   UNL     1      -8.266   7.037  73.942  1.00  0.00    -0.150 A  
HETATM   13  C   UNL     1      -9.512   6.711  74.465  1.00  0.00    -0.278 A  
HETATM   14  C   UNL     1     -10.657   6.847  73.676  1.00  0.00    -0.371 A  
HETATM   15  C   UNL     1     -10.586   7.313  72.338  1.00  0.00    -0.273 A  
ENDBRANCH   4   6
TORSDOF 1
ENDMDL
MODEL      135
REMARK 921   NORMALIZED FREE ENERGY PREDICTED BY IDOCK:   -3.13 KCAL/MOL
REMARK 922        TOTAL FREE ENERGY PREDICTED BY IDOCK:   -3.35 KCAL/MOL
REMARK 923 INTER-LIGAND FREE ENERGY PREDICTED BY IDOCK:   -3.31 KCAL/MOL
REMARK 924 INTRA-LIGAND FREE ENERGY PREDICTED BY IDOCK:   -0.04 KCAL/MOL
REMARK 927      BINDING AFFINITY PREDICTED BY RF-SCORE:    0.00 PKD
ROOT
HETATM    1  N   UNL     1      -7.285   8.420  69.009  1.00  0.00    -0.068 NA 
HETATM    2  H1  UNL     1      -6.537   8.697  68.373  1.00  0.00     0.000 HD 
HETATM    3  H2  UNL     1      -8.152   8.303  68.486  1.00  0.00     0.000 HD 
HETATM    4  N   UNL     1      -7.514   9.261  70.130  1.00  0.00    -0.083 NA 
HETATM    5  H   UNL     1      -6.959  10.101  70.292  1.00  0.00     0.000 HD 
ENDROOT
BRANCH   4   6
HETATM    6  C   UNL     1      -8.568   8.870  71.027  1.00  0.00    -0.206 A  
HETATM    7  N   UNL     1      -8.315   7.974  72.017  1.00  0.00    -0.127 NA 
HETATM    8  N   UNL     1      -9.289   7.614  72.902  1.00  0.00    -0.177 NA 
HETATM    9  C   UNL     1     -10.517   8.147  72.776  1.00  0.00    -0.315 A  
HETATM   10  C   UNL     1     -10.863   9.036  71.765  1.00  0.00    -0.437 A  
HETATM   11  C   UNL     1     -12.166   9.552  71.652  1.00  0.00    -0.477 A  
HETATM   12  C   UNL     1     -12.502  10.415  70.610  1.00  0.00    -0.437 A  
HETATM   13  C   UNL     1     -11.541  10.769  69.671  1.00  0.00    -0.388 A  
HETATM   14  C   UNL     1     -10.240  10.272  69.782  1.00  0.00    -0.262 A  
HETATM   15  C   UNL     1      -9.866   9.403  70.839  1.00  0.00    -0.338 A  
ENDBRANCH   4   6
TORSDOF 1
ENDMDL
MODEL      136
REMARK 921   NORMALIZED FREE ENERGY PREDICTED BY IDOCK:   -3.10 KCAL/MOL
REMARK 922        TOTAL FREE ENERGY PREDICTED BY IDOCK:   -3.32 KCAL/MOL
REMARK 923 INTER-LIGAND FREE ENERGY PREDICTED BY IDOCK:   -3.28 KCAL/MOL
REMARK 924 INTRA-LIGAND FREE ENERGY PREDICTED BY IDOCK:   -0.04 KCAL/MOL
REMARK 927      BINDING AFFINITY PREDICTED BY RF-SCORE:    0.00 PKD
ROOT
HETATM    1  N   UNL     1     -11.197  12.483  67.053  1.00  0.00    -0.284 NA 
HETATM    2  H1  UNL     1     -10.760  12.965  66.266  1.00  0.00     0.000 HD 
HETATM    3  H2  UNL     1     -11.855  13.110  67.514  1.00  0.00     0.000 HD 
HETATM    4  N   UNL     1     -10.323  11.915  68.018  1.00  0.00    -0.190 NA 
HETATM    5  H   UNL     1      -9.310  11.985  67.929  1.00  0.00     0.000 HD 
ENDROOT
BRANCH   4   6
HETATM    6  C   UNL     1     -10.938  11.236  69.126  1.00  0.00    -0.240 A  
HETATM    7  N   UNL     1     -12.230  11.504  69.449  1.00  0.00    -0.257 NA 
HETATM    8  N   UNL     1     -12.847  10.847  70.474  1.00  0.00    -0.267 NA 
HETATM    9  C   UNL     1     -12.154   9.936  71.178  1.00  0.00    -0.374 A  
HETATM   10  C   UNL     1     -10.817   9.640  70.936  1.00  0.00    -0.409 A  
HETATM   11  C   UNL     1     -10.120   8.698  71.712  1.00  0.00    -0.380 A  
HETATM   12  C   UNL     1      -8.770   8.440  71.474  1.00  0.00    -0.227 A  
HETATM   13  C   UNL     1      -8.105   9.122  70.462  1.00  0.00    -0.182 A  
HETATM   14  C   UNL     1      -8.794  10.050  69.677  1.00  0.00    -0.217 A  
HETATM   15  C   UNL     1     -10.170  10.323  69.887  1.00  0.00    -0.250 A  
ENDBRANCH   4   6
TORSDOF 1
ENDMDL
MODEL      137
REMARK 921   NORMALIZED FREE ENERGY PREDICTED BY IDOCK:   -3.08 KCAL/MOL
REMARK 922        TOTAL FREE ENERGY PREDICTED BY IDOCK:   -3.31 KCAL/MOL
REMARK 923 INTER-LIGAND FREE ENERGY PREDICTED BY IDOCK:   -3.26 KCAL/MOL
REMARK 924 INTRA-LIGAND FREE ENERGY PREDICTED BY IDOCK:   -0.05 KCAL/MOL
REMARK 927      BINDING AFFINITY PREDICTED BY RF-SCORE:    0.00 PKD
ROOT
HETATM    1  N   UNL     1     -11.660  11.389  70.207  1.00  0.00    -0.475 NA 
HETATM    2  H1  UNL     1     -12.610  11.701  70.007  1.00  0.00     0.000 HD 
HETATM    3  H2  UNL     1     -11.022  11.766  69.507  1.00  0.00     0.000 HD 
HETATM    4  N   UNL     1     -11.460   9.989  70.329  1.00  0.00    -0.283 NA 
HETATM    5  H   UNL     1     -12.228   9.327  70.222  1.00  0.00     0.000 HD 
ENDROOT
BRANCH   4   6
HETATM    6  C   UNL     1     -10.120   9.549  70.611  1.00  0.00    -0.286 A  
HETATM    7  N   UNL     1      -9.086  10.004  69.856  1.00  0.00    -0.198 NA 
HETATM    8  N   UNL     1      -7.802   9.630  70.126  1.00  0.00    -0.160 NA 
HETATM    9  C   UNL     1      -7.568   8.785  71.145  1.00  0.00    -0.115 A  
HETATM   10  C   UNL     1      -8.576   8.243  71.934  1.00  0.00    -0.224 A  
HETATM   11  C   UNL     1      -8.292   7.342  72.976  1.00  0.00    -0.147 A  
HETATM   12  C   UNL     1      -9.320   6.783  73.733  1.00  0.00    -0.203 A  
HETATM   13  C   UNL     1     -10.640   7.117  73.456  1.00  0.00    -0.416 A  
HETATM   14  C   UNL     1     -10.932   8.020  72.432  1.00  0.00    -0.402 A  
HETATM   15  C   UNL     1      -9.906   8.616  71.654  1.00  0.00    -0.351 A  
ENDBRANCH   4   6
TORSDOF 1
ENDMDL
MODEL      138
REMARK 921   NORMALIZED FREE ENERGY PREDICTED BY IDOCK:   -3.03 KCAL/MOL
REMARK 922        TOTAL FREE ENERGY PREDICTED BY IDOCK:   -3.25 KCAL/MOL
REMARK 923 INTER-LIGAND FREE ENERGY PREDICTED BY IDOCK:   -3.21 KCAL/MOL
REMARK 924 INTRA-LIGAND FREE ENERGY PREDICTED BY IDOCK:   -0.05 KCAL/MOL
REMARK 927      BINDING AFFINITY PREDICTED BY RF-SCORE:    0.00 PKD
ROOT
HETATM    1  N   UNL     1      -9.813   2.385  71.746  1.00  0.00    -0.157 NA 
HETATM    2  H1  UNL     1      -9.431   1.709  72.407  1.00  0.00     0.000 HD 
HETATM    3  H2  UNL     1      -9.655   2.059  70.793  1.00  0.00     0.000 HD 
HETATM    4  N   UNL     1      -9.361   3.726  71.871  1.00  0.00    -0.123 NA 
HETATM    5  H   UNL     1      -8.687   3.999  72.586  1.00  0.00     0.000 HD 
ENDROOT
BRANCH   4   6
HETATM    6  C   UNL     1      -9.900   4.680  70.939  1.00  0.00    -0.202 A  
HETATM    7  N   UNL     1      -9.900   4.399  69.610  1.00  0.00    -0.219 NA 
HETATM    8  N   UNL     1     -10.438   5.271  68.709  1.00  0.00    -0.142 NA 
HETATM    9  C   UNL     1     -10.957   6.430  69.151  1.00  0.00    -0.355 A  
HETATM   10  C   UNL     1     -10.954   6.807  70.489  1.00  0.00    -0.327 A  
HETATM   11  C   UNL     1     -11.485   8.039  70.908  1.00  0.00    -0.291 A  
HETATM   12  C   UNL     1     -11.441   8.413  72.251  1.00  0.00    -0.454 A  
HETATM   13  C   UNL     1     -10.864   7.561  73.186  1.00  0.00    -0.448 A  
HETATM   14  C   UNL     1     -10.346   6.329  72.780  1.00  0.00    -0.216 A  
HETATM   15  C   UNL     1     -10.389   5.916  71.424  1.00  0.00    -0.271 A  
ENDBRANCH   4   6
TORSDOF 1
ENDMDL
MODEL      139
REMARK 921   NORMALIZED FREE ENERGY PREDICTED BY IDOCK:   -3.02 KCAL/MOL
REMARK 922        TOTAL FREE ENERGY PREDICTED BY IDOCK:   -3.23 KCAL/MOL
REMARK 923 INTER-LIGAND FREE ENERGY PREDICTED BY IDOCK:   -3.19 KCAL/MOL
REMARK 924 INTRA-LIGAND FREE ENERGY PREDICTED BY IDOCK:   -0.04 KCAL/MOL
REMARK 927      BINDING AFFINITY PREDICTED BY RF-SCORE:    0.00 PKD
ROOT
HETATM    1  N   UNL     1     -10.680  17.956  67.906  1.00  0.00    -0.372 NA 
HETATM    2  H1  UNL     1     -10.320  18.906  67.819  1.00  0.00     0.000 HD 
HETATM    3  H2  UNL     1     -11.698  17.969  67.842  1.00  0.00     0.000 HD 
HETATM    4  N   UNL     1     -10.285  17.225  69.058  1.00  0.00    -0.327 NA 
HETATM    5  H   UNL     1      -9.671  17.631  69.764  1.00  0.00     0.000 HD 
ENDROOT
BRANCH   4   6
HETATM    6  C   UNL     1     -10.793  15.886  69.181  1.00  0.00    -0.268 A  
HETATM    7  N   UNL     1     -11.977  15.667  69.810  1.00  0.00    -0.361 NA 
HETATM    8  N   UNL     1     -12.498  14.410  69.908  1.00  0.00    -0.309 NA 
HETATM    9  C   UNL     1     -11.814  13.377  69.386  1.00  0.00    -0.335 A  
HETATM   10  C   UNL     1     -10.577  13.515  68.766  1.00  0.00    -0.237 A  
HETATM   11  C   UNL     1      -9.881  12.405  68.255  1.00  0.00    -0.224 A  
HETATM   12  C   UNL     1      -8.626  12.561  67.668  1.00  0.00    -0.178 A  
HETATM   13  C   UNL     1      -8.054  13.825  67.589  1.00  0.00    -0.181 A  
HETATM   14  C   UNL     1      -8.743  14.936  68.083  1.00  0.00    -0.164 A  
HETATM   15  C   UNL     1     -10.027  14.810  68.672  1.00  0.00    -0.232 A  
ENDBRANCH   4   6
TORSDOF 1
ENDMDL
MODEL      140
REMARK 921   NORMALIZED FREE ENERGY PREDICTED BY IDOCK:   -3.01 KCAL/MOL
REMARK 922        TOTAL FREE ENERGY PREDICTED BY IDOCK:   -3.23 KCAL/MOL
REMARK 923 INTER-LIGAND FREE ENERGY PREDICTED BY IDOCK:   -3.19 KCAL/MOL
REMARK 924 INTRA-LIGAND FREE ENERGY PREDICTED BY IDOCK:   -0.04 KCAL/MOL
REMARK 927      BINDING AFFINITY PREDICTED BY RF-SCORE:    0.00 PKD
ROOT
HETATM    1  N   UNL     1      -8.542   9.785  67.292  1.00  0.00    -0.128 NA 
HETATM    2  H1  UNL     1      -7.966  10.611  67.129  1.00  0.00     0.000 HD 
HETATM    3  H2  UNL     1      -9.431   9.887  66.802  1.00  0.00     0.000 HD 
HETATM    4  N   UNL     1      -8.781   9.431  68.646  1.00  0.00    -0.130 NA 
HETATM    5  H   UNL     1      -8.396   9.975  69.418  1.00  0.00     0.000 HD 
ENDROOT
BRANCH   4   6
HETATM    6  C   UNL     1      -9.593   8.267  68.876  1.00  0.00    -0.153 A  
HETATM    7  N   UNL     1      -9.443   7.172  68.085  1.00  0.00    -0.132 NA 
HETATM    8  N   UNL     1     -10.176   6.042  68.305  1.00  0.00    -0.164 NA 
HETATM    9  C   UNL     1     -11.068   6.027  69.310  1.00  0.00    -0.354 A  
HETATM   10  C   UNL     1     -11.309   7.121  70.134  1.00  0.00    -0.277 A  
HETATM   11  C   UNL     1     -12.269   7.073  71.159  1.00  0.00    -0.427 A  
HETATM   12  C   UNL     1     -12.520   8.192  71.952  1.00  0.00    -0.368 A  
HETATM   13  C   UNL     1     -11.816   9.369  71.726  1.00  0.00    -0.452 A  
HETATM   14  C   UNL     1     -10.851   9.422  70.718  1.00  0.00    -0.372 A  
HETATM   15  C   UNL     1     -10.564   8.295  69.905  1.00  0.00    -0.232 A  
ENDBRANCH   4   6
TORSDOF 1
ENDMDL
MODEL      141
REMARK 921   NORMALIZED FREE ENERGY PREDICTED BY IDOCK:   -3.00 KCAL/MOL
REMARK 922        TOTAL FREE ENERGY PREDICTED BY IDOCK:   -3.22 KCAL/MOL
REMARK 923 INTER-LIGAND FREE ENERGY PREDICTED BY IDOCK:   -3.18 KCAL/MOL
REMARK 924 INTRA-LIGAND FREE ENERGY PREDICTED BY IDOCK:   -0.04 KCAL/MOL
REMARK 927      BINDING AFFINITY PREDICTED BY RF-SCORE:    0.00 PKD
ROOT
HETATM    1  N   UNL     1      -7.024   9.340  69.126  1.00  0.00    -0.057 NA 
HETATM    2  H1  UNL     1      -6.853   9.621  68.161  1.00  0.00     0.000 HD 
HETATM    3  H2  UNL     1      -6.478   8.507  69.342  1.00  0.00     0.000 HD 
HETATM    4  N   UNL     1      -8.379   9.133  69.500  1.00  0.00    -0.120 NA 
HETATM    5  H   UNL     1      -9.142   9.258  68.835  1.00  0.00     0.000 HD 
ENDROOT
BRANCH   4   6
HETATM    6  C   UNL     1      -8.621   8.738  70.861  1.00  0.00    -0.192 A  
HETATM    7  N   UNL     1      -7.715   9.047  71.826  1.00  0.00    -0.343 NA 
HETATM    8  N   UNL     1      -7.939   8.715  73.130  1.00  0.00    -0.405 NA 
HETATM    9  C   UNL     1      -9.066   8.058  73.454  1.00  0.00    -0.273 A  
HETATM   10  C   UNL     1     -10.017   7.669  72.518  1.00  0.00    -0.263 A  
HETATM   11  C   UNL     1     -11.172   6.960  72.894  1.00  0.00    -0.254 A  
HETATM   12  C   UNL     1     -12.098   6.548  71.935  1.00  0.00    -0.388 A  
HETATM   13  C   UNL     1     -11.878   6.839  70.594  1.00  0.00    -0.442 A  
HETATM   14  C   UNL     1     -10.740   7.554  70.213  1.00  0.00    -0.247 A  
HETATM   15  C   UNL     1      -9.788   7.998  71.167  1.00  0.00    -0.198 A  
ENDBRANCH   4   6
TORSDOF 1
ENDMDL
MODEL      142
REMARK 921   NORMALIZED FREE ENERGY PREDICTED BY IDOCK:   -2.99 KCAL/MOL
REMARK 922        TOTAL FREE ENERGY PREDICTED BY IDOCK:   -3.21 KCAL/MOL
REMARK 923 INTER-LIGAND FREE ENERGY PREDICTED BY IDOCK:   -3.16 KCAL/MOL
REMARK 924 INTRA-LIGAND FREE ENERGY PREDICTED BY IDOCK:   -0.05 KCAL/MOL
REMARK 927      BINDING AFFINITY PREDICTED BY RF-SCORE:    0.00 PKD
ROOT
HETATM    1  N   UNL     1     -10.639  20.309  70.434  1.00  0.00    -0.159 NA 
HETATM    2  H1  UNL     1     -10.703  20.266  71.451  1.00  0.00     0.000 HD 
HETATM    3  H2  UNL     1     -11.574  20.264  70.030  1.00  0.00     0.000 HD 
HETATM    4  N   UNL     1      -9.803  19.347  69.807  1.00  0.00    -0.150 NA 
HETATM    5  H   UNL     1      -9.292  18.649  70.346  1.00  0.00     0.000 HD 
ENDROOT
BRANCH   4   6
HETATM    6  C   UNL     1      -9.711  19.406  68.373  1.00  0.00    -0.408 A  
HETATM    7  N   UNL     1     -10.840  19.327  67.621  1.00  0.00    -0.434 NA 
HETATM    8  N   UNL     1     -10.784  19.417  66.260  1.00  0.00    -0.434 NA 
HETATM    9  C   UNL     1      -9.589  19.569  65.664  1.00  0.00     0.235 A  
HETATM   10  C   UNL     1      -8.388  19.615  66.362  1.00  0.00    -0.376 A  
HETATM   11  C   UNL     1      -7.155  19.750  65.699  1.00  0.00    -0.331 A  
HETATM   12  C   UNL     1      -5.959  19.759  66.416  1.00  0.00    -0.175 A  
HETATM   13  C   UNL     1      -5.983  19.631  67.799  1.00  0.00    -0.215 A  
HETATM   14  C   UNL     1      -7.204  19.509  68.468  1.00  0.00    -0.361 A  
HETATM   15  C   UNL     1      -8.437  19.511  67.767  1.00  0.00    -0.352 A  
ENDBRANCH   4   6
TORSDOF 1
ENDMDL
MODEL      143
REMARK 921   NORMALIZED FREE ENERGY PREDICTED BY IDOCK:   -2.99 KCAL/MOL
REMARK 922        TOTAL FREE ENERGY PREDICTED BY IDOCK:   -3.21 KCAL/MOL
REMARK 923 INTER-LIGAND FREE ENERGY PREDICTED BY IDOCK:   -3.15 KCAL/MOL
REMARK 924 INTRA-LIGAND FREE ENERGY PREDICTED BY IDOCK:   -0.06 KCAL/MOL
REMARK 927      BINDING AFFINITY PREDICTED BY RF-SCORE:    0.00 PKD
ROOT
HETATM    1  N   UNL     1      -8.123  20.555  67.417  1.00  0.00    -0.327 NA 
HETATM    2  H1  UNL     1      -7.680  21.473  67.456  1.00  0.00     0.000 HD 
HETATM    3  H2  UNL     1      -8.457  20.296  68.345  1.00  0.00     0.000 HD 
HETATM    4  N   UNL     1      -7.348  19.495  66.876  1.00  0.00    -0.217 NA 
HETATM    5  H   UNL     1      -6.395  19.644  66.544  1.00  0.00     0.000 HD 
ENDROOT
BRANCH   4   6
HETATM    6  C   UNL     1      -7.971  18.201  66.820  1.00  0.00    -0.240 A  
HETATM    7  N   UNL     1      -8.950  17.961  65.907  1.00  0.00    -0.500 NA 
HETATM    8  N   UNL     1      -9.532  16.732  65.810  1.00  0.00    -0.527 NA 
HETATM    9  C   UNL     1      -9.138  15.753  66.643  1.00  0.00    -0.268 A  
HETATM   10  C   UNL     1      -8.175  15.934  67.630  1.00  0.00    -0.164 A  
HETATM   11  C   UNL     1      -7.808  14.891  68.500  1.00  0.00    -0.126 A  
HETATM   12  C   UNL     1      -6.866  15.102  69.505  1.00  0.00    -0.179 A  
HETATM   13  C   UNL     1      -6.283  16.355  69.653  1.00  0.00    -0.210 A  
HETATM   14  C   UNL     1      -6.633  17.394  68.786  1.00  0.00    -0.206 A  
HETATM   15  C   UNL     1      -7.578  17.205  67.745  1.00  0.00    -0.185 A  
ENDBRANCH   4   6
TORSDOF 1
ENDMDL
MODEL      144
REMARK 921   NORMALIZED FREE ENERGY PREDICTED BY IDOCK:   -2.95 KCAL/MOL
REMARK 922        TOTAL FREE ENERGY PREDICTED BY IDOCK:   -3.16 KCAL/MOL
REMARK 923 INTER-LIGAND FREE ENERGY PREDICTED BY IDOCK:   -3.12 KCAL/MOL
REMARK 924 INTRA-LIGAND FREE ENERGY PREDICTED BY IDOCK:   -0.05 KCAL/MOL
REMARK 927      BINDING AFFINITY PREDICTED BY RF-SCORE:    0.00 PKD
ROOT
HETATM    1  N   UNL     1      -9.467   9.378  63.835  1.00  0.00    -0.373 NA 
HETATM    2  H1  UNL     1      -9.265   9.085  62.879  1.00  0.00     0.000 HD 
HETATM    3  H2  UNL     1      -9.086  10.311  63.995  1.00  0.00     0.000 HD 
HETATM    4  N   UNL     1      -9.045   8.506  64.873  1.00  0.00    -0.401 NA 
HETATM    5  H   UNL     1      -8.563   7.630  64.673  1.00  0.00     0.000 HD 
ENDROOT
BRANCH   4   6
HETATM    6  C   UNL     1      -9.329   8.918  66.221  1.00  0.00    -0.219 A  
HETATM    7  N   UNL     1      -8.996  10.172  66.628  1.00  0.00    -0.139 NA 
HETATM    8  N   UNL     1      -9.288  10.599  67.891  1.00  0.00    -0.147 NA 
HETATM    9  C   UNL     1      -9.899   9.757  68.741  1.00  0.00    -0.169 A  
HETATM   10  C   UNL     1     -10.231   8.447  68.412  1.00  0.00    -0.239 A  
HETATM   11  C   UNL     1     -10.847   7.589  69.340  1.00  0.00    -0.161 A  
HETATM   12  C   UNL     1     -11.141   6.268  69.001  1.00  0.00    -0.446 A  
HETATM   13  C   UNL     1     -10.821   5.794  67.734  1.00  0.00    -0.259 A  
HETATM   14  C   UNL     1     -10.220   6.643  66.802  1.00  0.00    -0.263 A  
HETATM   15  C   UNL     1      -9.922   7.995  67.114  1.00  0.00    -0.303 A  
ENDBRANCH   4   6
TORSDOF 1
ENDMDL
MODEL      145
REMARK 921   NORMALIZED FREE ENERGY PREDICTED BY IDOCK:   -2.92 KCAL/MOL
REMARK 922        TOTAL FREE ENERGY PREDICTED BY IDOCK:   -3.13 KCAL/MOL
REMARK 923 INTER-LIGAND FREE ENERGY PREDICTED BY IDOCK:   -3.09 KCAL/MOL
REMARK 924 INTRA-LIGAND FREE ENERGY PREDICTED BY IDOCK:   -0.04 KCAL/MOL
REMARK 927      BINDING AFFINITY PREDICTED BY RF-SCORE:    0.00 PKD
ROOT
HETATM    1  N   UNL     1     -13.186  10.014  72.043  1.00  0.00    -0.454 NA 
HETATM    2  H1  UNL     1     -14.128   9.976  72.433  1.00  0.00     0.000 HD 
HETATM    3  H2  UNL     1     -13.087  10.853  71.471  1.00  0.00     0.000 HD 
HETATM    4  N   UNL     1     -12.753   8.880  71.306  1.00  0.00    -0.449 NA 
HETATM    5  H   UNL     1     -13.354   8.067  71.173  1.00  0.00     0.000 HD 
ENDROOT
BRANCH   4   6
HETATM    6  C   UNL     1     -11.425   8.935  70.757  1.00  0.00    -0.275 A  
HETATM    7  N   UNL     1     -10.987  10.074  70.160  1.00  0.00    -0.288 NA 
HETATM    8  N   UNL     1      -9.720  10.163  69.663  1.00  0.00    -0.234 NA 
HETATM    9  C   UNL     1      -8.906   9.098  69.754  1.00  0.00    -0.160 A  
HETATM   10  C   UNL     1      -9.295   7.885  70.311  1.00  0.00    -0.159 A  
HETATM   11  C   UNL     1      -8.421   6.785  70.366  1.00  0.00    -0.135 A  
HETATM   12  C   UNL     1      -8.842   5.567  70.897  1.00  0.00    -0.148 A  
HETATM   13  C   UNL     1     -10.140   5.435  71.376  1.00  0.00    -0.262 A  
HETATM   14  C   UNL     1     -11.012   6.526  71.338  1.00  0.00    -0.303 A  
HETATM   15  C   UNL     1     -10.607   7.782  70.816  1.00  0.00    -0.220 A  
ENDBRANCH   4   6
TORSDOF 1
ENDMDL
MODEL      146
REMARK 921   NORMALIZED FREE ENERGY PREDICTED BY IDOCK:   -2.91 KCAL/MOL
REMARK 922        TOTAL FREE ENERGY PREDICTED BY IDOCK:   -3.12 KCAL/MOL
REMARK 923 INTER-LIGAND FREE ENERGY PREDICTED BY IDOCK:   -3.06 KCAL/MOL
REMARK 924 INTRA-LIGAND FREE ENERGY PREDICTED BY IDOCK:   -0.06 KCAL/MOL
REMARK 927      BINDING AFFINITY PREDICTED BY RF-SCORE:    0.00 PKD
ROOT
HETATM    1  N   UNL     1      -9.467   5.554  69.762  1.00  0.00    -0.143 NA 
HETATM    2  H1  UNL     1      -9.494   4.698  70.315  1.00  0.00     0.000 HD 
HETATM    3  H2  UNL     1      -8.815   6.214  70.184  1.00  0.00     0.000 HD 
HETATM    4  N   UNL     1     -10.710   6.199  69.523  1.00  0.00    -0.283 NA 
HETATM    5  H   UNL     1     -11.586   5.824  69.887  1.00  0.00     0.000 HD 
ENDROOT
BRANCH   4   6
HETATM    6  C   UNL     1     -10.673   7.406  68.743  1.00  0.00    -0.118 A  
HETATM    7  N   UNL     1     -10.275   7.359  67.444  1.00  0.00    -0.220 NA 
HETATM    8  N   UNL     1     -10.266   8.484  66.673  1.00  0.00    -0.297 NA 
HETATM    9  C   UNL     1     -10.641   9.654  67.218  1.00  0.00    -0.247 A  
HETATM   10  C   UNL     1     -11.019   9.789  68.549  1.00  0.00    -0.195 A  
HETATM   11  C   UNL     1     -11.382  11.036  69.088  1.00  0.00    -0.348 A  
HETATM   12  C   UNL     1     -11.725  11.157  70.434  1.00  0.00    -0.415 A  
HETATM   13  C   UNL     1     -11.706  10.034  71.254  1.00  0.00    -0.452 A  
HETATM   14  C   UNL     1     -11.360   8.789  70.724  1.00  0.00    -0.313 A  
HETATM   15  C   UNL     1     -11.020   8.633  69.355  1.00  0.00    -0.034 A  
ENDBRANCH   4   6
TORSDOF 1
ENDMDL
MODEL      147
REMARK 921   NORMALIZED FREE ENERGY PREDICTED BY IDOCK:   -2.91 KCAL/MOL
REMARK 922        TOTAL FREE ENERGY PREDICTED BY IDOCK:   -3.12 KCAL/MOL
REMARK 923 INTER-LIGAND FREE ENERGY PREDICTED BY IDOCK:   -3.07 KCAL/MOL
REMARK 924 INTRA-LIGAND FREE ENERGY PREDICTED BY IDOCK:   -0.04 KCAL/MOL
REMARK 927      BINDING AFFINITY PREDICTED BY RF-SCORE:    0.00 PKD
ROOT
HETATM    1  N   UNL     1      -9.958  13.193  68.869  1.00  0.00    -0.434 NA 
HETATM    2  H1  UNL     1     -10.367  13.746  69.623  1.00  0.00     0.000 HD 
HETATM    3  H2  UNL     1      -9.273  13.756  68.365  1.00  0.00     0.000 HD 
HETATM    4  N   UNL     1     -10.862  12.603  67.947  1.00  0.00    -0.213 NA 
HETATM    5  H   UNL     1     -11.870  12.726  68.033  1.00  0.00     0.000 HD 
ENDROOT
BRANCH   4   6
HETATM    6  C   UNL     1     -10.286  11.823  66.885  1.00  0.00    -0.209 A  
HETATM    7  N   UNL     1      -9.213  11.027  67.137  1.00  0.00    -0.152 NA 
HETATM    8  N   UNL     1      -8.670  10.251  66.155  1.00  0.00    -0.148 NA 
HETATM    9  C   UNL     1      -9.201  10.292  64.921  1.00  0.00    -0.227 A  
HETATM   10  C   UNL     1     -10.269  11.112  64.576  1.00  0.00    -0.383 A  
HETATM   11  C   UNL     1     -10.779  11.145  63.266  1.00  0.00    -0.199 A  
HETATM   12  C   UNL     1     -11.829  12.000  62.933  1.00  0.00     0.178 A  
HETATM   13  C   UNL     1     -12.376  12.831  63.903  1.00  0.00    -0.510 A  
HETATM   14  C   UNL     1     -11.884  12.796  65.210  1.00  0.00    -0.442 A  
HETATM   15  C   UNL     1     -10.827  11.926  65.582  1.00  0.00    -0.333 A  
ENDBRANCH   4   6
TORSDOF 1
ENDMDL
MODEL      148
REMARK 921   NORMALIZED FREE ENERGY PREDICTED BY IDOCK:   -2.89 KCAL/MOL
REMARK 922        TOTAL FREE ENERGY PREDICTED BY IDOCK:   -3.10 KCAL/MOL
REMARK 923 INTER-LIGAND FREE ENERGY PREDICTED BY IDOCK:   -3.07 KCAL/MOL
REMARK 924 INTRA-LIGAND FREE ENERGY PREDICTED BY IDOCK:   -0.03 KCAL/MOL
REMARK 927      BINDING AFFINITY PREDICTED BY RF-SCORE:    0.00 PKD
ROOT
HETATM    1  N   UNL     1      -6.217  15.459  67.290  1.00  0.00    -0.314 NA 
HETATM    2  H1  UNL     1      -5.300  15.086  67.539  1.00  0.00     0.000 HD 
HETATM    3  H2  UNL     1      -6.249  15.646  66.287  1.00  0.00     0.000 HD 
HETATM    4  N   UNL     1      -6.654  16.608  68.002  1.00  0.00    -0.132 NA 
HETATM    5  H   UNL     1      -6.080  17.038  68.727  1.00  0.00     0.000 HD 
ENDROOT
BRANCH   4   6
HETATM    6  C   UNL     1      -7.945  17.134  67.651  1.00  0.00    -0.178 A  
HETATM    7  N   UNL     1      -8.044  18.111  66.712  1.00  0.00    -0.238 NA 
HETATM    8  N   UNL     1      -9.260  18.602  66.336  1.00  0.00    -0.372 NA 
HETATM    9  C   UNL     1     -10.370  18.117  66.919  1.00  0.00    -0.375 A  
HETATM   10  C   UNL     1     -10.346  17.149  67.917  1.00  0.00    -0.350 A  
HETATM   11  C   UNL     1     -11.529  16.685  68.521  1.00  0.00    -0.043 A  
HETATM   12  C   UNL     1     -11.482  15.738  69.543  1.00  0.00    -0.356 A  
HETATM   13  C   UNL     1     -10.254  15.249  69.974  1.00  0.00    -0.216 A  
HETATM   14  C   UNL     1      -9.075  15.694  69.372  1.00  0.00    -0.278 A  
HETATM   15  C   UNL     1      -9.093  16.646  68.319  1.00  0.00    -0.218 A  
ENDBRANCH   4   6
TORSDOF 1
ENDMDL
MODEL      149
REMARK 921   NORMALIZED FREE ENERGY PREDICTED BY IDOCK:   -2.88 KCAL/MOL
REMARK 922        TOTAL FREE ENERGY PREDICTED BY IDOCK:   -3.09 KCAL/MOL
REMARK 923 INTER-LIGAND FREE ENERGY PREDICTED BY IDOCK:   -3.05 KCAL/MOL
REMARK 924 INTRA-LIGAND FREE ENERGY PREDICTED BY IDOCK:   -0.04 KCAL/MOL
REMARK 927      BINDING AFFINITY PREDICTED BY RF-SCORE:    0.00 PKD
ROOT
HETATM    1  N   UNL     1     -11.266  16.473  67.958  1.00  0.00    -0.271 NA 
HETATM    2  H1  UNL     1     -12.270  16.639  68.024  1.00  0.00     0.000 HD 
HETATM    3  H2  UNL     1     -10.912  16.154  68.859  1.00  0.00     0.000 HD 
HETATM    4  N   UNL     1     -10.470  17.553  67.489  1.00  0.00    -0.355 NA 
HETATM    5  H   UNL     1     -10.883  18.449  67.232  1.00  0.00     0.000 HD 
ENDROOT
BRANCH   4   6
HETATM    6  C   UNL     1      -9.055  17.320  67.396  1.00  0.00    -0.226 A  
HETATM    7  N   UNL     1      -8.580  16.046  67.368  1.00  0.00    -0.173 NA 
HETATM    8  N   UNL     1      -7.244  15.799  67.244  1.00  0.00    -0.205 NA 
HETATM    9  C   UNL     1      -6.392  16.835  67.165  1.00  0.00    -0.188 A  
HETATM   10  C   UNL     1      -6.797  18.163  67.230  1.00  0.00    -0.206 A  
HETATM   11  C   UNL     1      -5.870  19.220  67.169  1.00  0.00    -0.174 A  
HETATM   12  C   UNL     1      -6.294  20.544  67.270  1.00  0.00    -0.281 A  
HETATM   13  C   UNL     1      -7.645  20.825  67.436  1.00  0.00    -0.349 A  
HETATM   14  C   UNL     1      -8.574  19.783  67.485  1.00  0.00    -0.377 A  
HETATM   15  C   UNL     1      -8.174  18.427  67.370  1.00  0.00    -0.248 A  
ENDBRANCH   4   6
TORSDOF 1
ENDMDL
MODEL      150
REMARK 921   NORMALIZED FREE ENERGY PREDICTED BY IDOCK:   -2.88 KCAL/MOL
REMARK 922        TOTAL FREE ENERGY PREDICTED BY IDOCK:   -3.09 KCAL/MOL
REMARK 923 INTER-LIGAND FREE ENERGY PREDICTED BY IDOCK:   -3.03 KCAL/MOL
REMARK 924 INTRA-LIGAND FREE ENERGY PREDICTED BY IDOCK:   -0.06 KCAL/MOL
REMARK 927      BINDING AFFINITY PREDICTED BY RF-SCORE:    0.00 PKD
ROOT
HETATM    1  N   UNL     1      -6.680  18.724  69.329  1.00  0.00    -0.283 NA 
HETATM    2  H1  UNL     1      -6.365  19.419  70.006  1.00  0.00     0.000 HD 
HETATM    3  H2  UNL     1      -5.996  18.643  68.577  1.00  0.00     0.000 HD 
HETATM    4  N   UNL     1      -7.975  18.912  68.777  1.00  0.00    -0.335 NA 
HETATM    5  H   UNL     1      -8.561  19.704  69.044  1.00  0.00     0.000 HD 
ENDROOT
BRANCH   4   6
HETATM    6  C   UNL     1      -8.421  17.933  67.824  1.00  0.00    -0.242 A  
HETATM    7  N   UNL     1      -8.028  18.025  66.526  1.00  0.00    -0.251 NA 
HETATM    8  N   UNL     1      -8.407  17.088  65.610  1.00  0.00    -0.276 NA 
HETATM    9  C   UNL     1      -9.195  16.072  66.002  1.00  0.00    -0.340 A  
HETATM   10  C   UNL     1      -9.673  15.934  67.301  1.00  0.00    -0.224 A  
HETATM   11  C   UNL     1     -10.516  14.869  67.665  1.00  0.00    -0.249 A  
HETATM   12  C   UNL     1     -11.012  14.767  68.964  1.00  0.00    -0.257 A  
HETATM   13  C   UNL     1     -10.673  15.728  69.909  1.00  0.00    -0.332 A  
HETATM   14  C   UNL     1      -9.826  16.783  69.559  1.00  0.00     0.004 A  
HETATM   15  C   UNL     1      -9.295  16.904  68.250  1.00  0.00    -0.248 A  
ENDBRANCH   4   6
TORSDOF 1
ENDMDL
MODEL      151
REMARK 921   NORMALIZED FREE ENERGY PREDICTED BY IDOCK:   -2.88 KCAL/MOL
REMARK 922        TOTAL FREE ENERGY PREDICTED BY IDOCK:   -3.08 KCAL/MOL
REMARK 923 INTER-LIGAND FREE ENERGY PREDICTED BY IDOCK:   -3.03 KCAL/MOL
REMARK 924 INTRA-LIGAND FREE ENERGY PREDICTED BY IDOCK:   -0.05 KCAL/MOL
REMARK 927      BINDING AFFINITY PREDICTED BY RF-SCORE:    0.00 PKD
ROOT
HETATM    1  N   UNL     1     -10.042  19.295  69.295  1.00  0.00    -0.538 NA 
HETATM    2  H1  UNL     1     -10.547  19.515  70.154  1.00  0.00     0.000 HD 
HETATM    3  H2  UNL     1     -10.053  18.287  69.141  1.00  0.00     0.000 HD 
HETATM    4  N   UNL     1      -8.710  19.779  69.197  1.00  0.00    -0.075 NA 
HETATM    5  H   UNL     1      -8.280  20.319  69.947  1.00  0.00     0.000 HD 
ENDROOT
BRANCH   4   6
HETATM    6  C   UNL     1      -7.998  19.469  67.987  1.00  0.00    -0.307 A  
HETATM    7  N   UNL     1      -8.229  20.196  66.862  1.00  0.00    -0.315 NA 
HETATM    8  N   UNL     1      -7.540  19.946  65.711  1.00  0.00    -0.334 NA 
HETATM    9  C   UNL     1      -6.634  18.953  65.694  1.00  0.00    -0.268 A  
HETATM   10  C   UNL     1      -6.374  18.139  66.791  1.00  0.00    -0.211 A  
HETATM   11  C   UNL     1      -5.435  17.094  66.725  1.00  0.00    -0.211 A  
HETATM   12  C   UNL     1      -5.213  16.267  67.826  1.00  0.00    -0.142 A  
HETATM   13  C   UNL     1      -5.928  16.474  68.999  1.00  0.00    -0.150 A  
HETATM   14  C   UNL     1      -6.854  17.518  69.078  1.00  0.00    -0.242 A  
HETATM   15  C   UNL     1      -7.090  18.384  67.980  1.00  0.00    -0.237 A  
ENDBRANCH   4   6
TORSDOF 1
ENDMDL
MODEL      152
REMARK 921   NORMALIZED FREE ENERGY PREDICTED BY IDOCK:   -2.84 KCAL/MOL
REMARK 922        TOTAL FREE ENERGY PREDICTED BY IDOCK:   -3.05 KCAL/MOL
REMARK 923 INTER-LIGAND FREE ENERGY PREDICTED BY IDOCK:   -2.99 KCAL/MOL
REMARK 924 INTRA-LIGAND FREE ENERGY PREDICTED BY IDOCK:   -0.06 KCAL/MOL
REMARK 927      BINDING AFFINITY PREDICTED BY RF-SCORE:    0.00 PKD
ROOT
HETATM    1  N   UNL     1      -6.962   8.697  68.997  1.00  0.00    -0.063 NA 
HETATM    2  H1  UNL     1      -5.987   8.771  68.705  1.00  0.00     0.000 HD 
HETATM    3  H2  UNL     1      -7.571   8.826  68.190  1.00  0.00     0.000 HD 
HETATM    4  N   UNL     1      -7.379   9.552  70.052  1.00  0.00    -0.098 NA 
HETATM    5  H   UNL     1      -6.736  10.208  70.495  1.00  0.00     0.000 HD 
ENDROOT
BRANCH   4   6
HETATM    6  C   UNL     1      -8.752   9.448  70.464  1.00  0.00    -0.231 A  
HETATM    7  N   UNL     1      -9.725  10.052  69.731  1.00  0.00    -0.234 NA 
HETATM    8  N   UNL     1     -11.039   9.938  70.081  1.00  0.00    -0.276 NA 
HETATM    9  C   UNL     1     -11.365   9.231  71.176  1.00  0.00    -0.342 A  
HETATM   10  C   UNL     1     -10.424   8.622  72.000  1.00  0.00    -0.422 A  
HETATM   11  C   UNL     1     -10.805   7.911  73.152  1.00  0.00    -0.318 A  
HETATM   12  C   UNL     1      -9.844   7.337  73.983  1.00  0.00    -0.264 A  
HETATM   13  C   UNL     1      -8.496   7.469  73.672  1.00  0.00    -0.229 A  
HETATM   14  C   UNL     1      -8.109   8.162  72.523  1.00  0.00    -0.204 A  
HETATM   15  C   UNL     1      -9.064   8.745  71.651  1.00  0.00    -0.314 A  
ENDBRANCH   4   6
TORSDOF 1
ENDMDL
MODEL      153
REMARK 921   NORMALIZED FREE ENERGY PREDICTED BY IDOCK:   -2.84 KCAL/MOL
REMARK 922        TOTAL FREE ENERGY PREDICTED BY IDOCK:   -3.04 KCAL/MOL
REMARK 923 INTER-LIGAND FREE ENERGY PREDICTED BY IDOCK:   -3.00 KCAL/MOL
REMARK 924 INTRA-LIGAND FREE ENERGY PREDICTED BY IDOCK:   -0.04 KCAL/MOL
REMARK 927      BINDING AFFINITY PREDICTED BY RF-SCORE:    0.00 PKD
ROOT
HETATM    1  N   UNL     1      -5.689  20.774  69.315  1.00  0.00    -0.367 NA 
HETATM    2  H1  UNL     1      -4.782  21.081  69.666  1.00  0.00     0.000 HD 
HETATM    3  H2  UNL     1      -6.432  21.277  69.800  1.00  0.00     0.000 HD 
HETATM    4  N   UNL     1      -5.951  19.379  69.360  1.00  0.00    -0.251 NA 
HETATM    5  H   UNL     1      -5.267  18.717  69.725  1.00  0.00     0.000 HD 
ENDROOT
BRANCH   4   6
HETATM    6  C   UNL     1      -7.230  18.945  68.865  1.00  0.00    -0.316 A  
HETATM    7  N   UNL     1      -8.301  19.777  68.941  1.00  0.00    -0.198 NA 
HETATM    8  N   UNL     1      -9.517  19.403  68.446  1.00  0.00    -0.355 NA 
HETATM    9  C   UNL     1      -9.650  18.186  67.892  1.00  0.00    -0.288 A  
HETATM   10  C   UNL     1      -8.613  17.264  67.817  1.00  0.00    -0.225 A  
HETATM   11  C   UNL     1      -8.800  15.990  67.251  1.00  0.00    -0.207 A  
HETATM   12  C   UNL     1      -7.755  15.067  67.217  1.00  0.00    -0.233 A  
HETATM   13  C   UNL     1      -6.517  15.406  67.748  1.00  0.00    -0.183 A  
HETATM   14  C   UNL     1      -6.318  16.674  68.300  1.00  0.00    -0.136 A  
HETATM   15  C   UNL     1      -7.357  17.638  68.337  1.00  0.00    -0.243 A  
ENDBRANCH   4   6
TORSDOF 1
ENDMDL
MODEL      154
REMARK 921   NORMALIZED FREE ENERGY PREDICTED BY IDOCK:   -2.82 KCAL/MOL
REMARK 922        TOTAL FREE ENERGY PREDICTED BY IDOCK:   -3.02 KCAL/MOL
REMARK 923 INTER-LIGAND FREE ENERGY PREDICTED BY IDOCK:   -2.98 KCAL/MOL
REMARK 924 INTRA-LIGAND FREE ENERGY PREDICTED BY IDOCK:   -0.04 KCAL/MOL
REMARK 927      BINDING AFFINITY PREDICTED BY RF-SCORE:    0.00 PKD
ROOT
HETATM    1  N   UNL     1     -10.958   5.321  66.560  1.00  0.00    -0.521 NA 
HETATM    2  H1  UNL     1     -11.230   5.410  65.581  1.00  0.00     0.000 HD 
HETATM    3  H2  UNL     1     -11.360   4.469  66.951  1.00  0.00     0.000 HD 
HETATM    4  N   UNL     1     -11.254   6.421  67.408  1.00  0.00    -0.675 NA 
HETATM    5  H   UNL     1     -11.717   7.258  67.056  1.00  0.00     0.000 HD 
ENDROOT
BRANCH   4   6
HETATM    6  C   UNL     1     -10.870   6.296  68.788  1.00  0.00    -0.333 A  
HETATM    7  N   UNL     1     -10.745   5.062  69.345  1.00  0.00     0.076 NA 
HETATM    8  N   UNL     1     -10.347   4.915  70.642  1.00  0.00    -0.205 NA 
HETATM    9  C   UNL     1     -10.092   6.012  71.376  1.00  0.00    -0.193 A  
HETATM   10  C   UNL     1     -10.239   7.307  70.889  1.00  0.00    -0.203 A  
HETATM   11  C   UNL     1      -9.987   8.430  71.698  1.00  0.00    -0.302 A  
HETATM   12  C   UNL     1     -10.173   9.719  71.202  1.00  0.00    -0.007 A  
HETATM   13  C   UNL     1     -10.615   9.899  69.896  1.00  0.00    -0.312 A  
HETATM   14  C   UNL     1     -10.856   8.790  69.082  1.00  0.00    -0.074 A  
HETATM   15  C   UNL     1     -10.662   7.466  69.554  1.00  0.00    -0.233 A  
ENDBRANCH   4   6
TORSDOF 1
ENDMDL
MODEL      155
REMARK 921   NORMALIZED FREE ENERGY PREDICTED BY IDOCK:   -2.81 KCAL/MOL
REMARK 922        TOTAL FREE ENERGY PREDICTED BY IDOCK:   -3.01 KCAL/MOL
REMARK 923 INTER-LIGAND FREE ENERGY PREDICTED BY IDOCK:   -2.96 KCAL/MOL
REMARK 924 INTRA-LIGAND FREE ENERGY PREDICTED BY IDOCK:   -0.06 KCAL/MOL
REMARK 927      BINDING AFFINITY PREDICTED BY RF-SCORE:    0.00 PKD
ROOT
HETATM    1  N   UNL     1     -10.189  10.275  69.118  1.00  0.00    -0.205 NA 
HETATM    2  H1  UNL     1      -9.658  10.819  68.438  1.00  0.00     0.000 HD 
HETATM    3  H2  UNL     1     -10.348  10.835  69.955  1.00  0.00     0.000 HD 
HETATM    4  N   UNL     1      -9.651   9.013  69.485  1.00  0.00    -0.162 NA 
HETATM    5  H   UNL     1      -8.778   8.667  69.088  1.00  0.00     0.000 HD 
ENDROOT
BRANCH   4   6
HETATM    6  C   UNL     1     -10.399   8.245  70.443  1.00  0.00    -0.205 A  
HETATM    7  N   UNL     1     -11.644   7.798  70.128  1.00  0.00    -0.048 NA 
HETATM    8  N   UNL     1     -12.359   7.038  71.006  1.00  0.00    -0.377 NA 
HETATM    9  C   UNL     1     -11.824   6.745  72.204  1.00  0.00    -0.290 A  
HETATM   10  C   UNL     1     -10.576   7.201  72.615  1.00  0.00    -0.290 A  
HETATM   11  C   UNL     1     -10.062   6.893  73.887  1.00  0.00    -0.391 A  
HETATM   12  C   UNL     1      -8.824   7.388  74.293  1.00  0.00    -0.252 A  
HETATM   13  C   UNL     1      -8.090   8.197  73.433  1.00  0.00    -0.253 A  
HETATM   14  C   UNL     1      -8.587   8.498  72.163  1.00  0.00    -0.242 A  
HETATM   15  C   UNL     1      -9.837   7.997  71.717  1.00  0.00    -0.240 A  
ENDBRANCH   4   6
TORSDOF 1
ENDMDL
MODEL      156
REMARK 921   NORMALIZED FREE ENERGY PREDICTED BY IDOCK:   -2.78 KCAL/MOL
REMARK 922        TOTAL FREE ENERGY PREDICTED BY IDOCK:   -2.99 KCAL/MOL
REMARK 923 INTER-LIGAND FREE ENERGY PREDICTED BY IDOCK:   -2.93 KCAL/MOL
REMARK 924 INTRA-LIGAND FREE ENERGY PREDICTED BY IDOCK:   -0.06 KCAL/MOL
REMARK 927      BINDING AFFINITY PREDICTED BY RF-SCORE:    0.00 PKD
ROOT
HETATM    1  N   UNL     1      -5.527  19.680  69.150  1.00  0.00    -0.196 NA 
HETATM    2  H1  UNL     1      -5.314  20.441  69.796  1.00  0.00     0.000 HD 
HETATM    3  H2  UNL     1      -5.768  20.064  68.237  1.00  0.00     0.000 HD 
HETATM    4  N   UNL     1      -6.528  18.759  69.558  1.00  0.00    -0.256 NA 
HETATM    5  H   UNL     1      -7.010  18.853  70.452  1.00  0.00     0.000 HD 
ENDROOT
BRANCH   4   6
HETATM    6  C   UNL     1      -6.828  17.686  68.650  1.00  0.00    -0.229 A  
HETATM    7  N   UNL     1      -5.879  16.754  68.368  1.00  0.00    -0.123 NA 
HETATM    8  N   UNL     1      -6.151  15.706  67.537  1.00  0.00    -0.248 NA 
HETATM    9  C   UNL     1      -7.371  15.612  66.981  1.00  0.00    -0.168 A  
HETATM   10  C   UNL     1      -8.378  16.549  67.186  1.00  0.00    -0.206 A  
HETATM   11  C   UNL     1      -9.634  16.427  66.565  1.00  0.00    -0.291 A  
HETATM   12  C   UNL     1     -10.619  17.395  66.757  1.00  0.00    -0.194 A  
HETATM   13  C   UNL     1     -10.357  18.493  67.568  1.00  0.00    -0.440 A  
HETATM   14  C   UNL     1      -9.117  18.616  68.199  1.00  0.00    -0.337 A  
HETATM   15  C   UNL     1      -8.101  17.640  68.034  1.00  0.00    -0.243 A  
ENDBRANCH   4   6
TORSDOF 1
ENDMDL
MODEL      157
REMARK 921   NORMALIZED FREE ENERGY PREDICTED BY IDOCK:   -2.78 KCAL/MOL
REMARK 922        TOTAL FREE ENERGY PREDICTED BY IDOCK:   -2.98 KCAL/MOL
REMARK 923 INTER-LIGAND FREE ENERGY PREDICTED BY IDOCK:   -2.93 KCAL/MOL
REMARK 924 INTRA-LIGAND FREE ENERGY PREDICTED BY IDOCK:   -0.05 KCAL/MOL
REMARK 927      BINDING AFFINITY PREDICTED BY RF-SCORE:    0.00 PKD
ROOT
HETATM    1  N   UNL     1     -10.191   8.557  65.995  1.00  0.00    -0.327 NA 
HETATM    2  H1  UNL     1      -9.955   7.620  65.666  1.00  0.00     0.000 HD 
HETATM    3  H2  UNL     1     -11.186   8.601  66.217  1.00  0.00     0.000 HD 
HETATM    4  N   UNL     1      -9.845   9.639  65.143  1.00  0.00    -0.435 NA 
HETATM    5  H   UNL     1      -9.383   9.487  64.246  1.00  0.00     0.000 HD 
ENDROOT
BRANCH   4   6
HETATM    6  C   UNL     1     -10.177  10.959  65.606  1.00  0.00    -0.263 A  
HETATM    7  N   UNL     1     -11.393  11.491  65.314  1.00  0.00    -0.150 NA 
HETATM    8  N   UNL     1     -11.745  12.727  65.773  1.00  0.00    -0.379 NA 
HETATM    9  C   UNL     1     -10.865  13.427  66.509  1.00  0.00    -0.282 A  
HETATM   10  C   UNL     1      -9.588  12.968  66.812  1.00  0.00    -0.248 A  
HETATM   11  C   UNL     1      -8.687  13.742  67.565  1.00  0.00    -0.194 A  
HETATM   12  C   UNL     1      -7.399  13.278  67.829  1.00  0.00    -0.147 A  
HETATM   13  C   UNL     1      -6.999  12.040  67.342  1.00  0.00    -0.139 A  
HETATM   14  C   UNL     1      -7.891  11.258  66.604  1.00  0.00    -0.152 A  
HETATM   15  C   UNL     1      -9.212  11.698  66.332  1.00  0.00    -0.219 A  
ENDBRANCH   4   6
TORSDOF 1
ENDMDL
MODEL      158
REMARK 921   NORMALIZED FREE ENERGY PREDICTED BY IDOCK:   -2.77 KCAL/MOL
REMARK 922        TOTAL FREE ENERGY PREDICTED BY IDOCK:   -2.98 KCAL/MOL
REMARK 923 INTER-LIGAND FREE ENERGY PREDICTED BY IDOCK:   -2.94 KCAL/MOL
REMARK 924 INTRA-LIGAND FREE ENERGY PREDICTED BY IDOCK:   -0.04 KCAL/MOL
REMARK 927      BINDING AFFINITY PREDICTED BY RF-SCORE:    0.00 PKD
ROOT
HETATM    1  N   UNL     1     -13.269  14.456  70.276  1.00  0.00    -0.404 NA 
HETATM    2  H1  UNL     1     -13.909  13.761  70.662  1.00  0.00     0.000 HD 
HETATM    3  H2  UNL     1     -13.688  14.883  69.450  1.00  0.00     0.000 HD 
HETATM    4  N   UNL     1     -11.955  14.014  69.970  1.00  0.00    -0.318 NA 
HETATM    5  H   UNL     1     -11.664  13.050  70.129  1.00  0.00     0.000 HD 
ENDROOT
BRANCH   4   6
HETATM    6  C   UNL     1     -11.053  14.993  69.426  1.00  0.00    -0.278 A  
HETATM    7  N   UNL     1     -11.330  16.317  69.566  1.00  0.00    -0.306 NA 
HETATM    8  N   UNL     1     -10.473  17.266  69.090  1.00  0.00    -0.318 NA 
HETATM    9  C   UNL     1      -9.350  16.877  68.462  1.00  0.00    -0.259 A  
HETATM   10  C   UNL     1      -9.020  15.544  68.243  1.00  0.00    -0.185 A  
HETATM   11  C   UNL     1      -7.848  15.178  67.558  1.00  0.00    -0.203 A  
HETATM   12  C   UNL     1      -7.553  13.837  67.319  1.00  0.00    -0.075 A  
HETATM   13  C   UNL     1      -8.427  12.849  67.758  1.00  0.00    -0.185 A  
HETATM   14  C   UNL     1      -9.588  13.202  68.450  1.00  0.00    -0.186 A  
HETATM   15  C   UNL     1      -9.907  14.558  68.721  1.00  0.00    -0.220 A  
ENDBRANCH   4   6
TORSDOF 1
ENDMDL
MODEL      159
REMARK 921   NORMALIZED FREE ENERGY PREDICTED BY IDOCK:   -2.76 KCAL/MOL
REMARK 922        TOTAL FREE ENERGY PREDICTED BY IDOCK:   -2.96 KCAL/MOL
REMARK 923 INTER-LIGAND FREE ENERGY PREDICTED BY IDOCK:   -2.91 KCAL/MOL
REMARK 924 INTRA-LIGAND FREE ENERGY PREDICTED BY IDOCK:   -0.05 KCAL/MOL
REMARK 927      BINDING AFFINITY PREDICTED BY RF-SCORE:    0.00 PKD
ROOT
HETATM    1  N   UNL     1     -11.690   8.246  70.362  1.00  0.00    -0.473 NA 
HETATM    2  H1  UNL     1     -12.196   8.598  71.174  1.00  0.00     0.000 HD 
HETATM    3  H2  UNL     1     -11.981   8.758  69.529  1.00  0.00     0.000 HD 
HETATM    4  N   UNL     1     -11.771   6.850  70.114  1.00  0.00    -0.570 NA 
HETATM    5  H   UNL     1     -12.309   6.229  70.719  1.00  0.00     0.000 HD 
ENDROOT
BRANCH   4   6
HETATM    6  C   UNL     1     -11.057   6.353  68.970  1.00  0.00    -0.358 A  
HETATM    7  N   UNL     1     -11.375   6.804  67.727  1.00  0.00    -0.093 NA 
HETATM    8  N   UNL     1     -10.689   6.375  66.629  1.00  0.00    -0.242 NA 
HETATM    9  C   UNL     1      -9.696   5.483  66.785  1.00  0.00    -0.155 A  
HETATM   10  C   UNL     1      -9.342   4.943  68.016  1.00  0.00    -0.160 A  
HETATM   11  C   UNL     1      -8.313   3.992  68.135  1.00  0.00    -0.100 A  
HETATM   12  C   UNL     1      -7.996   3.438  69.374  1.00  0.00    -0.057 A  
HETATM   13  C   UNL     1      -8.703   3.827  70.505  1.00  0.00    -0.122 A  
HETATM   14  C   UNL     1      -9.718   4.781  70.399  1.00  0.00    -0.289 A  
HETATM   15  C   UNL     1     -10.054   5.372  69.154  1.00  0.00    -0.293 A  
ENDBRANCH   4   6
TORSDOF 1
ENDMDL
MODEL      160
REMARK 921   NORMALIZED FREE ENERGY PREDICTED BY IDOCK:   -2.73 KCAL/MOL
REMARK 922        TOTAL FREE ENERGY PREDICTED BY IDOCK:   -2.93 KCAL/MOL
REMARK 923 INTER-LIGAND FREE ENERGY PREDICTED BY IDOCK:   -2.89 KCAL/MOL
REMARK 924 INTRA-LIGAND FREE ENERGY PREDICTED BY IDOCK:   -0.04 KCAL/MOL
REMARK 927      BINDING AFFINITY PREDICTED BY RF-SCORE:    0.00 PKD
ROOT
HETATM    1  N   UNL     1     -12.193  11.309  68.637  1.00  0.00    -0.607 NA 
HETATM    2  H1  UNL     1     -13.206  11.326  68.755  1.00  0.00     0.000 HD 
HETATM    3  H2  UNL     1     -11.913  12.044  67.988  1.00  0.00     0.000 HD 
HETATM    4  N   UNL     1     -11.618  10.074  68.235  1.00  0.00    -0.632 NA 
HETATM    5  H   UNL     1     -12.189   9.245  68.074  1.00  0.00     0.000 HD 
ENDROOT
BRANCH   4   6
HETATM    6  C   UNL     1     -10.190  10.050  68.068  1.00  0.00    -0.181 A  
HETATM    7  N   UNL     1      -9.454  11.148  68.383  1.00  0.00    -0.182 NA 
HETATM    8  N   UNL     1      -8.095  11.139  68.267  1.00  0.00    -0.124 NA 
HETATM    9  C   UNL     1      -7.485  10.028  67.819  1.00  0.00    -0.089 A  
HETATM   10  C   UNL     1      -8.172   8.881  67.437  1.00  0.00    -0.108 A  
HETATM   11  C   UNL     1      -7.498   7.747  66.949  1.00  0.00    -0.094 A  
HETATM   12  C   UNL     1      -8.208   6.620  66.539  1.00  0.00    -0.114 A  
HETATM   13  C   UNL     1      -9.596   6.615  66.609  1.00  0.00    -0.207 A  
HETATM   14  C   UNL     1     -10.273   7.732  67.104  1.00  0.00    -0.365 A  
HETATM   15  C   UNL     1      -9.577   8.888  67.542  1.00  0.00    -0.183 A  
ENDBRANCH   4   6
TORSDOF 1
ENDMDL
MODEL      161
REMARK 921   NORMALIZED FREE ENERGY PREDICTED BY IDOCK:   -2.72 KCAL/MOL
REMARK 922        TOTAL FREE ENERGY PREDICTED BY IDOCK:   -2.92 KCAL/MOL
REMARK 923 INTER-LIGAND FREE ENERGY PREDICTED BY IDOCK:   -2.86 KCAL/MOL
REMARK 924 INTRA-LIGAND FREE ENERGY PREDICTED BY IDOCK:   -0.06 KCAL/MOL
REMARK 927      BINDING AFFINITY PREDICTED BY RF-SCORE:    0.00 PKD
ROOT
HETATM    1  N   UNL     1     -13.518   7.197  70.923  1.00  0.00    -0.497 NA 
HETATM    2  H1  UNL     1     -14.324   7.290  71.542  1.00  0.00     0.000 HD 
HETATM    3  H2  UNL     1     -13.439   6.230  70.609  1.00  0.00     0.000 HD 
HETATM    4  N   UNL     1     -12.268   7.638  71.432  1.00  0.00    -0.316 NA 
HETATM    5  H   UNL     1     -12.179   8.027  72.370  1.00  0.00     0.000 HD 
ENDROOT
BRANCH   4   6
HETATM    6  C   UNL     1     -11.132   7.507  70.560  1.00  0.00    -0.259 A  
HETATM    7  N   UNL     1     -10.539   6.295  70.401  1.00  0.00    -0.234 NA 
HETATM    8  N   UNL     1      -9.482   6.138  69.551  1.00  0.00    -0.139 NA 
HETATM    9  C   UNL     1      -9.019   7.205  68.879  1.00  0.00    -0.129 A  
HETATM   10  C   UNL     1      -9.545   8.484  69.022  1.00  0.00    -0.167 A  
HETATM   11  C   UNL     1      -9.015   9.581  68.320  1.00  0.00    -0.124 A  
HETATM   12  C   UNL     1      -9.535  10.862  68.503  1.00  0.00    -0.185 A  
HETATM   13  C   UNL     1     -10.586  11.059  69.391  1.00  0.00    -0.212 A  
HETATM   14  C   UNL     1     -11.128   9.973  70.084  1.00  0.00    -0.371 A  
HETATM   15  C   UNL     1     -10.629   8.657  69.907  1.00  0.00    -0.227 A  
ENDBRANCH   4   6
TORSDOF 1
ENDMDL
MODEL      162
REMARK 921   NORMALIZED FREE ENERGY PREDICTED BY IDOCK:   -2.71 KCAL/MOL
REMARK 922        TOTAL FREE ENERGY PREDICTED BY IDOCK:   -2.91 KCAL/MOL
REMARK 923 INTER-LIGAND FREE ENERGY PREDICTED BY IDOCK:   -2.87 KCAL/MOL
REMARK 924 INTRA-LIGAND FREE ENERGY PREDICTED BY IDOCK:   -0.04 KCAL/MOL
REMARK 927      BINDING AFFINITY PREDICTED BY RF-SCORE:    0.00 PKD
ROOT
HETATM    1  N   UNL     1     -10.145  14.489  64.800  1.00  0.00    -0.552 NA 
HETATM    2  H1  UNL     1     -10.250  14.875  63.862  1.00  0.00     0.000 HD 
HETATM    3  H2  UNL     1      -9.544  15.097  65.355  1.00  0.00     0.000 HD 
HETATM    4  N   UNL     1      -9.682  13.149  64.890  1.00  0.00    -0.541 NA 
HETATM    5  H   UNL     1      -9.465  12.601  64.058  1.00  0.00     0.000 HD 
ENDROOT
BRANCH   4   6
HETATM    6  C   UNL     1      -9.535  12.604  66.212  1.00  0.00    -0.207 A  
HETATM    7  N   UNL     1      -9.308  13.434  67.264  1.00  0.00    -0.224 NA 
HETATM    8  N   UNL     1      -9.201  12.945  68.533  1.00  0.00    -0.122 NA 
HETATM    9  C   UNL     1      -9.305  11.620  68.734  1.00  0.00    -0.046 A  
HETATM   10  C   UNL     1      -9.494  10.704  67.705  1.00  0.00    -0.167 A  
HETATM   11  C   UNL     1      -9.573   9.323  67.954  1.00  0.00    -0.163 A  
HETATM   12  C   UNL     1      -9.728   8.418  66.904  1.00  0.00    -0.292 A  
HETATM   13  C   UNL     1      -9.802   8.885  65.597  1.00  0.00     0.006 A  
HETATM   14  C   UNL     1      -9.737  10.257  65.341  1.00  0.00    -0.340 A  
HETATM   15  C   UNL     1      -9.594  11.201  66.390  1.00  0.00    -0.227 A  
ENDBRANCH   4   6
TORSDOF 1
ENDMDL
MODEL      163
REMARK 921   NORMALIZED FREE ENERGY PREDICTED BY IDOCK:   -2.71 KCAL/MOL
REMARK 922        TOTAL FREE ENERGY PREDICTED BY IDOCK:   -2.91 KCAL/MOL
REMARK 923 INTER-LIGAND FREE ENERGY PREDICTED BY IDOCK:   -2.85 KCAL/MOL
REMARK 924 INTRA-LIGAND FREE ENERGY PREDICTED BY IDOCK:   -0.06 KCAL/MOL
REMARK 927      BINDING AFFINITY PREDICTED BY RF-SCORE:    0.00 PKD
ROOT
HETATM    1  N   UNL     1      -9.718  11.349  69.032  1.00  0.00    -0.408 NA 
HETATM    2  H1  UNL     1      -9.520  10.515  69.584  1.00  0.00     0.000 HD 
HETATM    3  H2  UNL     1     -10.596  11.224  68.527  1.00  0.00     0.000 HD 
HETATM    4  N   UNL     1      -8.706  11.774  68.131  1.00  0.00    -0.163 NA 
HETATM    5  H   UNL     1      -7.825  11.270  68.040  1.00  0.00     0.000 HD 
ENDROOT
BRANCH   4   6
HETATM    6  C   UNL     1      -8.985  12.950  67.352  1.00  0.00    -0.199 A  
HETATM    7  N   UNL     1      -9.737  12.851  66.224  1.00  0.00    -0.272 NA 
HETATM    8  N   UNL     1     -10.046  13.958  65.488  1.00  0.00    -0.312 NA 
HETATM    9  C   UNL     1      -9.582  15.156  65.883  1.00  0.00    -0.338 A  
HETATM   10  C   UNL     1      -8.772  15.331  66.999  1.00  0.00    -0.260 A  
HETATM   11  C   UNL     1      -8.287  16.599  67.365  1.00  0.00    -0.190 A  
HETATM   12  C   UNL     1      -7.448  16.748  68.469  1.00  0.00    -0.213 A  
HETATM   13  C   UNL     1      -7.085  15.633  69.215  1.00  0.00    -0.189 A  
HETATM   14  C   UNL     1      -7.573  14.371  68.867  1.00  0.00    -0.128 A  
HETATM   15  C   UNL     1      -8.439  14.191  67.758  1.00  0.00    -0.178 A  
ENDBRANCH   4   6
TORSDOF 1
ENDMDL
MODEL      164
REMARK 921   NORMALIZED FREE ENERGY PREDICTED BY IDOCK:   -2.70 KCAL/MOL
REMARK 922        TOTAL FREE ENERGY PREDICTED BY IDOCK:   -2.90 KCAL/MOL
REMARK 923 INTER-LIGAND FREE ENERGY PREDICTED BY IDOCK:   -2.89 KCAL/MOL
REMARK 924 INTRA-LIGAND FREE ENERGY PREDICTED BY IDOCK:   -0.01 KCAL/MOL
REMARK 927      BINDING AFFINITY PREDICTED BY RF-SCORE:    0.00 PKD
ROOT
HETATM    1  N   UNL     1      -9.734   7.070  65.857  1.00  0.00    -0.343 NA 
HETATM    2  H1  UNL     1     -10.016   6.386  65.154  1.00  0.00     0.000 HD 
HETATM    3  H2  UNL     1      -9.080   6.640  66.510  1.00  0.00     0.000 HD 
HETATM    4  N   UNL     1     -10.776   7.711  66.577  1.00  0.00    -0.309 NA 
HETATM    5  H   UNL     1     -11.758   7.498  66.402  1.00  0.00     0.000 HD 
ENDROOT
BRANCH   4   6
HETATM    6  C   UNL     1     -10.380   8.676  67.567  1.00  0.00    -0.269 A  
HETATM    7  N   UNL     1     -10.279   8.304  68.870  1.00  0.00    -0.207 NA 
HETATM    8  N   UNL     1      -9.871   9.192  69.823  1.00  0.00    -0.173 NA 
HETATM    9  C   UNL     1      -9.581  10.453  69.460  1.00  0.00    -0.157 A  
HETATM   10  C   UNL     1      -9.701  10.919  68.156  1.00  0.00    -0.174 A  
HETATM   11  C   UNL     1      -9.413  12.254  67.821  1.00  0.00    -0.197 A  
HETATM   12  C   UNL     1      -9.572  12.710  66.513  1.00  0.00    -0.248 A  
HETATM   13  C   UNL     1     -10.024  11.838  65.529  1.00  0.00    -0.273 A  
HETATM   14  C   UNL     1     -10.301  10.507  65.850  1.00  0.00    -0.275 A  
HETATM   15  C   UNL     1     -10.135  10.011  67.168  1.00  0.00    -0.265 A  
ENDBRANCH   4   6
TORSDOF 1
ENDMDL
MODEL      165
REMARK 921   NORMALIZED FREE ENERGY PREDICTED BY IDOCK:   -2.70 KCAL/MOL
REMARK 922        TOTAL FREE ENERGY PREDICTED BY IDOCK:   -2.89 KCAL/MOL
REMARK 923 INTER-LIGAND FREE ENERGY PREDICTED BY IDOCK:   -3.05 KCAL/MOL
REMARK 924 INTRA-LIGAND FREE ENERGY PREDICTED BY IDOCK:    0.16 KCAL/MOL
REMARK 927      BINDING AFFINITY PREDICTED BY RF-SCORE:    0.00 PKD
ROOT
HETATM    1  N   UNL     1     -11.174   6.680  68.103  1.00  0.00    -0.554 NA 
HETATM    2  H1  UNL     1     -11.915   5.978  68.134  1.00  0.00     0.000 HD 
HETATM    3  H2  UNL     1     -11.378   7.422  68.772  1.00  0.00     0.000 HD 
HETATM    4  N   UNL     1     -10.885   7.248  66.834  1.00  0.00    -0.554 NA 
HETATM    5  H   UNL     1     -11.393   6.969  65.994  1.00  0.00     0.000 HD 
ENDROOT
BRANCH   4   6
HETATM    6  C   UNL     1      -9.842   8.236  66.790  1.00  0.00    -0.263 A  
HETATM    7  N   UNL     1      -8.637   7.921  66.245  1.00  0.00    -0.141 NA 
HETATM    8  N   UNL     1      -7.642   8.851  66.159  1.00  0.00    -0.090 NA 
HETATM    9  C   UNL     1      -7.861  10.089  66.637  1.00  0.00    -0.111 A  
HETATM   10  C   UNL     1      -9.050  10.472  67.246  1.00  0.00    -0.152 A  
HETATM   11  C   UNL     1      -9.231  11.770  67.756  1.00  0.00    -0.181 A  
HETATM   12  C   UNL     1     -10.419  12.125  68.394  1.00  0.00    -0.242 A  
HETATM   13  C   UNL     1     -11.435  11.187  68.530  1.00  0.00    -0.371 A  
HETATM   14  C   UNL     1     -11.270   9.899  68.015  1.00  0.00    -0.129 A  
HETATM   15  C   UNL     1     -10.078   9.514  67.349  1.00  0.00    -0.262 A  
ENDBRANCH   4   6
TORSDOF 1
ENDMDL
MODEL      166
REMARK 921   NORMALIZED FREE ENERGY PREDICTED BY IDOCK:   -2.69 KCAL/MOL
REMARK 922        TOTAL FREE ENERGY PREDICTED BY IDOCK:   -2.89 KCAL/MOL
REMARK 923 INTER-LIGAND FREE ENERGY PREDICTED BY IDOCK:   -3.04 KCAL/MOL
REMARK 924 INTRA-LIGAND FREE ENERGY PREDICTED BY IDOCK:    0.15 KCAL/MOL
REMARK 927      BINDING AFFINITY PREDICTED BY RF-SCORE:    0.00 PKD
ROOT
HETATM    1  N   UNL     1     -10.477   2.764  73.110  1.00  0.00    -0.149 NA 
HETATM    2  H1  UNL     1     -10.039   2.049  73.690  1.00  0.00     0.000 HD 
HETATM    3  H2  UNL     1     -10.535   2.435  72.146  1.00  0.00     0.000 HD 
HETATM    4  N   UNL     1      -9.890   4.057  73.138  1.00  0.00    -0.125 NA 
HETATM    5  H   UNL     1      -9.070   4.260  73.709  1.00  0.00     0.000 HD 
ENDROOT
BRANCH   4   6
HETATM    6  C   UNL     1     -10.507   5.066  72.321  1.00  0.00    -0.214 A  
HETATM    7  N   UNL     1     -11.243   6.049  72.903  1.00  0.00    -0.253 NA 
HETATM    8  N   UNL     1     -11.810   7.038  72.153  1.00  0.00    -0.286 NA 
HETATM    9  C   UNL     1     -11.645   7.023  70.819  1.00  0.00    -0.338 A  
HETATM   10  C   UNL     1     -10.944   6.028  70.148  1.00  0.00    -0.429 A  
HETATM   11  C   UNL     1     -10.816   6.034  68.747  1.00  0.00    -0.391 A  
HETATM   12  C   UNL     1     -10.137   5.008  68.091  1.00  0.00    -0.167 A  
HETATM   13  C   UNL     1      -9.583   3.967  68.826  1.00  0.00    -0.187 A  
HETATM   14  C   UNL     1      -9.694   3.959  70.218  1.00  0.00    -0.245 A  
HETATM   15  C   UNL     1     -10.366   4.996  70.915  1.00  0.00    -0.260 A  
ENDBRANCH   4   6
TORSDOF 1
ENDMDL
MODEL      167
REMARK 921   NORMALIZED FREE ENERGY PREDICTED BY IDOCK:   -2.68 KCAL/MOL
REMARK 922        TOTAL FREE ENERGY PREDICTED BY IDOCK:   -2.87 KCAL/MOL
REMARK 923 INTER-LIGAND FREE ENERGY PREDICTED BY IDOCK:   -2.83 KCAL/MOL
REMARK 924 INTRA-LIGAND FREE ENERGY PREDICTED BY IDOCK:   -0.04 KCAL/MOL
REMARK 927      BINDING AFFINITY PREDICTED BY RF-SCORE:    0.00 PKD
ROOT
HETATM    1  N   UNL     1      -6.308  13.839  71.144  1.00  0.00    -0.505 NA 
HETATM    2  H1  UNL     1      -5.678  13.657  71.925  1.00  0.00     0.000 HD 
HETATM    3  H2  UNL     1      -6.367  13.010  70.552  1.00  0.00     0.000 HD 
HETATM    4  N   UNL     1      -6.020  14.976  70.343  1.00  0.00    -0.147 NA 
HETATM    5  H   UNL     1      -5.223  15.581  70.539  1.00  0.00     0.000 HD 
ENDROOT
BRANCH   4   6
HETATM    6  C   UNL     1      -6.908  15.232  69.241  1.00  0.00    -0.155 A  
HETATM    7  N   UNL     1      -7.480  14.193  68.578  1.00  0.00    -0.116 NA 
HETATM    8  N   UNL     1      -8.354  14.410  67.553  1.00  0.00    -0.174 NA 
HETATM    9  C   UNL     1      -8.635  15.674  67.190  1.00  0.00    -0.210 A  
HETATM   10  C   UNL     1      -8.057  16.786  67.792  1.00  0.00    -0.186 A  
HETATM   11  C   UNL     1      -8.359  18.092  67.366  1.00  0.00    -0.239 A  
HETATM   12  C   UNL     1      -7.743  19.194  67.959  1.00  0.00    -0.318 A  
HETATM   13  C   UNL     1      -6.820  19.001  68.980  1.00  0.00    -0.352 A  
HETATM   14  C   UNL     1      -6.523  17.708  69.418  1.00  0.00    -0.231 A  
HETATM   15  C   UNL     1      -7.145  16.569  68.843  1.00  0.00    -0.200 A  
ENDBRANCH   4   6
TORSDOF 1
ENDMDL
MODEL      168
REMARK 921   NORMALIZED FREE ENERGY PREDICTED BY IDOCK:   -2.67 KCAL/MOL
REMARK 922        TOTAL FREE ENERGY PREDICTED BY IDOCK:   -2.87 KCAL/MOL
REMARK 923 INTER-LIGAND FREE ENERGY PREDICTED BY IDOCK:   -2.83 KCAL/MOL
REMARK 924 INTRA-LIGAND FREE ENERGY PREDICTED BY IDOCK:   -0.04 KCAL/MOL
REMARK 927      BINDING AFFINITY PREDICTED BY RF-SCORE:    0.00 PKD
ROOT
HETATM    1  N   UNL     1      -7.208   6.588  64.530  1.00  0.00    -0.060 NA 
HETATM    2  H1  UNL     1      -6.787   6.391  63.622  1.00  0.00     0.000 HD 
HETATM    3  H2  UNL     1      -7.452   5.712  64.992  1.00  0.00     0.000 HD 
HETATM    4  N   UNL     1      -8.330   7.459  64.537  1.00  0.00    -0.352 NA 
HETATM    5  H   UNL     1      -8.697   7.867  63.677  1.00  0.00     0.000 HD 
ENDROOT
BRANCH   4   6
HETATM    6  C   UNL     1      -8.924   7.738  65.817  1.00  0.00    -0.066 A  
HETATM    7  N   UNL     1      -8.939   6.778  66.778  1.00  0.00    -0.129 NA 
HETATM    8  N   UNL     1      -9.464   7.030  68.012  1.00  0.00    -0.126 NA 
HETATM    9  C   UNL     1      -9.987   8.242  68.266  1.00  0.00    -0.191 A  
HETATM   10  C   UNL     1     -10.047   9.260  67.321  1.00  0.00    -0.291 A  
HETATM   11  C   UNL     1     -10.625  10.507  67.618  1.00  0.00    -0.295 A  
HETATM   12  C   UNL     1     -10.706  11.503  66.645  1.00  0.00    -0.311 A  
HETATM   13  C   UNL     1     -10.214  11.262  65.368  1.00  0.00    -0.323 A  
HETATM   14  C   UNL     1      -9.627  10.030  65.067  1.00  0.00    -0.362 A  
HETATM   15  C   UNL     1      -9.517   9.004  66.040  1.00  0.00    -0.323 A  
ENDBRANCH   4   6
TORSDOF 1
ENDMDL
MODEL      169
REMARK 921   NORMALIZED FREE ENERGY PREDICTED BY IDOCK:   -2.67 KCAL/MOL
REMARK 922        TOTAL FREE ENERGY PREDICTED BY IDOCK:   -2.86 KCAL/MOL
REMARK 923 INTER-LIGAND FREE ENERGY PREDICTED BY IDOCK:   -2.82 KCAL/MOL
REMARK 924 INTRA-LIGAND FREE ENERGY PREDICTED BY IDOCK:   -0.05 KCAL/MOL
REMARK 927      BINDING AFFINITY PREDICTED BY RF-SCORE:    0.00 PKD
ROOT
HETATM    1  N   UNL     1     -10.672  10.301  70.750  1.00  0.00    -0.365 NA 
HETATM    2  H1  UNL     1     -11.056  10.715  71.600  1.00  0.00     0.000 HD 
HETATM    3  H2  UNL     1     -10.692  10.988  69.997  1.00  0.00     0.000 HD 
HETATM    4  N   UNL     1     -11.265   9.090  70.306  1.00  0.00    -0.322 NA 
HETATM    5  H   UNL     1     -12.037   8.654  70.811  1.00  0.00     0.000 HD 
ENDROOT
BRANCH   4   6
HETATM    6  C   UNL     1     -10.724   8.506  69.108  1.00  0.00    -0.110 A  
HETATM    7  N   UNL     1     -10.599   9.262  67.986  1.00  0.00    -0.227 NA 
HETATM    8  N   UNL     1     -10.055   8.742  66.847  1.00  0.00    -0.252 NA 
HETATM    9  C   UNL     1      -9.656   7.459  66.840  1.00  0.00    -0.187 A  
HETATM   10  C   UNL     1      -9.792   6.611  67.934  1.00  0.00    -0.138 A  
HETATM   11  C   UNL     1      -9.384   5.266  67.879  1.00  0.00    -0.131 A  
HETATM   12  C   UNL     1      -9.561   4.424  68.976  1.00  0.00    -0.244 A  
HETATM   13  C   UNL     1     -10.147   4.916  70.136  1.00  0.00    -0.332 A  
HETATM   14  C   UNL     1     -10.543   6.254  70.205  1.00  0.00    -0.306 A  
HETATM   15  C   UNL     1     -10.363   7.138  69.110  1.00  0.00    -0.205 A  
ENDBRANCH   4   6
TORSDOF 1
ENDMDL
MODEL      170
REMARK 921   NORMALIZED FREE ENERGY PREDICTED BY IDOCK:   -2.67 KCAL/MOL
REMARK 922        TOTAL FREE ENERGY PREDICTED BY IDOCK:   -2.86 KCAL/MOL
REMARK 923 INTER-LIGAND FREE ENERGY PREDICTED BY IDOCK:   -2.82 KCAL/MOL
REMARK 924 INTRA-LIGAND FREE ENERGY PREDICTED BY IDOCK:   -0.04 KCAL/MOL
REMARK 927      BINDING AFFINITY PREDICTED BY RF-SCORE:    0.00 PKD
ROOT
HETATM    1  N   UNL     1     -11.483   4.606  65.179  1.00  0.00    -1.107 NA 
HETATM    2  H1  UNL     1     -11.633   4.048  64.338  1.00  0.00     0.000 HD 
HETATM    3  H2  UNL     1     -12.002   5.481  65.106  1.00  0.00     0.000 HD 
HETATM    4  N   UNL     1     -10.135   4.880  65.532  1.00  0.00    -0.385 NA 
HETATM    5  H   UNL     1      -9.355   4.535  64.973  1.00  0.00     0.000 HD 
ENDROOT
BRANCH   4   6
HETATM    6  C   UNL     1      -9.923   5.666  66.717  1.00  0.00    -0.178 A  
HETATM    7  N   UNL     1     -10.985   6.222  67.358  1.00  0.00    -0.355 NA 
HETATM    8  N   UNL     1     -10.814   6.942  68.504  1.00  0.00    -0.204 NA 
HETATM    9  C   UNL     1      -9.573   7.113  68.990  1.00  0.00    -0.146 A  
HETATM   10  C   UNL     1      -8.434   6.613  68.368  1.00  0.00    -0.125 A  
HETATM   11  C   UNL     1      -7.150   6.835  68.895  1.00  0.00    -0.089 A  
HETATM   12  C   UNL     1      -6.018   6.354  68.237  1.00  0.00    -0.017 A  
HETATM   13  C   UNL     1      -6.159   5.650  67.048  1.00  0.00    -0.026 A  
HETATM   14  C   UNL     1      -7.432   5.413  66.523  1.00  0.00    -0.087 A  
HETATM   15  C   UNL     1      -8.602   5.878  67.177  1.00  0.00    -0.106 A  
ENDBRANCH   4   6
TORSDOF 1
ENDMDL
MODEL      171
REMARK 921   NORMALIZED FREE ENERGY PREDICTED BY IDOCK:   -2.66 KCAL/MOL
REMARK 922        TOTAL FREE ENERGY PREDICTED BY IDOCK:   -2.86 KCAL/MOL
REMARK 923 INTER-LIGAND FREE ENERGY PREDICTED BY IDOCK:   -2.82 KCAL/MOL
REMARK 924 INTRA-LIGAND FREE ENERGY PREDICTED BY IDOCK:   -0.04 KCAL/MOL
REMARK 927      BINDING AFFINITY PREDICTED BY RF-SCORE:    0.00 PKD
ROOT
HETATM    1  N   UNL     1     -12.982   7.801  71.405  1.00  0.00    -0.457 NA 
HETATM    2  H1  UNL     1     -13.952   7.531  71.241  1.00  0.00     0.000 HD 
HETATM    3  H2  UNL     1     -12.950   8.747  71.785  1.00  0.00     0.000 HD 
HETATM    4  N   UNL     1     -12.096   7.702  70.299  1.00  0.00    -0.428 NA 
HETATM    5  H   UNL     1     -12.414   7.377  69.386  1.00  0.00     0.000 HD 
ENDROOT
BRANCH   4   6
HETATM    6  C   UNL     1     -10.729   8.082  70.530  1.00  0.00    -0.229 A  
HETATM    7  N   UNL     1     -10.324   8.421  71.782  1.00  0.00    -0.238 NA 
HETATM    8  N   UNL     1      -9.024   8.751  72.033  1.00  0.00    -0.369 NA 
HETATM    9  C   UNL     1      -8.142   8.753  71.019  1.00  0.00    -0.156 A  
HETATM   10  C   UNL     1      -8.489   8.459  69.705  1.00  0.00    -0.127 A  
HETATM   11  C   UNL     1      -7.541   8.497  68.667  1.00  0.00    -0.098 A  
HETATM   12  C   UNL     1      -7.917   8.233  67.351  1.00  0.00    -0.106 A  
HETATM   13  C   UNL     1      -9.242   7.932  67.059  1.00  0.00    -0.181 A  
HETATM   14  C   UNL     1     -10.188   7.880  68.085  1.00  0.00    -0.248 A  
HETATM   15  C   UNL     1      -9.833   8.130  69.436  1.00  0.00    -0.182 A  
ENDBRANCH   4   6
TORSDOF 1
ENDMDL
MODEL      172
REMARK 921   NORMALIZED FREE ENERGY PREDICTED BY IDOCK:   -2.60 KCAL/MOL
REMARK 922        TOTAL FREE ENERGY PREDICTED BY IDOCK:   -2.80 KCAL/MOL
REMARK 923 INTER-LIGAND FREE ENERGY PREDICTED BY IDOCK:   -2.78 KCAL/MOL
REMARK 924 INTRA-LIGAND FREE ENERGY PREDICTED BY IDOCK:   -0.02 KCAL/MOL
REMARK 927      BINDING AFFINITY PREDICTED BY RF-SCORE:    0.00 PKD
ROOT
HETATM    1  N   UNL     1      -7.217   6.730  70.900  1.00  0.00    -0.072 NA 
HETATM    2  H1  UNL     1      -6.374   6.768  70.327  1.00  0.00     0.000 HD 
HETATM    3  H2  UNL     1      -7.006   6.276  71.788  1.00  0.00     0.000 HD 
HETATM    4  N   UNL     1      -8.360   6.123  70.314  1.00  0.00    -0.123 NA 
HETATM    5  H   UNL     1      -8.339   5.744  69.368  1.00  0.00     0.000 HD 
ENDROOT
BRANCH   4   6
HETATM    6  C   UNL     1      -9.549   6.069  71.121  1.00  0.00    -0.172 A  
HETATM    7  N   UNL     1      -9.819   4.956  71.853  1.00  0.00    -0.176 NA 
HETATM    8  N   UNL     1     -10.921   4.894  72.654  1.00  0.00    -0.211 NA 
HETATM    9  C   UNL     1     -11.755   5.947  72.702  1.00  0.00    -0.198 A  
HETATM   10  C   UNL     1     -11.569   7.102  71.951  1.00  0.00    -0.314 A  
HETATM   11  C   UNL     1     -12.479   8.173  72.010  1.00  0.00    -0.375 A  
HETATM   12  C   UNL     1     -12.293   9.309  71.223  1.00  0.00    -0.403 A  
HETATM   13  C   UNL     1     -11.199   9.384  70.369  1.00  0.00    -0.309 A  
HETATM   14  C   UNL     1     -10.284   8.331  70.312  1.00  0.00    -0.199 A  
HETATM   15  C   UNL     1     -10.439   7.169  71.112  1.00  0.00    -0.225 A  
ENDBRANCH   4   6
TORSDOF 1
ENDMDL
MODEL      173
REMARK 921   NORMALIZED FREE ENERGY PREDICTED BY IDOCK:   -2.60 KCAL/MOL
REMARK 922        TOTAL FREE ENERGY PREDICTED BY IDOCK:   -2.79 KCAL/MOL
REMARK 923 INTER-LIGAND FREE ENERGY PREDICTED BY IDOCK:   -2.76 KCAL/MOL
REMARK 924 INTRA-LIGAND FREE ENERGY PREDICTED BY IDOCK:   -0.03 KCAL/MOL
REMARK 927      BINDING AFFINITY PREDICTED BY RF-SCORE:    0.00 PKD
ROOT
HETATM    1  N   UNL     1     -11.491   6.513  68.004  1.00  0.00    -0.611 NA 
HETATM    2  H1  UNL     1     -12.480   6.343  68.185  1.00  0.00     0.000 HD 
HETATM    3  H2  UNL     1     -11.208   7.387  68.446  1.00  0.00     0.000 HD 
HETATM    4  N   UNL     1     -11.081   6.513  66.644  1.00  0.00    -0.680 NA 
HETATM    5  H   UNL     1     -11.744   6.351  65.886  1.00  0.00     0.000 HD 
ENDROOT
BRANCH   4   6
HETATM    6  C   UNL     1      -9.687   6.752  66.388  1.00  0.00    -0.064 A  
HETATM    7  N   UNL     1      -8.811   5.713  66.397  1.00  0.00    -0.125 NA 
HETATM    8  N   UNL     1      -7.489   5.908  66.122  1.00  0.00    -0.084 NA 
HETATM    9  C   UNL     1      -7.053   7.152  65.857  1.00  0.00    -0.069 A  
HETATM   10  C   UNL     1      -7.879   8.270  65.872  1.00  0.00    -0.093 A  
HETATM   11  C   UNL     1      -7.379   9.558  65.614  1.00  0.00    -0.094 A  
HETATM   12  C   UNL     1      -8.218  10.671  65.668  1.00  0.00    -0.154 A  
HETATM   13  C   UNL     1      -9.562  10.507  65.983  1.00  0.00    -0.242 A  
HETATM   14  C   UNL     1     -10.070   9.229  66.229  1.00  0.00    -0.322 A  
HETATM   15  C   UNL     1      -9.244   8.077  66.167  1.00  0.00    -0.219 A  
ENDBRANCH   4   6
TORSDOF 1
ENDMDL
MODEL      174
REMARK 921   NORMALIZED FREE ENERGY PREDICTED BY IDOCK:   -2.59 KCAL/MOL
REMARK 922        TOTAL FREE ENERGY PREDICTED BY IDOCK:   -2.79 KCAL/MOL
REMARK 923 INTER-LIGAND FREE ENERGY PREDICTED BY IDOCK:   -2.75 KCAL/MOL
REMARK 924 INTRA-LIGAND FREE ENERGY PREDICTED BY IDOCK:   -0.03 KCAL/MOL
REMARK 927      BINDING AFFINITY PREDICTED BY RF-SCORE:    0.00 PKD
ROOT
HETATM    1  N   UNL     1      -6.544  12.235  70.244  1.00  0.00    -0.443 NA 
HETATM    2  H1  UNL     1      -5.766  11.664  70.577  1.00  0.00     0.000 HD 
HETATM    3  H2  UNL     1      -7.386  12.004  70.771  1.00  0.00     0.000 HD 
HETATM    4  N   UNL     1      -6.822  12.185  68.853  1.00  0.00    -0.096 NA 
HETATM    5  H   UNL     1      -6.272  11.607  68.217  1.00  0.00     0.000 HD 
ENDROOT
BRANCH   4   6
HETATM    6  C   UNL     1      -7.917  12.989  68.383  1.00  0.00    -0.135 A  
HETATM    7  N   UNL     1      -7.707  14.292  68.056  1.00  0.00    -0.126 NA 
HETATM    8  N   UNL     1      -8.722  15.066  67.574  1.00  0.00    -0.175 NA 
HETATM    9  C   UNL     1      -9.947  14.530  67.440  1.00  0.00    -0.227 A  
HETATM   10  C   UNL     1     -10.249  13.219  67.795  1.00  0.00    -0.228 A  
HETATM   11  C   UNL     1     -11.550  12.703  67.663  1.00  0.00    -0.414 A  
HETATM   12  C   UNL     1     -11.840  11.397  68.056  1.00  0.00    -0.273 A  
HETATM   13  C   UNL     1     -10.835  10.597  68.586  1.00  0.00    -0.266 A  
HETATM   14  C   UNL     1      -9.537  11.097  68.709  1.00  0.00    -0.180 A  
HETATM   15  C   UNL     1      -9.209  12.417  68.304  1.00  0.00    -0.189 A  
ENDBRANCH   4   6
TORSDOF 1
ENDMDL
MODEL      175
REMARK 921   NORMALIZED FREE ENERGY PREDICTED BY IDOCK:   -2.57 KCAL/MOL
REMARK 922        TOTAL FREE ENERGY PREDICTED BY IDOCK:   -2.76 KCAL/MOL
REMARK 923 INTER-LIGAND FREE ENERGY PREDICTED BY IDOCK:   -2.86 KCAL/MOL
REMARK 924 INTRA-LIGAND FREE ENERGY PREDICTED BY IDOCK:    0.10 KCAL/MOL
REMARK 927      BINDING AFFINITY PREDICTED BY RF-SCORE:    0.00 PKD
ROOT
HETATM    1  N   UNL     1     -10.185  10.367  69.291  1.00  0.00    -0.218 NA 
HETATM    2  H1  UNL     1     -10.461   9.963  70.186  1.00  0.00     0.000 HD 
HETATM    3  H2  UNL     1      -9.994  11.361  69.409  1.00  0.00     0.000 HD 
HETATM    4  N   UNL     1     -11.079  10.179  68.203  1.00  0.00    -0.424 NA 
HETATM    5  H   UNL     1     -11.954   9.666  68.312  1.00  0.00     0.000 HD 
ENDROOT
BRANCH   4   6
HETATM    6  C   UNL     1     -10.690  10.747  66.941  1.00  0.00    -0.252 A  
HETATM    7  N   UNL     1     -11.342  11.840  66.463  1.00  0.00    -0.376 NA 
HETATM    8  N   UNL     1     -10.969  12.419  65.285  1.00  0.00    -0.290 NA 
HETATM    9  C   UNL     1      -9.951  11.886  64.587  1.00  0.00    -0.230 A  
HETATM   10  C   UNL     1      -9.266  10.745  64.989  1.00  0.00    -0.241 A  
HETATM   11  C   UNL     1      -8.223  10.203  64.218  1.00  0.00    -0.165 A  
HETATM   12  C   UNL     1      -7.570   9.038  64.621  1.00  0.00    -0.107 A  
HETATM   13  C   UNL     1      -7.955   8.405  65.797  1.00  0.00    -0.108 A  
HETATM   14  C   UNL     1      -8.981   8.943  66.577  1.00  0.00    -0.187 A  
HETATM   15  C   UNL     1      -9.653  10.134  66.199  1.00  0.00    -0.256 A  
ENDBRANCH   4   6
TORSDOF 1
ENDMDL
MODEL      176
REMARK 921   NORMALIZED FREE ENERGY PREDICTED BY IDOCK:   -2.54 KCAL/MOL
REMARK 922        TOTAL FREE ENERGY PREDICTED BY IDOCK:   -2.73 KCAL/MOL
REMARK 923 INTER-LIGAND FREE ENERGY PREDICTED BY IDOCK:   -2.68 KCAL/MOL
REMARK 924 INTRA-LIGAND FREE ENERGY PREDICTED BY IDOCK:   -0.04 KCAL/MOL
REMARK 927      BINDING AFFINITY PREDICTED BY RF-SCORE:    0.00 PKD
ROOT
HETATM    1  N   UNL     1      -8.568   6.296  67.996  1.00  0.00    -0.117 NA 
HETATM    2  H1  UNL     1      -8.562   5.969  68.962  1.00  0.00     0.000 HD 
HETATM    3  H2  UNL     1      -7.779   5.890  67.493  1.00  0.00     0.000 HD 
HETATM    4  N   UNL     1      -8.587   7.702  67.797  1.00  0.00    -0.121 NA 
HETATM    5  H   UNL     1      -8.594   8.353  68.582  1.00  0.00     0.000 HD 
ENDROOT
BRANCH   4   6
HETATM    6  C   UNL     1      -8.596   8.163  66.436  1.00  0.00    -0.139 A  
HETATM    7  N   UNL     1      -7.868   7.505  65.495  1.00  0.00    -0.106 NA 
HETATM    8  N   UNL     1      -7.888   7.901  64.190  1.00  0.00    -0.132 NA 
HETATM    9  C   UNL     1      -8.627   8.968  63.841  1.00  0.00    -0.132 A  
HETATM   10  C   UNL     1      -9.362   9.718  64.753  1.00  0.00    -0.327 A  
HETATM   11  C   UNL     1     -10.104  10.843  64.352  1.00  0.00    -0.402 A  
HETATM   12  C   UNL     1     -10.807  11.602  65.287  1.00  0.00    -0.340 A  
HETATM   13  C   UNL     1     -10.774  11.245  66.630  1.00  0.00    -0.321 A  
HETATM   14  C   UNL     1     -10.051  10.121  67.035  1.00  0.00    -0.277 A  
HETATM   15  C   UNL     1      -9.337   9.322  66.105  1.00  0.00    -0.270 A  
ENDBRANCH   4   6
TORSDOF 1
ENDMDL
MODEL      177
REMARK 921   NORMALIZED FREE ENERGY PREDICTED BY IDOCK:   -2.52 KCAL/MOL
REMARK 922        TOTAL FREE ENERGY PREDICTED BY IDOCK:   -2.71 KCAL/MOL
REMARK 923 INTER-LIGAND FREE ENERGY PREDICTED BY IDOCK:   -2.67 KCAL/MOL
REMARK 924 INTRA-LIGAND FREE ENERGY PREDICTED BY IDOCK:   -0.04 KCAL/MOL
REMARK 927      BINDING AFFINITY PREDICTED BY RF-SCORE:    0.00 PKD
ROOT
HETATM    1  N   UNL     1      -7.426  17.071  67.646  1.00  0.00    -0.161 NA 
HETATM    2  H1  UNL     1      -7.478  18.085  67.746  1.00  0.00     0.000 HD 
HETATM    3  H2  UNL     1      -7.201  16.834  66.680  1.00  0.00     0.000 HD 
HETATM    4  N   UNL     1      -8.561  16.329  68.068  1.00  0.00    -0.174 NA 
HETATM    5  H   UNL     1      -9.388  16.787  68.452  1.00  0.00     0.000 HD 
ENDROOT
BRANCH   4   6
HETATM    6  C   UNL     1      -8.487  14.900  67.928  1.00  0.00    -0.153 A  
HETATM    7  N   UNL     1      -7.345  14.324  67.469  1.00  0.00    -0.181 NA 
HETATM    8  N   UNL     1      -7.238  12.968  67.361  1.00  0.00    -0.145 NA 
HETATM    9  C   UNL     1      -8.287  12.200  67.700  1.00  0.00    -0.163 A  
HETATM   10  C   UNL     1      -9.502  12.717  68.136  1.00  0.00    -0.219 A  
HETATM   11  C   UNL     1     -10.586  11.880  68.457  1.00  0.00    -0.245 A  
HETATM   12  C   UNL     1     -11.807  12.420  68.860  1.00  0.00    -0.350 A  
HETATM   13  C   UNL     1     -11.957  13.799  68.942  1.00  0.00    -0.394 A  
HETATM   14  C   UNL     1     -10.883  14.638  68.637  1.00  0.00    -0.261 A  
HETATM   15  C   UNL     1      -9.625  14.117  68.239  1.00  0.00    -0.226 A  
ENDBRANCH   4   6
TORSDOF 1
ENDMDL
MODEL      178
REMARK 921   NORMALIZED FREE ENERGY PREDICTED BY IDOCK:   -2.47 KCAL/MOL
REMARK 922        TOTAL FREE ENERGY PREDICTED BY IDOCK:   -2.66 KCAL/MOL
REMARK 923 INTER-LIGAND FREE ENERGY PREDICTED BY IDOCK:   -2.70 KCAL/MOL
REMARK 924 INTRA-LIGAND FREE ENERGY PREDICTED BY IDOCK:    0.04 KCAL/MOL
REMARK 927      BINDING AFFINITY PREDICTED BY RF-SCORE:    0.00 PKD
ROOT
HETATM    1  N   UNL     1      -7.813  11.768  68.105  1.00  0.00    -0.127 NA 
HETATM    2  H1  UNL     1      -7.166  12.134  68.804  1.00  0.00     0.000 HD 
HETATM    3  H2  UNL     1      -7.992  10.781  68.288  1.00  0.00     0.000 HD 
HETATM    4  N   UNL     1      -7.447  11.942  66.743  1.00  0.00    -0.338 NA 
HETATM    5  H   UNL     1      -6.580  12.408  66.478  1.00  0.00     0.000 HD 
ENDROOT
BRANCH   4   6
HETATM    6  C   UNL     1      -8.358  11.427  65.758  1.00  0.00     0.100 A  
HETATM    7  N   UNL     1      -8.084  10.252  65.133  1.00  0.00    -0.149 NA 
HETATM    8  N   UNL     1      -8.950   9.724  64.220  1.00  0.00    -0.225 NA 
HETATM    9  C   UNL     1     -10.080  10.392  63.929  1.00  0.00    -0.102 A  
HETATM   10  C   UNL     1     -10.408  11.619  64.494  1.00  0.00    -0.349 A  
HETATM   11  C   UNL     1     -11.589  12.298  64.144  1.00  0.00    -0.463 A  
HETATM   12  C   UNL     1     -11.883  13.545  64.696  1.00  0.00    -0.428 A  
HETATM   13  C   UNL     1     -11.000  14.124  65.599  1.00  0.00    -0.308 A  
HETATM   14  C   UNL     1      -9.831  13.451  65.963  1.00  0.00    -0.273 A  
HETATM   15  C   UNL     1      -9.513  12.176  65.429  1.00  0.00    -0.035 A  
ENDBRANCH   4   6
TORSDOF 1
ENDMDL
MODEL      179
REMARK 921   NORMALIZED FREE ENERGY PREDICTED BY IDOCK:   -2.47 KCAL/MOL
REMARK 922        TOTAL FREE ENERGY PREDICTED BY IDOCK:   -2.65 KCAL/MOL
REMARK 923 INTER-LIGAND FREE ENERGY PREDICTED BY IDOCK:   -2.64 KCAL/MOL
REMARK 924 INTRA-LIGAND FREE ENERGY PREDICTED BY IDOCK:   -0.01 KCAL/MOL
REMARK 927      BINDING AFFINITY PREDICTED BY RF-SCORE:    0.00 PKD
ROOT
HETATM    1  N   UNL     1      -7.168  12.729  69.558  1.00  0.00    -0.302 NA 
HETATM    2  H1  UNL     1      -6.223  12.832  69.927  1.00  0.00     0.000 HD 
HETATM    3  H2  UNL     1      -7.432  11.744  69.565  1.00  0.00     0.000 HD 
HETATM    4  N   UNL     1      -7.416  13.281  68.274  1.00  0.00    -0.115 NA 
HETATM    5  H   UNL     1      -6.685  13.756  67.745  1.00  0.00     0.000 HD 
ENDROOT
BRANCH   4   6
HETATM    6  C   UNL     1      -8.749  13.136  67.754  1.00  0.00    -0.188 A  
HETATM    7  N   UNL     1      -9.681  14.092  68.008  1.00  0.00    -0.219 NA 
HETATM    8  N   UNL     1     -10.942  13.996  67.496  1.00  0.00    -0.273 NA 
HETATM    9  C   UNL     1     -11.263  12.929  66.744  1.00  0.00    -0.298 A  
HETATM   10  C   UNL     1     -10.378  11.890  66.477  1.00  0.00    -0.249 A  
HETATM   11  C   UNL     1     -10.761  10.777  65.706  1.00  0.00    -0.141 A  
HETATM   12  C   UNL     1      -9.869   9.730  65.478  1.00  0.00    -0.378 A  
HETATM   13  C   UNL     1      -8.590   9.782  66.019  1.00  0.00    -0.146 A  
HETATM   14  C   UNL     1      -8.197  10.889  66.775  1.00  0.00    -0.140 A  
HETATM   15  C   UNL     1      -9.077  11.976  67.012  1.00  0.00    -0.191 A  
ENDBRANCH   4   6
TORSDOF 1
ENDMDL
MODEL      180
REMARK 921   NORMALIZED FREE ENERGY PREDICTED BY IDOCK:   -2.42 KCAL/MOL
REMARK 922        TOTAL FREE ENERGY PREDICTED BY IDOCK:   -2.61 KCAL/MOL
REMARK 923 INTER-LIGAND FREE ENERGY PREDICTED BY IDOCK:   -2.55 KCAL/MOL
REMARK 924 INTRA-LIGAND FREE ENERGY PREDICTED BY IDOCK:   -0.05 KCAL/MOL
REMARK 927      BINDING AFFINITY PREDICTED BY RF-SCORE:    0.00 PKD
ROOT
HETATM    1  N   UNL     1      -5.859   9.452  66.477  1.00  0.00    -0.057 NA 
HETATM    2  H1  UNL     1      -5.263   8.944  67.131  1.00  0.00     0.000 HD 
HETATM    3  H2  UNL     1      -5.747  10.455  66.621  1.00  0.00     0.000 HD 
HETATM    4  N   UNL     1      -7.240   9.120  66.482  1.00  0.00    -0.084 NA 
HETATM    5  H   UNL     1      -7.617   8.410  67.109  1.00  0.00     0.000 HD 
ENDROOT
BRANCH   4   6
HETATM    6  C   UNL     1      -8.080   9.836  65.561  1.00  0.00    -0.125 A  
HETATM    7  N   UNL     1      -7.804   9.804  64.230  1.00  0.00    -0.128 NA 
HETATM    8  N   UNL     1      -8.606  10.445  63.332  1.00  0.00    -0.180 NA 
HETATM    9  C   UNL     1      -9.673  11.129  63.780  1.00  0.00    -0.301 A  
HETATM   10  C   UNL     1      -9.995  11.244  65.128  1.00  0.00    -0.312 A  
HETATM   11  C   UNL     1     -11.106  11.991  65.558  1.00  0.00    -0.361 A  
HETATM   12  C   UNL     1     -11.392  12.122  66.916  1.00  0.00    -0.402 A  
HETATM   13  C   UNL     1     -10.570  11.512  67.856  1.00  0.00    -0.224 A  
HETATM   14  C   UNL     1      -9.471  10.758  67.438  1.00  0.00    -0.171 A  
HETATM   15  C   UNL     1      -9.164  10.595  66.062  1.00  0.00    -0.208 A  
ENDBRANCH   4   6
TORSDOF 1
ENDMDL
MODEL      181
REMARK 921   NORMALIZED FREE ENERGY PREDICTED BY IDOCK:   -2.39 KCAL/MOL
REMARK 922        TOTAL FREE ENERGY PREDICTED BY IDOCK:   -2.57 KCAL/MOL
REMARK 923 INTER-LIGAND FREE ENERGY PREDICTED BY IDOCK:   -2.52 KCAL/MOL
REMARK 924 INTRA-LIGAND FREE ENERGY PREDICTED BY IDOCK:   -0.05 KCAL/MOL
REMARK 927      BINDING AFFINITY PREDICTED BY RF-SCORE:    0.00 PKD
ROOT
HETATM    1  N   UNL     1     -11.270   7.182  67.819  1.00  0.00    -0.534 NA 
HETATM    2  H1  UNL     1     -11.619   6.227  67.737  1.00  0.00     0.000 HD 
HETATM    3  H2  UNL     1     -12.024   7.797  68.124  1.00  0.00     0.000 HD 
HETATM    4  N   UNL     1     -10.641   7.732  66.670  1.00  0.00    -0.454 NA 
HETATM    5  H   UNL     1     -10.544   7.199  65.806  1.00  0.00     0.000 HD 
ENDROOT
BRANCH   4   6
HETATM    6  C   UNL     1     -10.148   9.078  66.785  1.00  0.00    -0.274 A  
HETATM    7  N   UNL     1     -10.976  10.066  67.217  1.00  0.00    -0.226 NA 
HETATM    8  N   UNL     1     -10.523  11.343  67.369  1.00  0.00    -0.198 NA 
HETATM    9  C   UNL     1      -9.243  11.624  67.068  1.00  0.00    -0.183 A  
HETATM   10  C   UNL     1      -8.349  10.677  66.580  1.00  0.00    -0.143 A  
HETATM   11  C   UNL     1      -7.024  11.016  66.253  1.00  0.00    -0.095 A  
HETATM   12  C   UNL     1      -6.153  10.060  65.732  1.00  0.00    -0.086 A  
HETATM   13  C   UNL     1      -6.598   8.758  65.530  1.00  0.00    -0.067 A  
HETATM   14  C   UNL     1      -7.909   8.410  65.864  1.00  0.00    -0.095 A  
HETATM   15  C   UNL     1      -8.813   9.357  66.409  1.00  0.00    -0.167 A  
ENDBRANCH   4   6
TORSDOF 1
ENDMDL
MODEL      182
REMARK 921   NORMALIZED FREE ENERGY PREDICTED BY IDOCK:   -2.36 KCAL/MOL
REMARK 922        TOTAL FREE ENERGY PREDICTED BY IDOCK:   -2.54 KCAL/MOL
REMARK 923 INTER-LIGAND FREE ENERGY PREDICTED BY IDOCK:   -2.50 KCAL/MOL
REMARK 924 INTRA-LIGAND FREE ENERGY PREDICTED BY IDOCK:   -0.04 KCAL/MOL
REMARK 927      BINDING AFFINITY PREDICTED BY RF-SCORE:    0.00 PKD
ROOT
HETATM    1  N   UNL     1     -10.587  14.971  69.783  1.00  0.00    -0.363 NA 
HETATM    2  H1  UNL     1     -10.886  14.678  70.714  1.00  0.00     0.000 HD 
HETATM    3  H2  UNL     1     -10.622  14.175  69.147  1.00  0.00     0.000 HD 
HETATM    4  N   UNL     1      -9.318  15.601  69.689  1.00  0.00    -0.271 NA 
HETATM    5  H   UNL     1      -8.733  15.753  70.511  1.00  0.00     0.000 HD 
ENDROOT
BRANCH   4   6
HETATM    6  C   UNL     1      -8.896  16.014  68.378  1.00  0.00    -0.188 A  
HETATM    7  N   UNL     1      -9.643  15.681  67.292  1.00  0.00    -0.216 NA 
HETATM    8  N   UNL     1      -9.284  16.091  66.042  1.00  0.00    -0.344 NA 
HETATM    9  C   UNL     1      -8.166  16.821  65.889  1.00  0.00     0.074 A  
HETATM   10  C   UNL     1      -7.328  17.164  66.944  1.00  0.00    -0.242 A  
HETATM   11  C   UNL     1      -6.153  17.909  66.739  1.00  0.00    -0.195 A  
HETATM   12  C   UNL     1      -5.309  18.213  67.806  1.00  0.00    -0.151 A  
HETATM   13  C   UNL     1      -5.629  17.775  69.086  1.00  0.00    -0.195 A  
HETATM   14  C   UNL     1      -6.801  17.046  69.301  1.00  0.00    -0.219 A  
HETATM   15  C   UNL     1      -7.686  16.734  68.238  1.00  0.00    -0.187 A  
ENDBRANCH   4   6
TORSDOF 1
ENDMDL
MODEL      183
REMARK 921   NORMALIZED FREE ENERGY PREDICTED BY IDOCK:   -2.34 KCAL/MOL
REMARK 922        TOTAL FREE ENERGY PREDICTED BY IDOCK:   -2.52 KCAL/MOL
REMARK 923 INTER-LIGAND FREE ENERGY PREDICTED BY IDOCK:   -2.48 KCAL/MOL
REMARK 924 INTRA-LIGAND FREE ENERGY PREDICTED BY IDOCK:   -0.04 KCAL/MOL
REMARK 927      BINDING AFFINITY PREDICTED BY RF-SCORE:    0.00 PKD
ROOT
HETATM    1  N   UNL     1     -11.968  15.212  70.193  1.00  0.00    -0.311 NA 
HETATM    2  H1  UNL     1     -12.608  15.895  70.600  1.00  0.00     0.000 HD 
HETATM    3  H2  UNL     1     -11.569  14.635  70.933  1.00  0.00     0.000 HD 
HETATM    4  N   UNL     1     -10.927  15.723  69.372  1.00  0.00    -0.271 NA 
HETATM    5  H   UNL     1     -10.825  16.723  69.199  1.00  0.00     0.000 HD 
ENDROOT
BRANCH   4   6
HETATM    6  C   UNL     1     -10.025  14.762  68.799  1.00  0.00    -0.234 A  
HETATM    7  N   UNL     1     -10.450  13.492  68.566  1.00  0.00    -0.242 NA 
HETATM    8  N   UNL     1      -9.624  12.571  67.990  1.00  0.00    -0.206 NA 
HETATM    9  C   UNL     1      -8.370  12.929  67.667  1.00  0.00    -0.176 A  
HETATM   10  C   UNL     1      -7.850  14.195  67.914  1.00  0.00    -0.157 A  
HETATM   11  C   UNL     1      -6.523  14.523  67.583  1.00  0.00    -0.153 A  
HETATM   12  C   UNL     1      -6.010  15.787  67.871  1.00  0.00    -0.156 A  
HETATM   13  C   UNL     1      -6.816  16.733  68.492  1.00  0.00    -0.164 A  
HETATM   14  C   UNL     1      -8.140  16.421  68.812  1.00  0.00    -0.234 A  
HETATM   15  C   UNL     1      -8.693  15.148  68.519  1.00  0.00    -0.172 A  
ENDBRANCH   4   6
TORSDOF 1
ENDMDL
MODEL      184
REMARK 921   NORMALIZED FREE ENERGY PREDICTED BY IDOCK:   -2.34 KCAL/MOL
REMARK 922        TOTAL FREE ENERGY PREDICTED BY IDOCK:   -2.51 KCAL/MOL
REMARK 923 INTER-LIGAND FREE ENERGY PREDICTED BY IDOCK:   -2.46 KCAL/MOL
REMARK 924 INTRA-LIGAND FREE ENERGY PREDICTED BY IDOCK:   -0.06 KCAL/MOL
REMARK 927      BINDING AFFINITY PREDICTED BY RF-SCORE:    0.00 PKD
ROOT
HETATM    1  N   UNL     1     -12.168   5.970  72.742  1.00  0.00    -0.501 NA 
HETATM    2  H1  UNL     1     -12.485   6.374  73.624  1.00  0.00     0.000 HD 
HETATM    3  H2  UNL     1     -12.444   4.989  72.696  1.00  0.00     0.000 HD 
HETATM    4  N   UNL     1     -10.784   6.090  72.446  1.00  0.00    -0.216 NA 
HETATM    5  H   UNL     1     -10.139   6.556  73.084  1.00  0.00     0.000 HD 
ENDROOT
BRANCH   4   6
HETATM    6  C   UNL     1     -10.337   5.521  71.204  1.00  0.00    -0.234 A  
HETATM    7  N   UNL     1     -10.149   4.179  71.104  1.00  0.00    -0.133 NA 
HETATM    8  N   UNL     1      -9.759   3.611  69.926  1.00  0.00    -0.162 NA 
HETATM    9  C   UNL     1      -9.545   4.400  68.859  1.00  0.00    -0.163 A  
HETATM   10  C   UNL     1      -9.675   5.784  68.895  1.00  0.00    -0.174 A  
HETATM   11  C   UNL     1      -9.417   6.577  67.763  1.00  0.00    -0.119 A  
HETATM   12  C   UNL     1      -9.519   7.966  67.829  1.00  0.00    -0.165 A  
HETATM   13  C   UNL     1      -9.877   8.575  69.026  1.00  0.00    -0.184 A  
HETATM   14  C   UNL     1     -10.147   7.795  70.153  1.00  0.00    -0.197 A  
HETATM   15  C   UNL     1     -10.065   6.379  70.112  1.00  0.00    -0.209 A  
ENDBRANCH   4   6
TORSDOF 1
ENDMDL
MODEL      185
REMARK 921   NORMALIZED FREE ENERGY PREDICTED BY IDOCK:   -2.31 KCAL/MOL
REMARK 922        TOTAL FREE ENERGY PREDICTED BY IDOCK:   -2.49 KCAL/MOL
REMARK 923 INTER-LIGAND FREE ENERGY PREDICTED BY IDOCK:   -2.44 KCAL/MOL
REMARK 924 INTRA-LIGAND FREE ENERGY PREDICTED BY IDOCK:   -0.05 KCAL/MOL
REMARK 927      BINDING AFFINITY PREDICTED BY RF-SCORE:    0.00 PKD
ROOT
HETATM    1  N   UNL     1     -10.970   5.379  66.121  1.00  0.00    -0.767 NA 
HETATM    2  H1  UNL     1     -11.073   4.632  65.434  1.00  0.00     0.000 HD 
HETATM    3  H2  UNL     1     -11.682   6.091  65.961  1.00  0.00     0.000 HD 
HETATM    4  N   UNL     1      -9.693   5.993  66.211  1.00  0.00    -0.306 NA 
HETATM    5  H   UNL     1      -8.916   5.702  65.617  1.00  0.00     0.000 HD 
ENDROOT
BRANCH   4   6
HETATM    6  C   UNL     1      -9.548   7.045  67.180  1.00  0.00    -0.149 A  
HETATM    7  N   UNL     1      -9.839   8.326  66.835  1.00  0.00    -0.222 NA 
HETATM    8  N   UNL     1      -9.744   9.337  67.746  1.00  0.00    -0.145 NA 
HETATM    9  C   UNL     1      -9.339   9.054  68.997  1.00  0.00    -0.140 A  
HETATM   10  C   UNL     1      -8.982   7.776  69.413  1.00  0.00    -0.142 A  
HETATM   11  C   UNL     1      -8.540   7.526  70.724  1.00  0.00    -0.135 A  
HETATM   12  C   UNL     1      -8.154   6.243  71.111  1.00  0.00    -0.118 A  
HETATM   13  C   UNL     1      -8.204   5.201  70.193  1.00  0.00    -0.086 A  
HETATM   14  C   UNL     1      -8.654   5.438  68.892  1.00  0.00    -0.099 A  
HETATM   15  C   UNL     1      -9.067   6.729  68.473  1.00  0.00    -0.129 A  
ENDBRANCH   4   6
TORSDOF 1
ENDMDL
MODEL      186
REMARK 921   NORMALIZED FREE ENERGY PREDICTED BY IDOCK:   -2.26 KCAL/MOL
REMARK 922        TOTAL FREE ENERGY PREDICTED BY IDOCK:   -2.44 KCAL/MOL
REMARK 923 INTER-LIGAND FREE ENERGY PREDICTED BY IDOCK:   -2.40 KCAL/MOL
REMARK 924 INTRA-LIGAND FREE ENERGY PREDICTED BY IDOCK:   -0.04 KCAL/MOL
REMARK 927      BINDING AFFINITY PREDICTED BY RF-SCORE:    0.00 PKD
ROOT
HETATM    1  N   UNL     1     -10.950   5.356  66.040  1.00  0.00    -0.764 NA 
HETATM    2  H1  UNL     1     -11.129   4.480  65.550  1.00  0.00     0.000 HD 
HETATM    3  H2  UNL     1     -11.697   6.020  65.836  1.00  0.00     0.000 HD 
HETATM    4  N   UNL     1      -9.691   5.971  65.811  1.00  0.00    -0.370 NA 
HETATM    5  H   UNL     1      -8.999   5.556  65.187  1.00  0.00     0.000 HD 
ENDROOT
BRANCH   4   6
HETATM    6  C   UNL     1      -9.438   7.206  66.502  1.00  0.00    -0.156 A  
HETATM    7  N   UNL     1     -10.478   7.926  66.999  1.00  0.00    -0.342 NA 
HETATM    8  N   UNL     1     -10.263   9.083  67.690  1.00  0.00    -0.226 NA 
HETATM    9  C   UNL     1      -9.003   9.518  67.861  1.00  0.00    -0.123 A  
HETATM   10  C   UNL     1      -7.892   8.860  67.345  1.00  0.00    -0.097 A  
HETATM   11  C   UNL     1      -6.590   9.361  67.526  1.00  0.00    -0.064 A  
HETATM   12  C   UNL     1      -5.492   8.704  66.971  1.00  0.00    -0.037 A  
HETATM   13  C   UNL     1      -5.685   7.544  66.230  1.00  0.00    -0.036 A  
HETATM   14  C   UNL     1      -6.973   7.032  66.056  1.00  0.00    -0.065 A  
HETATM   15  C   UNL     1      -8.107   7.670  66.621  1.00  0.00    -0.119 A  
ENDBRANCH   4   6
TORSDOF 1
ENDMDL
MODEL      187
REMARK 921   NORMALIZED FREE ENERGY PREDICTED BY IDOCK:   -2.25 KCAL/MOL
REMARK 922        TOTAL FREE ENERGY PREDICTED BY IDOCK:   -2.42 KCAL/MOL
REMARK 923 INTER-LIGAND FREE ENERGY PREDICTED BY IDOCK:   -2.37 KCAL/MOL
REMARK 924 INTRA-LIGAND FREE ENERGY PREDICTED BY IDOCK:   -0.05 KCAL/MOL
REMARK 927      BINDING AFFINITY PREDICTED BY RF-SCORE:    0.00 PKD
ROOT
HETATM    1  N   UNL     1      -7.600   5.628  68.819  1.00  0.00    -0.087 NA 
HETATM    2  H1  UNL     1      -7.527   5.281  67.862  1.00  0.00     0.000 HD 
HETATM    3  H2  UNL     1      -6.668   5.825  69.183  1.00  0.00     0.000 HD 
HETATM    4  N   UNL     1      -8.309   4.813  69.741  1.00  0.00    -0.074 NA 
HETATM    5  H   UNL     1      -8.724   3.925  69.461  1.00  0.00     0.000 HD 
ENDROOT
BRANCH   4   6
HETATM    6  C   UNL     1      -8.412   5.301  71.089  1.00  0.00    -0.123 A  
HETATM    7  N   UNL     1      -7.443   4.998  71.994  1.00  0.00    -0.088 NA 
HETATM    8  N   UNL     1      -7.500   5.479  73.269  1.00  0.00    -0.095 NA 
HETATM    9  C   UNL     1      -8.541   6.248  73.633  1.00  0.00    -0.123 A  
HETATM   10  C   UNL     1      -9.591   6.565  72.778  1.00  0.00    -0.157 A  
HETATM   11  C   UNL     1     -10.675   7.353  73.204  1.00  0.00    -0.436 A  
HETATM   12  C   UNL     1     -11.734   7.631  72.342  1.00  0.00    -0.366 A  
HETATM   13  C   UNL     1     -11.723   7.123  71.048  1.00  0.00    -0.358 A  
HETATM   14  C   UNL     1     -10.644   6.350  70.612  1.00  0.00    -0.288 A  
HETATM   15  C   UNL     1      -9.545   6.062  71.462  1.00  0.00    -0.175 A  
ENDBRANCH   4   6
TORSDOF 1
ENDMDL
MODEL      188
REMARK 921   NORMALIZED FREE ENERGY PREDICTED BY IDOCK:   -2.22 KCAL/MOL
REMARK 922        TOTAL FREE ENERGY PREDICTED BY IDOCK:   -2.39 KCAL/MOL
REMARK 923 INTER-LIGAND FREE ENERGY PREDICTED BY IDOCK:   -2.37 KCAL/MOL
REMARK 924 INTRA-LIGAND FREE ENERGY PREDICTED BY IDOCK:   -0.02 KCAL/MOL
REMARK 927      BINDING AFFINITY PREDICTED BY RF-SCORE:    0.00 PKD
ROOT
HETATM    1  N   UNL     1      -8.097   7.186  68.641  1.00  0.00    -0.123 NA 
HETATM    2  H1  UNL     1      -7.244   7.435  68.141  1.00  0.00     0.000 HD 
HETATM    3  H2  UNL     1      -8.906   7.352  68.041  1.00  0.00     0.000 HD 
HETATM    4  N   UNL     1      -8.303   7.806  69.902  1.00  0.00    -0.129 NA 
HETATM    5  H   UNL     1      -7.631   8.468  70.288  1.00  0.00     0.000 HD 
ENDROOT
BRANCH   4   6
HETATM    6  C   UNL     1      -9.506   7.454  70.607  1.00  0.00    -0.164 A  
HETATM    7  N   UNL     1     -10.614   8.232  70.482  1.00  0.00    -0.215 NA 
HETATM    8  N   UNL     1     -11.778   7.901  71.112  1.00  0.00    -0.284 NA 
HETATM    9  C   UNL     1     -11.815   6.797  71.877  1.00  0.00    -0.326 A  
HETATM   10  C   UNL     1     -10.713   5.976  72.088  1.00  0.00    -0.270 A  
HETATM   11  C   UNL     1     -10.786   4.843  72.918  1.00  0.00    -0.313 A  
HETATM   12  C   UNL     1      -9.660   4.052  73.144  1.00  0.00    -0.146 A  
HETATM   13  C   UNL     1      -8.451   4.387  72.546  1.00  0.00    -0.109 A  
HETATM   14  C   UNL     1      -8.372   5.504  71.710  1.00  0.00    -0.120 A  
HETATM   15  C   UNL     1      -9.504   6.319  71.451  1.00  0.00    -0.167 A  
ENDBRANCH   4   6
TORSDOF 1
ENDMDL
MODEL      189
REMARK 921   NORMALIZED FREE ENERGY PREDICTED BY IDOCK:   -2.19 KCAL/MOL
REMARK 922        TOTAL FREE ENERGY PREDICTED BY IDOCK:   -2.36 KCAL/MOL
REMARK 923 INTER-LIGAND FREE ENERGY PREDICTED BY IDOCK:   -2.30 KCAL/MOL
REMARK 924 INTRA-LIGAND FREE ENERGY PREDICTED BY IDOCK:   -0.06 KCAL/MOL
REMARK 927      BINDING AFFINITY PREDICTED BY RF-SCORE:    0.00 PKD
ROOT
HETATM    1  N   UNL     1      -8.272  11.138  65.862  1.00  0.00    -0.324 NA 
HETATM    2  H1  UNL     1      -7.738  11.989  65.684  1.00  0.00     0.000 HD 
HETATM    3  H2  UNL     1      -9.210  11.383  66.178  1.00  0.00     0.000 HD 
HETATM    4  N   UNL     1      -7.697  10.199  66.759  1.00  0.00    -0.103 NA 
HETATM    5  H   UNL     1      -6.795  10.367  67.203  1.00  0.00     0.000 HD 
ENDROOT
BRANCH   4   6
HETATM    6  C   UNL     1      -8.449   8.999  67.010  1.00  0.00    -0.120 A  
HETATM    7  N   UNL     1      -8.482   8.014  66.073  1.00  0.00    -0.128 NA 
HETATM    8  N   UNL     1      -9.158   6.852  66.302  1.00  0.00    -0.156 NA 
HETATM    9  C   UNL     1      -9.812   6.694  67.466  1.00  0.00    -0.129 A  
HETATM   10  C   UNL     1      -9.861   7.672  68.453  1.00  0.00    -0.176 A  
HETATM   11  C   UNL     1     -10.578   7.478  69.647  1.00  0.00    -0.243 A  
HETATM   12  C   UNL     1     -10.643   8.485  70.609  1.00  0.00    -0.241 A  
HETATM   13  C   UNL     1      -9.995   9.694  70.387  1.00  0.00    -0.330 A  
HETATM   14  C   UNL     1      -9.270   9.891  69.209  1.00  0.00    -0.207 A  
HETATM   15  C   UNL     1      -9.175   8.880  68.219  1.00  0.00    -0.143 A  
ENDBRANCH   4   6
TORSDOF 1
ENDMDL
MODEL      190
REMARK 921   NORMALIZED FREE ENERGY PREDICTED BY IDOCK:   -2.19 KCAL/MOL
REMARK 922        TOTAL FREE ENERGY PREDICTED BY IDOCK:   -2.36 KCAL/MOL
REMARK 923 INTER-LIGAND FREE ENERGY PREDICTED BY IDOCK:   -2.52 KCAL/MOL
REMARK 924 INTRA-LIGAND FREE ENERGY PREDICTED BY IDOCK:    0.17 KCAL/MOL
REMARK 927      BINDING AFFINITY PREDICTED BY RF-SCORE:    0.00 PKD
ROOT
HETATM    1  N   UNL     1     -12.004  12.574  69.294  1.00  0.00    -0.281 NA 
HETATM    2  H1  UNL     1     -12.821  13.161  69.462  1.00  0.00     0.000 HD 
HETATM    3  H2  UNL     1     -11.156  13.102  69.498  1.00  0.00     0.000 HD 
HETATM    4  N   UNL     1     -11.898  11.980  68.008  1.00  0.00    -0.498 NA 
HETATM    5  H   UNL     1     -12.604  12.134  67.288  1.00  0.00     0.000 HD 
ENDROOT
BRANCH   4   6
HETATM    6  C   UNL     1     -10.747  11.152  67.771  1.00  0.00    -0.222 A  
HETATM    7  N   UNL     1     -10.889   9.802  67.700  1.00  0.00    -0.279 NA 
HETATM    8  N   UNL     1      -9.819   8.997  67.441  1.00  0.00    -0.177 NA 
HETATM    9  C   UNL     1      -8.607   9.555  67.270  1.00  0.00    -0.128 A  
HETATM   10  C   UNL     1      -8.376  10.922  67.371  1.00  0.00    -0.117 A  
HETATM   11  C   UNL     1      -7.088  11.464  67.210  1.00  0.00    -0.119 A  
HETATM   12  C   UNL     1      -6.871  12.834  67.349  1.00  0.00    -0.137 A  
HETATM   13  C   UNL     1      -7.936  13.674  67.651  1.00  0.00    -0.180 A  
HETATM   14  C   UNL     1      -9.221  13.147  67.799  1.00  0.00    -0.203 A  
HETATM   15  C   UNL     1      -9.475  11.759  67.650  1.00  0.00    -0.180 A  
ENDBRANCH   4   6
TORSDOF 1
ENDMDL
MODEL      191
REMARK 921   NORMALIZED FREE ENERGY PREDICTED BY IDOCK:   -2.18 KCAL/MOL
REMARK 922        TOTAL FREE ENERGY PREDICTED BY IDOCK:   -2.34 KCAL/MOL
REMARK 923 INTER-LIGAND FREE ENERGY PREDICTED BY IDOCK:   -3.35 KCAL/MOL
REMARK 924 INTRA-LIGAND FREE ENERGY PREDICTED BY IDOCK:    1.01 KCAL/MOL
REMARK 927      BINDING AFFINITY PREDICTED BY RF-SCORE:    0.00 PKD
ROOT
HETATM    1  N   UNL     1      -8.871  10.047  63.339  1.00  0.00    -0.214 NA 
HETATM    2  H1  UNL     1      -8.367   9.868  62.470  1.00  0.00     0.000 HD 
HETATM    3  H2  UNL     1      -9.837   9.732  63.245  1.00  0.00     0.000 HD 
HETATM    4  N   UNL     1      -8.850  11.380  63.827  1.00  0.00    -0.392 NA 
HETATM    5  H   UNL     1      -8.356  12.123  63.334  1.00  0.00     0.000 HD 
ENDROOT
BRANCH   4   6
HETATM    6  C   UNL     1      -9.560  11.631  65.052  1.00  0.00    -0.164 A  
HETATM    7  N   UNL     1      -9.925  12.901  65.373  1.00  0.00    -0.237 NA 
HETATM    8  N   UNL     1     -10.630  13.161  66.511  1.00  0.00    -0.282 NA 
HETATM    9  C   UNL     1     -10.950  12.144  67.330  1.00  0.00    -0.260 A  
HETATM   10  C   UNL     1     -10.575  10.826  67.091  1.00  0.00    -0.306 A  
HETATM   11  C   UNL     1     -10.908   9.793  67.985  1.00  0.00    -0.276 A  
HETATM   12  C   UNL     1     -10.493   8.484  67.746  1.00  0.00    -0.287 A  
HETATM   13  C   UNL     1      -9.740   8.195  66.613  1.00  0.00    -0.318 A  
HETATM   14  C   UNL     1      -9.415   9.213  65.713  1.00  0.00    -0.322 A  
HETATM   15  C   UNL     1      -9.836  10.551  65.923  1.00  0.00    -0.291 A  
ENDBRANCH   4   6
TORSDOF 1
ENDMDL
MODEL      192
REMARK 921   NORMALIZED FREE ENERGY PREDICTED BY IDOCK:   -2.17 KCAL/MOL
REMARK 922        TOTAL FREE ENERGY PREDICTED BY IDOCK:   -2.34 KCAL/MOL
REMARK 923 INTER-LIGAND FREE ENERGY PREDICTED BY IDOCK:   -3.14 KCAL/MOL
REMARK 924 INTRA-LIGAND FREE ENERGY PREDICTED BY IDOCK:    0.80 KCAL/MOL
REMARK 927      BINDING AFFINITY PREDICTED BY RF-SCORE:    0.00 PKD
ROOT
HETATM    1  N   UNL     1      -7.539   9.511  67.731  1.00  0.00    -0.087 NA 
HETATM    2  H1  UNL     1      -6.593   9.149  67.611  1.00  0.00     0.000 HD 
HETATM    3  H2  UNL     1      -8.203   8.891  67.268  1.00  0.00     0.000 HD 
HETATM    4  N   UNL     1      -7.767  10.850  67.315  1.00  0.00    -0.108 NA 
HETATM    5  H   UNL     1      -7.022  11.421  66.917  1.00  0.00     0.000 HD 
ENDROOT
BRANCH   4   6
HETATM    6  C   UNL     1      -9.100  11.361  67.484  1.00  0.00    -0.157 A  
HETATM    7  N   UNL     1      -9.586  12.283  66.611  1.00  0.00    -0.218 NA 
HETATM    8  N   UNL     1     -10.860  12.757  66.728  1.00  0.00    -0.260 NA 
HETATM    9  C   UNL     1     -11.633  12.312  67.734  1.00  0.00    -0.351 A  
HETATM   10  C   UNL     1     -11.193  11.403  68.690  1.00  0.00    -0.303 A  
HETATM   11  C   UNL     1     -12.025  10.982  69.743  1.00  0.00    -0.428 A  
HETATM   12  C   UNL     1     -11.554  10.096  70.711  1.00  0.00    -0.445 A  
HETATM   13  C   UNL     1     -10.248   9.627  70.639  1.00  0.00    -0.346 A  
HETATM   14  C   UNL     1      -9.418  10.030  69.590  1.00  0.00    -0.247 A  
HETATM   15  C   UNL     1      -9.874  10.919  68.583  1.00  0.00    -0.194 A  
ENDBRANCH   4   6
TORSDOF 1
ENDMDL
MODEL      193
REMARK 921   NORMALIZED FREE ENERGY PREDICTED BY IDOCK:   -2.17 KCAL/MOL
REMARK 922        TOTAL FREE ENERGY PREDICTED BY IDOCK:   -2.34 KCAL/MOL
REMARK 923 INTER-LIGAND FREE ENERGY PREDICTED BY IDOCK:   -3.30 KCAL/MOL
REMARK 924 INTRA-LIGAND FREE ENERGY PREDICTED BY IDOCK:    0.96 KCAL/MOL
REMARK 927      BINDING AFFINITY PREDICTED BY RF-SCORE:    0.00 PKD
ROOT
HETATM    1  N   UNL     1     -10.624  15.217  67.569  1.00  0.00    -0.264 NA 
HETATM    2  H1  UNL     1     -10.206  15.996  67.061  1.00  0.00     0.000 HD 
HETATM    3  H2  UNL     1     -11.358  14.793  67.001  1.00  0.00     0.000 HD 
HETATM    4  N   UNL     1     -11.129  15.498  68.867  1.00  0.00    -0.263 NA 
HETATM    5  H   UNL     1     -11.075  16.433  69.271  1.00  0.00     0.000 HD 
ENDROOT
BRANCH   4   6
HETATM    6  C   UNL     1     -11.718  14.399  69.584  1.00  0.00    -0.309 A  
HETATM    7  N   UNL     1     -12.604  14.644  70.584  1.00  0.00    -0.339 NA 
HETATM    8  N   UNL     1     -13.204  13.619  71.255  1.00  0.00    -0.277 NA 
HETATM    9  C   UNL     1     -12.896  12.352  70.926  1.00  0.00    -0.090 A  
HETATM   10  C   UNL     1     -11.967  12.024  69.945  1.00  0.00    -0.391 A  
HETATM   11  C   UNL     1     -11.654  10.685  69.647  1.00  0.00    -0.368 A  
HETATM   12  C   UNL     1     -10.695  10.377  68.683  1.00  0.00    -0.250 A  
HETATM   13  C   UNL     1     -10.039  11.402  68.010  1.00  0.00    -0.193 A  
HETATM   14  C   UNL     1     -10.353  12.734  68.290  1.00  0.00    -0.248 A  
HETATM   15  C   UNL     1     -11.335  13.077  69.256  1.00  0.00    -0.310 A  
ENDBRANCH   4   6
TORSDOF 1
ENDMDL
MODEL      194
REMARK 921   NORMALIZED FREE ENERGY PREDICTED BY IDOCK:   -2.15 KCAL/MOL
REMARK 922        TOTAL FREE ENERGY PREDICTED BY IDOCK:   -2.31 KCAL/MOL
REMARK 923 INTER-LIGAND FREE ENERGY PREDICTED BY IDOCK:   -2.26 KCAL/MOL
REMARK 924 INTRA-LIGAND FREE ENERGY PREDICTED BY IDOCK:   -0.06 KCAL/MOL
REMARK 927      BINDING AFFINITY PREDICTED BY RF-SCORE:    0.00 PKD
ROOT
HETATM    1  N   UNL     1      -7.411   7.473  70.539  1.00  0.00    -0.074 NA 
HETATM    2  H1  UNL     1      -6.868   7.672  71.379  1.00  0.00     0.000 HD 
HETATM    3  H2  UNL     1      -6.782   7.375  69.741  1.00  0.00     0.000 HD 
HETATM    4  N   UNL     1      -8.449   8.387  70.219  1.00  0.00    -0.122 NA 
HETATM    5  H   UNL     1      -8.643   9.202  70.800  1.00  0.00     0.000 HD 
ENDROOT
BRANCH   4   6
HETATM    6  C   UNL     1      -9.215   8.107  69.034  1.00  0.00    -0.148 A  
HETATM    7  N   UNL     1      -9.995   6.995  68.981  1.00  0.00    -0.160 NA 
HETATM    8  N   UNL     1     -10.758   6.726  67.883  1.00  0.00    -0.242 NA 
HETATM    9  C   UNL     1     -10.720   7.569  66.837  1.00  0.00    -0.229 A  
HETATM   10  C   UNL     1      -9.915   8.702  66.800  1.00  0.00    -0.343 A  
HETATM   11  C   UNL     1      -9.884   9.547  65.675  1.00  0.00    -0.343 A  
HETATM   12  C   UNL     1      -9.044  10.659  65.644  1.00  0.00    -0.206 A  
HETATM   13  C   UNL     1      -8.227  10.937  66.734  1.00  0.00    -0.140 A  
HETATM   14  C   UNL     1      -8.260  10.111  67.860  1.00  0.00    -0.109 A  
HETATM   15  C   UNL     1      -9.114   8.981  67.926  1.00  0.00    -0.141 A  
ENDBRANCH   4   6
TORSDOF 1
ENDMDL
MODEL      195
REMARK 921   NORMALIZED FREE ENERGY PREDICTED BY IDOCK:   -2.13 KCAL/MOL
REMARK 922        TOTAL FREE ENERGY PREDICTED BY IDOCK:   -2.29 KCAL/MOL
REMARK 923 INTER-LIGAND FREE ENERGY PREDICTED BY IDOCK:   -2.25 KCAL/MOL
REMARK 924 INTRA-LIGAND FREE ENERGY PREDICTED BY IDOCK:   -0.04 KCAL/MOL
REMARK 927      BINDING AFFINITY PREDICTED BY RF-SCORE:    0.00 PKD
ROOT
HETATM    1  N   UNL     1      -8.280   8.199  68.740  1.00  0.00    -0.123 NA 
HETATM    2  H1  UNL     1      -8.650   7.304  69.063  1.00  0.00     0.000 HD 
HETATM    3  H2  UNL     1      -7.387   8.383  69.197  1.00  0.00     0.000 HD 
HETATM    4  N   UNL     1      -9.129   9.329  68.879  1.00  0.00    -0.138 NA 
HETATM    5  H   UNL     1     -10.062   9.250  69.281  1.00  0.00     0.000 HD 
ENDROOT
BRANCH   4   6
HETATM    6  C   UNL     1      -8.607  10.589  68.424  1.00  0.00    -0.132 A  
HETATM    7  N   UNL     1      -7.282  10.711  68.148  1.00  0.00    -0.085 NA 
HETATM    8  N   UNL     1      -6.769  11.886  67.681  1.00  0.00    -0.093 NA 
HETATM    9  C   UNL     1      -7.590  12.937  67.511  1.00  0.00    -0.164 A  
HETATM   10  C   UNL     1      -8.947  12.902  67.813  1.00  0.00    -0.191 A  
HETATM   11  C   UNL     1      -9.768  14.031  67.645  1.00  0.00    -0.228 A  
HETATM   12  C   UNL     1     -11.119  13.985  67.986  1.00  0.00    -0.282 A  
HETATM   13  C   UNL     1     -11.661  12.813  68.501  1.00  0.00    -0.371 A  
HETATM   14  C   UNL     1     -10.856  11.682  68.659  1.00  0.00    -0.253 A  
HETATM   15  C   UNL     1      -9.482  11.695  68.307  1.00  0.00    -0.191 A  
ENDBRANCH   4   6
TORSDOF 1
ENDMDL
MODEL      196
REMARK 921   NORMALIZED FREE ENERGY PREDICTED BY IDOCK:   -2.08 KCAL/MOL
REMARK 922        TOTAL FREE ENERGY PREDICTED BY IDOCK:   -2.24 KCAL/MOL
REMARK 923 INTER-LIGAND FREE ENERGY PREDICTED BY IDOCK:   -2.19 KCAL/MOL
REMARK 924 INTRA-LIGAND FREE ENERGY PREDICTED BY IDOCK:   -0.05 KCAL/MOL
REMARK 927      BINDING AFFINITY PREDICTED BY RF-SCORE:    0.00 PKD
ROOT
HETATM    1  N   UNL     1      -5.812   5.706  64.411  1.00  0.00    -0.021 NA 
HETATM    2  H1  UNL     1      -5.016   6.066  63.884  1.00  0.00     0.000 HD 
HETATM    3  H2  UNL     1      -5.838   4.689  64.338  1.00  0.00     0.000 HD 
HETATM    4  N   UNL     1      -7.087   6.241  64.086  1.00  0.00    -0.054 NA 
HETATM    5  H   UNL     1      -7.201   6.950  63.362  1.00  0.00     0.000 HD 
ENDROOT
BRANCH   4   6
HETATM    6  C   UNL     1      -8.209   5.734  64.828  1.00  0.00    -0.135 A  
HETATM    7  N   UNL     1      -8.554   4.424  64.720  1.00  0.00    -0.126 NA 
HETATM    8  N   UNL     1      -9.592   3.911  65.442  1.00  0.00    -0.175 NA 
HETATM    9  C   UNL     1     -10.288   4.723  66.256  1.00  0.00    -0.291 A  
HETATM   10  C   UNL     1     -10.023   6.082  66.386  1.00  0.00    -0.145 A  
HETATM   11  C   UNL     1     -10.790   6.904  67.230  1.00  0.00    -0.426 A  
HETATM   12  C   UNL     1     -10.530   8.271  67.321  1.00  0.00    -0.373 A  
HETATM   13  C   UNL     1      -9.503   8.829  66.569  1.00  0.00    -0.281 A  
HETATM   14  C   UNL     1      -8.727   8.018  65.737  1.00  0.00    -0.175 A  
HETATM   15  C   UNL     1      -8.959   6.622  65.635  1.00  0.00     0.010 A  
ENDBRANCH   4   6
TORSDOF 1
ENDMDL
MODEL      197
REMARK 921   NORMALIZED FREE ENERGY PREDICTED BY IDOCK:   -2.07 KCAL/MOL
REMARK 922        TOTAL FREE ENERGY PREDICTED BY IDOCK:   -2.23 KCAL/MOL
REMARK 923 INTER-LIGAND FREE ENERGY PREDICTED BY IDOCK:   -2.19 KCAL/MOL
REMARK 924 INTRA-LIGAND FREE ENERGY PREDICTED BY IDOCK:   -0.04 KCAL/MOL
REMARK 927      BINDING AFFINITY PREDICTED BY RF-SCORE:    0.00 PKD
ROOT
HETATM    1  N   UNL     1      -9.319  13.233  66.421  1.00  0.00    -0.408 NA 
HETATM    2  H1  UNL     1     -10.136  13.601  65.934  1.00  0.00     0.000 HD 
HETATM    3  H2  UNL     1      -8.558  13.095  65.755  1.00  0.00     0.000 HD 
HETATM    4  N   UNL     1      -9.508  12.050  67.182  1.00  0.00    -0.184 NA 
HETATM    5  H   UNL     1     -10.417  11.590  67.239  1.00  0.00     0.000 HD 
ENDROOT
BRANCH   4   6
HETATM    6  C   UNL     1      -8.357  11.531  67.869  1.00  0.00    -0.136 A  
HETATM    7  N   UNL     1      -7.110  11.823  67.412  1.00  0.00    -0.116 NA 
HETATM    8  N   UNL     1      -6.001  11.372  68.067  1.00  0.00    -0.046 NA 
HETATM    9  C   UNL     1      -6.153  10.617  69.168  1.00  0.00    -0.042 A  
HETATM   10  C   UNL     1      -7.394  10.241  69.670  1.00  0.00    -0.150 A  
HETATM   11  C   UNL     1      -7.510   9.427  70.812  1.00  0.00    -0.132 A  
HETATM   12  C   UNL     1      -8.763   9.033  71.279  1.00  0.00    -0.240 A  
HETATM   13  C   UNL     1      -9.910   9.445  70.610  1.00  0.00    -0.340 A  
HETATM   14  C   UNL     1      -9.805  10.263  69.483  1.00  0.00    -0.244 A  
HETATM   15  C   UNL     1      -8.544  10.692  68.993  1.00  0.00    -0.150 A  
ENDBRANCH   4   6
TORSDOF 1
ENDMDL
MODEL      198
REMARK 921   NORMALIZED FREE ENERGY PREDICTED BY IDOCK:   -2.04 KCAL/MOL
REMARK 922        TOTAL FREE ENERGY PREDICTED BY IDOCK:   -2.20 KCAL/MOL
REMARK 923 INTER-LIGAND FREE ENERGY PREDICTED BY IDOCK:   -2.15 KCAL/MOL
REMARK 924 INTRA-LIGAND FREE ENERGY PREDICTED BY IDOCK:   -0.05 KCAL/MOL
REMARK 927      BINDING AFFINITY PREDICTED BY RF-SCORE:    0.00 PKD
ROOT
HETATM    1  N   UNL     1      -5.403   5.621  69.775  1.00  0.00    -0.004 NA 
HETATM    2  H1  UNL     1      -4.450   5.814  69.463  1.00  0.00     0.000 HD 
HETATM    3  H2  UNL     1      -5.731   4.752  69.354  1.00  0.00     0.000 HD 
HETATM    4  N   UNL     1      -6.363   6.646  69.563  1.00  0.00    -0.041 NA 
HETATM    5  H   UNL     1      -6.113   7.530  69.121  1.00  0.00     0.000 HD 
ENDROOT
BRANCH   4   6
HETATM    6  C   UNL     1      -7.705   6.375  70.002  1.00  0.00    -0.102 A  
HETATM    7  N   UNL     1      -7.944   6.094  71.310  1.00  0.00    -0.111 NA 
HETATM    8  N   UNL     1      -9.212   5.869  71.759  1.00  0.00    -0.148 NA 
HETATM    9  C   UNL     1     -10.232   5.912  70.884  1.00  0.00    -0.213 A  
HETATM   10  C   UNL     1     -10.063   6.150  69.525  1.00  0.00    -0.232 A  
HETATM   11  C   UNL     1     -11.154   6.162  68.638  1.00  0.00    -0.378 A  
HETATM   12  C   UNL     1     -10.958   6.369  67.273  1.00  0.00    -0.474 A  
HETATM   13  C   UNL     1      -9.673   6.563  66.782  1.00  0.00    -0.208 A  
HETATM   14  C   UNL     1      -8.584   6.565  67.657  1.00  0.00    -0.116 A  
HETATM   15  C   UNL     1      -8.754   6.371  69.052  1.00  0.00    -0.123 A  
ENDBRANCH   4   6
TORSDOF 1
ENDMDL
MODEL      199
REMARK 921   NORMALIZED FREE ENERGY PREDICTED BY IDOCK:   -1.99 KCAL/MOL
REMARK 922        TOTAL FREE ENERGY PREDICTED BY IDOCK:   -2.15 KCAL/MOL
REMARK 923 INTER-LIGAND FREE ENERGY PREDICTED BY IDOCK:   -2.10 KCAL/MOL
REMARK 924 INTRA-LIGAND FREE ENERGY PREDICTED BY IDOCK:   -0.05 KCAL/MOL
REMARK 927      BINDING AFFINITY PREDICTED BY RF-SCORE:    0.00 PKD
ROOT
HETATM    1  N   UNL     1      -8.309   6.262  68.620  1.00  0.00    -0.112 NA 
HETATM    2  H1  UNL     1      -8.678   5.311  68.633  1.00  0.00     0.000 HD 
HETATM    3  H2  UNL     1      -7.449   6.302  69.168  1.00  0.00     0.000 HD 
HETATM    4  N   UNL     1      -9.189   7.295  69.037  1.00  0.00    -0.140 NA 
HETATM    5  H   UNL     1     -10.144   7.096  69.336  1.00  0.00     0.000 HD 
ENDROOT
BRANCH   4   6
HETATM    6  C   UNL     1      -8.669   8.635  69.019  1.00  0.00    -0.134 A  
HETATM    7  N   UNL     1      -7.980   9.106  70.091  1.00  0.00    -0.104 NA 
HETATM    8  N   UNL     1      -7.445  10.362  70.084  1.00  0.00    -0.179 NA 
HETATM    9  C   UNL     1      -7.623  11.142  69.003  1.00  0.00    -0.119 A  
HETATM   10  C   UNL     1      -8.352  10.746  67.888  1.00  0.00    -0.117 A  
HETATM   11  C   UNL     1      -8.536  11.602  66.787  1.00  0.00    -0.177 A  
HETATM   12  C   UNL     1      -9.300  11.198  65.692  1.00  0.00    -0.243 A  
HETATM   13  C   UNL     1      -9.888   9.939  65.688  1.00  0.00    -0.368 A  
HETATM   14  C   UNL     1      -9.701   9.078  66.772  1.00  0.00    -0.279 A  
HETATM   15  C   UNL     1      -8.917   9.455  67.893  1.00  0.00    -0.126 A  
ENDBRANCH   4   6
TORSDOF 1
ENDMDL
MODEL      200
REMARK 921   NORMALIZED FREE ENERGY PREDICTED BY IDOCK:   -1.92 KCAL/MOL
REMARK 922        TOTAL FREE ENERGY PREDICTED BY IDOCK:   -2.07 KCAL/MOL
REMARK 923 INTER-LIGAND FREE ENERGY PREDICTED BY IDOCK:   -2.02 KCAL/MOL
REMARK 924 INTRA-LIGAND FREE ENERGY PREDICTED BY IDOCK:   -0.05 KCAL/MOL
REMARK 927      BINDING AFFINITY PREDICTED BY RF-SCORE:    0.00 PKD
ROOT
HETATM    1  N   UNL     1     -10.085   4.776  70.105  1.00  0.00    -0.252 NA 
HETATM    2  H1  UNL     1     -10.800   4.127  70.435  1.00  0.00     0.000 HD 
HETATM    3  H2  UNL     1      -9.702   5.293  70.896  1.00  0.00     0.000 HD 
HETATM    4  N   UNL     1     -10.469   5.684  69.083  1.00  0.00    -0.257 NA 
HETATM    5  H   UNL     1     -11.414   5.687  68.698  1.00  0.00     0.000 HD 
ENDROOT
BRANCH   4   6
HETATM    6  C   UNL     1      -9.462   6.598  68.617  1.00  0.00    -0.128 A  
HETATM    7  N   UNL     1      -8.320   6.117  68.059  1.00  0.00    -0.117 NA 
HETATM    8  N   UNL     1      -7.365   6.963  67.577  1.00  0.00    -0.093 NA 
HETATM    9  C   UNL     1      -7.557   8.290  67.675  1.00  0.00    -0.098 A  
HETATM   10  C   UNL     1      -8.678   8.857  68.272  1.00  0.00    -0.134 A  
HETATM   11  C   UNL     1      -8.830  10.251  68.378  1.00  0.00    -0.129 A  
HETATM   12  C   UNL     1      -9.945  10.798  69.010  1.00  0.00    -0.214 A  
HETATM   13  C   UNL     1     -10.916   9.960  69.545  1.00  0.00    -0.274 A  
HETATM   14  C   UNL     1     -10.780   8.574  69.433  1.00  0.00    -0.166 A  
HETATM   15  C   UNL     1      -9.663   7.988  68.783  1.00  0.00    -0.157 A  
ENDBRANCH   4   6
TORSDOF 1
ENDMDL
MODEL      201
REMARK 921   NORMALIZED FREE ENERGY PREDICTED BY IDOCK:   -1.90 KCAL/MOL
REMARK 922        TOTAL FREE ENERGY PREDICTED BY IDOCK:   -2.05 KCAL/MOL
REMARK 923 INTER-LIGAND FREE ENERGY PREDICTED BY IDOCK:   -2.01 KCAL/MOL
REMARK 924 INTRA-LIGAND FREE ENERGY PREDICTED BY IDOCK:   -0.04 KCAL/MOL
REMARK 927      BINDING AFFINITY PREDICTED BY RF-SCORE:    0.00 PKD
ROOT
HETATM    1  N   UNL     1     -10.666   6.185  68.711  1.00  0.00    -0.275 NA 
HETATM    2  H1  UNL     1     -10.966   5.321  69.163  1.00  0.00     0.000 HD 
HETATM    3  H2  UNL     1     -11.319   6.935  68.940  1.00  0.00     0.000 HD 
HETATM    4  N   UNL     1     -10.471   6.137  67.305  1.00  0.00    -0.219 NA 
HETATM    5  H   UNL     1     -10.623   5.280  66.773  1.00  0.00     0.000 HD 
ENDROOT
BRANCH   4   6
HETATM    6  C   UNL     1     -10.048   7.354  66.668  1.00  0.00    -0.183 A  
HETATM    7  N   UNL     1     -10.651   8.529  66.990  1.00  0.00    -0.290 NA 
HETATM    8  N   UNL     1     -10.244   9.703  66.426  1.00  0.00    -0.240 NA 
HETATM    9  C   UNL     1      -9.243   9.686  65.529  1.00  0.00    -0.234 A  
HETATM   10  C   UNL     1      -8.608   8.519  65.117  1.00  0.00    -0.179 A  
HETATM   11  C   UNL     1      -7.581   8.540  64.157  1.00  0.00    -0.123 A  
HETATM   12  C   UNL     1      -6.980   7.356  63.732  1.00  0.00    -0.059 A  
HETATM   13  C   UNL     1      -7.400   6.141  64.260  1.00  0.00    -0.070 A  
HETATM   14  C   UNL     1      -8.411   6.112  65.224  1.00  0.00    -0.144 A  
HETATM   15  C   UNL     1      -9.031   7.301  65.686  1.00  0.00     0.009 A  
ENDBRANCH   4   6
TORSDOF 1
ENDMDL
MODEL      202
REMARK 921   NORMALIZED FREE ENERGY PREDICTED BY IDOCK:   -1.85 KCAL/MOL
REMARK 922        TOTAL FREE ENERGY PREDICTED BY IDOCK:   -2.00 KCAL/MOL
REMARK 923 INTER-LIGAND FREE ENERGY PREDICTED BY IDOCK:   -1.95 KCAL/MOL
REMARK 924 INTRA-LIGAND FREE ENERGY PREDICTED BY IDOCK:   -0.05 KCAL/MOL
REMARK 927      BINDING AFFINITY PREDICTED BY RF-SCORE:    0.00 PKD
ROOT
HETATM    1  N   UNL     1      -6.917   6.813  65.228  1.00  0.00    -0.054 NA 
HETATM    2  H1  UNL     1      -6.870   6.714  64.213  1.00  0.00     0.000 HD 
HETATM    3  H2  UNL     1      -6.330   6.104  65.668  1.00  0.00     0.000 HD 
HETATM    4  N   UNL     1      -8.211   6.791  65.812  1.00  0.00    -0.129 NA 
HETATM    5  H   UNL     1      -9.052   6.681  65.246  1.00  0.00     0.000 HD 
ENDROOT
BRANCH   4   6
HETATM    6  C   UNL     1      -8.277   6.931  67.241  1.00  0.00    -0.118 A  
HETATM    7  N   UNL     1      -7.522   6.127  68.035  1.00  0.00    -0.088 NA 
HETATM    8  N   UNL     1      -7.540   6.264  69.392  1.00  0.00    -0.096 NA 
HETATM    9  C   UNL     1      -8.332   7.199  69.945  1.00  0.00    -0.135 A  
HETATM   10  C   UNL     1      -9.165   8.028  69.202  1.00  0.00    -0.151 A  
HETATM   11  C   UNL     1      -9.998   8.978  69.820  1.00  0.00    -0.204 A  
HETATM   12  C   UNL     1     -10.852   9.777  69.060  1.00  0.00    -0.223 A  
HETATM   13  C   UNL     1     -10.882   9.633  67.678  1.00  0.00    -0.276 A  
HETATM   14  C   UNL     1     -10.049   8.701  67.055  1.00  0.00    -0.342 A  
HETATM   15  C   UNL     1      -9.160   7.885  67.800  1.00  0.00    -0.138 A  
ENDBRANCH   4   6
TORSDOF 1
ENDMDL
MODEL      203
REMARK 921   NORMALIZED FREE ENERGY PREDICTED BY IDOCK:   -1.76 KCAL/MOL
REMARK 922        TOTAL FREE ENERGY PREDICTED BY IDOCK:   -1.90 KCAL/MOL
REMARK 923 INTER-LIGAND FREE ENERGY PREDICTED BY IDOCK:   -2.21 KCAL/MOL
REMARK 924 INTRA-LIGAND FREE ENERGY PREDICTED BY IDOCK:    0.32 KCAL/MOL
REMARK 927      BINDING AFFINITY PREDICTED BY RF-SCORE:    0.00 PKD
ROOT
HETATM    1  N   UNL     1      -8.993   9.409  63.437  1.00  0.00    -0.405 NA 
HETATM    2  H1  UNL     1      -9.460   9.629  62.557  1.00  0.00     0.000 HD 
HETATM    3  H2  UNL     1      -8.116   9.926  63.498  1.00  0.00     0.000 HD 
HETATM    4  N   UNL     1      -8.755   8.035  63.708  1.00  0.00    -0.260 NA 
HETATM    5  H   UNL     1      -9.037   7.304  63.054  1.00  0.00     0.000 HD 
ENDROOT
BRANCH   4   6
HETATM    6  C   UNL     1      -8.098   7.724  64.948  1.00  0.00    -0.136 A  
HETATM    7  N   UNL     1      -6.937   7.017  64.939  1.00  0.00    -0.050 NA 
HETATM    8  N   UNL     1      -6.275   6.741  66.099  1.00  0.00    -0.043 NA 
HETATM    9  C   UNL     1      -6.795   7.163  67.265  1.00  0.00    -0.073 A  
HETATM   10  C   UNL     1      -7.999   7.853  67.359  1.00  0.00    -0.122 A  
HETATM   11  C   UNL     1      -8.522   8.256  68.600  1.00  0.00    -0.125 A  
HETATM   12  C   UNL     1      -9.747   8.916  68.676  1.00  0.00    -0.169 A  
HETATM   13  C   UNL     1     -10.462   9.177  67.513  1.00  0.00    -0.335 A  
HETATM   14  C   UNL     1      -9.945   8.792  66.274  1.00  0.00    -0.315 A  
HETATM   15  C   UNL     1      -8.694   8.132  66.165  1.00  0.00    -0.179 A  
ENDBRANCH   4   6
TORSDOF 1
ENDMDL
MODEL      204
REMARK 921   NORMALIZED FREE ENERGY PREDICTED BY IDOCK:   -1.72 KCAL/MOL
REMARK 922        TOTAL FREE ENERGY PREDICTED BY IDOCK:   -1.86 KCAL/MOL
REMARK 923 INTER-LIGAND FREE ENERGY PREDICTED BY IDOCK:   -1.83 KCAL/MOL
REMARK 924 INTRA-LIGAND FREE ENERGY PREDICTED BY IDOCK:   -0.03 KCAL/MOL
REMARK 927      BINDING AFFINITY PREDICTED BY RF-SCORE:    0.00 PKD
ROOT
HETATM    1  N   UNL     1      -9.407  13.229  66.398  1.00  0.00    -0.408 NA 
HETATM    2  H1  UNL     1      -9.910  13.919  65.839  1.00  0.00     0.000 HD 
HETATM    3  H2  UNL     1      -8.623  12.860  65.860  1.00  0.00     0.000 HD 
HETATM    4  N   UNL     1     -10.172  12.154  66.924  1.00  0.00    -0.208 NA 
HETATM    5  H   UNL     1     -11.174  12.076  66.752  1.00  0.00     0.000 HD 
ENDROOT
BRANCH   4   6
HETATM    6  C   UNL     1      -9.464  11.181  67.711  1.00  0.00    -0.168 A  
HETATM    7  N   UNL     1      -9.300  11.382  69.045  1.00  0.00    -0.029 NA 
HETATM    8  N   UNL     1      -8.663  10.456  69.820  1.00  0.00    -0.047 NA 
HETATM    9  C   UNL     1      -8.181   9.342  69.244  1.00  0.00    -0.108 A  
HETATM   10  C   UNL     1      -8.272   9.086  67.880  1.00  0.00    -0.110 A  
HETATM   11  C   UNL     1      -7.732   7.919  67.312  1.00  0.00    -0.105 A  
HETATM   12  C   UNL     1      -7.804   7.698  65.937  1.00  0.00    -0.103 A  
HETATM   13  C   UNL     1      -8.412   8.641  65.118  1.00  0.00    -0.197 A  
HETATM   14  C   UNL     1      -8.963   9.798  65.675  1.00  0.00    -0.199 A  
HETATM   15  C   UNL     1      -8.918  10.043  67.072  1.00  0.00    -0.152 A  
ENDBRANCH   4   6
TORSDOF 1
ENDMDL
MODEL      205
REMARK 921   NORMALIZED FREE ENERGY PREDICTED BY IDOCK:   -1.69 KCAL/MOL
REMARK 922        TOTAL FREE ENERGY PREDICTED BY IDOCK:   -1.83 KCAL/MOL
REMARK 923 INTER-LIGAND FREE ENERGY PREDICTED BY IDOCK:   -1.82 KCAL/MOL
REMARK 924 INTRA-LIGAND FREE ENERGY PREDICTED BY IDOCK:   -0.00 KCAL/MOL
REMARK 927      BINDING AFFINITY PREDICTED BY RF-SCORE:    0.00 PKD
ROOT
HETATM    1  N   UNL     1      -7.792   8.897  62.455  1.00  0.00    -0.124 NA 
HETATM    2  H1  UNL     1      -7.149   9.055  61.680  1.00  0.00     0.000 HD 
HETATM    3  H2  UNL     1      -8.746   9.097  62.154  1.00  0.00     0.000 HD 
HETATM    4  N   UNL     1      -7.519   9.591  63.664  1.00  0.00    -0.111 NA 
HETATM    5  H   UNL     1      -6.719  10.217  63.752  1.00  0.00     0.000 HD 
ENDROOT
BRANCH   4   6
HETATM    6  C   UNL     1      -8.426   9.368  64.757  1.00  0.00    -0.167 A  
HETATM    7  N   UNL     1      -9.431  10.252  64.991  1.00  0.00    -0.232 NA 
HETATM    8  N   UNL     1     -10.326  10.044  66.000  1.00  0.00    -0.199 NA 
HETATM    9  C   UNL     1     -10.194   8.956  66.778  1.00  0.00    -0.278 A  
HETATM   10  C   UNL     1      -9.167   8.031  66.627  1.00  0.00    -0.225 A  
HETATM   11  C   UNL     1      -9.049   6.917  67.478  1.00  0.00    -0.118 A  
HETATM   12  C   UNL     1      -7.992   6.020  67.333  1.00  0.00    -0.102 A  
HETATM   13  C   UNL     1      -7.044   6.227  66.338  1.00  0.00    -0.068 A  
HETATM   14  C   UNL     1      -7.160   7.323  65.480  1.00  0.00    -0.064 A  
HETATM   15  C   UNL     1      -8.232   8.245  65.595  1.00  0.00    -0.134 A  
ENDBRANCH   4   6
TORSDOF 1
ENDMDL
MODEL      206
REMARK 921   NORMALIZED FREE ENERGY PREDICTED BY IDOCK:   -1.63 KCAL/MOL
REMARK 922        TOTAL FREE ENERGY PREDICTED BY IDOCK:   -1.77 KCAL/MOL
REMARK 923 INTER-LIGAND FREE ENERGY PREDICTED BY IDOCK:   -1.73 KCAL/MOL
REMARK 924 INTRA-LIGAND FREE ENERGY PREDICTED BY IDOCK:   -0.04 KCAL/MOL
REMARK 927      BINDING AFFINITY PREDICTED BY RF-SCORE:    0.00 PKD
ROOT
HETATM    1  N   UNL     1      -9.766   3.010  73.085  1.00  0.00    -0.099 NA 
HETATM    2  H1  UNL     1      -9.453   2.377  73.820  1.00  0.00     0.000 HD 
HETATM    3  H2  UNL     1      -9.938   2.482  72.229  1.00  0.00     0.000 HD 
HETATM    4  N   UNL     1      -8.927   4.120  72.798  1.00  0.00    -0.105 NA 
HETATM    5  H   UNL     1      -8.055   4.277  73.303  1.00  0.00     0.000 HD 
ENDROOT
BRANCH   4   6
HETATM    6  C   UNL     1      -9.369   5.014  71.762  1.00  0.00    -0.147 A  
HETATM    7  N   UNL     1     -10.316   4.606  70.876  1.00  0.00    -0.133 NA 
HETATM    8  N   UNL     1     -10.777   5.446  69.906  1.00  0.00    -0.290 NA 
HETATM    9  C   UNL     1     -10.270   6.688  69.821  1.00  0.00    -0.187 A  
HETATM   10  C   UNL     1      -9.269   7.163  70.662  1.00  0.00    -0.158 A  
HETATM   11  C   UNL     1      -8.747   8.461  70.525  1.00  0.00    -0.152 A  
HETATM   12  C   UNL     1      -7.720   8.906  71.356  1.00  0.00    -0.126 A  
HETATM   13  C   UNL     1      -7.203   8.058  72.329  1.00  0.00    -0.105 A  
HETATM   14  C   UNL     1      -7.725   6.771  72.481  1.00  0.00    -0.096 A  
HETATM   15  C   UNL     1      -8.779   6.296  71.659  1.00  0.00    -0.134 A  
ENDBRANCH   4   6
TORSDOF 1
ENDMDL
MODEL      207
REMARK 921   NORMALIZED FREE ENERGY PREDICTED BY IDOCK:   -1.62 KCAL/MOL
REMARK 922        TOTAL FREE ENERGY PREDICTED BY IDOCK:   -1.75 KCAL/MOL
REMARK 923 INTER-LIGAND FREE ENERGY PREDICTED BY IDOCK:   -1.70 KCAL/MOL
REMARK 924 INTRA-LIGAND FREE ENERGY PREDICTED BY IDOCK:   -0.06 KCAL/MOL
REMARK 927      BINDING AFFINITY PREDICTED BY RF-SCORE:    0.00 PKD
ROOT
HETATM    1  N   UNL     1     -11.568   6.286  67.180  1.00  0.00    -0.540 NA 
HETATM    2  H1  UNL     1     -12.388   5.727  66.943  1.00  0.00     0.000 HD 
HETATM    3  H2  UNL     1     -11.477   7.058  66.520  1.00  0.00     0.000 HD 
HETATM    4  N   UNL     1     -10.331   5.596  67.280  1.00  0.00    -0.215 NA 
HETATM    5  H   UNL     1     -10.265   4.591  67.121  1.00  0.00     0.000 HD 
ENDROOT
BRANCH   4   6
HETATM    6  C   UNL     1      -9.176   6.383  67.615  1.00  0.00    -0.116 A  
HETATM    7  N   UNL     1      -9.048   6.897  68.867  1.00  0.00    -0.134 NA 
HETATM    8  N   UNL     1      -7.945   7.617  69.220  1.00  0.00    -0.124 NA 
HETATM    9  C   UNL     1      -6.983   7.831  68.306  1.00  0.00    -0.079 A  
HETATM   10  C   UNL     1      -7.062   7.375  66.995  1.00  0.00    -0.084 A  
HETATM   11  C   UNL     1      -6.045   7.641  66.060  1.00  0.00    -0.038 A  
HETATM   12  C   UNL     1      -6.159   7.205  64.741  1.00  0.00    -0.037 A  
HETATM   13  C   UNL     1      -7.289   6.502  64.343  1.00  0.00    -0.079 A  
HETATM   14  C   UNL     1      -8.299   6.222  65.267  1.00  0.00    -0.138 A  
HETATM   15  C   UNL     1      -8.204   6.641  66.619  1.00  0.00    -0.112 A  
ENDBRANCH   4   6
TORSDOF 1
ENDMDL
MODEL      208
REMARK 921   NORMALIZED FREE ENERGY PREDICTED BY IDOCK:   -1.55 KCAL/MOL
REMARK 922        TOTAL FREE ENERGY PREDICTED BY IDOCK:   -1.68 KCAL/MOL
REMARK 923 INTER-LIGAND FREE ENERGY PREDICTED BY IDOCK:   -1.64 KCAL/MOL
REMARK 924 INTRA-LIGAND FREE ENERGY PREDICTED BY IDOCK:   -0.04 KCAL/MOL
REMARK 927      BINDING AFFINITY PREDICTED BY RF-SCORE:    0.00 PKD
ROOT
HETATM    1  N   UNL     1      -7.400  10.780  68.723  1.00  0.00    -0.095 NA 
HETATM    2  H1  UNL     1      -7.393  11.416  67.925  1.00  0.00     0.000 HD 
HETATM    3  H2  UNL     1      -6.548  10.221  68.722  1.00  0.00     0.000 HD 
HETATM    4  N   UNL     1      -8.529   9.928  68.850  1.00  0.00    -0.119 NA 
HETATM    5  H   UNL     1      -9.295   9.950  68.177  1.00  0.00     0.000 HD 
ENDROOT
BRANCH   4   6
HETATM    6  C   UNL     1      -8.540   9.032  69.975  1.00  0.00    -0.151 A  
HETATM    7  N   UNL     1      -9.018   9.459  71.174  1.00  0.00    -0.270 NA 
HETATM    8  N   UNL     1      -9.072   8.617  72.246  1.00  0.00    -0.343 NA 
HETATM    9  C   UNL     1      -8.629   7.355  72.111  1.00  0.00    -0.113 A  
HETATM   10  C   UNL     1      -8.088   6.859  70.930  1.00  0.00    -0.114 A  
HETATM   11  C   UNL     1      -7.612   5.539  70.836  1.00  0.00    -0.090 A  
HETATM   12  C   UNL     1      -7.041   5.072  69.653  1.00  0.00    -0.055 A  
HETATM   13  C   UNL     1      -6.938   5.918  68.555  1.00  0.00    -0.075 A  
HETATM   14  C   UNL     1      -7.419   7.227  68.636  1.00  0.00    -0.102 A  
HETATM   15  C   UNL     1      -8.017   7.726  69.821  1.00  0.00    -0.115 A  
ENDBRANCH   4   6
TORSDOF 1
ENDMDL
MODEL      209
REMARK 921   NORMALIZED FREE ENERGY PREDICTED BY IDOCK:   -0.69 KCAL/MOL
REMARK 922        TOTAL FREE ENERGY PREDICTED BY IDOCK:   -0.77 KCAL/MOL
REMARK 923 INTER-LIGAND FREE ENERGY PREDICTED BY IDOCK:   -0.73 KCAL/MOL
REMARK 924 INTRA-LIGAND FREE ENERGY PREDICTED BY IDOCK:   -0.04 KCAL/MOL
REMARK 927      BINDING AFFINITY PREDICTED BY RF-SCORE:    0.00 PKD
ROOT
HETATM    1  N   UNL     1      -9.711  15.287  64.847  1.00  0.00    -0.259 NA 
HETATM    2  H1  UNL     1      -9.881  15.079  63.862  1.00  0.00     0.000 HD 
HETATM    3  H2  UNL     1      -9.401  16.254  64.943  1.00  0.00     0.000 HD 
HETATM    4  N   UNL     1      -8.816  14.428  65.536  1.00  0.00     0.484 NA 
HETATM    5  H   UNL     1      -8.364  13.641  65.071  1.00  0.00     0.000 HD 
ENDROOT
BRANCH   4   6
HETATM    6  C   UNL     1      -8.577  14.721  66.924  1.00  0.00    -0.224 A  
HETATM    7  N   UNL     1      -9.088  15.855  67.472  1.00  0.00    -0.198 NA 
HETATM    8  N   UNL     1      -8.906  16.138  68.794  1.00  0.00    -0.221 NA 
HETATM    9  C   UNL     1      -8.196  15.286  69.554  1.00  0.00    -0.188 A  
HETATM   10  C   UNL     1      -7.606  14.130  69.056  1.00  0.00    -0.058 A  
HETATM   11  C   UNL     1      -6.849  13.276  69.878  1.00  0.00     0.313 A  
HETATM   12  C   UNL     1      -6.237  12.139  69.352  1.00  0.00    -0.106 A  
HETATM   13  C   UNL     1      -6.373  11.846  68.000  1.00  0.00    -0.055 A  
HETATM   14  C   UNL     1      -7.134  12.681  67.178  1.00  0.00    -0.035 A  
HETATM   15  C   UNL     1      -7.780  13.837  67.688  1.00  0.00    -0.187 A  
ENDBRANCH   4   6
TORSDOF 1
ENDMDL
MODEL      210
REMARK 921   NORMALIZED FREE ENERGY PREDICTED BY IDOCK:   -0.40 KCAL/MOL
REMARK 922        TOTAL FREE ENERGY PREDICTED BY IDOCK:   -0.46 KCAL/MOL
REMARK 923 INTER-LIGAND FREE ENERGY PREDICTED BY IDOCK:   -1.58 KCAL/MOL
REMARK 924 INTRA-LIGAND FREE ENERGY PREDICTED BY IDOCK:    1.11 KCAL/MOL
REMARK 927      BINDING AFFINITY PREDICTED BY RF-SCORE:    0.00 PKD
ROOT
HETATM    1  N   UNL     1      -9.779  20.355  65.144  1.00  0.00    -0.165 NA 
HETATM    2  H1  UNL     1     -10.425  20.389  64.355  1.00  0.00     0.000 HD 
HETATM    3  H2  UNL     1      -9.941  21.157  65.753  1.00  0.00     0.000 HD 
HETATM    4  N   UNL     1      -8.396  20.265  64.833  1.00  0.00     0.143 NA 
HETATM    5  H   UNL     1      -8.065  20.236  63.869  1.00  0.00     0.000 HD 
ENDROOT
BRANCH   4   6
HETATM    6  C   UNL     1      -7.485  20.217  65.945  1.00  0.00    -0.191 A  
HETATM    7  N   UNL     1      -6.151  20.363  65.732  1.00  0.00    -0.200 NA 
HETATM    8  N   UNL     1      -5.270  20.357  66.773  1.00  0.00    -0.164 NA 
HETATM    9  C   UNL     1      -5.735  20.187  68.023  1.00  0.00    -0.211 A  
HETATM   10  C   UNL     1      -7.080  19.989  68.316  1.00  0.00    -0.323 A  
HETATM   11  C   UNL     1      -7.524  19.790  69.635  1.00  0.00     0.040 A  
HETATM   12  C   UNL     1      -8.872  19.558  69.904  1.00  0.00     0.808 A  
HETATM   13  C   UNL     1      -9.788  19.520  68.859  1.00  0.00    -0.522 A  
HETATM   14  C   UNL     1      -9.358  19.730  67.547  1.00  0.00    -0.443 A  
HETATM   15  C   UNL     1      -7.995  19.982  67.244  1.00  0.00    -0.348 A  
ENDBRANCH   4   6
TORSDOF 1
ENDMDL
MODEL      211
REMARK 921   NORMALIZED FREE ENERGY PREDICTED BY IDOCK:    0.10 KCAL/MOL
REMARK 922        TOTAL FREE ENERGY PREDICTED BY IDOCK:    0.06 KCAL/MOL
REMARK 923 INTER-LIGAND FREE ENERGY PREDICTED BY IDOCK:   -1.04 KCAL/MOL
REMARK 924 INTRA-LIGAND FREE ENERGY PREDICTED BY IDOCK:    1.10 KCAL/MOL
REMARK 927      BINDING AFFINITY PREDICTED BY RF-SCORE:    0.00 PKD
ROOT
HETATM    1  N   UNL     1     -10.367  14.213  69.586  1.00  0.00    -0.409 NA 
HETATM    2  H1  UNL     1     -10.339  13.328  70.092  1.00  0.00     0.000 HD 
HETATM    3  H2  UNL     1     -10.059  14.067  68.624  1.00  0.00     0.000 HD 
HETATM    4  N   UNL     1      -9.649  15.298  70.156  1.00  0.00    -0.402 NA 
HETATM    5  H   UNL     1      -9.131  15.197  71.029  1.00  0.00     0.000 HD 
ENDROOT
BRANCH   4   6
HETATM    6  C   UNL     1      -9.688  16.545  69.442  1.00  0.00    -0.128 A  
HETATM    7  N   UNL     1      -9.361  17.700  70.082  1.00  0.00     1.776 NA 
HETATM    8  N   UNL     1      -9.356  18.891  69.418  1.00  0.00     0.045 NA 
HETATM    9  C   UNL     1      -9.695  18.917  68.117  1.00  0.00    -0.347 A  
HETATM   10  C   UNL     1     -10.083  17.786  67.407  1.00  0.00    -0.338 A  
HETATM   11  C   UNL     1     -10.456  17.859  66.053  1.00  0.00    -0.293 A  
HETATM   12  C   UNL     1     -10.875  16.719  65.368  1.00  0.00    -0.149 A  
HETATM   13  C   UNL     1     -10.927  15.498  66.030  1.00  0.00    -0.251 A  
HETATM   14  C   UNL     1     -10.546  15.413  67.371  1.00  0.00    -0.289 A  
HETATM   15  C   UNL     1     -10.103  16.553  68.090  1.00  0.00    -0.255 A  
ENDBRANCH   4   6
TORSDOF 1
ENDMDL
MODEL      212
REMARK 921   NORMALIZED FREE ENERGY PREDICTED BY IDOCK:    0.49 KCAL/MOL
REMARK 922        TOTAL FREE ENERGY PREDICTED BY IDOCK:    0.48 KCAL/MOL
REMARK 923 INTER-LIGAND FREE ENERGY PREDICTED BY IDOCK:    0.51 KCAL/MOL
REMARK 924 INTRA-LIGAND FREE ENERGY PREDICTED BY IDOCK:   -0.03 KCAL/MOL
REMARK 927      BINDING AFFINITY PREDICTED BY RF-SCORE:    0.00 PKD
ROOT
HETATM    1  N   UNL     1      -7.947  13.147  70.248  1.00  0.00     2.082 NA 
HETATM    2  H1  UNL     1      -8.617  13.696  70.788  1.00  0.00     0.000 HD 
HETATM    3  H2  UNL     1      -7.025  13.579  70.307  1.00  0.00     0.000 HD 
HETATM    4  N   UNL     1      -8.272  12.902  68.887  1.00  0.00    -0.337 NA 
HETATM    5  H   UNL     1      -9.132  13.257  68.470  1.00  0.00     0.000 HD 
ENDROOT
BRANCH   4   6
HETATM    6  C   UNL     1      -7.329  12.128  68.126  1.00  0.00    -0.103 A  
HETATM    7  N   UNL     1      -6.355  12.758  67.418  1.00  0.00    -0.175 NA 
HETATM    8  N   UNL     1      -5.426  12.046  66.716  1.00  0.00    -0.312 NA 
HETATM    9  C   UNL     1      -5.493  10.703  66.719  1.00  0.00    -0.051 A  
HETATM   10  C   UNL     1      -6.485   9.990  67.383  1.00  0.00    -0.068 A  
HETATM   11  C   UNL     1      -6.535   8.585  67.340  1.00  0.00    -0.058 A  
HETATM   12  C   UNL     1      -7.558   7.890  67.985  1.00  0.00    -0.113 A  
HETATM   13  C   UNL     1      -8.540   8.591  68.675  1.00  0.00    -0.135 A  
HETATM   14  C   UNL     1      -8.491   9.986  68.734  1.00  0.00    -0.126 A  
HETATM   15  C   UNL     1      -7.455  10.719  68.100  1.00  0.00    -0.091 A  
ENDBRANCH   4   6
TORSDOF 1
ENDMDL
MODEL      213
REMARK 921   NORMALIZED FREE ENERGY PREDICTED BY IDOCK:    5.28 KCAL/MOL
REMARK 922        TOTAL FREE ENERGY PREDICTED BY IDOCK:    5.55 KCAL/MOL
REMARK 923 INTER-LIGAND FREE ENERGY PREDICTED BY IDOCK:    5.59 KCAL/MOL
REMARK 924 INTRA-LIGAND FREE ENERGY PREDICTED BY IDOCK:   -0.05 KCAL/MOL
REMARK 927      BINDING AFFINITY PREDICTED BY RF-SCORE:    0.00 PKD
ROOT
HETATM    1  N   UNL     1      -9.236  19.936  65.449  1.00  0.00    -0.186 NA 
HETATM    2  H1  UNL     1      -8.937  20.083  64.485  1.00  0.00     0.000 HD 
HETATM    3  H2  UNL     1      -9.731  20.763  65.783  1.00  0.00     0.000 HD 
HETATM    4  N   UNL     1      -8.227  19.576  66.382  1.00  0.00    -0.319 NA 
HETATM    5  H   UNL     1      -7.252  19.470  66.102  1.00  0.00     0.000 HD 
ENDROOT
BRANCH   4   6
HETATM    6  C   UNL     1      -8.648  19.369  67.741  1.00  0.00    -0.311 A  
HETATM    7  N   UNL     1      -9.769  18.644  67.999  1.00  0.00    -0.307 NA 
HETATM    8  N   UNL     1     -10.169  18.403  69.280  1.00  0.00    -0.127 NA 
HETATM    9  C   UNL     1      -9.447  18.907  70.296  1.00  0.00     1.633 A  
HETATM   10  C   UNL     1      -8.315  19.693  70.112  1.00  0.00     1.127 A  
HETATM   11  C   UNL     1      -7.601  20.222  71.202  1.00  0.00     1.451 A  
HETATM   12  C   UNL     1      -6.489  21.037  70.996  1.00  0.00     1.726 A  
HETATM   13  C   UNL     1      -6.080  21.331  69.700  1.00  0.00     1.115 A  
HETATM   14  C   UNL     1      -6.775  20.799  68.611  1.00  0.00    -0.032 A  
HETATM   15  C   UNL     1      -7.902  19.956  68.791  1.00  0.00    -0.176 A  
ENDBRANCH   4   6
TORSDOF 1
ENDMDL
