MODEL        1
REMARK 921   NORMALIZED FREE ENERGY PREDICTED BY IDOCK:   -4.95 KCAL/MOL
REMARK 922        TOTAL FREE ENERGY PREDICTED BY IDOCK:   -5.72 KCAL/MOL
REMARK 923 INTER-LIGAND FREE ENERGY PREDICTED BY IDOCK:   -5.53 KCAL/MOL
REMARK 924 INTRA-LIGAND FREE ENERGY PREDICTED BY IDOCK:   -0.19 KCAL/MOL
REMARK 927      BINDING AFFINITY PREDICTED BY RF-SCORE:    0.00 PKD
ROOT
HETATM    1  C   UNL     1      -9.729  11.380  68.351  1.00  0.00    -0.203 C  
HETATM    2  C   UNL     1     -11.179  11.415  67.862  1.00  0.00    -0.288 C  
HETATM    3  N   UNL     1     -11.950  10.377  68.562  1.00  0.00    -0.759 NA 
HETATM    4  H1  UNL     1     -12.917  10.400  68.236  1.00  0.00     0.000 HD 
HETATM    5  H2  UNL     1     -11.881  10.461  69.576  1.00  0.00     0.000 HD 
ENDROOT
BRANCH   2   6
HETATM    6  C   UNL     1     -11.844  12.793  68.082  1.00  0.00    -0.372 C  
BRANCH   6   7
HETATM    7  C   UNL     1     -11.697  13.738  66.911  1.00  0.00    -0.424 A  
HETATM    8  C   UNL     1     -10.857  14.860  66.994  1.00  0.00    -0.315 A  
HETATM    9  C   UNL     1     -10.759  15.754  65.926  1.00  0.00    -0.320 A  
HETATM   10  C   UNL     1     -11.492  15.521  64.767  1.00  0.00    -0.313 A  
HETATM   11  C   UNL     1     -12.305  14.401  64.656  1.00  0.00    -0.435 A  
HETATM   12  O   UNL     1     -11.440  16.379  63.710  1.00  0.00    -1.590 OA 
HETATM   13  H   UNL     1     -11.941  16.220  62.918  1.00  0.00     0.000 HD 
HETATM   14  C   UNL     1     -12.409  13.510  65.725  1.00  0.00    -0.516 A  
ENDBRANCH   6   7
ENDBRANCH   2   6
TORSDOF 2
ENDMDL
MODEL        2
REMARK 921   NORMALIZED FREE ENERGY PREDICTED BY IDOCK:   -4.92 KCAL/MOL
REMARK 922        TOTAL FREE ENERGY PREDICTED BY IDOCK:   -5.68 KCAL/MOL
REMARK 923 INTER-LIGAND FREE ENERGY PREDICTED BY IDOCK:   -5.51 KCAL/MOL
REMARK 924 INTRA-LIGAND FREE ENERGY PREDICTED BY IDOCK:   -0.18 KCAL/MOL
REMARK 927      BINDING AFFINITY PREDICTED BY RF-SCORE:    0.00 PKD
ROOT
HETATM    1  C   UNL     1     -10.343   9.800  67.210  1.00  0.00    -0.308 C  
HETATM    2  C   UNL     1     -11.247  11.019  67.404  1.00  0.00    -0.285 C  
HETATM    3  N   UNL     1     -12.130  10.788  68.557  1.00  0.00    -0.826 NA 
HETATM    4  H1  UNL     1     -12.732  11.601  68.686  1.00  0.00     0.000 HD 
HETATM    5  H2  UNL     1     -11.608  10.555  69.402  1.00  0.00     0.000 HD 
ENDROOT
BRANCH   2   6
HETATM    6  C   UNL     1     -10.446  12.323  67.615  1.00  0.00    -0.230 C  
BRANCH   6   7
HETATM    7  C   UNL     1     -10.769  13.410  66.615  1.00  0.00    -0.282 A  
HETATM    8  C   UNL     1     -11.970  13.384  65.888  1.00  0.00    -0.452 A  
HETATM    9  C   UNL     1     -12.243  14.365  64.933  1.00  0.00    -0.440 A  
HETATM   10  C   UNL     1     -11.321  15.383  64.712  1.00  0.00    -0.376 A  
HETATM   11  C   UNL     1     -10.142  15.442  65.442  1.00  0.00    -0.394 A  
HETATM   12  O   UNL     1     -11.540  16.349  63.776  1.00  0.00    -1.605 OA 
HETATM   13  H   UNL     1     -10.910  17.044  63.625  1.00  0.00     0.000 HD 
HETATM   14  C   UNL     1      -9.865  14.458  66.392  1.00  0.00    -0.309 A  
ENDBRANCH   6   7
ENDBRANCH   2   6
TORSDOF 2
ENDMDL
MODEL        3
REMARK 921   NORMALIZED FREE ENERGY PREDICTED BY IDOCK:   -4.88 KCAL/MOL
REMARK 922        TOTAL FREE ENERGY PREDICTED BY IDOCK:   -5.64 KCAL/MOL
REMARK 923 INTER-LIGAND FREE ENERGY PREDICTED BY IDOCK:   -5.54 KCAL/MOL
REMARK 924 INTRA-LIGAND FREE ENERGY PREDICTED BY IDOCK:   -0.09 KCAL/MOL
REMARK 927      BINDING AFFINITY PREDICTED BY RF-SCORE:    0.00 PKD
ROOT
HETATM    1  C   UNL     1     -13.833   7.713  71.250  1.00  0.00    -0.338 C  
HETATM    2  C   UNL     1     -13.796   9.128  71.832  1.00  0.00    -0.395 C  
HETATM    3  N   UNL     1     -14.077   9.065  73.274  1.00  0.00    -1.211 NA 
HETATM    4  H1  UNL     1     -14.051  10.007  73.663  1.00  0.00     0.000 HD 
HETATM    5  H2  UNL     1     -13.448   8.428  73.763  1.00  0.00     0.000 HD 
ENDROOT
BRANCH   2   6
HETATM    6  C   UNL     1     -12.438   9.828  71.598  1.00  0.00    -0.500 C  
BRANCH   6   7
HETATM    7  C   UNL     1     -12.559  11.280  71.193  1.00  0.00    -0.501 A  
HETATM    8  C   UNL     1     -11.956  11.751  70.016  1.00  0.00    -0.421 A  
HETATM    9  C   UNL     1     -12.033  13.101  69.669  1.00  0.00    -0.370 A  
HETATM   10  C   UNL     1     -12.725  13.982  70.493  1.00  0.00    -0.280 A  
HETATM   11  C   UNL     1     -13.353  13.530  71.646  1.00  0.00    -0.420 A  
HETATM   12  O   UNL     1     -12.808  15.311  70.202  1.00  0.00    -0.610 OA 
HETATM   13  H   UNL     1     -13.281  15.912  70.765  1.00  0.00     0.000 HD 
HETATM   14  C   UNL     1     -13.271  12.182  71.997  1.00  0.00    -0.496 A  
ENDBRANCH   6   7
ENDBRANCH   2   6
TORSDOF 2
ENDMDL
MODEL        4
REMARK 921   NORMALIZED FREE ENERGY PREDICTED BY IDOCK:   -4.81 KCAL/MOL
REMARK 922        TOTAL FREE ENERGY PREDICTED BY IDOCK:   -5.56 KCAL/MOL
REMARK 923 INTER-LIGAND FREE ENERGY PREDICTED BY IDOCK:   -5.39 KCAL/MOL
REMARK 924 INTRA-LIGAND FREE ENERGY PREDICTED BY IDOCK:   -0.17 KCAL/MOL
REMARK 927      BINDING AFFINITY PREDICTED BY RF-SCORE:    0.00 PKD
ROOT
HETATM    1  C   UNL     1     -10.020  14.116  67.676  1.00  0.00    -0.233 C  
HETATM    2  C   UNL     1     -11.464  14.320  68.140  1.00  0.00    -0.308 C  
HETATM    3  N   UNL     1     -12.377  14.025  67.025  1.00  0.00    -0.538 NA 
HETATM    4  H1  UNL     1     -13.339  14.161  67.335  1.00  0.00     0.000 HD 
HETATM    5  H2  UNL     1     -12.223  13.095  66.635  1.00  0.00     0.000 HD 
ENDROOT
BRANCH   2   6
HETATM    6  C   UNL     1     -11.826  13.435  69.355  1.00  0.00    -0.390 C  
BRANCH   6   7
HETATM    7  C   UNL     1     -12.228  14.217  70.585  1.00  0.00    -0.427 A  
HETATM    8  C   UNL     1     -11.695  15.493  70.830  1.00  0.00    -0.413 A  
HETATM    9  C   UNL     1     -12.035  16.193  71.990  1.00  0.00    -0.607 A  
HETATM   10  C   UNL     1     -12.918  15.623  72.901  1.00  0.00    -0.497 A  
HETATM   11  C   UNL     1     -13.478  14.375  72.660  1.00  0.00    -0.605 A  
HETATM   12  O   UNL     1     -13.261  16.263  74.054  1.00  0.00    -0.942 OA 
HETATM   13  H   UNL     1     -13.864  15.874  74.676  1.00  0.00     0.000 HD 
HETATM   14  C   UNL     1     -13.134  13.672  71.505  1.00  0.00    -0.431 A  
ENDBRANCH   6   7
ENDBRANCH   2   6
TORSDOF 2
ENDMDL
MODEL        5
REMARK 921   NORMALIZED FREE ENERGY PREDICTED BY IDOCK:   -4.77 KCAL/MOL
REMARK 922        TOTAL FREE ENERGY PREDICTED BY IDOCK:   -5.52 KCAL/MOL
REMARK 923 INTER-LIGAND FREE ENERGY PREDICTED BY IDOCK:   -5.51 KCAL/MOL
REMARK 924 INTRA-LIGAND FREE ENERGY PREDICTED BY IDOCK:   -0.01 KCAL/MOL
REMARK 927      BINDING AFFINITY PREDICTED BY RF-SCORE:    0.00 PKD
ROOT
HETATM    1  C   UNL     1     -11.853  16.321  72.256  1.00  0.00    -0.601 C  
HETATM    2  C   UNL     1     -12.412  15.226  73.165  1.00  0.00    -0.457 C  
HETATM    3  N   UNL     1     -12.905  15.834  74.410  1.00  0.00    -0.865 NA 
HETATM    4  H1  UNL     1     -13.278  15.104  75.016  1.00  0.00     0.000 HD 
HETATM    5  H2  UNL     1     -13.583  16.576  74.235  1.00  0.00     0.000 HD 
ENDROOT
BRANCH   2   6
HETATM    6  C   UNL     1     -13.550  14.423  72.494  1.00  0.00    -0.598 C  
BRANCH   6   7
HETATM    7  C   UNL     1     -13.067  13.262  71.654  1.00  0.00    -0.453 A  
HETATM    8  C   UNL     1     -13.322  11.937  72.044  1.00  0.00    -0.425 A  
HETATM    9  C   UNL     1     -12.835  10.869  71.288  1.00  0.00    -0.536 A  
HETATM   10  C   UNL     1     -12.104  11.123  70.133  1.00  0.00    -0.362 A  
HETATM   11  C   UNL     1     -11.867  12.426  69.715  1.00  0.00    -0.387 A  
HETATM   12  O   UNL     1     -11.594  10.110  69.377  1.00  0.00    -0.410 OA 
HETATM   13  H   UNL     1     -11.094  10.283  68.588  1.00  0.00     0.000 HD 
HETATM   14  C   UNL     1     -12.347  13.494  70.473  1.00  0.00    -0.412 A  
ENDBRANCH   6   7
ENDBRANCH   2   6
TORSDOF 2
ENDMDL
MODEL        6
REMARK 921   NORMALIZED FREE ENERGY PREDICTED BY IDOCK:   -4.76 KCAL/MOL
REMARK 922        TOTAL FREE ENERGY PREDICTED BY IDOCK:   -5.51 KCAL/MOL
REMARK 923 INTER-LIGAND FREE ENERGY PREDICTED BY IDOCK:   -5.35 KCAL/MOL
REMARK 924 INTRA-LIGAND FREE ENERGY PREDICTED BY IDOCK:   -0.15 KCAL/MOL
REMARK 927      BINDING AFFINITY PREDICTED BY RF-SCORE:    0.00 PKD
ROOT
HETATM    1  C   UNL     1     -12.093  13.467  69.789  1.00  0.00    -0.381 C  
HETATM    2  C   UNL     1     -11.114  12.583  69.015  1.00  0.00    -0.234 C  
HETATM    3  N   UNL     1     -10.821  11.378  69.805  1.00  0.00    -0.460 NA 
HETATM    4  H1  UNL     1     -10.168  10.788  69.289  1.00  0.00     0.000 HD 
HETATM    5  H2  UNL     1     -11.667  10.876  70.073  1.00  0.00     0.000 HD 
ENDROOT
BRANCH   2   6
HETATM    6  C   UNL     1     -11.656  12.173  67.627  1.00  0.00    -0.413 C  
BRANCH   6   7
HETATM    7  C   UNL     1     -11.585  13.274  66.592  1.00  0.00    -0.408 A  
HETATM    8  C   UNL     1     -10.596  14.268  66.667  1.00  0.00    -0.278 A  
HETATM    9  C   UNL     1     -10.562  15.307  65.735  1.00  0.00    -0.359 A  
HETATM   10  C   UNL     1     -11.510  15.348  64.718  1.00  0.00    -0.336 A  
HETATM   11  C   UNL     1     -12.477  14.358  64.611  1.00  0.00    -0.364 A  
HETATM   12  O   UNL     1     -11.524  16.355  63.800  1.00  0.00    -1.590 OA 
HETATM   13  H   UNL     1     -12.172  16.383  63.106  1.00  0.00     0.000 HD 
HETATM   14  C   UNL     1     -12.517  13.322  65.545  1.00  0.00    -0.531 A  
ENDBRANCH   6   7
ENDBRANCH   2   6
TORSDOF 2
ENDMDL
MODEL        7
REMARK 921   NORMALIZED FREE ENERGY PREDICTED BY IDOCK:   -4.61 KCAL/MOL
REMARK 922        TOTAL FREE ENERGY PREDICTED BY IDOCK:   -5.33 KCAL/MOL
REMARK 923 INTER-LIGAND FREE ENERGY PREDICTED BY IDOCK:   -5.17 KCAL/MOL
REMARK 924 INTRA-LIGAND FREE ENERGY PREDICTED BY IDOCK:   -0.17 KCAL/MOL
REMARK 927      BINDING AFFINITY PREDICTED BY RF-SCORE:    0.00 PKD
ROOT
HETATM    1  C   UNL     1     -11.025  13.664  68.408  1.00  0.00    -0.284 C  
HETATM    2  C   UNL     1     -11.657  12.273  68.328  1.00  0.00    -0.331 C  
HETATM    3  N   UNL     1     -11.735  11.856  66.920  1.00  0.00    -0.589 NA 
HETATM    4  H1  UNL     1     -12.156  10.929  66.867  1.00  0.00     0.000 HD 
HETATM    5  H2  UNL     1     -10.828  11.897  66.454  1.00  0.00     0.000 HD 
ENDROOT
BRANCH   2   6
HETATM    6  C   UNL     1     -10.870  11.218  69.139  1.00  0.00    -0.269 C  
BRANCH   6   7
HETATM    7  C   UNL     1     -11.669  10.582  70.255  1.00  0.00    -0.420 A  
HETATM    8  C   UNL     1     -11.463   9.240  70.612  1.00  0.00    -0.327 A  
HETATM    9  C   UNL     1     -12.234   8.645  71.612  1.00  0.00    -0.388 A  
HETATM   10  C   UNL     1     -13.205   9.395  72.267  1.00  0.00    -0.446 A  
HETATM   11  C   UNL     1     -13.404  10.731  71.948  1.00  0.00    -0.445 A  
HETATM   12  O   UNL     1     -13.993   8.848  73.235  1.00  0.00    -1.203 OA 
HETATM   13  H   UNL     1     -14.656   9.360  73.682  1.00  0.00     0.000 HD 
HETATM   14  C   UNL     1     -12.638  11.325  70.944  1.00  0.00    -0.467 A  
ENDBRANCH   6   7
ENDBRANCH   2   6
TORSDOF 2
ENDMDL
MODEL        8
REMARK 921   NORMALIZED FREE ENERGY PREDICTED BY IDOCK:   -4.60 KCAL/MOL
REMARK 922        TOTAL FREE ENERGY PREDICTED BY IDOCK:   -5.33 KCAL/MOL
REMARK 923 INTER-LIGAND FREE ENERGY PREDICTED BY IDOCK:   -5.15 KCAL/MOL
REMARK 924 INTRA-LIGAND FREE ENERGY PREDICTED BY IDOCK:   -0.17 KCAL/MOL
REMARK 927      BINDING AFFINITY PREDICTED BY RF-SCORE:    0.00 PKD
ROOT
HETATM    1  C   UNL     1     -10.751  12.000  63.504  1.00  0.00    -0.513 C  
HETATM    2  C   UNL     1     -11.488  13.147  64.199  1.00  0.00    -0.403 C  
HETATM    3  N   UNL     1     -12.343  13.836  63.221  1.00  0.00    -1.124 NA 
HETATM    4  H1  UNL     1     -12.835  14.600  63.684  1.00  0.00     0.000 HD 
HETATM    5  H2  UNL     1     -12.981  13.197  62.746  1.00  0.00     0.000 HD 
ENDROOT
BRANCH   2   6
HETATM    6  C   UNL     1     -12.348  12.662  65.389  1.00  0.00    -0.499 C  
BRANCH   6   7
HETATM    7  C   UNL     1     -11.927  13.238  66.723  1.00  0.00    -0.438 A  
HETATM    8  C   UNL     1     -11.611  14.600  66.850  1.00  0.00    -0.374 A  
HETATM    9  C   UNL     1     -11.180  15.117  68.073  1.00  0.00    -0.329 A  
HETATM   10  C   UNL     1     -11.076  14.276  69.175  1.00  0.00    -0.262 A  
HETATM   11  C   UNL     1     -11.412  12.932  69.076  1.00  0.00    -0.358 A  
HETATM   12  O   UNL     1     -10.641  14.735  70.382  1.00  0.00    -0.484 OA 
HETATM   13  H   UNL     1     -10.570  14.160  71.135  1.00  0.00     0.000 HD 
HETATM   14  C   UNL     1     -11.837  12.412  67.853  1.00  0.00    -0.370 A  
ENDBRANCH   6   7
ENDBRANCH   2   6
TORSDOF 2
ENDMDL
MODEL        9
REMARK 921   NORMALIZED FREE ENERGY PREDICTED BY IDOCK:   -4.60 KCAL/MOL
REMARK 922        TOTAL FREE ENERGY PREDICTED BY IDOCK:   -5.33 KCAL/MOL
REMARK 923 INTER-LIGAND FREE ENERGY PREDICTED BY IDOCK:   -5.20 KCAL/MOL
REMARK 924 INTRA-LIGAND FREE ENERGY PREDICTED BY IDOCK:   -0.12 KCAL/MOL
REMARK 927      BINDING AFFINITY PREDICTED BY RF-SCORE:    0.00 PKD
ROOT
HETATM    1  C   UNL     1     -11.405  14.347  64.955  1.00  0.00    -0.373 C  
HETATM    2  C   UNL     1     -10.810  15.755  64.887  1.00  0.00    -0.413 C  
HETATM    3  N   UNL     1     -11.619  16.578  63.975  1.00  0.00    -1.544 NA 
HETATM    4  H1  UNL     1     -11.222  17.517  63.930  1.00  0.00     0.000 HD 
HETATM    5  H2  UNL     1     -12.605  16.587  64.235  1.00  0.00     0.000 HD 
ENDROOT
BRANCH   2   6
HETATM    6  C   UNL     1     -10.737  16.435  66.273  1.00  0.00    -0.161 C  
BRANCH   6   7
HETATM    7  C   UNL     1      -9.803  17.623  66.324  1.00  0.00    -0.297 A  
HETATM    8  C   UNL     1      -8.414  17.443  66.421  1.00  0.00    -0.292 A  
HETATM    9  C   UNL     1      -7.560  18.543  66.513  1.00  0.00    -0.270 A  
HETATM   10  C   UNL     1      -8.092  19.828  66.495  1.00  0.00    -0.327 A  
HETATM   11  C   UNL     1      -9.460  20.027  66.369  1.00  0.00    -0.512 A  
HETATM   12  O   UNL     1      -7.296  20.929  66.601  1.00  0.00    -0.500 OA 
HETATM   13  H   UNL     1      -7.659  21.806  66.589  1.00  0.00     0.000 HD 
HETATM   14  C   UNL     1     -10.316  18.928  66.284  1.00  0.00    -0.512 A  
ENDBRANCH   6   7
ENDBRANCH   2   6
TORSDOF 2
ENDMDL
MODEL       10
REMARK 921   NORMALIZED FREE ENERGY PREDICTED BY IDOCK:   -4.59 KCAL/MOL
REMARK 922        TOTAL FREE ENERGY PREDICTED BY IDOCK:   -5.31 KCAL/MOL
REMARK 923 INTER-LIGAND FREE ENERGY PREDICTED BY IDOCK:   -5.14 KCAL/MOL
REMARK 924 INTRA-LIGAND FREE ENERGY PREDICTED BY IDOCK:   -0.18 KCAL/MOL
REMARK 927      BINDING AFFINITY PREDICTED BY RF-SCORE:    0.00 PKD
ROOT
HETATM    1  C   UNL     1     -12.987  15.180  72.931  1.00  0.00    -0.561 C  
HETATM    2  C   UNL     1     -13.557  14.438  71.720  1.00  0.00    -0.395 C  
HETATM    3  N   UNL     1     -14.367  15.368  70.920  1.00  0.00    -0.853 NA 
HETATM    4  H1  UNL     1     -14.747  14.874  70.112  1.00  0.00     0.000 HD 
HETATM    5  H2  UNL     1     -13.846  16.203  70.652  1.00  0.00     0.000 HD 
ENDROOT
BRANCH   2   6
HETATM    6  C   UNL     1     -12.453  13.816  70.834  1.00  0.00    -0.451 C  
BRANCH   6   7
HETATM    7  C   UNL     1     -12.421  12.304  70.868  1.00  0.00    -0.371 A  
HETATM    8  C   UNL     1     -13.131  11.591  71.847  1.00  0.00    -0.492 A  
HETATM    9  C   UNL     1     -13.061  10.198  71.901  1.00  0.00    -0.571 A  
HETATM   10  C   UNL     1     -12.291   9.513  70.967  1.00  0.00    -0.282 A  
HETATM   11  C   UNL     1     -11.606  10.199  69.973  1.00  0.00    -0.323 A  
HETATM   12  O   UNL     1     -12.181   8.155  70.996  1.00  0.00    -0.417 OA 
HETATM   13  H   UNL     1     -11.655   7.687  70.358  1.00  0.00     0.000 HD 
HETATM   14  C   UNL     1     -11.670  11.592  69.922  1.00  0.00    -0.420 A  
ENDBRANCH   6   7
ENDBRANCH   2   6
TORSDOF 2
ENDMDL
MODEL       11
REMARK 921   NORMALIZED FREE ENERGY PREDICTED BY IDOCK:   -4.58 KCAL/MOL
REMARK 922        TOTAL FREE ENERGY PREDICTED BY IDOCK:   -5.30 KCAL/MOL
REMARK 923 INTER-LIGAND FREE ENERGY PREDICTED BY IDOCK:   -5.14 KCAL/MOL
REMARK 924 INTRA-LIGAND FREE ENERGY PREDICTED BY IDOCK:   -0.16 KCAL/MOL
REMARK 927      BINDING AFFINITY PREDICTED BY RF-SCORE:    0.00 PKD
ROOT
HETATM    1  C   UNL     1      -9.868  15.283  65.436  1.00  0.00    -0.318 C  
HETATM    2  C   UNL     1     -11.370  15.534  65.284  1.00  0.00    -0.189 C  
HETATM    3  N   UNL     1     -11.634  16.101  63.953  1.00  0.00    -1.469 NA 
HETATM    4  H1  UNL     1     -12.635  16.268  63.851  1.00  0.00     0.000 HD 
HETATM    5  H2  UNL     1     -11.261  15.518  63.203  1.00  0.00     0.000 HD 
ENDROOT
BRANCH   2   6
HETATM    6  C   UNL     1     -12.207  14.249  65.476  1.00  0.00    -0.408 C  
BRANCH   6   7
HETATM    7  C   UNL     1     -11.922  13.520  66.770  1.00  0.00    -0.453 A  
HETATM    8  C   UNL     1     -11.581  12.158  66.768  1.00  0.00    -0.412 A  
HETATM    9  C   UNL     1     -11.363  11.479  67.968  1.00  0.00    -0.368 A  
HETATM   10  C   UNL     1     -11.473  12.164  69.174  1.00  0.00    -0.296 A  
HETATM   11  C   UNL     1     -11.780  13.518  69.194  1.00  0.00    -0.374 A  
HETATM   12  O   UNL     1     -11.287  11.535  70.368  1.00  0.00    -0.481 OA 
HETATM   13  H   UNL     1     -11.363  12.003  71.191  1.00  0.00     0.000 HD 
HETATM   14  C   UNL     1     -12.005  14.197  67.996  1.00  0.00    -0.372 A  
ENDBRANCH   6   7
ENDBRANCH   2   6
TORSDOF 2
ENDMDL
MODEL       12
REMARK 921   NORMALIZED FREE ENERGY PREDICTED BY IDOCK:   -4.56 KCAL/MOL
REMARK 922        TOTAL FREE ENERGY PREDICTED BY IDOCK:   -5.28 KCAL/MOL
REMARK 923 INTER-LIGAND FREE ENERGY PREDICTED BY IDOCK:   -5.42 KCAL/MOL
REMARK 924 INTRA-LIGAND FREE ENERGY PREDICTED BY IDOCK:    0.14 KCAL/MOL
REMARK 927      BINDING AFFINITY PREDICTED BY RF-SCORE:    0.00 PKD
ROOT
HETATM    1  C   UNL     1     -10.055  15.115  65.344  1.00  0.00    -0.384 C  
HETATM    2  C   UNL     1     -11.508  15.425  64.978  1.00  0.00    -0.263 C  
HETATM    3  N   UNL     1     -11.533  16.446  63.920  1.00  0.00    -1.618 NA 
HETATM    4  H1  UNL     1     -12.502  16.653  63.676  1.00  0.00     0.000 HD 
HETATM    5  H2  UNL     1     -10.979  16.175  63.108  1.00  0.00     0.000 HD 
ENDROOT
BRANCH   2   6
HETATM    6  C   UNL     1     -12.281  14.172  64.508  1.00  0.00    -0.468 C  
BRANCH   6   7
HETATM    7  C   UNL     1     -11.515  12.879  64.681  1.00  0.00    -0.369 A  
HETATM    8  C   UNL     1     -10.910  12.250  63.582  1.00  0.00    -0.522 A  
HETATM    9  C   UNL     1     -10.243  11.033  63.739  1.00  0.00    -0.425 A  
HETATM   10  C   UNL     1     -10.168  10.450  65.000  1.00  0.00    -0.264 A  
HETATM   11  C   UNL     1     -10.735  11.072  66.104  1.00  0.00    -0.257 A  
HETATM   12  O   UNL     1      -9.543   9.255  65.193  1.00  0.00    -0.446 OA 
HETATM   13  H   UNL     1      -9.493   8.856  66.054  1.00  0.00     0.000 HD 
HETATM   14  C   UNL     1     -11.408  12.285  65.947  1.00  0.00    -0.406 A  
ENDBRANCH   6   7
ENDBRANCH   2   6
TORSDOF 2
ENDMDL
MODEL       13
REMARK 921   NORMALIZED FREE ENERGY PREDICTED BY IDOCK:   -4.55 KCAL/MOL
REMARK 922        TOTAL FREE ENERGY PREDICTED BY IDOCK:   -5.27 KCAL/MOL
REMARK 923 INTER-LIGAND FREE ENERGY PREDICTED BY IDOCK:   -5.12 KCAL/MOL
REMARK 924 INTRA-LIGAND FREE ENERGY PREDICTED BY IDOCK:   -0.15 KCAL/MOL
REMARK 927      BINDING AFFINITY PREDICTED BY RF-SCORE:    0.00 PKD
ROOT
HETATM    1  C   UNL     1     -11.898  13.138  67.288  1.00  0.00    -0.420 C  
HETATM    2  C   UNL     1     -11.377  13.708  68.609  1.00  0.00    -0.286 C  
HETATM    3  N   UNL     1      -9.907  13.708  68.590  1.00  0.00    -0.363 NA 
HETATM    4  H1  UNL     1      -9.560  14.088  69.471  1.00  0.00     0.000 HD 
HETATM    5  H2  UNL     1      -9.530  14.201  67.781  1.00  0.00     0.000 HD 
ENDROOT
BRANCH   2   6
HETATM    6  C   UNL     1     -11.892  15.140  68.880  1.00  0.00    -0.337 C  
BRANCH   6   7
HETATM    7  C   UNL     1     -12.315  15.379  70.312  1.00  0.00    -0.425 A  
HETATM    8  C   UNL     1     -13.611  15.055  70.743  1.00  0.00    -0.266 A  
HETATM    9  C   UNL     1     -14.010  15.319  72.054  1.00  0.00    -0.645 A  
HETATM   10  C   UNL     1     -13.109  15.896  72.943  1.00  0.00    -0.507 A  
HETATM   11  C   UNL     1     -11.813  16.196  72.543  1.00  0.00    -0.630 A  
HETATM   12  O   UNL     1     -13.463  16.188  74.226  1.00  0.00    -0.748 OA 
HETATM   13  H   UNL     1     -12.847  16.582  74.832  1.00  0.00     0.000 HD 
HETATM   14  C   UNL     1     -11.415  15.938  71.231  1.00  0.00    -0.489 A  
ENDBRANCH   6   7
ENDBRANCH   2   6
TORSDOF 2
ENDMDL
MODEL       14
REMARK 921   NORMALIZED FREE ENERGY PREDICTED BY IDOCK:   -4.54 KCAL/MOL
REMARK 922        TOTAL FREE ENERGY PREDICTED BY IDOCK:   -5.26 KCAL/MOL
REMARK 923 INTER-LIGAND FREE ENERGY PREDICTED BY IDOCK:   -5.10 KCAL/MOL
REMARK 924 INTRA-LIGAND FREE ENERGY PREDICTED BY IDOCK:   -0.16 KCAL/MOL
REMARK 927      BINDING AFFINITY PREDICTED BY RF-SCORE:    0.00 PKD
ROOT
HETATM    1  C   UNL     1     -10.097  10.220  69.538  1.00  0.00    -0.260 C  
HETATM    2  C   UNL     1     -11.269  10.699  68.679  1.00  0.00    -0.278 C  
HETATM    3  N   UNL     1     -12.532  10.369  69.357  1.00  0.00    -0.656 NA 
HETATM    4  H1  UNL     1     -13.313  10.689  68.785  1.00  0.00     0.000 HD 
HETATM    5  H2  UNL     1     -12.570  10.741  70.306  1.00  0.00     0.000 HD 
ENDROOT
BRANCH   2   6
HETATM    6  C   UNL     1     -11.214  12.217  68.395  1.00  0.00    -0.311 C  
BRANCH   6   7
HETATM    7  C   UNL     1     -11.566  12.587  66.971  1.00  0.00    -0.437 A  
HETATM    8  C   UNL     1     -11.191  11.761  65.900  1.00  0.00    -0.345 A  
HETATM    9  C   UNL     1     -11.479  12.129  64.584  1.00  0.00    -0.388 A  
HETATM   10  C   UNL     1     -12.156  13.319  64.338  1.00  0.00    -0.415 A  
HETATM   11  C   UNL     1     -12.561  14.134  65.386  1.00  0.00    -0.485 A  
HETATM   12  O   UNL     1     -12.440  13.725  63.069  1.00  0.00    -1.068 OA 
HETATM   13  H   UNL     1     -12.902  14.538  62.901  1.00  0.00     0.000 HD 
HETATM   14  C   UNL     1     -12.268  13.771  66.701  1.00  0.00    -0.454 A  
ENDBRANCH   6   7
ENDBRANCH   2   6
TORSDOF 2
ENDMDL
MODEL       15
REMARK 921   NORMALIZED FREE ENERGY PREDICTED BY IDOCK:   -4.54 KCAL/MOL
REMARK 922        TOTAL FREE ENERGY PREDICTED BY IDOCK:   -5.26 KCAL/MOL
REMARK 923 INTER-LIGAND FREE ENERGY PREDICTED BY IDOCK:   -5.10 KCAL/MOL
REMARK 924 INTRA-LIGAND FREE ENERGY PREDICTED BY IDOCK:   -0.16 KCAL/MOL
REMARK 927      BINDING AFFINITY PREDICTED BY RF-SCORE:    0.00 PKD
ROOT
HETATM    1  C   UNL     1     -11.114  12.096  63.286  1.00  0.00    -0.408 C  
HETATM    2  C   UNL     1     -11.618  13.238  64.172  1.00  0.00    -0.405 C  
HETATM    3  N   UNL     1     -12.376  14.191  63.348  1.00  0.00    -1.144 NA 
HETATM    4  H1  UNL     1     -12.712  14.951  63.939  1.00  0.00     0.000 HD 
HETATM    5  H2  UNL     1     -13.131  13.740  62.831  1.00  0.00     0.000 HD 
ENDROOT
BRANCH   2   6
HETATM    6  C   UNL     1     -12.504  12.737  65.336  1.00  0.00    -0.478 C  
BRANCH   6   7
HETATM    7  C   UNL     1     -12.046  13.204  66.699  1.00  0.00    -0.409 A  
HETATM    8  C   UNL     1     -11.759  12.281  67.717  1.00  0.00    -0.403 A  
HETATM    9  C   UNL     1     -11.380  12.719  68.987  1.00  0.00    -0.346 A  
HETATM   10  C   UNL     1     -11.274  14.082  69.239  1.00  0.00    -0.261 A  
HETATM   11  C   UNL     1     -11.525  15.010  68.237  1.00  0.00    -0.349 A  
HETATM   12  O   UNL     1     -10.926  14.553  70.470  1.00  0.00    -0.486 OA 
HETATM   13  H   UNL     1     -10.854  15.484  70.642  1.00  0.00     0.000 HD 
HETATM   14  C   UNL     1     -11.910  14.574  66.969  1.00  0.00    -0.408 A  
ENDBRANCH   6   7
ENDBRANCH   2   6
TORSDOF 2
ENDMDL
MODEL       16
REMARK 921   NORMALIZED FREE ENERGY PREDICTED BY IDOCK:   -4.54 KCAL/MOL
REMARK 922        TOTAL FREE ENERGY PREDICTED BY IDOCK:   -5.26 KCAL/MOL
REMARK 923 INTER-LIGAND FREE ENERGY PREDICTED BY IDOCK:   -5.10 KCAL/MOL
REMARK 924 INTRA-LIGAND FREE ENERGY PREDICTED BY IDOCK:   -0.16 KCAL/MOL
REMARK 927      BINDING AFFINITY PREDICTED BY RF-SCORE:    0.00 PKD
ROOT
HETATM    1  C   UNL     1     -10.250   9.497  68.833  1.00  0.00    -0.213 C  
HETATM    2  C   UNL     1     -11.249  10.470  68.204  1.00  0.00    -0.293 C  
HETATM    3  N   UNL     1     -12.389  10.651  69.115  1.00  0.00    -0.755 NA 
HETATM    4  H1  UNL     1     -13.054  11.300  68.696  1.00  0.00     0.000 HD 
HETATM    5  H2  UNL     1     -12.096  10.945  70.047  1.00  0.00     0.000 HD 
ENDROOT
BRANCH   2   6
HETATM    6  C   UNL     1     -10.616  11.844  67.885  1.00  0.00    -0.229 C  
BRANCH   6   7
HETATM    7  C   UNL     1     -11.091  12.450  66.583  1.00  0.00    -0.336 A  
HETATM    8  C   UNL     1     -12.055  13.471  66.575  1.00  0.00    -0.460 A  
HETATM    9  C   UNL     1     -12.523  13.995  65.368  1.00  0.00    -0.520 A  
HETATM   10  C   UNL     1     -12.017  13.509  64.167  1.00  0.00    -0.448 A  
HETATM   11  C   UNL     1     -11.041  12.522  64.157  1.00  0.00    -0.426 A  
HETATM   12  O   UNL     1     -12.460  13.980  62.968  1.00  0.00    -1.101 OA 
HETATM   13  H   UNL     1     -12.115  13.648  62.147  1.00  0.00     0.000 HD 
HETATM   14  C   UNL     1     -10.578  11.992  65.361  1.00  0.00    -0.319 A  
ENDBRANCH   6   7
ENDBRANCH   2   6
TORSDOF 2
ENDMDL
MODEL       17
REMARK 921   NORMALIZED FREE ENERGY PREDICTED BY IDOCK:   -4.53 KCAL/MOL
REMARK 922        TOTAL FREE ENERGY PREDICTED BY IDOCK:   -5.25 KCAL/MOL
REMARK 923 INTER-LIGAND FREE ENERGY PREDICTED BY IDOCK:   -5.14 KCAL/MOL
REMARK 924 INTRA-LIGAND FREE ENERGY PREDICTED BY IDOCK:   -0.11 KCAL/MOL
REMARK 927      BINDING AFFINITY PREDICTED BY RF-SCORE:    0.00 PKD
ROOT
HETATM    1  C   UNL     1     -11.797  14.194  64.652  1.00  0.00    -0.443 C  
HETATM    2  C   UNL     1     -10.855  15.390  64.804  1.00  0.00    -0.364 C  
HETATM    3  N   UNL     1     -11.367  16.513  64.004  1.00  0.00    -1.559 NA 
HETATM    4  H1  UNL     1     -10.739  17.311  64.105  1.00  0.00     0.000 HD 
HETATM    5  H2  UNL     1     -12.331  16.748  64.239  1.00  0.00     0.000 HD 
ENDROOT
BRANCH   2   6
HETATM    6  C   UNL     1     -10.692  15.833  66.276  1.00  0.00    -0.282 C  
BRANCH   6   7
HETATM    7  C   UNL     1      -9.943  17.136  66.445  1.00  0.00    -0.315 A  
HETATM    8  C   UNL     1     -10.595  18.283  66.925  1.00  0.00    -0.356 A  
HETATM    9  C   UNL     1      -9.909  19.494  67.036  1.00  0.00    -0.469 A  
HETATM   10  C   UNL     1      -8.567  19.558  66.680  1.00  0.00    -0.340 A  
HETATM   11  C   UNL     1      -7.898  18.427  66.231  1.00  0.00    -0.273 A  
HETATM   12  O   UNL     1      -7.866  20.725  66.755  1.00  0.00    -0.532 OA 
HETATM   13  H   UNL     1      -6.949  20.768  66.511  1.00  0.00     0.000 HD 
HETATM   14  C   UNL     1      -8.583  17.218  66.113  1.00  0.00    -0.207 A  
ENDBRANCH   6   7
ENDBRANCH   2   6
TORSDOF 2
ENDMDL
MODEL       18
REMARK 921   NORMALIZED FREE ENERGY PREDICTED BY IDOCK:   -4.53 KCAL/MOL
REMARK 922        TOTAL FREE ENERGY PREDICTED BY IDOCK:   -5.25 KCAL/MOL
REMARK 923 INTER-LIGAND FREE ENERGY PREDICTED BY IDOCK:   -5.07 KCAL/MOL
REMARK 924 INTRA-LIGAND FREE ENERGY PREDICTED BY IDOCK:   -0.17 KCAL/MOL
REMARK 927      BINDING AFFINITY PREDICTED BY RF-SCORE:    0.00 PKD
ROOT
HETATM    1  C   UNL     1      -9.786  15.907  65.656  1.00  0.00    -0.337 C  
HETATM    2  C   UNL     1     -11.119  15.425  65.080  1.00  0.00    -0.394 C  
HETATM    3  N   UNL     1     -11.540  16.336  64.005  1.00  0.00    -1.504 NA 
HETATM    4  H1  UNL     1     -12.428  16.014  63.621  1.00  0.00     0.000 HD 
HETATM    5  H2  UNL     1     -10.824  16.443  63.287  1.00  0.00     0.000 HD 
ENDROOT
BRANCH   2   6
HETATM    6  C   UNL     1     -11.041  13.980  64.535  1.00  0.00    -0.360 C  
BRANCH   6   7
HETATM    7  C   UNL     1     -11.033  12.919  65.613  1.00  0.00    -0.297 A  
HETATM    8  C   UNL     1     -10.319  11.722  65.437  1.00  0.00    -0.311 A  
HETATM    9  C   UNL     1     -10.352  10.726  66.416  1.00  0.00    -0.306 A  
HETATM   10  C   UNL     1     -11.088  10.931  67.578  1.00  0.00    -0.310 A  
HETATM   11  C   UNL     1     -11.775  12.120  67.782  1.00  0.00    -0.390 A  
HETATM   12  O   UNL     1     -11.162   9.978  68.549  1.00  0.00    -0.426 OA 
HETATM   13  H   UNL     1     -11.665  10.118  69.343  1.00  0.00     0.000 HD 
HETATM   14  C   UNL     1     -11.749  13.113  66.802  1.00  0.00    -0.439 A  
ENDBRANCH   6   7
ENDBRANCH   2   6
TORSDOF 2
ENDMDL
MODEL       19
REMARK 921   NORMALIZED FREE ENERGY PREDICTED BY IDOCK:   -4.50 KCAL/MOL
REMARK 922        TOTAL FREE ENERGY PREDICTED BY IDOCK:   -5.22 KCAL/MOL
REMARK 923 INTER-LIGAND FREE ENERGY PREDICTED BY IDOCK:   -5.07 KCAL/MOL
REMARK 924 INTRA-LIGAND FREE ENERGY PREDICTED BY IDOCK:   -0.14 KCAL/MOL
REMARK 927      BINDING AFFINITY PREDICTED BY RF-SCORE:    0.00 PKD
ROOT
HETATM    1  C   UNL     1     -11.918  11.971  69.959  1.00  0.00    -0.400 C  
HETATM    2  C   UNL     1     -11.685  13.383  69.416  1.00  0.00    -0.325 C  
HETATM    3  N   UNL     1     -11.301  14.270  70.524  1.00  0.00    -0.500 NA 
HETATM    4  H1  UNL     1     -11.145  15.211  70.162  1.00  0.00     0.000 HD 
HETATM    5  H2  UNL     1     -10.497  13.916  71.042  1.00  0.00     0.000 HD 
ENDROOT
BRANCH   2   6
HETATM    6  C   UNL     1     -10.597  13.422  68.319  1.00  0.00    -0.264 C  
BRANCH   6   7
HETATM    7  C   UNL     1     -11.144  13.589  66.919  1.00  0.00    -0.309 A  
HETATM    8  C   UNL     1     -11.963  12.603  66.345  1.00  0.00    -0.425 A  
HETATM    9  C   UNL     1     -12.429  12.742  65.036  1.00  0.00    -0.572 A  
HETATM   10  C   UNL     1     -12.088  13.873  64.302  1.00  0.00    -0.440 A  
HETATM   11  C   UNL     1     -11.304  14.873  64.863  1.00  0.00    -0.415 A  
HETATM   12  O   UNL     1     -12.505  14.038  63.016  1.00  0.00    -1.101 OA 
HETATM   13  H   UNL     1     -12.272  14.811  62.515  1.00  0.00     0.000 HD 
HETATM   14  C   UNL     1     -10.832  14.733  66.169  1.00  0.00    -0.321 A  
ENDBRANCH   6   7
ENDBRANCH   2   6
TORSDOF 2
ENDMDL
MODEL       20
REMARK 921   NORMALIZED FREE ENERGY PREDICTED BY IDOCK:   -4.50 KCAL/MOL
REMARK 922        TOTAL FREE ENERGY PREDICTED BY IDOCK:   -5.21 KCAL/MOL
REMARK 923 INTER-LIGAND FREE ENERGY PREDICTED BY IDOCK:   -5.13 KCAL/MOL
REMARK 924 INTRA-LIGAND FREE ENERGY PREDICTED BY IDOCK:   -0.09 KCAL/MOL
REMARK 927      BINDING AFFINITY PREDICTED BY RF-SCORE:    0.00 PKD
ROOT
HETATM    1  C   UNL     1      -9.439   9.104  65.975  1.00  0.00    -0.321 C  
HETATM    2  C   UNL     1      -9.695  10.474  65.345  1.00  0.00    -0.257 C  
HETATM    3  N   UNL     1     -10.047  10.298  63.928  1.00  0.00    -0.473 NA 
HETATM    4  H1  UNL     1     -10.218  11.211  63.508  1.00  0.00     0.000 HD 
HETATM    5  H2  UNL     1     -10.834   9.660  63.802  1.00  0.00     0.000 HD 
ENDROOT
BRANCH   2   6
HETATM    6  C   UNL     1     -10.817  11.257  66.065  1.00  0.00    -0.273 C  
BRANCH   6   7
HETATM    7  C   UNL     1     -11.038  12.651  65.522  1.00  0.00    -0.329 A  
HETATM    8  C   UNL     1     -12.116  12.926  64.665  1.00  0.00    -0.474 A  
HETATM    9  C   UNL     1     -12.289  14.204  64.130  1.00  0.00    -0.372 A  
HETATM   10  C   UNL     1     -11.392  15.214  64.462  1.00  0.00    -0.290 A  
HETATM   11  C   UNL     1     -10.338  14.968  65.331  1.00  0.00    -0.410 A  
HETATM   12  O   UNL     1     -11.514  16.469  63.947  1.00  0.00    -1.608 OA 
HETATM   13  H   UNL     1     -10.901  17.159  64.173  1.00  0.00     0.000 HD 
HETATM   14  C   UNL     1     -10.159  13.690  65.861  1.00  0.00    -0.320 A  
ENDBRANCH   6   7
ENDBRANCH   2   6
TORSDOF 2
ENDMDL
MODEL       21
REMARK 921   NORMALIZED FREE ENERGY PREDICTED BY IDOCK:   -4.49 KCAL/MOL
REMARK 922        TOTAL FREE ENERGY PREDICTED BY IDOCK:   -5.20 KCAL/MOL
REMARK 923 INTER-LIGAND FREE ENERGY PREDICTED BY IDOCK:   -5.14 KCAL/MOL
REMARK 924 INTRA-LIGAND FREE ENERGY PREDICTED BY IDOCK:   -0.07 KCAL/MOL
REMARK 927      BINDING AFFINITY PREDICTED BY RF-SCORE:    0.00 PKD
ROOT
HETATM    1  C   UNL     1     -14.397   7.553  71.279  1.00  0.00    -0.434 C  
HETATM    2  C   UNL     1     -14.065   8.955  71.794  1.00  0.00    -0.361 C  
HETATM    3  N   UNL     1     -14.316   9.011  73.242  1.00  0.00    -1.108 NA 
HETATM    4  H1  UNL     1     -14.094   9.946  73.585  1.00  0.00     0.000 HD 
HETATM    5  H2  UNL     1     -13.813   8.283  73.750  1.00  0.00     0.000 HD 
ENDROOT
BRANCH   2   6
HETATM    6  C   UNL     1     -12.602   9.361  71.504  1.00  0.00    -0.447 C  
BRANCH   6   7
HETATM    7  C   UNL     1     -12.438  10.808  71.095  1.00  0.00    -0.519 A  
HETATM    8  C   UNL     1     -13.007  11.839  71.859  1.00  0.00    -0.435 A  
HETATM    9  C   UNL     1     -12.890  13.170  71.453  1.00  0.00    -0.401 A  
HETATM   10  C   UNL     1     -12.192  13.474  70.289  1.00  0.00    -0.347 A  
HETATM   11  C   UNL     1     -11.597  12.470  69.537  1.00  0.00    -0.348 A  
HETATM   12  O   UNL     1     -12.071  14.757  69.847  1.00  0.00    -0.303 OA 
HETATM   13  H   UNL     1     -11.595  14.964  69.052  1.00  0.00     0.000 HD 
HETATM   14  C   UNL     1     -11.719  11.139  69.938  1.00  0.00    -0.433 A  
ENDBRANCH   6   7
ENDBRANCH   2   6
TORSDOF 2
ENDMDL
MODEL       22
REMARK 921   NORMALIZED FREE ENERGY PREDICTED BY IDOCK:   -4.43 KCAL/MOL
REMARK 922        TOTAL FREE ENERGY PREDICTED BY IDOCK:   -5.13 KCAL/MOL
REMARK 923 INTER-LIGAND FREE ENERGY PREDICTED BY IDOCK:   -5.12 KCAL/MOL
REMARK 924 INTRA-LIGAND FREE ENERGY PREDICTED BY IDOCK:   -0.02 KCAL/MOL
REMARK 927      BINDING AFFINITY PREDICTED BY RF-SCORE:    0.00 PKD
ROOT
HETATM    1  C   UNL     1     -11.347   8.578  72.211  1.00  0.00    -0.441 C  
HETATM    2  C   UNL     1     -11.650   9.772  71.303  1.00  0.00    -0.390 C  
HETATM    3  N   UNL     1     -11.695   9.318  69.905  1.00  0.00    -0.443 NA 
HETATM    4  H1  UNL     1     -11.898  10.114  69.300  1.00  0.00     0.000 HD 
HETATM    5  H2  UNL     1     -12.354   8.551  69.769  1.00  0.00     0.000 HD 
ENDROOT
BRANCH   2   6
HETATM    6  C   UNL     1     -12.982  10.468  71.666  1.00  0.00    -0.581 C  
BRANCH   6   7
HETATM    7  C   UNL     1     -12.952  11.971  71.500  1.00  0.00    -0.407 A  
HETATM    8  C   UNL     1     -13.641  12.807  72.393  1.00  0.00    -0.507 A  
HETATM    9  C   UNL     1     -13.648  14.191  72.208  1.00  0.00    -0.596 A  
HETATM   10  C   UNL     1     -12.954  14.743  71.137  1.00  0.00    -0.359 A  
HETATM   11  C   UNL     1     -12.243  13.935  70.260  1.00  0.00    -0.428 A  
HETATM   12  O   UNL     1     -12.951  16.087  70.910  1.00  0.00    -0.596 OA 
HETATM   13  H   UNL     1     -12.477  16.464  70.177  1.00  0.00     0.000 HD 
HETATM   14  C   UNL     1     -12.241  12.551  70.440  1.00  0.00    -0.368 A  
ENDBRANCH   6   7
ENDBRANCH   2   6
TORSDOF 2
ENDMDL
MODEL       23
REMARK 921   NORMALIZED FREE ENERGY PREDICTED BY IDOCK:   -4.43 KCAL/MOL
REMARK 922        TOTAL FREE ENERGY PREDICTED BY IDOCK:   -5.13 KCAL/MOL
REMARK 923 INTER-LIGAND FREE ENERGY PREDICTED BY IDOCK:   -4.96 KCAL/MOL
REMARK 924 INTRA-LIGAND FREE ENERGY PREDICTED BY IDOCK:   -0.17 KCAL/MOL
REMARK 927      BINDING AFFINITY PREDICTED BY RF-SCORE:    0.00 PKD
ROOT
HETATM    1  C   UNL     1     -10.694  11.362  63.858  1.00  0.00    -0.462 C  
HETATM    2  C   UNL     1     -11.888  12.303  63.682  1.00  0.00    -0.522 C  
HETATM    3  N   UNL     1     -12.898  11.649  62.837  1.00  0.00    -0.827 NA 
HETATM    4  H1  UNL     1     -13.695  12.276  62.720  1.00  0.00     0.000 HD 
HETATM    5  H2  UNL     1     -13.174  10.737  63.199  1.00  0.00     0.000 HD 
ENDROOT
BRANCH   2   6
HETATM    6  C   UNL     1     -12.524  12.710  65.031  1.00  0.00    -0.556 C  
BRANCH   6   7
HETATM    7  C   UNL     1     -11.828  13.867  65.712  1.00  0.00    -0.393 A  
HETATM    8  C   UNL     1     -11.926  14.047  67.101  1.00  0.00    -0.465 A  
HETATM    9  C   UNL     1     -11.319  15.143  67.719  1.00  0.00    -0.335 A  
HETATM   10  C   UNL     1     -10.601  16.053  66.950  1.00  0.00    -0.300 A  
HETATM   11  C   UNL     1     -10.469  15.875  65.579  1.00  0.00    -0.425 A  
HETATM   12  O   UNL     1     -10.010  17.146  67.510  1.00  0.00    -0.264 OA 
HETATM   13  H   UNL     1      -9.521  17.768  66.985  1.00  0.00     0.000 HD 
HETATM   14  C   UNL     1     -11.081  14.785  64.960  1.00  0.00    -0.412 A  
ENDBRANCH   6   7
ENDBRANCH   2   6
TORSDOF 2
ENDMDL
MODEL       24
REMARK 921   NORMALIZED FREE ENERGY PREDICTED BY IDOCK:   -4.39 KCAL/MOL
REMARK 922        TOTAL FREE ENERGY PREDICTED BY IDOCK:   -5.09 KCAL/MOL
REMARK 923 INTER-LIGAND FREE ENERGY PREDICTED BY IDOCK:   -4.93 KCAL/MOL
REMARK 924 INTRA-LIGAND FREE ENERGY PREDICTED BY IDOCK:   -0.16 KCAL/MOL
REMARK 927      BINDING AFFINITY PREDICTED BY RF-SCORE:    0.00 PKD
ROOT
HETATM    1  C   UNL     1      -9.244  10.482  67.222  1.00  0.00    -0.156 C  
HETATM    2  C   UNL     1     -10.366  10.002  68.144  1.00  0.00    -0.194 C  
HETATM    3  N   UNL     1     -10.858   8.700  67.671  1.00  0.00    -0.493 NA 
HETATM    4  H1  UNL     1     -11.606   8.380  68.286  1.00  0.00     0.000 HD 
HETATM    5  H2  UNL     1     -10.109   8.013  67.583  1.00  0.00     0.000 HD 
ENDROOT
BRANCH   2   6
HETATM    6  C   UNL     1      -9.912   9.883  69.617  1.00  0.00    -0.255 C  
BRANCH   6   7
HETATM    7  C   UNL     1     -11.043   9.626  70.588  1.00  0.00    -0.384 A  
HETATM    8  C   UNL     1     -12.032  10.597  70.812  1.00  0.00    -0.477 A  
HETATM    9  C   UNL     1     -13.048  10.374  71.743  1.00  0.00    -0.567 A  
HETATM   10  C   UNL     1     -13.086   9.172  72.442  1.00  0.00    -0.423 A  
HETATM   11  C   UNL     1     -12.134   8.188  72.212  1.00  0.00    -0.419 A  
HETATM   12  O   UNL     1     -14.049   8.921  73.373  1.00  0.00    -1.256 OA 
HETATM   13  H   UNL     1     -14.074   8.100  73.850  1.00  0.00     0.000 HD 
HETATM   14  C   UNL     1     -11.114   8.413  71.287  1.00  0.00    -0.307 A  
ENDBRANCH   6   7
ENDBRANCH   2   6
TORSDOF 2
ENDMDL
MODEL       25
REMARK 921   NORMALIZED FREE ENERGY PREDICTED BY IDOCK:   -4.37 KCAL/MOL
REMARK 922        TOTAL FREE ENERGY PREDICTED BY IDOCK:   -5.07 KCAL/MOL
REMARK 923 INTER-LIGAND FREE ENERGY PREDICTED BY IDOCK:   -4.94 KCAL/MOL
REMARK 924 INTRA-LIGAND FREE ENERGY PREDICTED BY IDOCK:   -0.13 KCAL/MOL
REMARK 927      BINDING AFFINITY PREDICTED BY RF-SCORE:    0.00 PKD
ROOT
HETATM    1  C   UNL     1     -11.304  10.829  69.107  1.00  0.00    -0.348 C  
HETATM    2  C   UNL     1     -10.465  11.591  68.079  1.00  0.00    -0.189 C  
HETATM    3  N   UNL     1      -9.081  11.096  68.121  1.00  0.00    -0.153 NA 
HETATM    4  H1  UNL     1      -8.522  11.603  67.435  1.00  0.00     0.000 HD 
HETATM    5  H2  UNL     1      -9.028  10.085  67.991  1.00  0.00     0.000 HD 
ENDROOT
BRANCH   2   6
HETATM    6  C   UNL     1     -11.022  11.455  66.643  1.00  0.00    -0.341 C  
BRANCH   6   7
HETATM    7  C   UNL     1     -11.127  12.768  65.900  1.00  0.00    -0.318 A  
HETATM    8  C   UNL     1     -10.082  13.705  65.945  1.00  0.00    -0.320 A  
HETATM    9  C   UNL     1     -10.203  14.935  65.294  1.00  0.00    -0.404 A  
HETATM   10  C   UNL     1     -11.365  15.225  64.586  1.00  0.00    -0.358 A  
HETATM   11  C   UNL     1     -12.396  14.299  64.506  1.00  0.00    -0.432 A  
HETATM   12  O   UNL     1     -11.532  16.420  63.954  1.00  0.00    -1.569 OA 
HETATM   13  H   UNL     1     -12.325  16.618  63.471  1.00  0.00     0.000 HD 
HETATM   14  C   UNL     1     -12.280  13.073  65.162  1.00  0.00    -0.507 A  
ENDBRANCH   6   7
ENDBRANCH   2   6
TORSDOF 2
ENDMDL
MODEL       26
REMARK 921   NORMALIZED FREE ENERGY PREDICTED BY IDOCK:   -4.35 KCAL/MOL
REMARK 922        TOTAL FREE ENERGY PREDICTED BY IDOCK:   -5.04 KCAL/MOL
REMARK 923 INTER-LIGAND FREE ENERGY PREDICTED BY IDOCK:   -5.00 KCAL/MOL
REMARK 924 INTRA-LIGAND FREE ENERGY PREDICTED BY IDOCK:   -0.04 KCAL/MOL
REMARK 927      BINDING AFFINITY PREDICTED BY RF-SCORE:    0.00 PKD
ROOT
HETATM    1  C   UNL     1     -11.672  13.055  69.703  1.00  0.00    -0.364 C  
HETATM    2  C   UNL     1     -11.566  12.159  68.467  1.00  0.00    -0.315 C  
HETATM    3  N   UNL     1     -12.343  10.931  68.691  1.00  0.00    -0.777 NA 
HETATM    4  H1  UNL     1     -12.272  10.334  67.867  1.00  0.00     0.000 HD 
HETATM    5  H2  UNL     1     -13.311  11.126  68.946  1.00  0.00     0.000 HD 
ENDROOT
BRANCH   2   6
HETATM    6  C   UNL     1     -12.065  12.861  67.183  1.00  0.00    -0.283 C  
BRANCH   6   7
HETATM    7  C   UNL     1     -11.511  12.268  65.906  1.00  0.00    -0.428 A  
HETATM    8  C   UNL     1     -12.044  12.626  64.658  1.00  0.00    -0.484 A  
HETATM    9  C   UNL     1     -11.559  12.042  63.485  1.00  0.00    -0.553 A  
HETATM   10  C   UNL     1     -10.530  11.109  63.559  1.00  0.00    -0.358 A  
HETATM   11  C   UNL     1      -9.971  10.765  64.782  1.00  0.00    -0.382 A  
HETATM   12  O   UNL     1     -10.041  10.501  62.442  1.00  0.00    -0.746 OA 
HETATM   13  H   UNL     1      -9.339   9.863  62.492  1.00  0.00     0.000 HD 
HETATM   14  C   UNL     1     -10.459  11.342  65.955  1.00  0.00    -0.309 A  
ENDBRANCH   6   7
ENDBRANCH   2   6
TORSDOF 2
ENDMDL
MODEL       27
REMARK 921   NORMALIZED FREE ENERGY PREDICTED BY IDOCK:   -4.34 KCAL/MOL
REMARK 922        TOTAL FREE ENERGY PREDICTED BY IDOCK:   -5.04 KCAL/MOL
REMARK 923 INTER-LIGAND FREE ENERGY PREDICTED BY IDOCK:   -4.88 KCAL/MOL
REMARK 924 INTRA-LIGAND FREE ENERGY PREDICTED BY IDOCK:   -0.16 KCAL/MOL
REMARK 927      BINDING AFFINITY PREDICTED BY RF-SCORE:    0.00 PKD
ROOT
HETATM    1  C   UNL     1      -9.334   8.267  66.659  1.00  0.00    -0.246 C  
HETATM    2  C   UNL     1     -10.443   9.282  66.943  1.00  0.00    -0.214 C  
HETATM    3  N   UNL     1     -10.978   9.051  68.293  1.00  0.00    -0.475 NA 
HETATM    4  H1  UNL     1     -11.717   9.728  68.482  1.00  0.00     0.000 HD 
HETATM    5  H2  UNL     1     -10.248   9.066  69.005  1.00  0.00     0.000 HD 
ENDROOT
BRANCH   2   6
HETATM    6  C   UNL     1      -9.953  10.743  66.822  1.00  0.00    -0.249 C  
BRANCH   6   7
HETATM    7  C   UNL     1     -10.690  11.552  65.778  1.00  0.00    -0.325 A  
HETATM    8  C   UNL     1     -10.416  11.382  64.411  1.00  0.00    -0.388 A  
HETATM    9  C   UNL     1     -11.066  12.163  63.454  1.00  0.00    -0.495 A  
HETATM   10  C   UNL     1     -12.002  13.108  63.861  1.00  0.00    -0.488 A  
HETATM   11  C   UNL     1     -12.308  13.270  65.205  1.00  0.00    -0.525 A  
HETATM   12  O   UNL     1     -12.645  13.904  62.961  1.00  0.00    -1.030 OA 
HETATM   13  H   UNL     1     -13.284  14.550  63.239  1.00  0.00     0.000 HD 
HETATM   14  C   UNL     1     -11.653  12.495  66.163  1.00  0.00    -0.448 A  
ENDBRANCH   6   7
ENDBRANCH   2   6
TORSDOF 2
ENDMDL
MODEL       28
REMARK 921   NORMALIZED FREE ENERGY PREDICTED BY IDOCK:   -4.32 KCAL/MOL
REMARK 922        TOTAL FREE ENERGY PREDICTED BY IDOCK:   -5.02 KCAL/MOL
REMARK 923 INTER-LIGAND FREE ENERGY PREDICTED BY IDOCK:   -4.84 KCAL/MOL
REMARK 924 INTRA-LIGAND FREE ENERGY PREDICTED BY IDOCK:   -0.18 KCAL/MOL
REMARK 927      BINDING AFFINITY PREDICTED BY RF-SCORE:    0.00 PKD
ROOT
HETATM    1  C   UNL     1     -10.994  15.460  64.905  1.00  0.00    -0.453 C  
HETATM    2  C   UNL     1     -11.709  14.143  64.596  1.00  0.00    -0.417 C  
HETATM    3  N   UNL     1     -12.514  14.305  63.376  1.00  0.00    -1.101 NA 
HETATM    4  H1  UNL     1     -12.990  13.427  63.169  1.00  0.00     0.000 HD 
HETATM    5  H2  UNL     1     -11.959  14.639  62.588  1.00  0.00     0.000 HD 
ENDROOT
BRANCH   2   6
HETATM    6  C   UNL     1     -10.725  12.964  64.416  1.00  0.00    -0.407 C  
BRANCH   6   7
HETATM    7  C   UNL     1     -10.748  11.969  65.554  1.00  0.00    -0.318 A  
HETATM    8  C   UNL     1     -10.070  10.743  65.451  1.00  0.00    -0.347 A  
HETATM    9  C   UNL     1     -10.132   9.809  66.487  1.00  0.00    -0.307 A  
HETATM   10  C   UNL     1     -10.860  10.104  67.634  1.00  0.00    -0.290 A  
HETATM   11  C   UNL     1     -11.513  11.322  67.766  1.00  0.00    -0.350 A  
HETATM   12  O   UNL     1     -10.962   9.212  68.660  1.00  0.00    -0.429 OA 
HETATM   13  H   UNL     1     -11.460   9.414  69.443  1.00  0.00     0.000 HD 
HETATM   14  C   UNL     1     -11.458  12.254  66.729  1.00  0.00    -0.421 A  
ENDBRANCH   6   7
ENDBRANCH   2   6
TORSDOF 2
ENDMDL
MODEL       29
REMARK 921   NORMALIZED FREE ENERGY PREDICTED BY IDOCK:   -4.31 KCAL/MOL
REMARK 922        TOTAL FREE ENERGY PREDICTED BY IDOCK:   -5.01 KCAL/MOL
REMARK 923 INTER-LIGAND FREE ENERGY PREDICTED BY IDOCK:   -4.88 KCAL/MOL
REMARK 924 INTRA-LIGAND FREE ENERGY PREDICTED BY IDOCK:   -0.13 KCAL/MOL
REMARK 927      BINDING AFFINITY PREDICTED BY RF-SCORE:    0.00 PKD
ROOT
HETATM    1  C   UNL     1     -11.347  15.796  64.605  1.00  0.00    -0.343 C  
HETATM    2  C   UNL     1     -12.011  14.422  64.714  1.00  0.00    -0.447 C  
HETATM    3  N   UNL     1     -12.490  14.009  63.387  1.00  0.00    -1.123 NA 
HETATM    4  H1  UNL     1     -12.932  13.092  63.460  1.00  0.00     0.000 HD 
HETATM    5  H2  UNL     1     -11.749  14.026  62.686  1.00  0.00     0.000 HD 
ENDROOT
BRANCH   2   6
HETATM    6  C   UNL     1     -11.056  13.346  65.280  1.00  0.00    -0.305 C  
BRANCH   6   7
HETATM    7  C   UNL     1     -11.349  12.958  66.712  1.00  0.00    -0.367 A  
HETATM    8  C   UNL     1     -11.670  13.933  67.670  1.00  0.00    -0.403 A  
HETATM    9  C   UNL     1     -11.895  13.574  69.000  1.00  0.00    -0.385 A  
HETATM   10  C   UNL     1     -11.813  12.237  69.373  1.00  0.00    -0.310 A  
HETATM   11  C   UNL     1     -11.527  11.255  68.434  1.00  0.00    -0.377 A  
HETATM   12  O   UNL     1     -12.007  11.846  70.664  1.00  0.00    -0.447 OA 
HETATM   13  H   UNL     1     -11.951  10.933  70.919  1.00  0.00     0.000 HD 
HETATM   14  C   UNL     1     -11.295  11.613  67.106  1.00  0.00    -0.373 A  
ENDBRANCH   6   7
ENDBRANCH   2   6
TORSDOF 2
ENDMDL
MODEL       30
REMARK 921   NORMALIZED FREE ENERGY PREDICTED BY IDOCK:   -4.30 KCAL/MOL
REMARK 922        TOTAL FREE ENERGY PREDICTED BY IDOCK:   -4.99 KCAL/MOL
REMARK 923 INTER-LIGAND FREE ENERGY PREDICTED BY IDOCK:   -4.80 KCAL/MOL
REMARK 924 INTRA-LIGAND FREE ENERGY PREDICTED BY IDOCK:   -0.19 KCAL/MOL
REMARK 927      BINDING AFFINITY PREDICTED BY RF-SCORE:    0.00 PKD
ROOT
HETATM    1  C   UNL     1     -13.721   7.253  71.477  1.00  0.00    -0.451 C  
HETATM    2  C   UNL     1     -13.554   8.701  71.944  1.00  0.00    -0.410 C  
HETATM    3  N   UNL     1     -14.254   8.880  73.225  1.00  0.00    -1.237 NA 
HETATM    4  H1  UNL     1     -14.143   9.845  73.536  1.00  0.00     0.000 HD 
HETATM    5  H2  UNL     1     -13.949   8.209  73.929  1.00  0.00     0.000 HD 
ENDROOT
BRANCH   2   6
HETATM    6  C   UNL     1     -12.071   9.105  72.102  1.00  0.00    -0.389 C  
BRANCH   6   7
HETATM    7  C   UNL     1     -11.538   9.941  70.959  1.00  0.00    -0.470 A  
HETATM    8  C   UNL     1     -12.279  11.021  70.453  1.00  0.00    -0.461 A  
HETATM    9  C   UNL     1     -11.804  11.761  69.368  1.00  0.00    -0.398 A  
HETATM   10  C   UNL     1     -10.580  11.431  68.796  1.00  0.00    -0.204 A  
HETATM   11  C   UNL     1      -9.820  10.385  69.302  1.00  0.00    -0.243 A  
HETATM   12  O   UNL     1     -10.089  12.115  67.725  1.00  0.00    -0.192 OA 
HETATM   13  H   UNL     1      -9.253  11.889  67.334  1.00  0.00     0.000 HD 
HETATM   14  C   UNL     1     -10.296   9.640  70.381  1.00  0.00    -0.350 A  
ENDBRANCH   6   7
ENDBRANCH   2   6
TORSDOF 2
ENDMDL
MODEL       31
REMARK 921   NORMALIZED FREE ENERGY PREDICTED BY IDOCK:   -4.30 KCAL/MOL
REMARK 922        TOTAL FREE ENERGY PREDICTED BY IDOCK:   -4.98 KCAL/MOL
REMARK 923 INTER-LIGAND FREE ENERGY PREDICTED BY IDOCK:   -4.81 KCAL/MOL
REMARK 924 INTRA-LIGAND FREE ENERGY PREDICTED BY IDOCK:   -0.18 KCAL/MOL
REMARK 927      BINDING AFFINITY PREDICTED BY RF-SCORE:    0.00 PKD
ROOT
HETATM    1  C   UNL     1     -14.079   7.126  71.553  1.00  0.00    -0.467 C  
HETATM    2  C   UNL     1     -13.751   8.569  71.941  1.00  0.00    -0.415 C  
HETATM    3  N   UNL     1     -14.398   8.884  73.223  1.00  0.00    -1.177 NA 
HETATM    4  H1  UNL     1     -14.179   9.846  73.482  1.00  0.00     0.000 HD 
HETATM    5  H2  UNL     1     -14.148   8.220  73.956  1.00  0.00     0.000 HD 
ENDROOT
BRANCH   2   6
HETATM    6  C   UNL     1     -12.230   8.821  72.051  1.00  0.00    -0.447 C  
BRANCH   6   7
HETATM    7  C   UNL     1     -11.692   9.787  71.019  1.00  0.00    -0.453 A  
HETATM    8  C   UNL     1     -10.498   9.515  70.334  1.00  0.00    -0.336 A  
HETATM    9  C   UNL     1      -9.982  10.431  69.414  1.00  0.00    -0.240 A  
HETATM   10  C   UNL     1     -10.668  11.616  69.169  1.00  0.00    -0.145 A  
HETATM   11  C   UNL     1     -11.867  11.888  69.815  1.00  0.00    -0.411 A  
HETATM   12  O   UNL     1     -10.191  12.545  68.294  1.00  0.00    -0.224 OA 
HETATM   13  H   UNL     1     -10.659  13.354  68.126  1.00  0.00     0.000 HD 
HETATM   14  C   UNL     1     -12.379  10.977  70.739  1.00  0.00    -0.496 A  
ENDBRANCH   6   7
ENDBRANCH   2   6
TORSDOF 2
ENDMDL
MODEL       32
REMARK 921   NORMALIZED FREE ENERGY PREDICTED BY IDOCK:   -4.28 KCAL/MOL
REMARK 922        TOTAL FREE ENERGY PREDICTED BY IDOCK:   -4.97 KCAL/MOL
REMARK 923 INTER-LIGAND FREE ENERGY PREDICTED BY IDOCK:   -4.74 KCAL/MOL
REMARK 924 INTRA-LIGAND FREE ENERGY PREDICTED BY IDOCK:   -0.23 KCAL/MOL
REMARK 927      BINDING AFFINITY PREDICTED BY RF-SCORE:    0.00 PKD
ROOT
HETATM    1  C   UNL     1     -10.510  15.808  66.481  1.00  0.00    -0.304 C  
HETATM    2  C   UNL     1     -11.125  14.854  67.507  1.00  0.00    -0.317 C  
HETATM    3  N   UNL     1     -11.640  15.633  68.643  1.00  0.00    -0.373 NA 
HETATM    4  H1  UNL     1     -12.050  14.997  69.327  1.00  0.00     0.000 HD 
HETATM    5  H2  UNL     1     -12.293  16.359  68.350  1.00  0.00     0.000 HD 
ENDROOT
BRANCH   2   6
HETATM    6  C   UNL     1     -12.262  13.994  66.909  1.00  0.00    -0.415 C  
BRANCH   6   7
HETATM    7  C   UNL     1     -11.819  13.093  65.779  1.00  0.00    -0.442 A  
HETATM    8  C   UNL     1     -10.859  12.090  65.993  1.00  0.00    -0.329 A  
HETATM    9  C   UNL     1     -10.420  11.290  64.935  1.00  0.00    -0.375 A  
HETATM   10  C   UNL     1     -10.949  11.483  63.664  1.00  0.00    -0.404 A  
HETATM   11  C   UNL     1     -11.920  12.450  63.439  1.00  0.00    -0.595 A  
HETATM   12  O   UNL     1     -10.535  10.738  62.601  1.00  0.00    -0.760 OA 
HETATM   13  H   UNL     1     -10.896  10.870  61.733  1.00  0.00     0.000 HD 
HETATM   14  C   UNL     1     -12.355  13.254  64.493  1.00  0.00    -0.428 A  
ENDBRANCH   6   7
ENDBRANCH   2   6
TORSDOF 2
ENDMDL
MODEL       33
REMARK 921   NORMALIZED FREE ENERGY PREDICTED BY IDOCK:   -4.27 KCAL/MOL
REMARK 922        TOTAL FREE ENERGY PREDICTED BY IDOCK:   -4.96 KCAL/MOL
REMARK 923 INTER-LIGAND FREE ENERGY PREDICTED BY IDOCK:   -4.79 KCAL/MOL
REMARK 924 INTRA-LIGAND FREE ENERGY PREDICTED BY IDOCK:   -0.17 KCAL/MOL
REMARK 927      BINDING AFFINITY PREDICTED BY RF-SCORE:    0.00 PKD
ROOT
HETATM    1  C   UNL     1     -12.407  12.019  63.413  1.00  0.00    -0.635 C  
HETATM    2  C   UNL     1     -11.415  12.606  64.418  1.00  0.00    -0.349 C  
HETATM    3  N   UNL     1     -10.179  12.981  63.716  1.00  0.00    -0.716 NA 
HETATM    4  H1  UNL     1      -9.518  13.373  64.387  1.00  0.00     0.000 HD 
HETATM    5  H2  UNL     1     -10.355  13.611  62.933  1.00  0.00     0.000 HD 
ENDROOT
BRANCH   2   6
HETATM    6  C   UNL     1     -11.984  13.837  65.161  1.00  0.00    -0.393 C  
BRANCH   6   7
HETATM    7  C   UNL     1     -11.846  13.762  66.666  1.00  0.00    -0.445 A  
HETATM    8  C   UNL     1     -11.790  12.522  67.321  1.00  0.00    -0.381 A  
HETATM    9  C   UNL     1     -11.708  12.458  68.714  1.00  0.00    -0.379 A  
HETATM   10  C   UNL     1     -11.669  13.636  69.453  1.00  0.00    -0.324 A  
HETATM   11  C   UNL     1     -11.693  14.871  68.820  1.00  0.00    -0.353 A  
HETATM   12  O   UNL     1     -11.608  13.619  70.814  1.00  0.00    -0.505 OA 
HETATM   13  H   UNL     1     -11.581  14.423  71.319  1.00  0.00     0.000 HD 
HETATM   14  C   UNL     1     -11.782  14.936  67.429  1.00  0.00    -0.311 A  
ENDBRANCH   6   7
ENDBRANCH   2   6
TORSDOF 2
ENDMDL
MODEL       34
REMARK 921   NORMALIZED FREE ENERGY PREDICTED BY IDOCK:   -4.26 KCAL/MOL
REMARK 922        TOTAL FREE ENERGY PREDICTED BY IDOCK:   -4.95 KCAL/MOL
REMARK 923 INTER-LIGAND FREE ENERGY PREDICTED BY IDOCK:   -4.81 KCAL/MOL
REMARK 924 INTRA-LIGAND FREE ENERGY PREDICTED BY IDOCK:   -0.14 KCAL/MOL
REMARK 927      BINDING AFFINITY PREDICTED BY RF-SCORE:    0.00 PKD
ROOT
HETATM    1  C   UNL     1     -10.477  16.599  67.954  1.00  0.00    -0.322 C  
HETATM    2  C   UNL     1     -10.410  16.082  66.515  1.00  0.00    -0.299 C  
HETATM    3  N   UNL     1      -9.545  16.967  65.722  1.00  0.00    -0.543 NA 
HETATM    4  H1  UNL     1      -9.500  16.623  64.764  1.00  0.00     0.000 HD 
HETATM    5  H2  UNL     1      -8.620  17.077  66.138  1.00  0.00     0.000 HD 
ENDROOT
BRANCH   2   6
HETATM    6  C   UNL     1      -9.884  14.631  66.432  1.00  0.00    -0.302 C  
BRANCH   6   7
HETATM    7  C   UNL     1     -10.601  13.777  65.410  1.00  0.00    -0.330 A  
HETATM    8  C   UNL     1     -11.588  14.329  64.577  1.00  0.00    -0.397 A  
HETATM    9  C   UNL     1     -12.278  13.527  63.667  1.00  0.00    -0.438 A  
HETATM   10  C   UNL     1     -11.975  12.173  63.577  1.00  0.00    -0.524 A  
HETATM   11  C   UNL     1     -10.982  11.615  64.372  1.00  0.00    -0.399 A  
HETATM   12  O   UNL     1     -12.638  11.351  62.716  1.00  0.00    -0.952 OA 
HETATM   13  H   UNL     1     -12.431  10.426  62.656  1.00  0.00     0.000 HD 
HETATM   14  C   UNL     1     -10.296  12.414  65.287  1.00  0.00    -0.308 A  
ENDBRANCH   6   7
ENDBRANCH   2   6
TORSDOF 2
ENDMDL
MODEL       35
REMARK 921   NORMALIZED FREE ENERGY PREDICTED BY IDOCK:   -4.26 KCAL/MOL
REMARK 922        TOTAL FREE ENERGY PREDICTED BY IDOCK:   -4.94 KCAL/MOL
REMARK 923 INTER-LIGAND FREE ENERGY PREDICTED BY IDOCK:   -4.83 KCAL/MOL
REMARK 924 INTRA-LIGAND FREE ENERGY PREDICTED BY IDOCK:   -0.11 KCAL/MOL
REMARK 927      BINDING AFFINITY PREDICTED BY RF-SCORE:    0.00 PKD
ROOT
HETATM    1  C   UNL     1     -10.138  19.022  67.981  1.00  0.00    -0.458 C  
HETATM    2  C   UNL     1     -10.652  18.194  66.802  1.00  0.00    -0.291 C  
HETATM    3  N   UNL     1     -10.548  18.990  65.570  1.00  0.00    -0.512 NA 
HETATM    4  H1  UNL     1     -10.891  18.438  64.783  1.00  0.00     0.000 HD 
HETATM    5  H2  UNL     1      -9.603  19.340  65.414  1.00  0.00     0.000 HD 
ENDROOT
BRANCH   2   6
HETATM    6  C   UNL     1      -9.879  16.867  66.629  1.00  0.00    -0.295 C  
BRANCH   6   7
HETATM    7  C   UNL     1     -10.735  15.718  66.143  1.00  0.00    -0.293 A  
HETATM    8  C   UNL     1     -11.093  15.611  64.789  1.00  0.00    -0.426 A  
HETATM    9  C   UNL     1     -11.920  14.574  64.354  1.00  0.00    -0.467 A  
HETATM   10  C   UNL     1     -12.381  13.634  65.269  1.00  0.00    -0.465 A  
HETATM   11  C   UNL     1     -12.014  13.707  66.606  1.00  0.00    -0.458 A  
HETATM   12  O   UNL     1     -13.206  12.618  64.890  1.00  0.00    -0.819 OA 
HETATM   13  H   UNL     1     -13.521  11.976  65.515  1.00  0.00     0.000 HD 
HETATM   14  C   UNL     1     -11.193  14.746  67.044  1.00  0.00    -0.347 A  
ENDBRANCH   6   7
ENDBRANCH   2   6
TORSDOF 2
ENDMDL
MODEL       36
REMARK 921   NORMALIZED FREE ENERGY PREDICTED BY IDOCK:   -4.25 KCAL/MOL
REMARK 922        TOTAL FREE ENERGY PREDICTED BY IDOCK:   -4.93 KCAL/MOL
REMARK 923 INTER-LIGAND FREE ENERGY PREDICTED BY IDOCK:   -4.86 KCAL/MOL
REMARK 924 INTRA-LIGAND FREE ENERGY PREDICTED BY IDOCK:   -0.07 KCAL/MOL
REMARK 927      BINDING AFFINITY PREDICTED BY RF-SCORE:    0.00 PKD
ROOT
HETATM    1  C   UNL     1     -10.248  15.096  65.208  1.00  0.00    -0.400 C  
HETATM    2  C   UNL     1     -11.734  15.043  64.845  1.00  0.00    -0.336 C  
HETATM    3  N   UNL     1     -12.005  16.014  63.774  1.00  0.00    -1.339 NA 
HETATM    4  H1  UNL     1     -12.995  15.979  63.532  1.00  0.00     0.000 HD 
HETATM    5  H2  UNL     1     -11.403  15.874  62.963  1.00  0.00     0.000 HD 
ENDROOT
BRANCH   2   6
HETATM    6  C   UNL     1     -12.183  13.634  64.394  1.00  0.00    -0.436 C  
BRANCH   6   7
HETATM    7  C   UNL     1     -11.552  12.509  65.183  1.00  0.00    -0.395 A  
HETATM    8  C   UNL     1     -11.747  12.406  66.569  1.00  0.00    -0.443 A  
HETATM    9  C   UNL     1     -11.125  11.391  67.300  1.00  0.00    -0.363 A  
HETATM   10  C   UNL     1     -10.318  10.468  66.642  1.00  0.00    -0.237 A  
HETATM   11  C   UNL     1     -10.138  10.536  65.267  1.00  0.00    -0.369 A  
HETATM   12  O   UNL     1      -9.678   9.474  67.320  1.00  0.00    -0.154 OA 
HETATM   13  H   UNL     1      -9.127   8.844  66.871  1.00  0.00     0.000 HD 
HETATM   14  C   UNL     1     -10.753  11.554  64.537  1.00  0.00    -0.390 A  
ENDBRANCH   6   7
ENDBRANCH   2   6
TORSDOF 2
ENDMDL
MODEL       37
REMARK 921   NORMALIZED FREE ENERGY PREDICTED BY IDOCK:   -4.23 KCAL/MOL
REMARK 922        TOTAL FREE ENERGY PREDICTED BY IDOCK:   -4.91 KCAL/MOL
REMARK 923 INTER-LIGAND FREE ENERGY PREDICTED BY IDOCK:   -4.72 KCAL/MOL
REMARK 924 INTRA-LIGAND FREE ENERGY PREDICTED BY IDOCK:   -0.19 KCAL/MOL
REMARK 927      BINDING AFFINITY PREDICTED BY RF-SCORE:    0.00 PKD
ROOT
HETATM    1  C   UNL     1     -12.526  11.902  63.398  1.00  0.00    -0.582 C  
HETATM    2  C   UNL     1     -11.987  13.163  64.077  1.00  0.00    -0.460 C  
HETATM    3  N   UNL     1     -12.483  14.348  63.361  1.00  0.00    -1.068 NA 
HETATM    4  H1  UNL     1     -12.124  15.189  63.813  1.00  0.00     0.000 HD 
HETATM    5  H2  UNL     1     -13.500  14.355  63.283  1.00  0.00     0.000 HD 
ENDROOT
BRANCH   2   6
HETATM    6  C   UNL     1     -12.388  13.252  65.567  1.00  0.00    -0.533 C  
BRANCH   6   7
HETATM    7  C   UNL     1     -11.293  12.832  66.522  1.00  0.00    -0.369 A  
HETATM    8  C   UNL     1     -11.596  12.134  67.702  1.00  0.00    -0.413 A  
HETATM    9  C   UNL     1     -10.586  11.789  68.602  1.00  0.00    -0.250 A  
HETATM   10  C   UNL     1      -9.268  12.130  68.318  1.00  0.00    -0.192 A  
HETATM   11  C   UNL     1      -8.945  12.795  67.142  1.00  0.00    -0.214 A  
HETATM   12  O   UNL     1      -8.255  11.830  69.178  1.00  0.00    -0.356 OA 
HETATM   13  H   UNL     1      -7.355  12.063  68.984  1.00  0.00     0.000 HD 
HETATM   14  C   UNL     1      -9.954  13.146  66.245  1.00  0.00    -0.285 A  
ENDBRANCH   6   7
ENDBRANCH   2   6
TORSDOF 2
ENDMDL
MODEL       38
REMARK 921   NORMALIZED FREE ENERGY PREDICTED BY IDOCK:   -4.22 KCAL/MOL
REMARK 922        TOTAL FREE ENERGY PREDICTED BY IDOCK:   -4.90 KCAL/MOL
REMARK 923 INTER-LIGAND FREE ENERGY PREDICTED BY IDOCK:   -4.71 KCAL/MOL
REMARK 924 INTRA-LIGAND FREE ENERGY PREDICTED BY IDOCK:   -0.19 KCAL/MOL
REMARK 927      BINDING AFFINITY PREDICTED BY RF-SCORE:    0.00 PKD
ROOT
HETATM    1  C   UNL     1     -12.049  10.973  69.885  1.00  0.00    -0.435 C  
HETATM    2  C   UNL     1     -11.766  12.341  69.261  1.00  0.00    -0.330 C  
HETATM    3  N   UNL     1     -11.500  13.315  70.330  1.00  0.00    -0.507 NA 
HETATM    4  H1  UNL     1     -11.312  14.227  69.914  1.00  0.00     0.000 HD 
HETATM    5  H2  UNL     1     -10.752  13.011  70.952  1.00  0.00     0.000 HD 
ENDROOT
BRANCH   2   6
HETATM    6  C   UNL     1     -10.573  12.308  68.280  1.00  0.00    -0.243 C  
BRANCH   6   7
HETATM    7  C   UNL     1     -10.977  12.186  66.827  1.00  0.00    -0.325 A  
HETATM    8  C   UNL     1     -12.050  12.933  66.315  1.00  0.00    -0.433 A  
HETATM    9  C   UNL     1     -12.447  12.783  64.985  1.00  0.00    -0.572 A  
HETATM   10  C   UNL     1     -11.764  11.895  64.160  1.00  0.00    -0.340 A  
HETATM   11  C   UNL     1     -10.682  11.170  64.642  1.00  0.00    -0.350 A  
HETATM   12  O   UNL     1     -12.132  11.704  62.862  1.00  0.00    -0.876 OA 
HETATM   13  H   UNL     1     -11.665  11.097  62.299  1.00  0.00     0.000 HD 
HETATM   14  C   UNL     1     -10.288  11.314  65.972  1.00  0.00    -0.302 A  
ENDBRANCH   6   7
ENDBRANCH   2   6
TORSDOF 2
ENDMDL
MODEL       39
REMARK 921   NORMALIZED FREE ENERGY PREDICTED BY IDOCK:   -4.20 KCAL/MOL
REMARK 922        TOTAL FREE ENERGY PREDICTED BY IDOCK:   -4.88 KCAL/MOL
REMARK 923 INTER-LIGAND FREE ENERGY PREDICTED BY IDOCK:   -4.70 KCAL/MOL
REMARK 924 INTRA-LIGAND FREE ENERGY PREDICTED BY IDOCK:   -0.18 KCAL/MOL
REMARK 927      BINDING AFFINITY PREDICTED BY RF-SCORE:    0.00 PKD
ROOT
HETATM    1  C   UNL     1     -12.469  10.026  71.516  1.00  0.00    -0.516 C  
HETATM    2  C   UNL     1     -12.814   8.756  72.296  1.00  0.00    -0.405 C  
HETATM    3  N   UNL     1     -13.972   9.019  73.163  1.00  0.00    -1.215 NA 
HETATM    4  H1  UNL     1     -14.202   8.172  73.683  1.00  0.00     0.000 HD 
HETATM    5  H2  UNL     1     -14.770   9.383  72.643  1.00  0.00     0.000 HD 
ENDROOT
BRANCH   2   6
HETATM    6  C   UNL     1     -13.123   7.558  71.368  1.00  0.00    -0.373 C  
BRANCH   6   7
HETATM    7  C   UNL     1     -11.969   6.593  71.210  1.00  0.00    -0.409 A  
HETATM    8  C   UNL     1     -11.380   6.376  69.954  1.00  0.00    -0.500 A  
HETATM    9  C   UNL     1     -10.346   5.451  69.805  1.00  0.00    -0.375 A  
HETATM   10  C   UNL     1      -9.888   4.749  70.915  1.00  0.00    -0.209 A  
HETATM   11  C   UNL     1     -10.438   4.971  72.170  1.00  0.00    -0.274 A  
HETATM   12  O   UNL     1      -8.894   3.823  70.810  1.00  0.00    -0.074 OA 
HETATM   13  H   UNL     1      -8.582   3.343  71.568  1.00  0.00     0.000 HD 
HETATM   14  C   UNL     1     -11.477   5.890  72.319  1.00  0.00    -0.351 A  
ENDBRANCH   6   7
ENDBRANCH   2   6
TORSDOF 2
ENDMDL
MODEL       40
REMARK 921   NORMALIZED FREE ENERGY PREDICTED BY IDOCK:   -4.20 KCAL/MOL
REMARK 922        TOTAL FREE ENERGY PREDICTED BY IDOCK:   -4.87 KCAL/MOL
REMARK 923 INTER-LIGAND FREE ENERGY PREDICTED BY IDOCK:   -4.70 KCAL/MOL
REMARK 924 INTRA-LIGAND FREE ENERGY PREDICTED BY IDOCK:   -0.18 KCAL/MOL
REMARK 927      BINDING AFFINITY PREDICTED BY RF-SCORE:    0.00 PKD
ROOT
HETATM    1  C   UNL     1     -10.228  17.972  67.962  1.00  0.00    -0.390 C  
HETATM    2  C   UNL     1      -9.899  17.444  66.564  1.00  0.00    -0.304 C  
HETATM    3  N   UNL     1      -8.821  18.255  65.981  1.00  0.00    -0.507 NA 
HETATM    4  H1  UNL     1      -8.602  17.903  65.049  1.00  0.00     0.000 HD 
HETATM    5  H2  UNL     1      -7.998  18.296  66.583  1.00  0.00     0.000 HD 
ENDROOT
BRANCH   2   6
HETATM    6  C   UNL     1      -9.480  15.956  66.577  1.00  0.00    -0.299 C  
BRANCH   6   7
HETATM    7  C   UNL     1     -10.549  15.014  66.069  1.00  0.00    -0.329 A  
HETATM    8  C   UNL     1     -11.087  14.021  66.903  1.00  0.00    -0.310 A  
HETATM    9  C   UNL     1     -12.041  13.125  66.416  1.00  0.00    -0.447 A  
HETATM   10  C   UNL     1     -12.468  13.228  65.097  1.00  0.00    -0.470 A  
HETATM   11  C   UNL     1     -11.969  14.222  64.266  1.00  0.00    -0.449 A  
HETATM   12  O   UNL     1     -13.382  12.362  64.576  1.00  0.00    -0.800 OA 
HETATM   13  H   UNL     1     -13.674  12.433  63.675  1.00  0.00     0.000 HD 
HETATM   14  C   UNL     1     -11.011  15.114  64.749  1.00  0.00    -0.394 A  
ENDBRANCH   6   7
ENDBRANCH   2   6
TORSDOF 2
ENDMDL
MODEL       41
REMARK 921   NORMALIZED FREE ENERGY PREDICTED BY IDOCK:   -4.18 KCAL/MOL
REMARK 922        TOTAL FREE ENERGY PREDICTED BY IDOCK:   -4.86 KCAL/MOL
REMARK 923 INTER-LIGAND FREE ENERGY PREDICTED BY IDOCK:   -4.65 KCAL/MOL
REMARK 924 INTRA-LIGAND FREE ENERGY PREDICTED BY IDOCK:   -0.21 KCAL/MOL
REMARK 927      BINDING AFFINITY PREDICTED BY RF-SCORE:    0.00 PKD
ROOT
HETATM    1  C   UNL     1      -9.685   9.983  64.832  1.00  0.00    -0.377 C  
HETATM    2  C   UNL     1      -9.899  10.977  63.688  1.00  0.00    -0.351 C  
HETATM    3  N   UNL     1      -9.833  10.260  62.406  1.00  0.00    -0.732 NA 
HETATM    4  H1  UNL     1      -9.976  10.922  61.643  1.00  0.00     0.000 HD 
HETATM    5  H2  UNL     1     -10.486   9.478  62.366  1.00  0.00     0.000 HD 
ENDROOT
BRANCH   2   6
HETATM    6  C   UNL     1     -11.249  11.723  63.797  1.00  0.00    -0.518 C  
BRANCH   6   7
HETATM    7  C   UNL     1     -11.272  12.794  64.865  1.00  0.00    -0.331 A  
HETATM    8  C   UNL     1     -10.526  13.973  64.716  1.00  0.00    -0.445 A  
HETATM    9  C   UNL     1     -10.515  14.939  65.725  1.00  0.00    -0.345 A  
HETATM   10  C   UNL     1     -11.263  14.732  66.880  1.00  0.00    -0.347 A  
HETATM   11  C   UNL     1     -12.031  13.585  67.032  1.00  0.00    -0.440 A  
HETATM   12  O   UNL     1     -11.265  15.639  67.896  1.00  0.00    -0.336 OA 
HETATM   13  H   UNL     1     -11.776  15.498  68.685  1.00  0.00     0.000 HD 
HETATM   14  C   UNL     1     -12.037  12.617  66.027  1.00  0.00    -0.429 A  
ENDBRANCH   6   7
ENDBRANCH   2   6
TORSDOF 2
ENDMDL
MODEL       42
REMARK 921   NORMALIZED FREE ENERGY PREDICTED BY IDOCK:   -4.18 KCAL/MOL
REMARK 922        TOTAL FREE ENERGY PREDICTED BY IDOCK:   -4.85 KCAL/MOL
REMARK 923 INTER-LIGAND FREE ENERGY PREDICTED BY IDOCK:   -4.67 KCAL/MOL
REMARK 924 INTRA-LIGAND FREE ENERGY PREDICTED BY IDOCK:   -0.18 KCAL/MOL
REMARK 927      BINDING AFFINITY PREDICTED BY RF-SCORE:    0.00 PKD
ROOT
HETATM    1  C   UNL     1     -11.468  16.051  70.681  1.00  0.00    -0.427 C  
HETATM    2  C   UNL     1     -10.406  15.992  69.582  1.00  0.00    -0.283 C  
HETATM    3  N   UNL     1     -10.075  14.587  69.302  1.00  0.00    -0.403 NA 
HETATM    4  H1  UNL     1      -9.367  14.548  68.569  1.00  0.00     0.000 HD 
HETATM    5  H2  UNL     1     -10.901  14.034  69.072  1.00  0.00     0.000 HD 
ENDROOT
BRANCH   2   6
HETATM    6  C   UNL     1     -10.863  16.687  68.279  1.00  0.00    -0.356 C  
BRANCH   6   7
HETATM    7  C   UNL     1     -10.098  17.952  67.958  1.00  0.00    -0.360 A  
HETATM    8  C   UNL     1     -10.584  18.864  67.007  1.00  0.00    -0.510 A  
HETATM    9  C   UNL     1      -9.852  20.008  66.682  1.00  0.00    -0.577 A  
HETATM   10  C   UNL     1      -8.639  20.249  67.317  1.00  0.00    -0.347 A  
HETATM   11  C   UNL     1      -8.156  19.374  68.281  1.00  0.00    -0.371 A  
HETATM   12  O   UNL     1      -7.884  21.342  67.015  1.00  0.00    -0.739 OA 
HETATM   13  H   UNL     1      -7.055  21.507  67.449  1.00  0.00     0.000 HD 
HETATM   14  C   UNL     1      -8.884  18.227  68.602  1.00  0.00    -0.294 A  
ENDBRANCH   6   7
ENDBRANCH   2   6
TORSDOF 2
ENDMDL
MODEL       43
REMARK 921   NORMALIZED FREE ENERGY PREDICTED BY IDOCK:   -4.16 KCAL/MOL
REMARK 922        TOTAL FREE ENERGY PREDICTED BY IDOCK:   -4.83 KCAL/MOL
REMARK 923 INTER-LIGAND FREE ENERGY PREDICTED BY IDOCK:   -4.65 KCAL/MOL
REMARK 924 INTRA-LIGAND FREE ENERGY PREDICTED BY IDOCK:   -0.18 KCAL/MOL
REMARK 927      BINDING AFFINITY PREDICTED BY RF-SCORE:    0.00 PKD
ROOT
HETATM    1  C   UNL     1     -12.966  10.097  71.345  1.00  0.00    -0.528 C  
HETATM    2  C   UNL     1     -13.016   8.828  72.199  1.00  0.00    -0.406 C  
HETATM    3  N   UNL     1     -14.103   8.949  73.182  1.00  0.00    -1.225 NA 
HETATM    4  H1  UNL     1     -14.136   8.103  73.751  1.00  0.00     0.000 HD 
HETATM    5  H2  UNL     1     -15.000   9.155  72.743  1.00  0.00     0.000 HD 
ENDROOT
BRANCH   2   6
HETATM    6  C   UNL     1     -13.221   7.552  71.351  1.00  0.00    -0.368 C  
BRANCH   6   7
HETATM    7  C   UNL     1     -11.992   6.676  71.255  1.00  0.00    -0.409 A  
HETATM    8  C   UNL     1     -11.373   6.176  72.411  1.00  0.00    -0.340 A  
HETATM    9  C   UNL     1     -10.213   5.405  72.319  1.00  0.00    -0.244 A  
HETATM   10  C   UNL     1      -9.675   5.122  71.068  1.00  0.00    -0.183 A  
HETATM   11  C   UNL     1     -10.290   5.584  69.911  1.00  0.00    -0.368 A  
HETATM   12  O   UNL     1      -8.534   4.390  70.934  1.00  0.00    -0.085 OA 
HETATM   13  H   UNL     1      -8.167   4.197  70.079  1.00  0.00     0.000 HD 
HETATM   14  C   UNL     1     -11.446   6.359  70.003  1.00  0.00    -0.496 A  
ENDBRANCH   6   7
ENDBRANCH   2   6
TORSDOF 2
ENDMDL
MODEL       44
REMARK 921   NORMALIZED FREE ENERGY PREDICTED BY IDOCK:   -4.15 KCAL/MOL
REMARK 922        TOTAL FREE ENERGY PREDICTED BY IDOCK:   -4.82 KCAL/MOL
REMARK 923 INTER-LIGAND FREE ENERGY PREDICTED BY IDOCK:   -4.69 KCAL/MOL
REMARK 924 INTRA-LIGAND FREE ENERGY PREDICTED BY IDOCK:   -0.14 KCAL/MOL
REMARK 927      BINDING AFFINITY PREDICTED BY RF-SCORE:    0.00 PKD
ROOT
HETATM    1  C   UNL     1     -12.817  15.392  73.627  1.00  0.00    -0.685 C  
HETATM    2  C   UNL     1     -13.036  14.518  72.391  1.00  0.00    -0.402 C  
HETATM    3  N   UNL     1     -14.267  13.732  72.566  1.00  0.00    -0.718 NA 
HETATM    4  H1  UNL     1     -14.413  13.149  71.742  1.00  0.00     0.000 HD 
HETATM    5  H2  UNL     1     -15.074  14.319  72.773  1.00  0.00     0.000 HD 
ENDROOT
BRANCH   2   6
HETATM    6  C   UNL     1     -13.130  15.345  71.089  1.00  0.00    -0.565 C  
BRANCH   6   7
HETATM    7  C   UNL     1     -12.282  14.807  69.958  1.00  0.00    -0.383 A  
HETATM    8  C   UNL     1     -11.761  15.667  68.978  1.00  0.00    -0.408 A  
HETATM    9  C   UNL     1     -11.017  15.159  67.911  1.00  0.00    -0.302 A  
HETATM   10  C   UNL     1     -10.780  13.790  67.830  1.00  0.00    -0.246 A  
HETATM   11  C   UNL     1     -11.262  12.928  68.805  1.00  0.00    -0.323 A  
HETATM   12  O   UNL     1     -10.076  13.251  66.795  1.00  0.00    -0.248 OA 
HETATM   13  H   UNL     1      -9.915  12.317  66.740  1.00  0.00     0.000 HD 
HETATM   14  C   UNL     1     -12.012  13.434  69.868  1.00  0.00    -0.408 A  
ENDBRANCH   6   7
ENDBRANCH   2   6
TORSDOF 2
ENDMDL
MODEL       45
REMARK 921   NORMALIZED FREE ENERGY PREDICTED BY IDOCK:   -4.15 KCAL/MOL
REMARK 922        TOTAL FREE ENERGY PREDICTED BY IDOCK:   -4.82 KCAL/MOL
REMARK 923 INTER-LIGAND FREE ENERGY PREDICTED BY IDOCK:   -4.96 KCAL/MOL
REMARK 924 INTRA-LIGAND FREE ENERGY PREDICTED BY IDOCK:    0.14 KCAL/MOL
REMARK 927      BINDING AFFINITY PREDICTED BY RF-SCORE:    0.00 PKD
ROOT
HETATM    1  C   UNL     1     -10.051   7.685  68.522  1.00  0.00    -0.205 C  
HETATM    2  C   UNL     1      -9.944   9.209  68.448  1.00  0.00    -0.181 C  
HETATM    3  N   UNL     1     -11.153   9.749  67.809  1.00  0.00    -0.486 NA 
HETATM    4  H1  UNL     1     -11.082  10.766  67.761  1.00  0.00     0.000 HD 
HETATM    5  H2  UNL     1     -12.007   9.444  68.277  1.00  0.00     0.000 HD 
ENDROOT
BRANCH   2   6
HETATM    6  C   UNL     1      -9.758   9.858  69.839  1.00  0.00    -0.274 C  
BRANCH   6   7
HETATM    7  C   UNL     1     -10.925   9.642  70.777  1.00  0.00    -0.397 A  
HETATM    8  C   UNL     1     -11.000   8.490  71.577  1.00  0.00    -0.337 A  
HETATM    9  C   UNL     1     -12.102   8.274  72.407  1.00  0.00    -0.430 A  
HETATM   10  C   UNL     1     -13.125   9.215  72.449  1.00  0.00    -0.423 A  
HETATM   11  C   UNL     1     -13.054  10.374  71.687  1.00  0.00    -0.553 A  
HETATM   12  O   UNL     1     -14.226   9.034  73.231  1.00  0.00    -1.192 OA 
HETATM   13  H   UNL     1     -14.925   9.677  73.259  1.00  0.00     0.000 HD 
HETATM   14  C   UNL     1     -11.956  10.588  70.852  1.00  0.00    -0.481 A  
ENDBRANCH   6   7
ENDBRANCH   2   6
TORSDOF 2
ENDMDL
MODEL       46
REMARK 921   NORMALIZED FREE ENERGY PREDICTED BY IDOCK:   -4.14 KCAL/MOL
REMARK 922        TOTAL FREE ENERGY PREDICTED BY IDOCK:   -4.81 KCAL/MOL
REMARK 923 INTER-LIGAND FREE ENERGY PREDICTED BY IDOCK:   -4.64 KCAL/MOL
REMARK 924 INTRA-LIGAND FREE ENERGY PREDICTED BY IDOCK:   -0.18 KCAL/MOL
REMARK 927      BINDING AFFINITY PREDICTED BY RF-SCORE:    0.00 PKD
ROOT
HETATM    1  C   UNL     1      -9.711  14.774  67.120  1.00  0.00    -0.234 C  
HETATM    2  C   UNL     1     -10.985  15.589  67.357  1.00  0.00    -0.306 C  
HETATM    3  N   UNL     1     -12.095  14.674  67.659  1.00  0.00    -0.584 NA 
HETATM    4  H1  UNL     1     -12.944  15.217  67.817  1.00  0.00     0.000 HD 
HETATM    5  H2  UNL     1     -11.883  14.052  68.439  1.00  0.00     0.000 HD 
ENDROOT
BRANCH   2   6
HETATM    6  C   UNL     1     -10.828  16.612  68.505  1.00  0.00    -0.356 C  
BRANCH   6   7
HETATM    7  C   UNL     1     -10.017  17.832  68.132  1.00  0.00    -0.342 A  
HETATM    8  C   UNL     1      -8.686  17.968  68.558  1.00  0.00    -0.304 A  
HETATM    9  C   UNL     1      -7.956  19.118  68.248  1.00  0.00    -0.361 A  
HETATM   10  C   UNL     1      -8.551  20.128  67.501  1.00  0.00    -0.336 A  
HETATM   11  C   UNL     1      -9.857  19.999  67.047  1.00  0.00    -0.566 A  
HETATM   12  O   UNL     1      -7.881  21.274  67.194  1.00  0.00    -0.713 OA 
HETATM   13  H   UNL     1      -8.288  21.965  66.684  1.00  0.00     0.000 HD 
HETATM   14  C   UNL     1     -10.590  18.853  67.361  1.00  0.00    -0.534 A  
ENDBRANCH   6   7
ENDBRANCH   2   6
TORSDOF 2
ENDMDL
MODEL       47
REMARK 921   NORMALIZED FREE ENERGY PREDICTED BY IDOCK:   -4.11 KCAL/MOL
REMARK 922        TOTAL FREE ENERGY PREDICTED BY IDOCK:   -4.78 KCAL/MOL
REMARK 923 INTER-LIGAND FREE ENERGY PREDICTED BY IDOCK:   -4.60 KCAL/MOL
REMARK 924 INTRA-LIGAND FREE ENERGY PREDICTED BY IDOCK:   -0.18 KCAL/MOL
REMARK 927      BINDING AFFINITY PREDICTED BY RF-SCORE:    0.00 PKD
ROOT
HETATM    1  C   UNL     1     -11.014  11.611  67.020  1.00  0.00    -0.338 C  
HETATM    2  C   UNL     1     -10.673  11.752  68.504  1.00  0.00    -0.220 C  
HETATM    3  N   UNL     1      -9.977  13.029  68.722  1.00  0.00    -0.420 NA 
HETATM    4  H1  UNL     1      -9.750  13.123  69.712  1.00  0.00     0.000 HD 
HETATM    5  H2  UNL     1     -10.509  13.824  68.370  1.00  0.00     0.000 HD 
ENDROOT
BRANCH   2   6
HETATM    6  C   UNL     1     -11.926  11.683  69.408  1.00  0.00    -0.381 C  
BRANCH   6   7
HETATM    7  C   UNL     1     -11.882  10.570  70.431  1.00  0.00    -0.431 A  
HETATM    8  C   UNL     1     -13.020  10.242  71.186  1.00  0.00    -0.503 A  
HETATM    9  C   UNL     1     -12.962   9.244  72.161  1.00  0.00    -0.503 A  
HETATM   10  C   UNL     1     -11.769   8.561  72.373  1.00  0.00    -0.358 A  
HETATM   11  C   UNL     1     -10.641   8.851  71.616  1.00  0.00    -0.422 A  
HETATM   12  O   UNL     1     -11.664   7.594  73.327  1.00  0.00    -0.649 OA 
HETATM   13  H   UNL     1     -10.849   7.128  73.472  1.00  0.00     0.000 HD 
HETATM   14  C   UNL     1     -10.696   9.853  70.646  1.00  0.00    -0.372 A  
ENDBRANCH   6   7
ENDBRANCH   2   6
TORSDOF 2
ENDMDL
MODEL       48
REMARK 921   NORMALIZED FREE ENERGY PREDICTED BY IDOCK:   -4.10 KCAL/MOL
REMARK 922        TOTAL FREE ENERGY PREDICTED BY IDOCK:   -4.77 KCAL/MOL
REMARK 923 INTER-LIGAND FREE ENERGY PREDICTED BY IDOCK:   -4.65 KCAL/MOL
REMARK 924 INTRA-LIGAND FREE ENERGY PREDICTED BY IDOCK:   -0.11 KCAL/MOL
REMARK 927      BINDING AFFINITY PREDICTED BY RF-SCORE:    0.00 PKD
ROOT
HETATM    1  C   UNL     1      -7.744   8.501  69.040  1.00  0.00    -0.096 C  
HETATM    2  C   UNL     1      -8.562   8.789  70.300  1.00  0.00    -0.152 C  
HETATM    3  N   UNL     1      -7.664   9.265  71.362  1.00  0.00    -0.336 NA 
HETATM    4  H1  UNL     1      -8.210   9.457  72.202  1.00  0.00     0.000 HD 
HETATM    5  H2  UNL     1      -7.110  10.070  71.068  1.00  0.00     0.000 HD 
ENDROOT
BRANCH   2   6
HETATM    6  C   UNL     1      -9.677   9.832  70.057  1.00  0.00    -0.292 C  
BRANCH   6   7
HETATM    7  C   UNL     1     -10.919   9.607  70.891  1.00  0.00    -0.412 A  
HETATM    8  C   UNL     1     -11.980  10.526  70.863  1.00  0.00    -0.481 A  
HETATM    9  C   UNL     1     -13.104  10.337  71.669  1.00  0.00    -0.553 A  
HETATM   10  C   UNL     1     -13.176   9.221  72.495  1.00  0.00    -0.366 A  
HETATM   11  C   UNL     1     -12.150   8.286  72.515  1.00  0.00    -0.400 A  
HETATM   12  O   UNL     1     -14.246   9.009  73.312  1.00  0.00    -1.192 OA 
HETATM   13  H   UNL     1     -14.295   8.247  73.877  1.00  0.00     0.000 HD 
HETATM   14  C   UNL     1     -11.022   8.477  71.715  1.00  0.00    -0.376 A  
ENDBRANCH   6   7
ENDBRANCH   2   6
TORSDOF 2
ENDMDL
MODEL       49
REMARK 921   NORMALIZED FREE ENERGY PREDICTED BY IDOCK:   -4.07 KCAL/MOL
REMARK 922        TOTAL FREE ENERGY PREDICTED BY IDOCK:   -4.73 KCAL/MOL
REMARK 923 INTER-LIGAND FREE ENERGY PREDICTED BY IDOCK:   -4.63 KCAL/MOL
REMARK 924 INTRA-LIGAND FREE ENERGY PREDICTED BY IDOCK:   -0.10 KCAL/MOL
REMARK 927      BINDING AFFINITY PREDICTED BY RF-SCORE:    0.00 PKD
ROOT
HETATM    1  C   UNL     1     -10.004  17.216  68.776  1.00  0.00    -0.315 C  
HETATM    2  C   UNL     1      -9.838  15.709  68.572  1.00  0.00    -0.205 C  
HETATM    3  N   UNL     1      -9.145  15.136  69.735  1.00  0.00    -0.455 NA 
HETATM    4  H1  UNL     1      -9.034  14.131  69.599  1.00  0.00     0.000 HD 
HETATM    5  H2  UNL     1      -9.614  15.358  70.613  1.00  0.00     0.000 HD 
ENDROOT
BRANCH   2   6
HETATM    6  C   UNL     1     -11.189  14.987  68.365  1.00  0.00    -0.303 C  
BRANCH   6   7
HETATM    7  C   UNL     1     -11.502  14.675  66.918  1.00  0.00    -0.372 A  
HETATM    8  C   UNL     1     -10.956  15.449  65.882  1.00  0.00    -0.293 A  
HETATM    9  C   UNL     1     -11.284  15.185  64.551  1.00  0.00    -0.283 A  
HETATM   10  C   UNL     1     -12.149  14.138  64.252  1.00  0.00    -0.444 A  
HETATM   11  C   UNL     1     -12.675  13.343  65.261  1.00  0.00    -0.481 A  
HETATM   12  O   UNL     1     -12.510  13.858  62.968  1.00  0.00    -1.099 OA 
HETATM   13  H   UNL     1     -13.101  13.143  62.764  1.00  0.00     0.000 HD 
HETATM   14  C   UNL     1     -12.353  13.609  66.593  1.00  0.00    -0.381 A  
ENDBRANCH   6   7
ENDBRANCH   2   6
TORSDOF 2
ENDMDL
MODEL       50
REMARK 921   NORMALIZED FREE ENERGY PREDICTED BY IDOCK:   -4.07 KCAL/MOL
REMARK 922        TOTAL FREE ENERGY PREDICTED BY IDOCK:   -4.73 KCAL/MOL
REMARK 923 INTER-LIGAND FREE ENERGY PREDICTED BY IDOCK:   -4.57 KCAL/MOL
REMARK 924 INTRA-LIGAND FREE ENERGY PREDICTED BY IDOCK:   -0.17 KCAL/MOL
REMARK 927      BINDING AFFINITY PREDICTED BY RF-SCORE:    0.00 PKD
ROOT
HETATM    1  C   UNL     1      -9.627  17.507  66.686  1.00  0.00    -0.290 C  
HETATM    2  C   UNL     1     -10.533  16.442  66.066  1.00  0.00    -0.323 C  
HETATM    3  N   UNL     1     -10.984  16.900  64.743  1.00  0.00    -0.849 NA 
HETATM    4  H1  UNL     1     -11.587  16.190  64.329  1.00  0.00     0.000 HD 
HETATM    5  H2  UNL     1     -10.204  17.148  64.134  1.00  0.00     0.000 HD 
ENDROOT
BRANCH   2   6
HETATM    6  C   UNL     1      -9.829  15.073  65.929  1.00  0.00    -0.369 C  
BRANCH   6   7
HETATM    7  C   UNL     1     -10.533  13.947  66.652  1.00  0.00    -0.272 A  
HETATM    8  C   UNL     1     -11.268  14.193  67.823  1.00  0.00    -0.307 A  
HETATM    9  C   UNL     1     -11.878  13.143  68.513  1.00  0.00    -0.377 A  
HETATM   10  C   UNL     1     -11.766  11.846  68.025  1.00  0.00    -0.312 A  
HETATM   11  C   UNL     1     -11.069  11.587  66.853  1.00  0.00    -0.366 A  
HETATM   12  O   UNL     1     -12.330  10.790  68.677  1.00  0.00    -0.825 OA 
HETATM   13  H   UNL     1     -12.253   9.904  68.344  1.00  0.00     0.000 HD 
HETATM   14  C   UNL     1     -10.453  12.634  66.166  1.00  0.00    -0.278 A  
ENDBRANCH   6   7
ENDBRANCH   2   6
TORSDOF 2
ENDMDL
MODEL       51
REMARK 921   NORMALIZED FREE ENERGY PREDICTED BY IDOCK:   -3.99 KCAL/MOL
REMARK 922        TOTAL FREE ENERGY PREDICTED BY IDOCK:   -4.64 KCAL/MOL
REMARK 923 INTER-LIGAND FREE ENERGY PREDICTED BY IDOCK:   -4.49 KCAL/MOL
REMARK 924 INTRA-LIGAND FREE ENERGY PREDICTED BY IDOCK:   -0.15 KCAL/MOL
REMARK 927      BINDING AFFINITY PREDICTED BY RF-SCORE:    0.00 PKD
ROOT
HETATM    1  C   UNL     1     -11.618  14.486  65.590  1.00  0.00    -0.344 C  
HETATM    2  C   UNL     1     -11.957  13.399  66.613  1.00  0.00    -0.399 C  
HETATM    3  N   UNL     1     -11.869  12.082  65.966  1.00  0.00    -0.531 NA 
HETATM    4  H1  UNL     1     -12.094  11.358  66.649  1.00  0.00     0.000 HD 
HETATM    5  H2  UNL     1     -10.963  11.928  65.524  1.00  0.00     0.000 HD 
ENDROOT
BRANCH   2   6
HETATM    6  C   UNL     1     -11.025  13.436  67.845  1.00  0.00    -0.276 C  
BRANCH   6   7
HETATM    7  C   UNL     1     -11.747  13.275  69.164  1.00  0.00    -0.379 A  
HETATM    8  C   UNL     1     -12.255  14.392  69.847  1.00  0.00    -0.394 A  
HETATM    9  C   UNL     1     -12.881  14.242  71.086  1.00  0.00    -0.429 A  
HETATM   10  C   UNL     1     -13.013  12.973  71.639  1.00  0.00    -0.321 A  
HETATM   11  C   UNL     1     -12.543  11.854  70.965  1.00  0.00    -0.381 A  
HETATM   12  O   UNL     1     -13.600  12.785  72.854  1.00  0.00    -0.664 OA 
HETATM   13  H   UNL     1     -13.689  11.918  73.232  1.00  0.00     0.000 HD 
HETATM   14  C   UNL     1     -11.911  12.003  69.730  1.00  0.00    -0.370 A  
ENDBRANCH   6   7
ENDBRANCH   2   6
TORSDOF 2
ENDMDL
MODEL       52
REMARK 921   NORMALIZED FREE ENERGY PREDICTED BY IDOCK:   -3.99 KCAL/MOL
REMARK 922        TOTAL FREE ENERGY PREDICTED BY IDOCK:   -4.64 KCAL/MOL
REMARK 923 INTER-LIGAND FREE ENERGY PREDICTED BY IDOCK:   -4.47 KCAL/MOL
REMARK 924 INTRA-LIGAND FREE ENERGY PREDICTED BY IDOCK:   -0.17 KCAL/MOL
REMARK 927      BINDING AFFINITY PREDICTED BY RF-SCORE:    0.00 PKD
ROOT
HETATM    1  C   UNL     1      -7.043   9.994  64.094  1.00  0.00    -0.126 C  
HETATM    2  C   UNL     1      -8.529   9.984  63.729  1.00  0.00    -0.181 C  
HETATM    3  N   UNL     1      -8.810   8.818  62.878  1.00  0.00    -0.429 NA 
HETATM    4  H1  UNL     1      -9.801   8.812  62.636  1.00  0.00     0.000 HD 
HETATM    5  H2  UNL     1      -8.512   7.944  63.310  1.00  0.00     0.000 HD 
ENDROOT
BRANCH   2   6
HETATM    6  C   UNL     1      -9.444   9.951  64.975  1.00  0.00    -0.343 C  
BRANCH   6   7
HETATM    7  C   UNL     1     -10.440  11.088  65.034  1.00  0.00    -0.344 A  
HETATM    8  C   UNL     1     -10.879  11.595  66.267  1.00  0.00    -0.333 A  
HETATM    9  C   UNL     1     -11.833  12.614  66.316  1.00  0.00    -0.471 A  
HETATM   10  C   UNL     1     -12.338  13.138  65.131  1.00  0.00    -0.473 A  
HETATM   11  C   UNL     1     -11.894  12.670  63.902  1.00  0.00    -0.544 A  
HETATM   12  O   UNL     1     -13.284  14.119  65.134  1.00  0.00    -0.743 OA 
HETATM   13  H   UNL     1     -13.629  14.477  64.325  1.00  0.00     0.000 HD 
HETATM   14  C   UNL     1     -10.946  11.647  63.851  1.00  0.00    -0.478 A  
ENDBRANCH   6   7
ENDBRANCH   2   6
TORSDOF 2
ENDMDL
MODEL       53
REMARK 921   NORMALIZED FREE ENERGY PREDICTED BY IDOCK:   -3.95 KCAL/MOL
REMARK 922        TOTAL FREE ENERGY PREDICTED BY IDOCK:   -4.60 KCAL/MOL
REMARK 923 INTER-LIGAND FREE ENERGY PREDICTED BY IDOCK:   -4.43 KCAL/MOL
REMARK 924 INTRA-LIGAND FREE ENERGY PREDICTED BY IDOCK:   -0.17 KCAL/MOL
REMARK 927      BINDING AFFINITY PREDICTED BY RF-SCORE:    0.00 PKD
ROOT
HETATM    1  C   UNL     1      -8.400   9.397  67.325  1.00  0.00    -0.125 C  
HETATM    2  C   UNL     1      -8.842  10.625  66.527  1.00  0.00    -0.151 C  
HETATM    3  N   UNL     1      -7.905  10.845  65.416  1.00  0.00    -0.359 NA 
HETATM    4  H1  UNL     1      -8.200  11.663  64.884  1.00  0.00     0.000 HD 
HETATM    5  H2  UNL     1      -7.802  10.018  64.828  1.00  0.00     0.000 HD 
ENDROOT
BRANCH   2   6
HETATM    6  C   UNL     1     -10.279  10.486  65.974  1.00  0.00    -0.310 C  
BRANCH   6   7
HETATM    7  C   UNL     1     -10.842  11.767  65.400  1.00  0.00    -0.347 A  
HETATM    8  C   UNL     1     -10.977  12.914  66.198  1.00  0.00    -0.304 A  
HETATM    9  C   UNL     1     -11.539  14.080  65.676  1.00  0.00    -0.332 A  
HETATM   10  C   UNL     1     -11.955  14.106  64.349  1.00  0.00    -0.457 A  
HETATM   11  C   UNL     1     -11.802  12.991  63.535  1.00  0.00    -0.582 A  
HETATM   12  O   UNL     1     -12.526  15.217  63.804  1.00  0.00    -1.004 OA 
HETATM   13  H   UNL     1     -12.810  15.235  62.898  1.00  0.00     0.000 HD 
HETATM   14  C   UNL     1     -11.246  11.823  64.059  1.00  0.00    -0.461 A  
ENDBRANCH   6   7
ENDBRANCH   2   6
TORSDOF 2
ENDMDL
MODEL       54
REMARK 921   NORMALIZED FREE ENERGY PREDICTED BY IDOCK:   -3.95 KCAL/MOL
REMARK 922        TOTAL FREE ENERGY PREDICTED BY IDOCK:   -4.60 KCAL/MOL
REMARK 923 INTER-LIGAND FREE ENERGY PREDICTED BY IDOCK:   -4.43 KCAL/MOL
REMARK 924 INTRA-LIGAND FREE ENERGY PREDICTED BY IDOCK:   -0.17 KCAL/MOL
REMARK 927      BINDING AFFINITY PREDICTED BY RF-SCORE:    0.00 PKD
ROOT
HETATM    1  C   UNL     1     -11.371  14.217  64.894  1.00  0.00    -0.372 C  
HETATM    2  C   UNL     1     -12.082  12.986  65.461  1.00  0.00    -0.452 C  
HETATM    3  N   UNL     1     -13.087  12.520  64.495  1.00  0.00    -0.839 NA 
HETATM    4  H1  UNL     1     -13.560  11.700  64.872  1.00  0.00     0.000 HD 
HETATM    5  H2  UNL     1     -12.685  12.345  63.573  1.00  0.00     0.000 HD 
ENDROOT
BRANCH   2   6
HETATM    6  C   UNL     1     -11.102  11.836  65.788  1.00  0.00    -0.351 C  
BRANCH   6   7
HETATM    7  C   UNL     1     -11.186  11.347  67.217  1.00  0.00    -0.370 A  
HETATM    8  C   UNL     1     -11.762  12.147  68.217  1.00  0.00    -0.401 A  
HETATM    9  C   UNL     1     -11.795  11.711  69.543  1.00  0.00    -0.414 A  
HETATM   10  C   UNL     1     -11.265  10.467  69.870  1.00  0.00    -0.307 A  
HETATM   11  C   UNL     1     -10.718   9.650  68.889  1.00  0.00    -0.230 A  
HETATM   12  O   UNL     1     -11.260  10.012  71.154  1.00  0.00    -0.350 OA 
HETATM   13  H   UNL     1     -10.898   9.163  71.377  1.00  0.00     0.000 HD 
HETATM   14  C   UNL     1     -10.678  10.088  67.565  1.00  0.00    -0.339 A  
ENDBRANCH   6   7
ENDBRANCH   2   6
TORSDOF 2
ENDMDL
MODEL       55
REMARK 921   NORMALIZED FREE ENERGY PREDICTED BY IDOCK:   -3.94 KCAL/MOL
REMARK 922        TOTAL FREE ENERGY PREDICTED BY IDOCK:   -4.59 KCAL/MOL
REMARK 923 INTER-LIGAND FREE ENERGY PREDICTED BY IDOCK:   -4.40 KCAL/MOL
REMARK 924 INTRA-LIGAND FREE ENERGY PREDICTED BY IDOCK:   -0.19 KCAL/MOL
REMARK 927      BINDING AFFINITY PREDICTED BY RF-SCORE:    0.00 PKD
ROOT
HETATM    1  C   UNL     1     -10.551   7.687  73.187  1.00  0.00    -0.438 C  
HETATM    2  C   UNL     1     -11.671   7.606  72.147  1.00  0.00    -0.311 C  
HETATM    3  N   UNL     1     -12.348   6.307  72.265  1.00  0.00    -0.531 NA 
HETATM    4  H1  UNL     1     -13.094   6.253  71.572  1.00  0.00     0.000 HD 
HETATM    5  H2  UNL     1     -12.686   6.131  73.211  1.00  0.00     0.000 HD 
ENDROOT
BRANCH   2   6
HETATM    6  C   UNL     1     -12.704   8.746  72.299  1.00  0.00    -0.466 C  
BRANCH   6   7
HETATM    7  C   UNL     1     -12.403   9.963  71.452  1.00  0.00    -0.498 A  
HETATM    8  C   UNL     1     -11.553   9.870  70.338  1.00  0.00    -0.356 A  
HETATM    9  C   UNL     1     -11.243  11.005  69.586  1.00  0.00    -0.345 A  
HETATM   10  C   UNL     1     -11.794  12.233  69.938  1.00  0.00    -0.311 A  
HETATM   11  C   UNL     1     -12.660  12.338  71.018  1.00  0.00    -0.352 A  
HETATM   12  O   UNL     1     -11.502  13.368  69.243  1.00  0.00    -0.267 OA 
HETATM   13  H   UNL     1     -11.878  14.206  69.483  1.00  0.00     0.000 HD 
HETATM   14  C   UNL     1     -12.965  11.206  71.774  1.00  0.00    -0.526 A  
ENDBRANCH   6   7
ENDBRANCH   2   6
TORSDOF 2
ENDMDL
MODEL       56
REMARK 921   NORMALIZED FREE ENERGY PREDICTED BY IDOCK:   -3.91 KCAL/MOL
REMARK 922        TOTAL FREE ENERGY PREDICTED BY IDOCK:   -4.55 KCAL/MOL
REMARK 923 INTER-LIGAND FREE ENERGY PREDICTED BY IDOCK:   -4.37 KCAL/MOL
REMARK 924 INTRA-LIGAND FREE ENERGY PREDICTED BY IDOCK:   -0.18 KCAL/MOL
REMARK 927      BINDING AFFINITY PREDICTED BY RF-SCORE:    0.00 PKD
ROOT
HETATM    1  C   UNL     1     -11.489  15.567  71.693  1.00  0.00    -0.496 C  
HETATM    2  C   UNL     1     -12.412  15.042  70.592  1.00  0.00    -0.365 C  
HETATM    3  N   UNL     1     -13.794  15.454  70.882  1.00  0.00    -0.844 NA 
HETATM    4  H1  UNL     1     -14.409  15.104  70.147  1.00  0.00     0.000 HD 
HETATM    5  H2  UNL     1     -13.878  16.462  71.010  1.00  0.00     0.000 HD 
ENDROOT
BRANCH   2   6
HETATM    6  C   UNL     1     -12.004  15.546  69.188  1.00  0.00    -0.331 C  
BRANCH   6   7
HETATM    7  C   UNL     1     -11.672  14.438  68.213  1.00  0.00    -0.376 A  
HETATM    8  C   UNL     1     -11.367  14.728  66.873  1.00  0.00    -0.358 A  
HETATM    9  C   UNL     1     -11.105  13.699  65.967  1.00  0.00    -0.297 A  
HETATM   10  C   UNL     1     -11.134  12.378  66.401  1.00  0.00    -0.301 A  
HETATM   11  C   UNL     1     -11.404  12.074  67.729  1.00  0.00    -0.370 A  
HETATM   12  O   UNL     1     -10.903  11.343  65.545  1.00  0.00    -0.272 OA 
HETATM   13  H   UNL     1     -10.923  10.441  65.842  1.00  0.00     0.000 HD 
HETATM   14  C   UNL     1     -11.673  13.101  68.634  1.00  0.00    -0.362 A  
ENDBRANCH   6   7
ENDBRANCH   2   6
TORSDOF 2
ENDMDL
MODEL       57
REMARK 921   NORMALIZED FREE ENERGY PREDICTED BY IDOCK:   -3.90 KCAL/MOL
REMARK 922        TOTAL FREE ENERGY PREDICTED BY IDOCK:   -4.54 KCAL/MOL
REMARK 923 INTER-LIGAND FREE ENERGY PREDICTED BY IDOCK:   -4.38 KCAL/MOL
REMARK 924 INTRA-LIGAND FREE ENERGY PREDICTED BY IDOCK:   -0.16 KCAL/MOL
REMARK 927      BINDING AFFINITY PREDICTED BY RF-SCORE:    0.00 PKD
ROOT
HETATM    1  C   UNL     1     -10.653  13.938  64.977  1.00  0.00    -0.418 C  
HETATM    2  C   UNL     1     -11.491  14.790  65.933  1.00  0.00    -0.319 C  
HETATM    3  N   UNL     1     -12.635  13.999  66.410  1.00  0.00    -0.502 NA 
HETATM    4  H1  UNL     1     -13.193  14.567  67.048  1.00  0.00     0.000 HD 
HETATM    5  H2  UNL     1     -12.345  13.116  66.831  1.00  0.00     0.000 HD 
ENDROOT
BRANCH   2   6
HETATM    6  C   UNL     1     -10.673  15.302  67.141  1.00  0.00    -0.316 C  
BRANCH   6   7
HETATM    7  C   UNL     1     -10.501  16.804  67.172  1.00  0.00    -0.299 A  
HETATM    8  C   UNL     1     -10.408  17.542  65.981  1.00  0.00    -0.309 A  
HETATM    9  C   UNL     1     -10.204  18.923  66.015  1.00  0.00    -0.437 A  
HETATM   10  C   UNL     1     -10.106  19.571  67.242  1.00  0.00    -0.405 A  
HETATM   11  C   UNL     1     -10.224  18.863  68.430  1.00  0.00    -0.433 A  
HETATM   12  O   UNL     1      -9.887  20.914  67.320  1.00  0.00    -0.565 OA 
HETATM   13  H   UNL     1      -9.820  21.357  68.158  1.00  0.00     0.000 HD 
HETATM   14  C   UNL     1     -10.421  17.482  68.397  1.00  0.00    -0.372 A  
ENDBRANCH   6   7
ENDBRANCH   2   6
TORSDOF 2
ENDMDL
MODEL       58
REMARK 921   NORMALIZED FREE ENERGY PREDICTED BY IDOCK:   -3.85 KCAL/MOL
REMARK 922        TOTAL FREE ENERGY PREDICTED BY IDOCK:   -4.49 KCAL/MOL
REMARK 923 INTER-LIGAND FREE ENERGY PREDICTED BY IDOCK:   -4.32 KCAL/MOL
REMARK 924 INTRA-LIGAND FREE ENERGY PREDICTED BY IDOCK:   -0.17 KCAL/MOL
REMARK 927      BINDING AFFINITY PREDICTED BY RF-SCORE:    0.00 PKD
ROOT
HETATM    1  C   UNL     1     -14.393   7.497  71.349  1.00  0.00    -0.540 C  
HETATM    2  C   UNL     1     -13.469   8.558  71.948  1.00  0.00    -0.383 C  
HETATM    3  N   UNL     1     -14.063   9.072  73.191  1.00  0.00    -1.223 NA 
HETATM    4  H1  UNL     1     -13.447   9.779  73.591  1.00  0.00     0.000 HD 
HETATM    5  H2  UNL     1     -14.278   8.327  73.854  1.00  0.00     0.000 HD 
ENDROOT
BRANCH   2   6
HETATM    6  C   UNL     1     -12.051   8.014  72.237  1.00  0.00    -0.392 C  
BRANCH   6   7
HETATM    7  C   UNL     1     -11.329   7.504  71.010  1.00  0.00    -0.292 A  
HETATM    8  C   UNL     1     -10.812   8.397  70.058  1.00  0.00    -0.225 A  
HETATM    9  C   UNL     1     -10.186   7.921  68.904  1.00  0.00    -0.215 A  
HETATM   10  C   UNL     1     -10.064   6.550  68.706  1.00  0.00    -0.161 A  
HETATM   11  C   UNL     1     -10.543   5.652  69.651  1.00  0.00    -0.401 A  
HETATM   12  O   UNL     1      -9.477   6.043  67.586  1.00  0.00    -0.113 OA 
HETATM   13  H   UNL     1      -9.395   5.106  67.451  1.00  0.00     0.000 HD 
HETATM   14  C   UNL     1     -11.175   6.126  70.801  1.00  0.00    -0.373 A  
ENDBRANCH   6   7
ENDBRANCH   2   6
TORSDOF 2
ENDMDL
MODEL       59
REMARK 921   NORMALIZED FREE ENERGY PREDICTED BY IDOCK:   -3.84 KCAL/MOL
REMARK 922        TOTAL FREE ENERGY PREDICTED BY IDOCK:   -4.47 KCAL/MOL
REMARK 923 INTER-LIGAND FREE ENERGY PREDICTED BY IDOCK:   -4.33 KCAL/MOL
REMARK 924 INTRA-LIGAND FREE ENERGY PREDICTED BY IDOCK:   -0.14 KCAL/MOL
REMARK 927      BINDING AFFINITY PREDICTED BY RF-SCORE:    0.00 PKD
ROOT
HETATM    1  C   UNL     1      -6.016  20.624  68.923  1.00  0.00    -0.390 C  
HETATM    2  C   UNL     1      -6.754  19.313  68.647  1.00  0.00    -0.286 C  
HETATM    3  N   UNL     1      -6.226  18.264  69.531  1.00  0.00    -0.258 NA 
HETATM    4  H1  UNL     1      -6.719  17.390  69.347  1.00  0.00     0.000 HD 
HETATM    5  H2  UNL     1      -6.267  18.531  70.515  1.00  0.00     0.000 HD 
ENDROOT
BRANCH   2   6
HETATM    6  C   UNL     1      -8.282  19.441  68.847  1.00  0.00    -0.339 C  
BRANCH   6   7
HETATM    7  C   UNL     1      -9.099  18.834  67.728  1.00  0.00    -0.311 A  
HETATM    8  C   UNL     1      -9.091  17.448  67.503  1.00  0.00    -0.232 A  
HETATM    9  C   UNL     1      -9.812  16.897  66.441  1.00  0.00    -0.319 A  
HETATM   10  C   UNL     1     -10.553  17.731  65.610  1.00  0.00    -0.123 A  
HETATM   11  C   UNL     1     -10.596  19.100  65.835  1.00  0.00    -0.495 A  
HETATM   12  O   UNL     1     -11.254  17.237  64.551  1.00  0.00    -1.083 OA 
HETATM   13  H   UNL     1     -11.760  17.806  63.984  1.00  0.00     0.000 HD 
HETATM   14  C   UNL     1      -9.871  19.652  66.892  1.00  0.00    -0.497 A  
ENDBRANCH   6   7
ENDBRANCH   2   6
TORSDOF 2
ENDMDL
MODEL       60
REMARK 921   NORMALIZED FREE ENERGY PREDICTED BY IDOCK:   -3.82 KCAL/MOL
REMARK 922        TOTAL FREE ENERGY PREDICTED BY IDOCK:   -4.46 KCAL/MOL
REMARK 923 INTER-LIGAND FREE ENERGY PREDICTED BY IDOCK:   -4.24 KCAL/MOL
REMARK 924 INTRA-LIGAND FREE ENERGY PREDICTED BY IDOCK:   -0.22 KCAL/MOL
REMARK 927      BINDING AFFINITY PREDICTED BY RF-SCORE:    0.00 PKD
ROOT
HETATM    1  C   UNL     1     -12.830  13.717  65.726  1.00  0.00    -0.430 C  
HETATM    2  C   UNL     1     -11.740  13.963  64.681  1.00  0.00    -0.397 C  
HETATM    3  N   UNL     1     -12.362  14.088  63.354  1.00  0.00    -1.154 NA 
HETATM    4  H1  UNL     1     -11.635  14.252  62.657  1.00  0.00     0.000 HD 
HETATM    5  H2  UNL     1     -13.087  14.805  63.333  1.00  0.00     0.000 HD 
ENDROOT
BRANCH   2   6
HETATM    6  C   UNL     1     -10.904  15.227  64.984  1.00  0.00    -0.457 C  
BRANCH   6   7
HETATM    7  C   UNL     1     -10.230  15.206  66.338  1.00  0.00    -0.291 A  
HETATM    8  C   UNL     1     -10.568  16.148  67.323  1.00  0.00    -0.305 A  
HETATM    9  C   UNL     1      -9.911  16.153  68.555  1.00  0.00    -0.229 A  
HETATM   10  C   UNL     1      -8.925  15.206  68.810  1.00  0.00    -0.197 A  
HETATM   11  C   UNL     1      -8.598  14.248  67.860  1.00  0.00    -0.171 A  
HETATM   12  O   UNL     1      -8.246  15.187  69.992  1.00  0.00    -0.332 OA 
HETATM   13  H   UNL     1      -7.572  14.541  70.166  1.00  0.00     0.000 HD 
HETATM   14  C   UNL     1      -9.249  14.247  66.625  1.00  0.00    -0.276 A  
ENDBRANCH   6   7
ENDBRANCH   2   6
TORSDOF 2
ENDMDL
MODEL       61
REMARK 921   NORMALIZED FREE ENERGY PREDICTED BY IDOCK:   -3.79 KCAL/MOL
REMARK 922        TOTAL FREE ENERGY PREDICTED BY IDOCK:   -4.42 KCAL/MOL
REMARK 923 INTER-LIGAND FREE ENERGY PREDICTED BY IDOCK:   -4.25 KCAL/MOL
REMARK 924 INTRA-LIGAND FREE ENERGY PREDICTED BY IDOCK:   -0.17 KCAL/MOL
REMARK 927      BINDING AFFINITY PREDICTED BY RF-SCORE:    0.00 PKD
ROOT
HETATM    1  C   UNL     1      -9.482   5.815  69.889  1.00  0.00    -0.185 C  
HETATM    2  C   UNL     1     -10.616   6.802  69.604  1.00  0.00    -0.233 C  
HETATM    3  N   UNL     1     -11.226   6.477  68.306  1.00  0.00    -0.548 NA 
HETATM    4  H1  UNL     1     -11.982   7.135  68.116  1.00  0.00     0.000 HD 
HETATM    5  H2  UNL     1     -11.536   5.506  68.257  1.00  0.00     0.000 HD 
ENDROOT
BRANCH   2   6
HETATM    6  C   UNL     1     -11.701   6.792  70.705  1.00  0.00    -0.440 C  
BRANCH   6   7
HETATM    7  C   UNL     1     -12.176   8.169  71.109  1.00  0.00    -0.257 A  
HETATM    8  C   UNL     1     -11.513   9.321  70.655  1.00  0.00    -0.327 A  
HETATM    9  C   UNL     1     -11.928  10.588  71.068  1.00  0.00    -0.466 A  
HETATM   10  C   UNL     1     -13.016  10.708  71.926  1.00  0.00    -0.437 A  
HETATM   11  C   UNL     1     -13.702   9.582  72.363  1.00  0.00    -0.408 A  
HETATM   12  O   UNL     1     -13.441  11.924  72.369  1.00  0.00    -0.611 OA 
HETATM   13  H   UNL     1     -14.184  12.006  72.956  1.00  0.00     0.000 HD 
HETATM   14  C   UNL     1     -13.284   8.315  71.956  1.00  0.00    -0.342 A  
ENDBRANCH   6   7
ENDBRANCH   2   6
TORSDOF 2
ENDMDL
MODEL       62
REMARK 921   NORMALIZED FREE ENERGY PREDICTED BY IDOCK:   -3.79 KCAL/MOL
REMARK 922        TOTAL FREE ENERGY PREDICTED BY IDOCK:   -4.42 KCAL/MOL
REMARK 923 INTER-LIGAND FREE ENERGY PREDICTED BY IDOCK:   -4.26 KCAL/MOL
REMARK 924 INTRA-LIGAND FREE ENERGY PREDICTED BY IDOCK:   -0.15 KCAL/MOL
REMARK 927      BINDING AFFINITY PREDICTED BY RF-SCORE:    0.00 PKD
ROOT
HETATM    1  C   UNL     1     -10.569  11.830  65.665  1.00  0.00    -0.314 C  
HETATM    2  C   UNL     1     -10.361  13.346  65.660  1.00  0.00    -0.290 C  
HETATM    3  N   UNL     1     -10.058  13.788  64.291  1.00  0.00    -0.734 NA 
HETATM    4  H1  UNL     1      -9.919  14.799  64.287  1.00  0.00     0.000 HD 
HETATM    5  H2  UNL     1     -10.769  13.493  63.622  1.00  0.00     0.000 HD 
ENDROOT
BRANCH   2   6
HETATM    6  C   UNL     1     -11.592  14.114  66.193  1.00  0.00    -0.377 C  
BRANCH   6   7
HETATM    7  C   UNL     1     -11.521  14.437  67.669  1.00  0.00    -0.369 A  
HETATM    8  C   UNL     1     -11.018  15.671  68.111  1.00  0.00    -0.314 A  
HETATM    9  C   UNL     1     -10.912  15.946  69.476  1.00  0.00    -0.311 A  
HETATM   10  C   UNL     1     -11.322  14.992  70.402  1.00  0.00    -0.270 A  
HETATM   11  C   UNL     1     -11.850  13.778  69.983  1.00  0.00    -0.377 A  
HETATM   12  O   UNL     1     -11.218  15.213  71.742  1.00  0.00    -0.531 OA 
HETATM   13  H   UNL     1     -11.498  14.561  72.375  1.00  0.00     0.000 HD 
HETATM   14  C   UNL     1     -11.950  13.499  68.619  1.00  0.00    -0.378 A  
ENDBRANCH   6   7
ENDBRANCH   2   6
TORSDOF 2
ENDMDL
MODEL       63
REMARK 921   NORMALIZED FREE ENERGY PREDICTED BY IDOCK:   -3.78 KCAL/MOL
REMARK 922        TOTAL FREE ENERGY PREDICTED BY IDOCK:   -4.41 KCAL/MOL
REMARK 923 INTER-LIGAND FREE ENERGY PREDICTED BY IDOCK:   -4.24 KCAL/MOL
REMARK 924 INTRA-LIGAND FREE ENERGY PREDICTED BY IDOCK:   -0.17 KCAL/MOL
REMARK 927      BINDING AFFINITY PREDICTED BY RF-SCORE:    0.00 PKD
ROOT
HETATM    1  C   UNL     1      -8.697  17.872  68.644  1.00  0.00    -0.270 C  
HETATM    2  C   UNL     1     -10.167  17.454  68.729  1.00  0.00    -0.361 C  
HETATM    3  N   UNL     1     -10.904  18.045  67.603  1.00  0.00    -0.333 NA 
HETATM    4  H1  UNL     1     -11.884  17.766  67.660  1.00  0.00     0.000 HD 
HETATM    5  H2  UNL     1     -10.487  17.811  66.702  1.00  0.00     0.000 HD 
ENDROOT
BRANCH   2   6
HETATM    6  C   UNL     1     -10.347  15.919  68.720  1.00  0.00    -0.228 C  
BRANCH   6   7
HETATM    7  C   UNL     1     -11.200  15.395  69.854  1.00  0.00    -0.310 A  
HETATM    8  C   UNL     1     -11.799  14.128  69.776  1.00  0.00    -0.381 A  
HETATM    9  C   UNL     1     -12.622  13.668  70.806  1.00  0.00    -0.397 A  
HETATM   10  C   UNL     1     -12.836  14.469  71.923  1.00  0.00    -0.338 A  
HETATM   11  C   UNL     1     -12.228  15.712  72.031  1.00  0.00    -0.521 A  
HETATM   12  O   UNL     1     -13.647  14.066  72.941  1.00  0.00    -0.676 OA 
HETATM   13  H   UNL     1     -13.794  14.614  73.704  1.00  0.00     0.000 HD 
HETATM   14  C   UNL     1     -11.411  16.176  70.999  1.00  0.00    -0.424 A  
ENDBRANCH   6   7
ENDBRANCH   2   6
TORSDOF 2
ENDMDL
MODEL       64
REMARK 921   NORMALIZED FREE ENERGY PREDICTED BY IDOCK:   -3.77 KCAL/MOL
REMARK 922        TOTAL FREE ENERGY PREDICTED BY IDOCK:   -4.40 KCAL/MOL
REMARK 923 INTER-LIGAND FREE ENERGY PREDICTED BY IDOCK:   -4.40 KCAL/MOL
REMARK 924 INTRA-LIGAND FREE ENERGY PREDICTED BY IDOCK:    0.00 KCAL/MOL
REMARK 927      BINDING AFFINITY PREDICTED BY RF-SCORE:    0.00 PKD
ROOT
HETATM    1  C   UNL     1      -9.664  15.815  66.094  1.00  0.00    -0.351 C  
HETATM    2  C   UNL     1     -10.302  15.516  67.452  1.00  0.00    -0.266 C  
HETATM    3  N   UNL     1      -9.315  14.848  68.313  1.00  0.00    -0.189 NA 
HETATM    4  H1  UNL     1      -9.741  14.649  69.219  1.00  0.00     0.000 HD 
HETATM    5  H2  UNL     1      -8.452  15.385  68.401  1.00  0.00     0.000 HD 
ENDROOT
BRANCH   2   6
HETATM    6  C   UNL     1     -10.826  16.790  68.153  1.00  0.00    -0.353 C  
BRANCH   6   7
HETATM    7  C   UNL     1     -10.006  18.029  67.865  1.00  0.00    -0.335 A  
HETATM    8  C   UNL     1     -10.445  18.979  66.929  1.00  0.00    -0.505 A  
HETATM    9  C   UNL     1      -9.663  20.098  66.634  1.00  0.00    -0.568 A  
HETATM   10  C   UNL     1      -8.447  20.275  67.284  1.00  0.00    -0.347 A  
HETATM   11  C   UNL     1      -8.010  19.361  68.234  1.00  0.00    -0.366 A  
HETATM   12  O   UNL     1      -7.644  21.342  67.012  1.00  0.00    -0.799 OA 
HETATM   13  H   UNL     1      -6.813  21.463  67.456  1.00  0.00     0.000 HD 
HETATM   14  C   UNL     1      -8.787  18.240  68.525  1.00  0.00    -0.322 A  
ENDBRANCH   6   7
ENDBRANCH   2   6
TORSDOF 2
ENDMDL
MODEL       65
REMARK 921   NORMALIZED FREE ENERGY PREDICTED BY IDOCK:   -3.77 KCAL/MOL
REMARK 922        TOTAL FREE ENERGY PREDICTED BY IDOCK:   -4.40 KCAL/MOL
REMARK 923 INTER-LIGAND FREE ENERGY PREDICTED BY IDOCK:   -4.24 KCAL/MOL
REMARK 924 INTRA-LIGAND FREE ENERGY PREDICTED BY IDOCK:   -0.16 KCAL/MOL
REMARK 927      BINDING AFFINITY PREDICTED BY RF-SCORE:    0.00 PKD
ROOT
HETATM    1  C   UNL     1     -10.120  15.540  69.851  1.00  0.00    -0.282 C  
HETATM    2  C   UNL     1     -10.836  14.495  68.993  1.00  0.00    -0.254 C  
HETATM    3  N   UNL     1     -11.749  13.715  69.842  1.00  0.00    -0.396 NA 
HETATM    4  H1  UNL     1     -12.226  13.018  69.270  1.00  0.00     0.000 HD 
HETATM    5  H2  UNL     1     -12.401  14.308  70.355  1.00  0.00     0.000 HD 
ENDROOT
BRANCH   2   6
HETATM    6  C   UNL     1     -11.627  15.129  67.826  1.00  0.00    -0.303 C  
BRANCH   6   7
HETATM    7  C   UNL     1     -11.578  14.325  66.545  1.00  0.00    -0.390 A  
HETATM    8  C   UNL     1     -12.705  13.619  66.096  1.00  0.00    -0.295 A  
HETATM    9  C   UNL     1     -12.642  12.843  64.938  1.00  0.00    -0.525 A  
HETATM   10  C   UNL     1     -11.453  12.781  64.218  1.00  0.00    -0.373 A  
HETATM   11  C   UNL     1     -10.337  13.496  64.630  1.00  0.00    -0.406 A  
HETATM   12  O   UNL     1     -11.343  12.020  63.093  1.00  0.00    -0.676 OA 
HETATM   13  H   UNL     1     -10.531  11.978  62.601  1.00  0.00     0.000 HD 
HETATM   14  C   UNL     1     -10.397  14.267  65.791  1.00  0.00    -0.341 A  
ENDBRANCH   6   7
ENDBRANCH   2   6
TORSDOF 2
ENDMDL
MODEL       66
REMARK 921   NORMALIZED FREE ENERGY PREDICTED BY IDOCK:   -3.74 KCAL/MOL
REMARK 922        TOTAL FREE ENERGY PREDICTED BY IDOCK:   -4.36 KCAL/MOL
REMARK 923 INTER-LIGAND FREE ENERGY PREDICTED BY IDOCK:   -4.23 KCAL/MOL
REMARK 924 INTRA-LIGAND FREE ENERGY PREDICTED BY IDOCK:   -0.13 KCAL/MOL
REMARK 927      BINDING AFFINITY PREDICTED BY RF-SCORE:    0.00 PKD
ROOT
HETATM    1  C   UNL     1      -9.156   6.993  66.418  1.00  0.00    -0.189 C  
HETATM    2  C   UNL     1     -10.267   7.327  67.415  1.00  0.00    -0.236 C  
HETATM    3  N   UNL     1     -11.504   6.642  67.009  1.00  0.00    -0.754 NA 
HETATM    4  H1  UNL     1     -12.244   6.865  67.674  1.00  0.00     0.000 HD 
HETATM    5  H2  UNL     1     -11.370   5.637  66.900  1.00  0.00     0.000 HD 
ENDROOT
BRANCH   2   6
HETATM    6  C   UNL     1      -9.903   6.927  68.863  1.00  0.00    -0.147 C  
BRANCH   6   7
HETATM    7  C   UNL     1     -10.839   7.492  69.908  1.00  0.00    -0.250 A  
HETATM    8  C   UNL     1     -10.778   8.847  70.271  1.00  0.00    -0.248 A  
HETATM    9  C   UNL     1     -11.614   9.354  71.268  1.00  0.00    -0.434 A  
HETATM   10  C   UNL     1     -12.522   8.508  71.897  1.00  0.00    -0.352 A  
HETATM   11  C   UNL     1     -12.617   7.172  71.531  1.00  0.00    -0.427 A  
HETATM   12  O   UNL     1     -13.342   8.957  72.888  1.00  0.00    -0.743 OA 
HETATM   13  H   UNL     1     -13.962   8.380  73.318  1.00  0.00     0.000 HD 
HETATM   14  C   UNL     1     -11.778   6.663  70.539  1.00  0.00    -0.453 A  
ENDBRANCH   6   7
ENDBRANCH   2   6
TORSDOF 2
ENDMDL
MODEL       67
REMARK 921   NORMALIZED FREE ENERGY PREDICTED BY IDOCK:   -3.73 KCAL/MOL
REMARK 922        TOTAL FREE ENERGY PREDICTED BY IDOCK:   -4.36 KCAL/MOL
REMARK 923 INTER-LIGAND FREE ENERGY PREDICTED BY IDOCK:   -4.21 KCAL/MOL
REMARK 924 INTRA-LIGAND FREE ENERGY PREDICTED BY IDOCK:   -0.15 KCAL/MOL
REMARK 927      BINDING AFFINITY PREDICTED BY RF-SCORE:    0.00 PKD
ROOT
HETATM    1  C   UNL     1     -12.272  11.940  63.472  1.00  0.00    -0.591 C  
HETATM    2  C   UNL     1     -11.936  12.930  64.589  1.00  0.00    -0.392 C  
HETATM    3  N   UNL     1     -12.141  12.279  65.891  1.00  0.00    -0.620 NA 
HETATM    4  H1  UNL     1     -11.917  12.939  66.636  1.00  0.00     0.000 HD 
HETATM    5  H2  UNL     1     -11.616  11.408  65.975  1.00  0.00     0.000 HD 
ENDROOT
BRANCH   2   6
HETATM    6  C   UNL     1     -10.486  13.458  64.495  1.00  0.00    -0.431 C  
BRANCH   6   7
HETATM    7  C   UNL     1     -10.208  14.647  65.388  1.00  0.00    -0.415 A  
HETATM    8  C   UNL     1     -10.758  15.907  65.099  1.00  0.00    -0.449 A  
HETATM    9  C   UNL     1     -10.462  17.011  65.900  1.00  0.00    -0.282 A  
HETATM   10  C   UNL     1      -9.626  16.855  67.001  1.00  0.00    -0.248 A  
HETATM   11  C   UNL     1      -9.097  15.612  67.320  1.00  0.00    -0.217 A  
HETATM   12  O   UNL     1      -9.296  17.910  67.798  1.00  0.00    -0.256 OA 
HETATM   13  H   UNL     1      -8.725  17.804  68.550  1.00  0.00     0.000 HD 
HETATM   14  C   UNL     1      -9.387  14.509  66.516  1.00  0.00    -0.307 A  
ENDBRANCH   6   7
ENDBRANCH   2   6
TORSDOF 2
ENDMDL
MODEL       68
REMARK 921   NORMALIZED FREE ENERGY PREDICTED BY IDOCK:   -3.72 KCAL/MOL
REMARK 922        TOTAL FREE ENERGY PREDICTED BY IDOCK:   -4.35 KCAL/MOL
REMARK 923 INTER-LIGAND FREE ENERGY PREDICTED BY IDOCK:   -4.22 KCAL/MOL
REMARK 924 INTRA-LIGAND FREE ENERGY PREDICTED BY IDOCK:   -0.13 KCAL/MOL
REMARK 927      BINDING AFFINITY PREDICTED BY RF-SCORE:    0.00 PKD
ROOT
HETATM    1  C   UNL     1      -9.615  14.650  66.283  1.00  0.00    -0.333 C  
HETATM    2  C   UNL     1     -10.162  14.351  67.680  1.00  0.00    -0.229 C  
HETATM    3  N   UNL     1      -9.039  14.146  68.607  1.00  0.00    -0.302 NA 
HETATM    4  H1  UNL     1      -9.404  13.947  69.538  1.00  0.00     0.000 HD 
HETATM    5  H2  UNL     1      -8.388  14.932  68.606  1.00  0.00     0.000 HD 
ENDROOT
BRANCH   2   6
HETATM    6  C   UNL     1     -11.074  15.480  68.213  1.00  0.00    -0.322 C  
BRANCH   6   7
HETATM    7  C   UNL     1     -11.612  15.228  69.604  1.00  0.00    -0.340 A  
HETATM    8  C   UNL     1     -11.447  16.181  70.622  1.00  0.00    -0.386 A  
HETATM    9  C   UNL     1     -11.905  15.924  71.915  1.00  0.00    -0.595 A  
HETATM   10  C   UNL     1     -12.541  14.719  72.191  1.00  0.00    -0.334 A  
HETATM   11  C   UNL     1     -12.740  13.777  71.191  1.00  0.00    -0.438 A  
HETATM   12  O   UNL     1     -12.986  14.421  73.444  1.00  0.00    -0.541 OA 
HETATM   13  H   UNL     1     -13.421  13.597  73.632  1.00  0.00     0.000 HD 
HETATM   14  C   UNL     1     -12.277  14.029  69.899  1.00  0.00    -0.399 A  
ENDBRANCH   6   7
ENDBRANCH   2   6
TORSDOF 2
ENDMDL
MODEL       69
REMARK 921   NORMALIZED FREE ENERGY PREDICTED BY IDOCK:   -3.72 KCAL/MOL
REMARK 922        TOTAL FREE ENERGY PREDICTED BY IDOCK:   -4.34 KCAL/MOL
REMARK 923 INTER-LIGAND FREE ENERGY PREDICTED BY IDOCK:   -4.43 KCAL/MOL
REMARK 924 INTRA-LIGAND FREE ENERGY PREDICTED BY IDOCK:    0.09 KCAL/MOL
REMARK 927      BINDING AFFINITY PREDICTED BY RF-SCORE:    0.00 PKD
ROOT
HETATM    1  C   UNL     1     -11.491  14.775  67.514  1.00  0.00    -0.369 C  
HETATM    2  C   UNL     1     -10.963  15.254  68.868  1.00  0.00    -0.261 C  
HETATM    3  N   UNL     1     -10.282  16.545  68.693  1.00  0.00    -0.248 NA 
HETATM    4  H1  UNL     1      -9.930  16.865  69.595  1.00  0.00     0.000 HD 
HETATM    5  H2  UNL     1     -10.879  17.239  68.242  1.00  0.00     0.000 HD 
ENDROOT
BRANCH   2   6
HETATM    6  C   UNL     1     -12.084  15.397  69.923  1.00  0.00    -0.382 C  
BRANCH   6   7
HETATM    7  C   UNL     1     -12.501  14.088  70.555  1.00  0.00    -0.429 A  
HETATM    8  C   UNL     1     -13.427  14.062  71.610  1.00  0.00    -0.438 A  
HETATM    9  C   UNL     1     -13.775  12.855  72.220  1.00  0.00    -0.553 A  
HETATM   10  C   UNL     1     -13.208  11.669  71.766  1.00  0.00    -0.333 A  
HETATM   11  C   UNL     1     -12.314  11.671  70.704  1.00  0.00    -0.437 A  
HETATM   12  O   UNL     1     -13.506  10.472  72.345  1.00  0.00    -0.606 OA 
HETATM   13  H   UNL     1     -13.118   9.662  72.035  1.00  0.00     0.000 HD 
HETATM   14  C   UNL     1     -11.960  12.878  70.098  1.00  0.00    -0.373 A  
ENDBRANCH   6   7
ENDBRANCH   2   6
TORSDOF 2
ENDMDL
MODEL       70
REMARK 921   NORMALIZED FREE ENERGY PREDICTED BY IDOCK:   -3.71 KCAL/MOL
REMARK 922        TOTAL FREE ENERGY PREDICTED BY IDOCK:   -4.33 KCAL/MOL
REMARK 923 INTER-LIGAND FREE ENERGY PREDICTED BY IDOCK:   -4.16 KCAL/MOL
REMARK 924 INTRA-LIGAND FREE ENERGY PREDICTED BY IDOCK:   -0.17 KCAL/MOL
REMARK 927      BINDING AFFINITY PREDICTED BY RF-SCORE:    0.00 PKD
ROOT
HETATM    1  C   UNL     1      -9.103   7.653  66.527  1.00  0.00    -0.203 C  
HETATM    2  C   UNL     1     -10.505   8.047  66.995  1.00  0.00    -0.340 C  
HETATM    3  N   UNL     1     -11.323   6.835  67.147  1.00  0.00    -0.755 NA 
HETATM    4  H1  UNL     1     -12.258   7.098  67.459  1.00  0.00     0.000 HD 
HETATM    5  H2  UNL     1     -10.888   6.149  67.764  1.00  0.00     0.000 HD 
ENDROOT
BRANCH   2   6
HETATM    6  C   UNL     1     -10.486   8.831  68.328  1.00  0.00    -0.236 C  
BRANCH   6   7
HETATM    7  C   UNL     1     -10.943  10.267  68.201  1.00  0.00    -0.328 A  
HETATM    8  C   UNL     1     -11.487  10.948  69.301  1.00  0.00    -0.372 A  
HETATM    9  C   UNL     1     -11.949  12.259  69.167  1.00  0.00    -0.303 A  
HETATM   10  C   UNL     1     -11.856  12.896  67.935  1.00  0.00    -0.339 A  
HETATM   11  C   UNL     1     -11.294  12.249  66.842  1.00  0.00    -0.392 A  
HETATM   12  O   UNL     1     -12.312  14.168  67.756  1.00  0.00    -0.565 OA 
HETATM   13  H   UNL     1     -12.248  14.603  66.914  1.00  0.00     0.000 HD 
HETATM   14  C   UNL     1     -10.838  10.937  66.973  1.00  0.00    -0.323 A  
ENDBRANCH   6   7
ENDBRANCH   2   6
TORSDOF 2
ENDMDL
MODEL       71
REMARK 921   NORMALIZED FREE ENERGY PREDICTED BY IDOCK:   -3.70 KCAL/MOL
REMARK 922        TOTAL FREE ENERGY PREDICTED BY IDOCK:   -4.32 KCAL/MOL
REMARK 923 INTER-LIGAND FREE ENERGY PREDICTED BY IDOCK:   -4.15 KCAL/MOL
REMARK 924 INTRA-LIGAND FREE ENERGY PREDICTED BY IDOCK:   -0.17 KCAL/MOL
REMARK 927      BINDING AFFINITY PREDICTED BY RF-SCORE:    0.00 PKD
ROOT
HETATM    1  C   UNL     1     -13.805   9.054  72.249  1.00  0.00    -0.547 C  
HETATM    2  C   UNL     1     -13.109  10.180  71.480  1.00  0.00    -0.429 C  
HETATM    3  N   UNL     1     -13.335  11.454  72.178  1.00  0.00    -0.568 NA 
HETATM    4  H1  UNL     1     -12.871  12.204  71.666  1.00  0.00     0.000 HD 
HETATM    5  H2  UNL     1     -13.046  11.416  73.155  1.00  0.00     0.000 HD 
ENDROOT
BRANCH   2   6
HETATM    6  C   UNL     1     -11.590   9.937  71.322  1.00  0.00    -0.456 C  
BRANCH   6   7
HETATM    7  C   UNL     1     -11.153   9.707  69.892  1.00  0.00    -0.268 A  
HETATM    8  C   UNL     1     -11.329  10.702  68.918  1.00  0.00    -0.337 A  
HETATM    9  C   UNL     1     -10.964  10.469  67.591  1.00  0.00    -0.375 A  
HETATM   10  C   UNL     1     -10.411   9.243  67.237  1.00  0.00    -0.265 A  
HETATM   11  C   UNL     1     -10.202   8.257  68.192  1.00  0.00    -0.255 A  
HETATM   12  O   UNL     1     -10.059   8.967  65.950  1.00  0.00    -0.432 OA 
HETATM   13  H   UNL     1      -9.681   8.129  65.709  1.00  0.00     0.000 HD 
HETATM   14  C   UNL     1     -10.571   8.487  69.518  1.00  0.00    -0.215 A  
ENDBRANCH   6   7
ENDBRANCH   2   6
TORSDOF 2
ENDMDL
MODEL       72
REMARK 921   NORMALIZED FREE ENERGY PREDICTED BY IDOCK:   -3.69 KCAL/MOL
REMARK 922        TOTAL FREE ENERGY PREDICTED BY IDOCK:   -4.30 KCAL/MOL
REMARK 923 INTER-LIGAND FREE ENERGY PREDICTED BY IDOCK:   -4.14 KCAL/MOL
REMARK 924 INTRA-LIGAND FREE ENERGY PREDICTED BY IDOCK:   -0.17 KCAL/MOL
REMARK 927      BINDING AFFINITY PREDICTED BY RF-SCORE:    0.00 PKD
ROOT
HETATM    1  C   UNL     1      -7.978  16.706  66.274  1.00  0.00    -0.340 C  
HETATM    2  C   UNL     1      -9.506  16.632  66.274  1.00  0.00    -0.293 C  
HETATM    3  N   UNL     1     -10.053  17.916  65.811  1.00  0.00    -0.582 NA 
HETATM    4  H1  UNL     1     -11.071  17.867  65.811  1.00  0.00     0.000 HD 
HETATM    5  H2  UNL     1      -9.679  18.191  64.902  1.00  0.00     0.000 HD 
ENDROOT
BRANCH   2   6
HETATM    6  C   UNL     1     -10.044  15.488  65.384  1.00  0.00    -0.387 C  
BRANCH   6   7
HETATM    7  C   UNL     1     -10.643  14.338  66.161  1.00  0.00    -0.293 A  
HETATM    8  C   UNL     1     -10.395  14.192  67.536  1.00  0.00    -0.248 A  
HETATM    9  C   UNL     1     -10.914  13.103  68.239  1.00  0.00    -0.278 A  
HETATM   10  C   UNL     1     -11.694  12.164  67.572  1.00  0.00    -0.315 A  
HETATM   11  C   UNL     1     -11.975  12.308  66.220  1.00  0.00    -0.307 A  
HETATM   12  O   UNL     1     -12.203  11.077  68.217  1.00  0.00    -0.769 OA 
HETATM   13  H   UNL     1     -12.736  10.436  67.761  1.00  0.00     0.000 HD 
HETATM   14  C   UNL     1     -11.451  13.392  65.514  1.00  0.00    -0.324 A  
ENDBRANCH   6   7
ENDBRANCH   2   6
TORSDOF 2
ENDMDL
MODEL       73
REMARK 921   NORMALIZED FREE ENERGY PREDICTED BY IDOCK:   -3.67 KCAL/MOL
REMARK 922        TOTAL FREE ENERGY PREDICTED BY IDOCK:   -4.29 KCAL/MOL
REMARK 923 INTER-LIGAND FREE ENERGY PREDICTED BY IDOCK:   -4.12 KCAL/MOL
REMARK 924 INTRA-LIGAND FREE ENERGY PREDICTED BY IDOCK:   -0.17 KCAL/MOL
REMARK 927      BINDING AFFINITY PREDICTED BY RF-SCORE:    0.00 PKD
ROOT
HETATM    1  C   UNL     1      -7.845  20.348  67.210  1.00  0.00    -0.373 C  
HETATM    2  C   UNL     1      -9.117  19.554  66.906  1.00  0.00    -0.331 C  
HETATM    3  N   UNL     1      -9.938  20.306  65.945  1.00  0.00    -0.612 NA 
HETATM    4  H1  UNL     1     -10.786  19.777  65.742  1.00  0.00     0.000 HD 
HETATM    5  H2  UNL     1      -9.421  20.548  65.100  1.00  0.00     0.000 HD 
ENDROOT
BRANCH   2   6
HETATM    6  C   UNL     1      -8.816  18.147  66.341  1.00  0.00    -0.255 C  
BRANCH   6   7
HETATM    7  C   UNL     1      -9.790  17.083  66.796  1.00  0.00    -0.283 A  
HETATM    8  C   UNL     1     -10.455  17.197  68.027  1.00  0.00    -0.369 A  
HETATM    9  C   UNL     1     -11.319  16.191  68.463  1.00  0.00    -0.359 A  
HETATM   10  C   UNL     1     -11.529  15.073  67.663  1.00  0.00    -0.333 A  
HETATM   11  C   UNL     1     -10.903  14.957  66.429  1.00  0.00    -0.325 A  
HETATM   12  O   UNL     1     -12.349  14.059  68.059  1.00  0.00    -0.523 OA 
HETATM   13  H   UNL     1     -12.492  13.296  67.512  1.00  0.00     0.000 HD 
HETATM   14  C   UNL     1     -10.035  15.959  65.995  1.00  0.00    -0.360 A  
ENDBRANCH   6   7
ENDBRANCH   2   6
TORSDOF 2
ENDMDL
MODEL       74
REMARK 921   NORMALIZED FREE ENERGY PREDICTED BY IDOCK:   -3.64 KCAL/MOL
REMARK 922        TOTAL FREE ENERGY PREDICTED BY IDOCK:   -4.25 KCAL/MOL
REMARK 923 INTER-LIGAND FREE ENERGY PREDICTED BY IDOCK:   -4.07 KCAL/MOL
REMARK 924 INTRA-LIGAND FREE ENERGY PREDICTED BY IDOCK:   -0.19 KCAL/MOL
REMARK 927      BINDING AFFINITY PREDICTED BY RF-SCORE:    0.00 PKD
ROOT
HETATM    1  C   UNL     1      -7.480  19.595  67.826  1.00  0.00    -0.313 C  
HETATM    2  C   UNL     1      -8.976  19.491  67.525  1.00  0.00    -0.306 C  
HETATM    3  N   UNL     1      -9.491  20.820  67.162  1.00  0.00    -0.658 NA 
HETATM    4  H1  UNL     1     -10.488  20.750  66.961  1.00  0.00     0.000 HD 
HETATM    5  H2  UNL     1      -8.969  21.240  66.393  1.00  0.00     0.000 HD 
ENDROOT
BRANCH   2   6
HETATM    6  C   UNL     1      -9.283  18.488  66.389  1.00  0.00    -0.281 C  
BRANCH   6   7
HETATM    7  C   UNL     1     -10.026  17.253  66.846  1.00  0.00    -0.294 A  
HETATM    8  C   UNL     1     -10.329  16.221  65.944  1.00  0.00    -0.381 A  
HETATM    9  C   UNL     1     -11.055  15.104  66.361  1.00  0.00    -0.312 A  
HETATM   10  C   UNL     1     -11.469  15.010  67.686  1.00  0.00    -0.333 A  
HETATM   11  C   UNL     1     -11.153  16.007  68.599  1.00  0.00    -0.349 A  
HETATM   12  O   UNL     1     -12.196  13.946  68.129  1.00  0.00    -0.476 OA 
HETATM   13  H   UNL     1     -12.479  13.883  69.034  1.00  0.00     0.000 HD 
HETATM   14  C   UNL     1     -10.434  17.127  68.182  1.00  0.00    -0.366 A  
ENDBRANCH   6   7
ENDBRANCH   2   6
TORSDOF 2
ENDMDL
MODEL       75
REMARK 921   NORMALIZED FREE ENERGY PREDICTED BY IDOCK:   -3.62 KCAL/MOL
REMARK 922        TOTAL FREE ENERGY PREDICTED BY IDOCK:   -4.23 KCAL/MOL
REMARK 923 INTER-LIGAND FREE ENERGY PREDICTED BY IDOCK:   -4.16 KCAL/MOL
REMARK 924 INTRA-LIGAND FREE ENERGY PREDICTED BY IDOCK:   -0.07 KCAL/MOL
REMARK 927      BINDING AFFINITY PREDICTED BY RF-SCORE:    0.00 PKD
ROOT
HETATM    1  C   UNL     1      -8.729  18.660  68.091  1.00  0.00    -0.336 C  
HETATM    2  C   UNL     1      -8.606  17.138  68.189  1.00  0.00    -0.232 C  
HETATM    3  N   UNL     1      -7.657  16.798  69.259  1.00  0.00    -0.175 NA 
HETATM    4  H1  UNL     1      -7.575  15.783  69.325  1.00  0.00     0.000 HD 
HETATM    5  H2  UNL     1      -7.910  17.224  70.151  1.00  0.00     0.000 HD 
ENDROOT
BRANCH   2   6
HETATM    6  C   UNL     1      -9.963  16.451  68.460  1.00  0.00    -0.239 C  
BRANCH   6   7
HETATM    7  C   UNL     1     -10.620  15.883  67.222  1.00  0.00    -0.314 A  
HETATM    8  C   UNL     1     -11.410  14.724  67.295  1.00  0.00    -0.366 A  
HETATM    9  C   UNL     1     -11.977  14.178  66.142  1.00  0.00    -0.437 A  
HETATM   10  C   UNL     1     -11.767  14.797  64.915  1.00  0.00    -0.390 A  
HETATM   11  C   UNL     1     -11.014  15.961  64.827  1.00  0.00    -0.392 A  
HETATM   12  O   UNL     1     -12.286  14.287  63.763  1.00  0.00    -0.956 OA 
HETATM   13  H   UNL     1     -12.143  14.711  62.925  1.00  0.00     0.000 HD 
HETATM   14  C   UNL     1     -10.441  16.504  65.978  1.00  0.00    -0.320 A  
ENDBRANCH   6   7
ENDBRANCH   2   6
TORSDOF 2
ENDMDL
MODEL       76
REMARK 921   NORMALIZED FREE ENERGY PREDICTED BY IDOCK:   -3.59 KCAL/MOL
REMARK 922        TOTAL FREE ENERGY PREDICTED BY IDOCK:   -4.20 KCAL/MOL
REMARK 923 INTER-LIGAND FREE ENERGY PREDICTED BY IDOCK:   -4.17 KCAL/MOL
REMARK 924 INTRA-LIGAND FREE ENERGY PREDICTED BY IDOCK:   -0.03 KCAL/MOL
REMARK 927      BINDING AFFINITY PREDICTED BY RF-SCORE:    0.00 PKD
ROOT
HETATM    1  C   UNL     1     -13.032  10.536  71.661  1.00  0.00    -0.581 C  
HETATM    2  C   UNL     1     -12.055  10.693  70.494  1.00  0.00    -0.355 C  
HETATM    3  N   UNL     1     -11.749  12.119  70.307  1.00  0.00    -0.534 NA 
HETATM    4  H1  UNL     1     -11.097  12.224  69.530  1.00  0.00     0.000 HD 
HETATM    5  H2  UNL     1     -11.404  12.555  71.162  1.00  0.00     0.000 HD 
ENDROOT
BRANCH   2   6
HETATM    6  C   UNL     1     -10.743   9.904  70.709  1.00  0.00    -0.350 C  
BRANCH   6   7
HETATM    7  C   UNL     1     -10.932   8.585  71.425  1.00  0.00    -0.329 A  
HETATM    8  C   UNL     1     -10.299   8.336  72.653  1.00  0.00    -0.374 A  
HETATM    9  C   UNL     1     -10.440   7.100  73.287  1.00  0.00    -0.391 A  
HETATM   10  C   UNL     1     -11.227   6.114  72.700  1.00  0.00    -0.274 A  
HETATM   11  C   UNL     1     -11.885   6.352  71.501  1.00  0.00    -0.355 A  
HETATM   12  O   UNL     1     -11.376   4.888  73.275  1.00  0.00    -0.324 OA 
HETATM   13  H   UNL     1     -11.913   4.215  72.874  1.00  0.00     0.000 HD 
HETATM   14  C   UNL     1     -11.739   7.585  70.863  1.00  0.00    -0.307 A  
ENDBRANCH   6   7
ENDBRANCH   2   6
TORSDOF 2
ENDMDL
MODEL       77
REMARK 921   NORMALIZED FREE ENERGY PREDICTED BY IDOCK:   -3.59 KCAL/MOL
REMARK 922        TOTAL FREE ENERGY PREDICTED BY IDOCK:   -4.20 KCAL/MOL
REMARK 923 INTER-LIGAND FREE ENERGY PREDICTED BY IDOCK:   -4.03 KCAL/MOL
REMARK 924 INTRA-LIGAND FREE ENERGY PREDICTED BY IDOCK:   -0.17 KCAL/MOL
REMARK 927      BINDING AFFINITY PREDICTED BY RF-SCORE:    0.00 PKD
ROOT
HETATM    1  C   UNL     1      -8.829  17.680  67.177  1.00  0.00    -0.251 C  
HETATM    2  C   UNL     1      -9.841  16.638  66.696  1.00  0.00    -0.274 C  
HETATM    3  N   UNL     1     -10.518  17.139  65.491  1.00  0.00    -0.619 NA 
HETATM    4  H1  UNL     1     -11.192  16.444  65.171  1.00  0.00     0.000 HD 
HETATM    5  H2  UNL     1      -9.858  17.405  64.760  1.00  0.00     0.000 HD 
ENDROOT
BRANCH   2   6
HETATM    6  C   UNL     1      -9.184  15.272  66.392  1.00  0.00    -0.342 C  
BRANCH   6   7
HETATM    7  C   UNL     1      -9.959  14.087  66.926  1.00  0.00    -0.263 A  
HETATM    8  C   UNL     1      -9.802  12.812  66.360  1.00  0.00    -0.269 A  
HETATM    9  C   UNL     1     -10.553  11.731  66.826  1.00  0.00    -0.273 A  
HETATM   10  C   UNL     1     -11.453  11.921  67.869  1.00  0.00    -0.316 A  
HETATM   11  C   UNL     1     -11.601  13.168  68.461  1.00  0.00    -0.361 A  
HETATM   12  O   UNL     1     -12.219  10.898  68.341  1.00  0.00    -0.813 OA 
HETATM   13  H   UNL     1     -12.835  11.027  69.053  1.00  0.00     0.000 HD 
HETATM   14  C   UNL     1     -10.856  14.251  67.991  1.00  0.00    -0.247 A  
ENDBRANCH   6   7
ENDBRANCH   2   6
TORSDOF 2
ENDMDL
MODEL       78
REMARK 921   NORMALIZED FREE ENERGY PREDICTED BY IDOCK:   -3.59 KCAL/MOL
REMARK 922        TOTAL FREE ENERGY PREDICTED BY IDOCK:   -4.19 KCAL/MOL
REMARK 923 INTER-LIGAND FREE ENERGY PREDICTED BY IDOCK:   -4.00 KCAL/MOL
REMARK 924 INTRA-LIGAND FREE ENERGY PREDICTED BY IDOCK:   -0.19 KCAL/MOL
REMARK 927      BINDING AFFINITY PREDICTED BY RF-SCORE:    0.00 PKD
ROOT
HETATM    1  C   UNL     1     -10.198   5.557  72.040  1.00  0.00    -0.249 C  
HETATM    2  C   UNL     1     -10.723   6.687  72.927  1.00  0.00    -0.255 C  
HETATM    3  N   UNL     1     -10.650   6.271  74.336  1.00  0.00    -0.367 NA 
HETATM    4  H1  UNL     1     -11.000   7.025  74.927  1.00  0.00     0.000 HD 
HETATM    5  H2  UNL     1      -9.712   5.974  74.603  1.00  0.00     0.000 HD 
ENDROOT
BRANCH   2   6
HETATM    6  C   UNL     1      -9.938   8.005  72.734  1.00  0.00    -0.364 C  
BRANCH   6   7
HETATM    7  C   UNL     1     -10.551   8.939  71.715  1.00  0.00    -0.432 A  
HETATM    8  C   UNL     1     -11.895   9.332  71.817  1.00  0.00    -0.454 A  
HETATM    9  C   UNL     1     -12.468  10.159  70.848  1.00  0.00    -0.455 A  
HETATM   10  C   UNL     1     -11.694  10.605  69.783  1.00  0.00    -0.310 A  
HETATM   11  C   UNL     1     -10.356  10.252  69.681  1.00  0.00    -0.281 A  
HETATM   12  O   UNL     1     -12.220  11.398  68.806  1.00  0.00    -0.502 OA 
HETATM   13  H   UNL     1     -11.691  11.702  68.078  1.00  0.00     0.000 HD 
HETATM   14  C   UNL     1      -9.783   9.420  70.644  1.00  0.00    -0.336 A  
ENDBRANCH   6   7
ENDBRANCH   2   6
TORSDOF 2
ENDMDL
MODEL       79
REMARK 921   NORMALIZED FREE ENERGY PREDICTED BY IDOCK:   -3.58 KCAL/MOL
REMARK 922        TOTAL FREE ENERGY PREDICTED BY IDOCK:   -4.18 KCAL/MOL
REMARK 923 INTER-LIGAND FREE ENERGY PREDICTED BY IDOCK:   -4.10 KCAL/MOL
REMARK 924 INTRA-LIGAND FREE ENERGY PREDICTED BY IDOCK:   -0.08 KCAL/MOL
REMARK 927      BINDING AFFINITY PREDICTED BY RF-SCORE:    0.00 PKD
ROOT
HETATM    1  C   UNL     1     -11.918  14.302  65.285  1.00  0.00    -0.389 C  
HETATM    2  C   UNL     1     -10.943  15.419  64.908  1.00  0.00    -0.437 C  
HETATM    3  N   UNL     1     -11.594  16.327  63.952  1.00  0.00    -1.573 NA 
HETATM    4  H1  UNL     1     -10.944  17.073  63.701  1.00  0.00     0.000 HD 
HETATM    5  H2  UNL     1     -12.480  16.689  64.304  1.00  0.00     0.000 HD 
ENDROOT
BRANCH   2   6
HETATM    6  C   UNL     1     -10.458  16.221  66.138  1.00  0.00    -0.330 C  
BRANCH   6   7
HETATM    7  C   UNL     1      -9.234  15.637  66.806  1.00  0.00    -0.275 A  
HETATM    8  C   UNL     1      -9.334  14.496  67.619  1.00  0.00    -0.202 A  
HETATM    9  C   UNL     1      -8.208  13.988  68.270  1.00  0.00    -0.153 A  
HETATM   10  C   UNL     1      -6.977  14.611  68.099  1.00  0.00    -0.120 A  
HETATM   11  C   UNL     1      -6.853  15.723  67.276  1.00  0.00    -0.220 A  
HETATM   12  O   UNL     1      -5.857  14.159  68.731  1.00  0.00    -0.080 OA 
HETATM   13  H   UNL     1      -5.016  14.586  68.614  1.00  0.00     0.000 HD 
HETATM   14  C   UNL     1      -7.978  16.236  66.630  1.00  0.00    -0.324 A  
ENDBRANCH   6   7
ENDBRANCH   2   6
TORSDOF 2
ENDMDL
MODEL       80
REMARK 921   NORMALIZED FREE ENERGY PREDICTED BY IDOCK:   -3.58 KCAL/MOL
REMARK 922        TOTAL FREE ENERGY PREDICTED BY IDOCK:   -4.18 KCAL/MOL
REMARK 923 INTER-LIGAND FREE ENERGY PREDICTED BY IDOCK:   -4.02 KCAL/MOL
REMARK 924 INTRA-LIGAND FREE ENERGY PREDICTED BY IDOCK:   -0.16 KCAL/MOL
REMARK 927      BINDING AFFINITY PREDICTED BY RF-SCORE:    0.00 PKD
ROOT
HETATM    1  C   UNL     1     -12.673  13.720  65.811  1.00  0.00    -0.494 C  
HETATM    2  C   UNL     1     -12.104  13.383  64.431  1.00  0.00    -0.416 C  
HETATM    3  N   UNL     1     -12.620  14.345  63.446  1.00  0.00    -0.970 NA 
HETATM    4  H1  UNL     1     -12.240  14.120  62.527  1.00  0.00     0.000 HD 
HETATM    5  H2  UNL     1     -12.434  15.311  63.716  1.00  0.00     0.000 HD 
ENDROOT
BRANCH   2   6
HETATM    6  C   UNL     1     -10.558  13.395  64.409  1.00  0.00    -0.423 C  
BRANCH   6   7
HETATM    7  C   UNL     1      -9.937  12.031  64.204  1.00  0.00    -0.289 A  
HETATM    8  C   UNL     1      -9.482  11.277  65.297  1.00  0.00    -0.248 A  
HETATM    9  C   UNL     1      -8.869  10.038  65.099  1.00  0.00    -0.207 A  
HETATM   10  C   UNL     1      -8.721   9.545  63.807  1.00  0.00    -0.217 A  
HETATM   11  C   UNL     1      -9.192  10.264  62.716  1.00  0.00    -0.316 A  
HETATM   12  O   UNL     1      -8.112   8.350  63.568  1.00  0.00    -0.157 OA 
HETATM   13  H   UNL     1      -8.010   8.014  62.685  1.00  0.00     0.000 HD 
HETATM   14  C   UNL     1      -9.799  11.505  62.912  1.00  0.00    -0.279 A  
ENDBRANCH   6   7
ENDBRANCH   2   6
TORSDOF 2
ENDMDL
MODEL       81
REMARK 921   NORMALIZED FREE ENERGY PREDICTED BY IDOCK:   -3.57 KCAL/MOL
REMARK 922        TOTAL FREE ENERGY PREDICTED BY IDOCK:   -4.18 KCAL/MOL
REMARK 923 INTER-LIGAND FREE ENERGY PREDICTED BY IDOCK:   -4.02 KCAL/MOL
REMARK 924 INTRA-LIGAND FREE ENERGY PREDICTED BY IDOCK:   -0.16 KCAL/MOL
REMARK 927      BINDING AFFINITY PREDICTED BY RF-SCORE:    0.00 PKD
ROOT
HETATM    1  C   UNL     1     -12.419  13.230  70.707  1.00  0.00    -0.403 C  
HETATM    2  C   UNL     1     -11.433  13.335  69.541  1.00  0.00    -0.234 C  
HETATM    3  N   UNL     1     -10.769  12.037  69.350  1.00  0.00    -0.450 NA 
HETATM    4  H1  UNL     1     -10.113  12.107  68.573  1.00  0.00     0.000 HD 
HETATM    5  H2  UNL     1     -11.437  11.276  69.226  1.00  0.00     0.000 HD 
ENDROOT
BRANCH   2   6
HETATM    6  C   UNL     1     -12.118  13.767  68.224  1.00  0.00    -0.314 C  
BRANCH   6   7
HETATM    7  C   UNL     1     -11.456  14.946  67.547  1.00  0.00    -0.361 A  
HETATM    8  C   UNL     1     -11.029  14.861  66.212  1.00  0.00    -0.338 A  
HETATM    9  C   UNL     1     -10.377  15.937  65.606  1.00  0.00    -0.413 A  
HETATM   10  C   UNL     1     -10.162  17.105  66.329  1.00  0.00    -0.334 A  
HETATM   11  C   UNL     1     -10.603  17.218  67.641  1.00  0.00    -0.350 A  
HETATM   12  O   UNL     1      -9.513  18.170  65.782  1.00  0.00    -0.483 OA 
HETATM   13  H   UNL     1      -9.366  18.968  66.276  1.00  0.00     0.000 HD 
HETATM   14  C   UNL     1     -11.249  16.141  68.250  1.00  0.00    -0.343 A  
ENDBRANCH   6   7
ENDBRANCH   2   6
TORSDOF 2
ENDMDL
MODEL       82
REMARK 921   NORMALIZED FREE ENERGY PREDICTED BY IDOCK:   -3.57 KCAL/MOL
REMARK 922        TOTAL FREE ENERGY PREDICTED BY IDOCK:   -4.18 KCAL/MOL
REMARK 923 INTER-LIGAND FREE ENERGY PREDICTED BY IDOCK:   -4.01 KCAL/MOL
REMARK 924 INTRA-LIGAND FREE ENERGY PREDICTED BY IDOCK:   -0.17 KCAL/MOL
REMARK 927      BINDING AFFINITY PREDICTED BY RF-SCORE:    0.00 PKD
ROOT
HETATM    1  C   UNL     1     -10.909  11.727  65.333  1.00  0.00    -0.347 C  
HETATM    2  C   UNL     1     -11.698  13.012  65.592  1.00  0.00    -0.375 C  
HETATM    3  N   UNL     1     -13.053  12.868  65.038  1.00  0.00    -0.773 NA 
HETATM    4  H1  UNL     1     -13.579  13.725  65.211  1.00  0.00     0.000 HD 
HETATM    5  H2  UNL     1     -13.531  12.041  65.396  1.00  0.00     0.000 HD 
ENDROOT
BRANCH   2   6
HETATM    6  C   UNL     1     -11.786  13.359  67.095  1.00  0.00    -0.429 C  
BRANCH   6   7
HETATM    7  C   UNL     1     -11.097  14.653  67.466  1.00  0.00    -0.319 A  
HETATM    8  C   UNL     1     -11.500  15.385  68.595  1.00  0.00    -0.357 A  
HETATM    9  C   UNL     1     -10.891  16.602  68.907  1.00  0.00    -0.321 A  
HETATM   10  C   UNL     1      -9.866  17.083  68.099  1.00  0.00    -0.273 A  
HETATM   11  C   UNL     1      -9.433  16.359  66.996  1.00  0.00    -0.240 A  
HETATM   12  O   UNL     1      -9.258  18.275  68.357  1.00  0.00    -0.301 OA 
HETATM   13  H   UNL     1      -8.558  18.603  67.805  1.00  0.00     0.000 HD 
HETATM   14  C   UNL     1     -10.046  15.146  66.679  1.00  0.00    -0.271 A  
ENDBRANCH   6   7
ENDBRANCH   2   6
TORSDOF 2
ENDMDL
MODEL       83
REMARK 921   NORMALIZED FREE ENERGY PREDICTED BY IDOCK:   -3.56 KCAL/MOL
REMARK 922        TOTAL FREE ENERGY PREDICTED BY IDOCK:   -4.17 KCAL/MOL
REMARK 923 INTER-LIGAND FREE ENERGY PREDICTED BY IDOCK:   -3.98 KCAL/MOL
REMARK 924 INTRA-LIGAND FREE ENERGY PREDICTED BY IDOCK:   -0.19 KCAL/MOL
REMARK 927      BINDING AFFINITY PREDICTED BY RF-SCORE:    0.00 PKD
ROOT
HETATM    1  C   UNL     1     -10.489  19.636  65.959  1.00  0.00    -0.622 C  
HETATM    2  C   UNL     1      -9.320  19.459  66.930  1.00  0.00    -0.329 C  
HETATM    3  N   UNL     1      -8.584  20.727  67.039  1.00  0.00    -0.578 NA 
HETATM    4  H1  UNL     1      -7.805  20.609  67.686  1.00  0.00     0.000 HD 
HETATM    5  H2  UNL     1      -9.191  21.504  67.301  1.00  0.00     0.000 HD 
ENDROOT
BRANCH   2   6
HETATM    6  C   UNL     1      -9.780  19.004  68.334  1.00  0.00    -0.442 C  
BRANCH   6   7
HETATM    7  C   UNL     1      -9.803  17.502  68.514  1.00  0.00    -0.330 A  
HETATM    8  C   UNL     1      -8.608  16.769  68.593  1.00  0.00    -0.263 A  
HETATM    9  C   UNL     1      -8.636  15.378  68.713  1.00  0.00    -0.190 A  
HETATM   10  C   UNL     1      -9.858  14.718  68.770  1.00  0.00    -0.227 A  
HETATM   11  C   UNL     1     -11.050  15.429  68.724  1.00  0.00    -0.284 A  
HETATM   12  O   UNL     1      -9.929  13.361  68.868  1.00  0.00    -0.416 OA 
HETATM   13  H   UNL     1     -10.765  12.910  68.907  1.00  0.00     0.000 HD 
HETATM   14  C   UNL     1     -11.025  16.818  68.596  1.00  0.00    -0.298 A  
ENDBRANCH   6   7
ENDBRANCH   2   6
TORSDOF 2
ENDMDL
MODEL       84
REMARK 921   NORMALIZED FREE ENERGY PREDICTED BY IDOCK:   -3.56 KCAL/MOL
REMARK 922        TOTAL FREE ENERGY PREDICTED BY IDOCK:   -4.17 KCAL/MOL
REMARK 923 INTER-LIGAND FREE ENERGY PREDICTED BY IDOCK:   -4.01 KCAL/MOL
REMARK 924 INTRA-LIGAND FREE ENERGY PREDICTED BY IDOCK:   -0.15 KCAL/MOL
REMARK 927      BINDING AFFINITY PREDICTED BY RF-SCORE:    0.00 PKD
ROOT
HETATM    1  C   UNL     1     -11.116   7.031  72.680  1.00  0.00    -0.317 C  
HETATM    2  C   UNL     1     -11.851   8.222  72.062  1.00  0.00    -0.347 C  
HETATM    3  N   UNL     1     -12.915   8.661  72.976  1.00  0.00    -0.684 NA 
HETATM    4  H1  UNL     1     -13.405   9.455  72.564  1.00  0.00     0.000 HD 
HETATM    5  H2  UNL     1     -12.562   8.867  73.911  1.00  0.00     0.000 HD 
ENDROOT
BRANCH   2   6
HETATM    6  C   UNL     1     -10.906   9.407  71.757  1.00  0.00    -0.244 C  
BRANCH   6   7
HETATM    7  C   UNL     1     -11.080   9.988  70.371  1.00  0.00    -0.393 A  
HETATM    8  C   UNL     1     -10.658   9.277  69.236  1.00  0.00    -0.234 A  
HETATM    9  C   UNL     1     -10.779   9.837  67.963  1.00  0.00    -0.298 A  
HETATM   10  C   UNL     1     -11.335  11.103  67.820  1.00  0.00    -0.293 A  
HETATM   11  C   UNL     1     -11.785  11.809  68.928  1.00  0.00    -0.384 A  
HETATM   12  O   UNL     1     -11.453  11.694  66.598  1.00  0.00    -0.423 OA 
HETATM   13  H   UNL     1     -11.833  12.559  66.501  1.00  0.00     0.000 HD 
HETATM   14  C   UNL     1     -11.659  11.254  70.202  1.00  0.00    -0.393 A  
ENDBRANCH   6   7
ENDBRANCH   2   6
TORSDOF 2
ENDMDL
MODEL       85
REMARK 921   NORMALIZED FREE ENERGY PREDICTED BY IDOCK:   -3.55 KCAL/MOL
REMARK 922        TOTAL FREE ENERGY PREDICTED BY IDOCK:   -4.15 KCAL/MOL
REMARK 923 INTER-LIGAND FREE ENERGY PREDICTED BY IDOCK:   -4.36 KCAL/MOL
REMARK 924 INTRA-LIGAND FREE ENERGY PREDICTED BY IDOCK:    0.21 KCAL/MOL
REMARK 927      BINDING AFFINITY PREDICTED BY RF-SCORE:    0.00 PKD
ROOT
HETATM    1  C   UNL     1      -8.740  11.215  68.569  1.00  0.00    -0.161 C  
HETATM    2  C   UNL     1      -9.837  10.214  68.936  1.00  0.00    -0.189 C  
HETATM    3  N   UNL     1      -9.740   9.892  70.368  1.00  0.00    -0.379 NA 
HETATM    4  H1  UNL     1     -10.471   9.225  70.612  1.00  0.00     0.000 HD 
HETATM    5  H2  UNL     1      -9.765  10.726  70.954  1.00  0.00     0.000 HD 
ENDROOT
BRANCH   2   6
HETATM    6  C   UNL     1     -11.253  10.745  68.618  1.00  0.00    -0.333 C  
BRANCH   6   7
HETATM    7  C   UNL     1     -11.886  11.518  69.754  1.00  0.00    -0.429 A  
HETATM    8  C   UNL     1     -12.532  10.850  70.806  1.00  0.00    -0.489 A  
HETATM    9  C   UNL     1     -13.154  11.570  71.828  1.00  0.00    -0.503 A  
HETATM   10  C   UNL     1     -13.120  12.960  71.807  1.00  0.00    -0.360 A  
HETATM   11  C   UNL     1     -12.461  13.638  70.790  1.00  0.00    -0.432 A  
HETATM   12  O   UNL     1     -13.731  13.701  72.774  1.00  0.00    -0.707 OA 
HETATM   13  H   UNL     1     -13.708  14.650  72.759  1.00  0.00     0.000 HD 
HETATM   14  C   UNL     1     -11.845  12.920  69.764  1.00  0.00    -0.380 A  
ENDBRANCH   6   7
ENDBRANCH   2   6
TORSDOF 2
ENDMDL
MODEL       86
REMARK 921   NORMALIZED FREE ENERGY PREDICTED BY IDOCK:   -3.54 KCAL/MOL
REMARK 922        TOTAL FREE ENERGY PREDICTED BY IDOCK:   -4.14 KCAL/MOL
REMARK 923 INTER-LIGAND FREE ENERGY PREDICTED BY IDOCK:   -3.98 KCAL/MOL
REMARK 924 INTRA-LIGAND FREE ENERGY PREDICTED BY IDOCK:   -0.17 KCAL/MOL
REMARK 927      BINDING AFFINITY PREDICTED BY RF-SCORE:    0.00 PKD
ROOT
HETATM    1  C   UNL     1     -12.711  10.595  71.434  1.00  0.00    -0.545 C  
HETATM    2  C   UNL     1     -12.271  11.450  70.244  1.00  0.00    -0.349 C  
HETATM    3  N   UNL     1     -12.061  12.834  70.694  1.00  0.00    -0.509 NA 
HETATM    4  H1  UNL     1     -11.767  13.404  69.900  1.00  0.00     0.000 HD 
HETATM    5  H2  UNL     1     -11.408  12.892  71.475  1.00  0.00     0.000 HD 
ENDROOT
BRANCH   2   6
HETATM    6  C   UNL     1     -10.980  10.918  69.580  1.00  0.00    -0.306 C  
BRANCH   6   7
HETATM    7  C   UNL     1     -10.663  11.568  68.251  1.00  0.00    -0.247 A  
HETATM    8  C   UNL     1      -9.387  12.093  67.994  1.00  0.00    -0.197 A  
HETATM    9  C   UNL     1      -9.113  12.732  66.783  1.00  0.00    -0.209 A  
HETATM   10  C   UNL     1     -10.112  12.834  65.820  1.00  0.00    -0.286 A  
HETATM   11  C   UNL     1     -11.371  12.294  66.045  1.00  0.00    -0.398 A  
HETATM   12  O   UNL     1      -9.892  13.466  64.633  1.00  0.00    -0.616 OA 
HETATM   13  H   UNL     1     -10.574  13.536  63.976  1.00  0.00     0.000 HD 
HETATM   14  C   UNL     1     -11.648  11.662  67.257  1.00  0.00    -0.316 A  
ENDBRANCH   6   7
ENDBRANCH   2   6
TORSDOF 2
ENDMDL
MODEL       87
REMARK 921   NORMALIZED FREE ENERGY PREDICTED BY IDOCK:   -3.52 KCAL/MOL
REMARK 922        TOTAL FREE ENERGY PREDICTED BY IDOCK:   -4.12 KCAL/MOL
REMARK 923 INTER-LIGAND FREE ENERGY PREDICTED BY IDOCK:   -4.28 KCAL/MOL
REMARK 924 INTRA-LIGAND FREE ENERGY PREDICTED BY IDOCK:    0.16 KCAL/MOL
REMARK 927      BINDING AFFINITY PREDICTED BY RF-SCORE:    0.00 PKD
ROOT
HETATM    1  C   UNL     1     -13.237   7.518  71.502  1.00  0.00    -0.404 C  
HETATM    2  C   UNL     1     -13.752   8.892  71.936  1.00  0.00    -0.439 C  
HETATM    3  N   UNL     1     -14.281   8.800  73.304  1.00  0.00    -1.147 NA 
HETATM    4  H1  UNL     1     -14.624   9.716  73.594  1.00  0.00     0.000 HD 
HETATM    5  H2  UNL     1     -13.598   8.419  73.958  1.00  0.00     0.000 HD 
ENDROOT
BRANCH   2   6
HETATM    6  C   UNL     1     -12.657   9.981  71.874  1.00  0.00    -0.454 C  
BRANCH   6   7
HETATM    7  C   UNL     1     -11.358   9.509  71.261  1.00  0.00    -0.446 A  
HETATM    8  C   UNL     1     -11.074   9.746  69.906  1.00  0.00    -0.293 A  
HETATM    9  C   UNL     1      -9.893   9.268  69.334  1.00  0.00    -0.177 A  
HETATM   10  C   UNL     1      -8.987   8.564  70.119  1.00  0.00    -0.147 A  
HETATM   11  C   UNL     1      -9.236   8.346  71.468  1.00  0.00    -0.257 A  
HETATM   12  O   UNL     1      -7.832   8.065  69.596  1.00  0.00    -0.100 OA 
HETATM   13  H   UNL     1      -7.213   7.584  70.133  1.00  0.00     0.000 HD 
HETATM   14  C   UNL     1     -10.419   8.817  72.039  1.00  0.00    -0.414 A  
ENDBRANCH   6   7
ENDBRANCH   2   6
TORSDOF 2
ENDMDL
MODEL       88
REMARK 921   NORMALIZED FREE ENERGY PREDICTED BY IDOCK:   -3.52 KCAL/MOL
REMARK 922        TOTAL FREE ENERGY PREDICTED BY IDOCK:   -4.12 KCAL/MOL
REMARK 923 INTER-LIGAND FREE ENERGY PREDICTED BY IDOCK:   -4.12 KCAL/MOL
REMARK 924 INTRA-LIGAND FREE ENERGY PREDICTED BY IDOCK:    0.00 KCAL/MOL
REMARK 927      BINDING AFFINITY PREDICTED BY RF-SCORE:    0.00 PKD
ROOT
HETATM    1  C   UNL     1      -9.809  12.204  66.320  1.00  0.00    -0.250 C  
HETATM    2  C   UNL     1     -11.290  11.849  66.175  1.00  0.00    -0.324 C  
HETATM    3  N   UNL     1     -11.769  11.248  67.428  1.00  0.00    -0.584 NA 
HETATM    4  H1  UNL     1     -12.757  11.012  67.332  1.00  0.00     0.000 HD 
HETATM    5  H2  UNL     1     -11.591  11.844  68.236  1.00  0.00     0.000 HD 
ENDROOT
BRANCH   2   6
HETATM    6  C   UNL     1     -12.161  13.077  65.823  1.00  0.00    -0.510 C  
BRANCH   6   7
HETATM    7  C   UNL     1     -11.592  14.391  66.310  1.00  0.00    -0.377 A  
HETATM    8  C   UNL     1     -10.918  15.253  65.430  1.00  0.00    -0.380 A  
HETATM    9  C   UNL     1     -10.356  16.444  65.895  1.00  0.00    -0.378 A  
HETATM   10  C   UNL     1     -10.477  16.782  67.238  1.00  0.00    -0.310 A  
HETATM   11  C   UNL     1     -11.165  15.956  68.118  1.00  0.00    -0.339 A  
HETATM   12  O   UNL     1      -9.927  17.924  67.737  1.00  0.00    -0.303 OA 
HETATM   13  H   UNL     1     -10.010  18.155  68.654  1.00  0.00     0.000 HD 
HETATM   14  C   UNL     1     -11.722  14.763  67.656  1.00  0.00    -0.364 A  
ENDBRANCH   6   7
ENDBRANCH   2   6
TORSDOF 2
ENDMDL
MODEL       89
REMARK 921   NORMALIZED FREE ENERGY PREDICTED BY IDOCK:   -3.50 KCAL/MOL
REMARK 922        TOTAL FREE ENERGY PREDICTED BY IDOCK:   -4.09 KCAL/MOL
REMARK 923 INTER-LIGAND FREE ENERGY PREDICTED BY IDOCK:   -3.94 KCAL/MOL
REMARK 924 INTRA-LIGAND FREE ENERGY PREDICTED BY IDOCK:   -0.15 KCAL/MOL
REMARK 927      BINDING AFFINITY PREDICTED BY RF-SCORE:    0.00 PKD
ROOT
HETATM    1  C   UNL     1     -13.002  15.398  71.033  1.00  0.00    -0.556 C  
HETATM    2  C   UNL     1     -11.820  14.973  70.160  1.00  0.00    -0.314 C  
HETATM    3  N   UNL     1     -11.525  13.553  70.403  1.00  0.00    -0.502 NA 
HETATM    4  H1  UNL     1     -10.737  13.270  69.821  1.00  0.00     0.000 HD 
HETATM    5  H2  UNL     1     -12.342  12.959  70.264  1.00  0.00     0.000 HD 
ENDROOT
BRANCH   2   6
HETATM    6  C   UNL     1     -12.085  15.198  68.654  1.00  0.00    -0.184 C  
BRANCH   6   7
HETATM    7  C   UNL     1     -10.949  15.881  67.927  1.00  0.00    -0.327 A  
HETATM    8  C   UNL     1     -10.676  17.242  68.137  1.00  0.00    -0.363 A  
HETATM    9  C   UNL     1      -9.654  17.879  67.430  1.00  0.00    -0.271 A  
HETATM   10  C   UNL     1      -8.894  17.153  66.520  1.00  0.00    -0.262 A  
HETATM   11  C   UNL     1      -9.129  15.799  66.320  1.00  0.00    -0.373 A  
HETATM   12  O   UNL     1      -7.901  17.740  65.795  1.00  0.00    -0.541 OA 
HETATM   13  H   UNL     1      -7.381  17.244  65.174  1.00  0.00     0.000 HD 
HETATM   14  C   UNL     1     -10.154  15.163  67.022  1.00  0.00    -0.244 A  
ENDBRANCH   6   7
ENDBRANCH   2   6
TORSDOF 2
ENDMDL
MODEL       90
REMARK 921   NORMALIZED FREE ENERGY PREDICTED BY IDOCK:   -3.48 KCAL/MOL
REMARK 922        TOTAL FREE ENERGY PREDICTED BY IDOCK:   -4.07 KCAL/MOL
REMARK 923 INTER-LIGAND FREE ENERGY PREDICTED BY IDOCK:   -3.88 KCAL/MOL
REMARK 924 INTRA-LIGAND FREE ENERGY PREDICTED BY IDOCK:   -0.19 KCAL/MOL
REMARK 927      BINDING AFFINITY PREDICTED BY RF-SCORE:    0.00 PKD
ROOT
HETATM    1  C   UNL     1     -10.136   9.334  66.339  1.00  0.00    -0.337 C  
HETATM    2  C   UNL     1      -9.504  10.029  65.132  1.00  0.00    -0.270 C  
HETATM    3  N   UNL     1      -9.160   9.022  64.118  1.00  0.00    -0.397 NA 
HETATM    4  H1  UNL     1      -8.739   9.485  63.313  1.00  0.00     0.000 HD 
HETATM    5  H2  UNL     1      -9.961   8.446  63.858  1.00  0.00     0.000 HD 
ENDROOT
BRANCH   2   6
HETATM    6  C   UNL     1     -10.433  11.096  64.510  1.00  0.00    -0.415 C  
BRANCH   6   7
HETATM    7  C   UNL     1     -10.773  12.234  65.447  1.00  0.00    -0.320 A  
HETATM    8  C   UNL     1     -12.103  12.647  65.623  1.00  0.00    -0.502 A  
HETATM    9  C   UNL     1     -12.407  13.727  66.454  1.00  0.00    -0.460 A  
HETATM   10  C   UNL     1     -11.381  14.388  67.122  1.00  0.00    -0.343 A  
HETATM   11  C   UNL     1     -10.063  13.975  66.984  1.00  0.00    -0.255 A  
HETATM   12  O   UNL     1     -11.632  15.458  67.928  1.00  0.00    -0.332 OA 
HETATM   13  H   UNL     1     -10.931  15.910  68.384  1.00  0.00     0.000 HD 
HETATM   14  C   UNL     1      -9.757  12.900  66.148  1.00  0.00    -0.250 A  
ENDBRANCH   6   7
ENDBRANCH   2   6
TORSDOF 2
ENDMDL
MODEL       91
REMARK 921   NORMALIZED FREE ENERGY PREDICTED BY IDOCK:   -3.47 KCAL/MOL
REMARK 922        TOTAL FREE ENERGY PREDICTED BY IDOCK:   -4.07 KCAL/MOL
REMARK 923 INTER-LIGAND FREE ENERGY PREDICTED BY IDOCK:   -4.11 KCAL/MOL
REMARK 924 INTRA-LIGAND FREE ENERGY PREDICTED BY IDOCK:    0.04 KCAL/MOL
REMARK 927      BINDING AFFINITY PREDICTED BY RF-SCORE:    0.00 PKD
ROOT
HETATM    1  C   UNL     1     -13.862   7.286  71.391  1.00  0.00    -0.416 C  
HETATM    2  C   UNL     1     -13.879   8.757  71.811  1.00  0.00    -0.423 C  
HETATM    3  N   UNL     1     -14.261   8.852  73.228  1.00  0.00    -1.237 NA 
HETATM    4  H1  UNL     1     -14.271   9.832  73.508  1.00  0.00     0.000 HD 
HETATM    5  H2  UNL     1     -13.662   8.284  73.828  1.00  0.00     0.000 HD 
ENDROOT
BRANCH   2   6
HETATM    6  C   UNL     1     -12.514   9.450  71.594  1.00  0.00    -0.460 C  
BRANCH   6   7
HETATM    7  C   UNL     1     -11.357   8.489  71.436  1.00  0.00    -0.330 A  
HETATM    8  C   UNL     1     -10.808   7.836  72.552  1.00  0.00    -0.386 A  
HETATM    9  C   UNL     1      -9.711   6.985  72.407  1.00  0.00    -0.171 A  
HETATM   10  C   UNL     1      -9.169   6.773  71.144  1.00  0.00    -0.159 A  
HETATM   11  C   UNL     1      -9.717   7.387  70.025  1.00  0.00    -0.175 A  
HETATM   12  O   UNL     1      -8.087   5.965  70.962  1.00  0.00    -0.116 OA 
HETATM   13  H   UNL     1      -7.716   5.821  70.099  1.00  0.00     0.000 HD 
HETATM   14  C   UNL     1     -10.809   8.243  70.169  1.00  0.00    -0.237 A  
ENDBRANCH   6   7
ENDBRANCH   2   6
TORSDOF 2
ENDMDL
MODEL       92
REMARK 921   NORMALIZED FREE ENERGY PREDICTED BY IDOCK:   -3.46 KCAL/MOL
REMARK 922        TOTAL FREE ENERGY PREDICTED BY IDOCK:   -4.06 KCAL/MOL
REMARK 923 INTER-LIGAND FREE ENERGY PREDICTED BY IDOCK:   -3.93 KCAL/MOL
REMARK 924 INTRA-LIGAND FREE ENERGY PREDICTED BY IDOCK:   -0.13 KCAL/MOL
REMARK 927      BINDING AFFINITY PREDICTED BY RF-SCORE:    0.00 PKD
ROOT
HETATM    1  C   UNL     1      -9.320  18.749  67.618  1.00  0.00    -0.320 C  
HETATM    2  C   UNL     1     -10.366  17.763  67.094  1.00  0.00    -0.353 C  
HETATM    3  N   UNL     1     -10.518  17.943  65.643  1.00  0.00    -0.619 NA 
HETATM    4  H1  UNL     1     -11.215  17.285  65.294  1.00  0.00     0.000 HD 
HETATM    5  H2  UNL     1      -9.629  17.863  65.148  1.00  0.00     0.000 HD 
ENDROOT
BRANCH   2   6
HETATM    6  C   UNL     1      -9.998  16.293  67.400  1.00  0.00    -0.249 C  
BRANCH   6   7
HETATM    7  C   UNL     1     -10.812  15.677  68.516  1.00  0.00    -0.282 A  
HETATM    8  C   UNL     1     -10.937  16.324  69.756  1.00  0.00    -0.354 A  
HETATM    9  C   UNL     1     -11.651  15.730  70.798  1.00  0.00    -0.429 A  
HETATM   10  C   UNL     1     -12.254  14.493  70.598  1.00  0.00    -0.331 A  
HETATM   11  C   UNL     1     -12.167  13.851  69.370  1.00  0.00    -0.338 A  
HETATM   12  O   UNL     1     -12.944  13.870  71.594  1.00  0.00    -0.322 OA 
HETATM   13  H   UNL     1     -13.356  13.024  71.458  1.00  0.00     0.000 HD 
HETATM   14  C   UNL     1     -11.447  14.441  68.330  1.00  0.00    -0.333 A  
ENDBRANCH   6   7
ENDBRANCH   2   6
TORSDOF 2
ENDMDL
MODEL       93
REMARK 921   NORMALIZED FREE ENERGY PREDICTED BY IDOCK:   -3.42 KCAL/MOL
REMARK 922        TOTAL FREE ENERGY PREDICTED BY IDOCK:   -4.01 KCAL/MOL
REMARK 923 INTER-LIGAND FREE ENERGY PREDICTED BY IDOCK:   -3.84 KCAL/MOL
REMARK 924 INTRA-LIGAND FREE ENERGY PREDICTED BY IDOCK:   -0.16 KCAL/MOL
REMARK 927      BINDING AFFINITY PREDICTED BY RF-SCORE:    0.00 PKD
ROOT
HETATM    1  C   UNL     1      -9.816  10.486  67.019  1.00  0.00    -0.223 C  
HETATM    2  C   UNL     1     -10.504  10.068  68.320  1.00  0.00    -0.213 C  
HETATM    3  N   UNL     1     -11.902  10.523  68.296  1.00  0.00    -0.785 NA 
HETATM    4  H1  UNL     1     -12.360  10.245  69.164  1.00  0.00     0.000 HD 
HETATM    5  H2  UNL     1     -12.402  10.193  67.471  1.00  0.00     0.000 HD 
ENDROOT
BRANCH   2   6
HETATM    6  C   UNL     1     -10.459   8.540  68.549  1.00  0.00    -0.205 C  
BRANCH   6   7
HETATM    7  C   UNL     1     -10.629   8.133  69.996  1.00  0.00    -0.239 A  
HETATM    8  C   UNL     1     -10.094   8.916  71.031  1.00  0.00    -0.324 A  
HETATM    9  C   UNL     1     -10.215   8.512  72.362  1.00  0.00    -0.369 A  
HETATM   10  C   UNL     1     -10.883   7.329  72.662  1.00  0.00    -0.290 A  
HETATM   11  C   UNL     1     -11.444   6.557  71.654  1.00  0.00    -0.345 A  
HETATM   12  O   UNL     1     -11.007   6.889  73.945  1.00  0.00    -0.480 OA 
HETATM   13  H   UNL     1     -11.463   6.081  74.150  1.00  0.00     0.000 HD 
HETATM   14  C   UNL     1     -11.318   6.956  70.323  1.00  0.00    -0.373 A  
ENDBRANCH   6   7
ENDBRANCH   2   6
TORSDOF 2
ENDMDL
MODEL       94
REMARK 921   NORMALIZED FREE ENERGY PREDICTED BY IDOCK:   -3.39 KCAL/MOL
REMARK 922        TOTAL FREE ENERGY PREDICTED BY IDOCK:   -3.97 KCAL/MOL
REMARK 923 INTER-LIGAND FREE ENERGY PREDICTED BY IDOCK:   -3.77 KCAL/MOL
REMARK 924 INTRA-LIGAND FREE ENERGY PREDICTED BY IDOCK:   -0.20 KCAL/MOL
REMARK 927      BINDING AFFINITY PREDICTED BY RF-SCORE:    0.00 PKD
ROOT
HETATM    1  C   UNL     1      -9.479  10.671  68.943  1.00  0.00    -0.199 C  
HETATM    2  C   UNL     1     -10.817  10.179  68.387  1.00  0.00    -0.242 C  
HETATM    3  N   UNL     1     -10.976   8.751  68.701  1.00  0.00    -0.444 NA 
HETATM    4  H1  UNL     1     -11.867   8.423  68.331  1.00  0.00     0.000 HD 
HETATM    5  H2  UNL     1     -10.877   8.561  69.699  1.00  0.00     0.000 HD 
ENDROOT
BRANCH   2   6
HETATM    6  C   UNL     1     -12.020  10.971  68.950  1.00  0.00    -0.332 C  
BRANCH   6   7
HETATM    7  C   UNL     1     -11.903  12.468  68.774  1.00  0.00    -0.347 A  
HETATM    8  C   UNL     1     -11.884  13.042  67.493  1.00  0.00    -0.408 A  
HETATM    9  C   UNL     1     -11.731  14.421  67.334  1.00  0.00    -0.424 A  
HETATM   10  C   UNL     1     -11.610  15.231  68.458  1.00  0.00    -0.352 A  
HETATM   11  C   UNL     1     -11.657  14.685  69.734  1.00  0.00    -0.341 A  
HETATM   12  O   UNL     1     -11.440  16.578  68.348  1.00  0.00    -0.301 OA 
HETATM   13  H   UNL     1     -11.357  17.132  69.116  1.00  0.00     0.000 HD 
HETATM   14  C   UNL     1     -11.803  13.307  69.894  1.00  0.00    -0.380 A  
ENDBRANCH   6   7
ENDBRANCH   2   6
TORSDOF 2
ENDMDL
MODEL       95
REMARK 921   NORMALIZED FREE ENERGY PREDICTED BY IDOCK:   -3.37 KCAL/MOL
REMARK 922        TOTAL FREE ENERGY PREDICTED BY IDOCK:   -3.95 KCAL/MOL
REMARK 923 INTER-LIGAND FREE ENERGY PREDICTED BY IDOCK:   -3.76 KCAL/MOL
REMARK 924 INTRA-LIGAND FREE ENERGY PREDICTED BY IDOCK:   -0.20 KCAL/MOL
REMARK 927      BINDING AFFINITY PREDICTED BY RF-SCORE:    0.00 PKD
ROOT
HETATM    1  C   UNL     1     -10.049  12.211  66.680  1.00  0.00    -0.218 C  
HETATM    2  C   UNL     1     -11.159  13.120  66.148  1.00  0.00    -0.282 C  
HETATM    3  N   UNL     1     -12.237  12.290  65.590  1.00  0.00    -0.597 NA 
HETATM    4  H1  UNL     1     -12.977  12.896  65.236  1.00  0.00     0.000 HD 
HETATM    5  H2  UNL     1     -12.585  11.606  66.261  1.00  0.00     0.000 HD 
ENDROOT
BRANCH   2   6
HETATM    6  C   UNL     1     -11.733  14.053  67.238  1.00  0.00    -0.420 C  
BRANCH   6   7
HETATM    7  C   UNL     1     -11.116  15.434  67.250  1.00  0.00    -0.302 A  
HETATM    8  C   UNL     1     -10.631  16.014  66.067  1.00  0.00    -0.324 A  
HETATM    9  C   UNL     1     -10.022  17.270  66.090  1.00  0.00    -0.288 A  
HETATM   10  C   UNL     1      -9.907  17.954  67.296  1.00  0.00    -0.309 A  
HETATM   11  C   UNL     1     -10.406  17.409  68.471  1.00  0.00    -0.378 A  
HETATM   12  O   UNL     1      -9.302  19.173  67.366  1.00  0.00    -0.298 OA 
HETATM   13  H   UNL     1      -9.223  19.640  68.190  1.00  0.00     0.000 HD 
HETATM   14  C   UNL     1     -11.010  16.151  68.450  1.00  0.00    -0.341 A  
ENDBRANCH   6   7
ENDBRANCH   2   6
TORSDOF 2
ENDMDL
MODEL       96
REMARK 921   NORMALIZED FREE ENERGY PREDICTED BY IDOCK:   -3.37 KCAL/MOL
REMARK 922        TOTAL FREE ENERGY PREDICTED BY IDOCK:   -3.95 KCAL/MOL
REMARK 923 INTER-LIGAND FREE ENERGY PREDICTED BY IDOCK:   -3.73 KCAL/MOL
REMARK 924 INTRA-LIGAND FREE ENERGY PREDICTED BY IDOCK:   -0.23 KCAL/MOL
REMARK 927      BINDING AFFINITY PREDICTED BY RF-SCORE:    0.00 PKD
ROOT
HETATM    1  C   UNL     1     -11.858  15.756  70.362  1.00  0.00    -0.391 C  
HETATM    2  C   UNL     1     -11.378  14.937  69.161  1.00  0.00    -0.292 C  
HETATM    3  N   UNL     1     -12.367  13.891  68.863  1.00  0.00    -0.454 NA 
HETATM    4  H1  UNL     1     -12.047  13.345  68.063  1.00  0.00     0.000 HD 
HETATM    5  H2  UNL     1     -13.303  14.272  68.722  1.00  0.00     0.000 HD 
ENDROOT
BRANCH   2   6
HETATM    6  C   UNL     1     -11.148  15.808  67.905  1.00  0.00    -0.326 C  
BRANCH   6   7
HETATM    7  C   UNL     1     -10.111  16.893  68.093  1.00  0.00    -0.299 A  
HETATM    8  C   UNL     1      -8.775  16.569  68.378  1.00  0.00    -0.218 A  
HETATM    9  C   UNL     1      -7.831  17.575  68.596  1.00  0.00    -0.272 A  
HETATM   10  C   UNL     1      -8.219  18.908  68.516  1.00  0.00    -0.353 A  
HETATM   11  C   UNL     1      -9.530  19.248  68.206  1.00  0.00    -0.421 A  
HETATM   12  O   UNL     1      -7.335  19.920  68.740  1.00  0.00    -0.316 OA 
HETATM   13  H   UNL     1      -7.600  20.831  68.685  1.00  0.00     0.000 HD 
HETATM   14  C   UNL     1     -10.475  18.244  67.995  1.00  0.00    -0.387 A  
ENDBRANCH   6   7
ENDBRANCH   2   6
TORSDOF 2
ENDMDL
MODEL       97
REMARK 921   NORMALIZED FREE ENERGY PREDICTED BY IDOCK:   -3.37 KCAL/MOL
REMARK 922        TOTAL FREE ENERGY PREDICTED BY IDOCK:   -3.95 KCAL/MOL
REMARK 923 INTER-LIGAND FREE ENERGY PREDICTED BY IDOCK:   -3.79 KCAL/MOL
REMARK 924 INTRA-LIGAND FREE ENERGY PREDICTED BY IDOCK:   -0.16 KCAL/MOL
REMARK 927      BINDING AFFINITY PREDICTED BY RF-SCORE:    0.00 PKD
ROOT
HETATM    1  C   UNL     1     -13.200  10.271  71.259  1.00  0.00    -0.447 C  
HETATM    2  C   UNL     1     -13.050   9.120  72.256  1.00  0.00    -0.438 C  
HETATM    3  N   UNL     1     -14.307   8.961  73.003  1.00  0.00    -1.154 NA 
HETATM    4  H1  UNL     1     -14.207   8.193  73.668  1.00  0.00     0.000 HD 
HETATM    5  H2  UNL     1     -15.110   8.837  72.387  1.00  0.00     0.000 HD 
ENDROOT
BRANCH   2   6
HETATM    6  C   UNL     1     -12.682   7.785  71.568  1.00  0.00    -0.355 C  
BRANCH   6   7
HETATM    7  C   UNL     1     -11.367   7.199  72.032  1.00  0.00    -0.293 A  
HETATM    8  C   UNL     1     -11.330   5.987  72.740  1.00  0.00    -0.282 A  
HETATM    9  C   UNL     1     -10.118   5.474  73.205  1.00  0.00    -0.201 A  
HETATM   10  C   UNL     1      -8.938   6.165  72.951  1.00  0.00    -0.125 A  
HETATM   11  C   UNL     1      -8.951   7.349  72.227  1.00  0.00    -0.154 A  
HETATM   12  O   UNL     1      -7.736   5.709  73.403  1.00  0.00    -0.095 OA 
HETATM   13  H   UNL     1      -6.930   6.181  73.230  1.00  0.00     0.000 HD 
HETATM   14  C   UNL     1     -10.163   7.867  71.767  1.00  0.00    -0.247 A  
ENDBRANCH   6   7
ENDBRANCH   2   6
TORSDOF 2
ENDMDL
MODEL       98
REMARK 921   NORMALIZED FREE ENERGY PREDICTED BY IDOCK:   -3.34 KCAL/MOL
REMARK 922        TOTAL FREE ENERGY PREDICTED BY IDOCK:   -3.92 KCAL/MOL
REMARK 923 INTER-LIGAND FREE ENERGY PREDICTED BY IDOCK:   -3.80 KCAL/MOL
REMARK 924 INTRA-LIGAND FREE ENERGY PREDICTED BY IDOCK:   -0.13 KCAL/MOL
REMARK 927      BINDING AFFINITY PREDICTED BY RF-SCORE:    0.00 PKD
ROOT
HETATM    1  C   UNL     1      -9.134   8.345  69.644  1.00  0.00    -0.153 C  
HETATM    2  C   UNL     1      -9.591   9.789  69.857  1.00  0.00    -0.235 C  
HETATM    3  N   UNL     1      -8.553  10.704  69.360  1.00  0.00    -0.354 NA 
HETATM    4  H1  UNL     1      -8.858  11.667  69.502  1.00  0.00     0.000 HD 
HETATM    5  H2  UNL     1      -8.305  10.516  68.388  1.00  0.00     0.000 HD 
ENDROOT
BRANCH   2   6
HETATM    6  C   UNL     1     -10.933  10.095  69.153  1.00  0.00    -0.270 C  
BRANCH   6   7
HETATM    7  C   UNL     1     -11.491  11.466  69.467  1.00  0.00    -0.381 A  
HETATM    8  C   UNL     1     -11.449  12.494  68.512  1.00  0.00    -0.346 A  
HETATM    9  C   UNL     1     -11.925  13.770  68.822  1.00  0.00    -0.400 A  
HETATM   10  C   UNL     1     -12.455  14.017  70.084  1.00  0.00    -0.319 A  
HETATM   11  C   UNL     1     -12.532  13.004  71.031  1.00  0.00    -0.385 A  
HETATM   12  O   UNL     1     -12.912  15.252  70.434  1.00  0.00    -0.601 OA 
HETATM   13  H   UNL     1     -13.274  15.420  71.296  1.00  0.00     0.000 HD 
HETATM   14  C   UNL     1     -12.051  11.730  70.725  1.00  0.00    -0.352 A  
ENDBRANCH   6   7
ENDBRANCH   2   6
TORSDOF 2
ENDMDL
MODEL       99
REMARK 921   NORMALIZED FREE ENERGY PREDICTED BY IDOCK:   -3.34 KCAL/MOL
REMARK 922        TOTAL FREE ENERGY PREDICTED BY IDOCK:   -3.91 KCAL/MOL
REMARK 923 INTER-LIGAND FREE ENERGY PREDICTED BY IDOCK:   -3.82 KCAL/MOL
REMARK 924 INTRA-LIGAND FREE ENERGY PREDICTED BY IDOCK:   -0.09 KCAL/MOL
REMARK 927      BINDING AFFINITY PREDICTED BY RF-SCORE:    0.00 PKD
ROOT
HETATM    1  C   UNL     1     -10.391  17.359  66.048  1.00  0.00    -0.309 C  
HETATM    2  C   UNL     1     -10.641  15.855  66.166  1.00  0.00    -0.305 C  
HETATM    3  N   UNL     1     -11.439  15.590  67.373  1.00  0.00    -0.214 NA 
HETATM    4  H1  UNL     1     -11.606  14.587  67.451  1.00  0.00     0.000 HD 
HETATM    5  H2  UNL     1     -12.304  16.129  67.390  1.00  0.00     0.000 HD 
ENDROOT
BRANCH   2   6
HETATM    6  C   UNL     1     -11.365  15.276  64.928  1.00  0.00    -0.387 C  
BRANCH   6   7
HETATM    7  C   UNL     1     -11.042  13.824  64.653  1.00  0.00    -0.391 A  
HETATM    8  C   UNL     1     -10.050  13.156  65.389  1.00  0.00    -0.260 A  
HETATM    9  C   UNL     1      -9.725  11.829  65.101  1.00  0.00    -0.228 A  
HETATM   10  C   UNL     1     -10.401  11.163  64.085  1.00  0.00    -0.361 A  
HETATM   11  C   UNL     1     -11.406  11.797  63.366  1.00  0.00    -0.437 A  
HETATM   12  O   UNL     1     -10.102   9.874  63.759  1.00  0.00    -0.426 OA 
HETATM   13  H   UNL     1     -10.564   9.419  63.064  1.00  0.00     0.000 HD 
HETATM   14  C   UNL     1     -11.727  13.126  63.649  1.00  0.00    -0.505 A  
ENDBRANCH   6   7
ENDBRANCH   2   6
TORSDOF 2
ENDMDL
MODEL      100
REMARK 921   NORMALIZED FREE ENERGY PREDICTED BY IDOCK:   -3.31 KCAL/MOL
REMARK 922        TOTAL FREE ENERGY PREDICTED BY IDOCK:   -3.89 KCAL/MOL
REMARK 923 INTER-LIGAND FREE ENERGY PREDICTED BY IDOCK:   -3.80 KCAL/MOL
REMARK 924 INTRA-LIGAND FREE ENERGY PREDICTED BY IDOCK:   -0.09 KCAL/MOL
REMARK 927      BINDING AFFINITY PREDICTED BY RF-SCORE:    0.00 PKD
ROOT
HETATM    1  C   UNL     1     -10.976  15.473  68.429  1.00  0.00    -0.297 C  
HETATM    2  C   UNL     1     -11.644  14.495  69.398  1.00  0.00    -0.303 C  
HETATM    3  N   UNL     1     -12.779  15.162  70.052  1.00  0.00    -0.609 NA 
HETATM    4  H1  UNL     1     -13.225  14.510  70.698  1.00  0.00     0.000 HD 
HETATM    5  H2  UNL     1     -13.439  15.551  69.379  1.00  0.00     0.000 HD 
ENDROOT
BRANCH   2   6
HETATM    6  C   UNL     1     -12.132  13.207  68.697  1.00  0.00    -0.222 C  
BRANCH   6   7
HETATM    7  C   UNL     1     -11.981  11.958  69.536  1.00  0.00    -0.355 A  
HETATM    8  C   UNL     1     -12.783  11.752  70.670  1.00  0.00    -0.193 A  
HETATM    9  C   UNL     1     -12.609  10.619  71.467  1.00  0.00    -0.517 A  
HETATM   10  C   UNL     1     -11.641   9.682  71.123  1.00  0.00    -0.381 A  
HETATM   11  C   UNL     1     -10.859   9.853  69.989  1.00  0.00    -0.339 A  
HETATM   12  O   UNL     1     -11.425   8.572  71.884  1.00  0.00    -0.290 OA 
HETATM   13  H   UNL     1     -10.763   7.932  71.649  1.00  0.00     0.000 HD 
HETATM   14  C   UNL     1     -11.027  10.988  69.195  1.00  0.00    -0.289 A  
ENDBRANCH   6   7
ENDBRANCH   2   6
TORSDOF 2
ENDMDL
MODEL      101
REMARK 921   NORMALIZED FREE ENERGY PREDICTED BY IDOCK:   -3.31 KCAL/MOL
REMARK 922        TOTAL FREE ENERGY PREDICTED BY IDOCK:   -3.88 KCAL/MOL
REMARK 923 INTER-LIGAND FREE ENERGY PREDICTED BY IDOCK:   -3.71 KCAL/MOL
REMARK 924 INTRA-LIGAND FREE ENERGY PREDICTED BY IDOCK:   -0.17 KCAL/MOL
REMARK 927      BINDING AFFINITY PREDICTED BY RF-SCORE:    0.00 PKD
ROOT
HETATM    1  C   UNL     1      -9.215   6.481  68.110  1.00  0.00    -0.112 C  
HETATM    2  C   UNL     1     -10.127   7.340  67.233  1.00  0.00    -0.225 C  
HETATM    3  N   UNL     1     -11.320   6.562  66.867  1.00  0.00    -0.817 NA 
HETATM    4  H1  UNL     1     -11.929   7.136  66.283  1.00  0.00     0.000 HD 
HETATM    5  H2  UNL     1     -11.805   6.191  67.684  1.00  0.00     0.000 HD 
ENDROOT
BRANCH   2   6
HETATM    6  C   UNL     1     -10.557   8.651  67.932  1.00  0.00    -0.223 C  
BRANCH   6   7
HETATM    7  C   UNL     1     -10.581   9.854  67.016  1.00  0.00    -0.272 A  
HETATM    8  C   UNL     1     -10.030   9.787  65.727  1.00  0.00    -0.349 A  
HETATM    9  C   UNL     1     -10.015  10.914  64.902  1.00  0.00    -0.361 A  
HETATM   10  C   UNL     1     -10.563  12.107  65.360  1.00  0.00    -0.272 A  
HETATM   11  C   UNL     1     -11.139  12.184  66.621  1.00  0.00    -0.353 A  
HETATM   12  O   UNL     1     -10.552  13.234  64.595  1.00  0.00    -0.359 OA 
HETATM   13  H   UNL     1     -10.926  14.049  64.908  1.00  0.00     0.000 HD 
HETATM   14  C   UNL     1     -11.149  11.061  67.449  1.00  0.00    -0.370 A  
ENDBRANCH   6   7
ENDBRANCH   2   6
TORSDOF 2
ENDMDL
MODEL      102
REMARK 921   NORMALIZED FREE ENERGY PREDICTED BY IDOCK:   -3.29 KCAL/MOL
REMARK 922        TOTAL FREE ENERGY PREDICTED BY IDOCK:   -3.86 KCAL/MOL
REMARK 923 INTER-LIGAND FREE ENERGY PREDICTED BY IDOCK:   -3.71 KCAL/MOL
REMARK 924 INTRA-LIGAND FREE ENERGY PREDICTED BY IDOCK:   -0.14 KCAL/MOL
REMARK 927      BINDING AFFINITY PREDICTED BY RF-SCORE:    0.00 PKD
ROOT
HETATM    1  C   UNL     1      -9.084   8.348  69.668  1.00  0.00    -0.153 C  
HETATM    2  C   UNL     1      -9.525   9.783  69.963  1.00  0.00    -0.238 C  
HETATM    3  N   UNL     1      -8.377  10.686  69.797  1.00  0.00    -0.362 NA 
HETATM    4  H1  UNL     1      -8.671  11.643  69.992  1.00  0.00     0.000 HD 
HETATM    5  H2  UNL     1      -7.943  10.595  68.878  1.00  0.00     0.000 HD 
ENDROOT
BRANCH   2   6
HETATM    6  C   UNL     1     -10.684  10.244  69.050  1.00  0.00    -0.257 C  
BRANCH   6   7
HETATM    7  C   UNL     1     -11.307  11.558  69.468  1.00  0.00    -0.342 A  
HETATM    8  C   UNL     1     -12.095  11.643  70.627  1.00  0.00    -0.432 A  
HETATM    9  C   UNL     1     -12.705  12.848  70.984  1.00  0.00    -0.338 A  
HETATM   10  C   UNL     1     -12.517  13.973  70.189  1.00  0.00    -0.319 A  
HETATM   11  C   UNL     1     -11.717  13.916  69.056  1.00  0.00    -0.378 A  
HETATM   12  O   UNL     1     -13.109  15.163  70.490  1.00  0.00    -0.590 OA 
HETATM   13  H   UNL     1     -12.980  15.932  69.947  1.00  0.00     0.000 HD 
HETATM   14  C   UNL     1     -11.112  12.711  68.694  1.00  0.00    -0.305 A  
ENDBRANCH   6   7
ENDBRANCH   2   6
TORSDOF 2
ENDMDL
MODEL      103
REMARK 921   NORMALIZED FREE ENERGY PREDICTED BY IDOCK:   -3.28 KCAL/MOL
REMARK 922        TOTAL FREE ENERGY PREDICTED BY IDOCK:   -3.85 KCAL/MOL
REMARK 923 INTER-LIGAND FREE ENERGY PREDICTED BY IDOCK:   -3.70 KCAL/MOL
REMARK 924 INTRA-LIGAND FREE ENERGY PREDICTED BY IDOCK:   -0.15 KCAL/MOL
REMARK 927      BINDING AFFINITY PREDICTED BY RF-SCORE:    0.00 PKD
ROOT
HETATM    1  C   UNL     1      -9.848   6.665  71.143  1.00  0.00    -0.195 C  
HETATM    2  C   UNL     1     -10.484   7.998  71.542  1.00  0.00    -0.217 C  
HETATM    3  N   UNL     1      -9.443   8.891  72.071  1.00  0.00    -0.347 NA 
HETATM    4  H1  UNL     1      -9.866   9.780  72.337  1.00  0.00     0.000 HD 
HETATM    5  H2  UNL     1      -8.668   9.012  71.419  1.00  0.00     0.000 HD 
ENDROOT
BRANCH   2   6
HETATM    6  C   UNL     1     -11.207   8.686  70.361  1.00  0.00    -0.236 C  
BRANCH   6   7
HETATM    7  C   UNL     1     -11.881   9.988  70.731  1.00  0.00    -0.435 A  
HETATM    8  C   UNL     1     -11.606  11.168  70.020  1.00  0.00    -0.421 A  
HETATM    9  C   UNL     1     -12.197  12.376  70.395  1.00  0.00    -0.370 A  
HETATM   10  C   UNL     1     -13.075  12.405  71.472  1.00  0.00    -0.264 A  
HETATM   11  C   UNL     1     -13.383  11.244  72.168  1.00  0.00    -0.263 A  
HETATM   12  O   UNL     1     -13.659  13.567  71.882  1.00  0.00    -0.406 OA 
HETATM   13  H   UNL     1     -14.258  13.587  72.619  1.00  0.00     0.000 HD 
HETATM   14  C   UNL     1     -12.788  10.037  71.800  1.00  0.00    -0.546 A  
ENDBRANCH   6   7
ENDBRANCH   2   6
TORSDOF 2
ENDMDL
MODEL      104
REMARK 921   NORMALIZED FREE ENERGY PREDICTED BY IDOCK:   -3.27 KCAL/MOL
REMARK 922        TOTAL FREE ENERGY PREDICTED BY IDOCK:   -3.84 KCAL/MOL
REMARK 923 INTER-LIGAND FREE ENERGY PREDICTED BY IDOCK:   -3.67 KCAL/MOL
REMARK 924 INTRA-LIGAND FREE ENERGY PREDICTED BY IDOCK:   -0.17 KCAL/MOL
REMARK 927      BINDING AFFINITY PREDICTED BY RF-SCORE:    0.00 PKD
ROOT
HETATM    1  C   UNL     1     -13.805   8.328  71.083  1.00  0.00    -0.100 C  
HETATM    2  C   UNL     1     -13.342   9.778  71.240  1.00  0.00    -0.339 C  
HETATM    3  N   UNL     1     -13.539  10.200  72.635  1.00  0.00    -0.470 NA 
HETATM    4  H1  UNL     1     -13.230  11.167  72.739  1.00  0.00     0.000 HD 
HETATM    5  H2  UNL     1     -13.081   9.574  73.297  1.00  0.00     0.000 HD 
ENDROOT
BRANCH   2   6
HETATM    6  C   UNL     1     -11.861   9.973  70.842  1.00  0.00    -0.459 C  
BRANCH   6   7
HETATM    7  C   UNL     1     -11.670  10.735  69.550  1.00  0.00    -0.384 A  
HETATM    8  C   UNL     1     -11.134  10.104  68.416  1.00  0.00    -0.273 A  
HETATM    9  C   UNL     1     -10.917  10.824  67.239  1.00  0.00    -0.359 A  
HETATM   10  C   UNL     1     -11.248  12.174  67.190  1.00  0.00    -0.314 A  
HETATM   11  C   UNL     1     -11.805  12.808  68.292  1.00  0.00    -0.357 A  
HETATM   12  O   UNL     1     -11.034  12.917  66.068  1.00  0.00    -0.272 OA 
HETATM   13  H   UNL     1     -11.260  13.839  66.035  1.00  0.00     0.000 HD 
HETATM   14  C   UNL     1     -12.017  12.092  69.471  1.00  0.00    -0.346 A  
ENDBRANCH   6   7
ENDBRANCH   2   6
TORSDOF 2
ENDMDL
MODEL      105
REMARK 921   NORMALIZED FREE ENERGY PREDICTED BY IDOCK:   -3.27 KCAL/MOL
REMARK 922        TOTAL FREE ENERGY PREDICTED BY IDOCK:   -3.84 KCAL/MOL
REMARK 923 INTER-LIGAND FREE ENERGY PREDICTED BY IDOCK:   -3.65 KCAL/MOL
REMARK 924 INTRA-LIGAND FREE ENERGY PREDICTED BY IDOCK:   -0.19 KCAL/MOL
REMARK 927      BINDING AFFINITY PREDICTED BY RF-SCORE:    0.00 PKD
ROOT
HETATM    1  C   UNL     1      -9.771  14.062  67.514  1.00  0.00    -0.232 C  
HETATM    2  C   UNL     1     -11.066  13.410  68.004  1.00  0.00    -0.255 C  
HETATM    3  N   UNL     1     -11.940  14.443  68.580  1.00  0.00    -0.495 NA 
HETATM    4  H1  UNL     1     -12.803  14.008  68.906  1.00  0.00     0.000 HD 
HETATM    5  H2  UNL     1     -12.115  15.208  67.929  1.00  0.00     0.000 HD 
ENDROOT
BRANCH   2   6
HETATM    6  C   UNL     1     -11.816  12.664  66.877  1.00  0.00    -0.425 C  
BRANCH   6   7
HETATM    7  C   UNL     1     -10.989  11.598  66.192  1.00  0.00    -0.339 A  
HETATM    8  C   UNL     1     -10.635  10.419  66.867  1.00  0.00    -0.293 A  
HETATM    9  C   UNL     1      -9.834   9.459  66.245  1.00  0.00    -0.351 A  
HETATM   10  C   UNL     1      -9.396   9.671  64.942  1.00  0.00    -0.242 A  
HETATM   11  C   UNL     1      -9.760  10.818  64.249  1.00  0.00    -0.357 A  
HETATM   12  O   UNL     1      -8.597   8.769  64.305  1.00  0.00    -0.312 OA 
HETATM   13  H   UNL     1      -8.298   8.914  63.415  1.00  0.00     0.000 HD 
HETATM   14  C   UNL     1     -10.556  11.781  64.871  1.00  0.00    -0.344 A  
ENDBRANCH   6   7
ENDBRANCH   2   6
TORSDOF 2
ENDMDL
MODEL      106
REMARK 921   NORMALIZED FREE ENERGY PREDICTED BY IDOCK:   -3.25 KCAL/MOL
REMARK 922        TOTAL FREE ENERGY PREDICTED BY IDOCK:   -3.81 KCAL/MOL
REMARK 923 INTER-LIGAND FREE ENERGY PREDICTED BY IDOCK:   -3.64 KCAL/MOL
REMARK 924 INTRA-LIGAND FREE ENERGY PREDICTED BY IDOCK:   -0.17 KCAL/MOL
REMARK 927      BINDING AFFINITY PREDICTED BY RF-SCORE:    0.00 PKD
ROOT
HETATM    1  C   UNL     1      -9.260   6.389  74.114  1.00  0.00    -0.181 C  
HETATM    2  C   UNL     1      -9.218   7.858  73.691  1.00  0.00    -0.255 C  
HETATM    3  N   UNL     1      -8.267   8.582  74.547  1.00  0.00    -0.434 NA 
HETATM    4  H1  UNL     1      -8.239   9.562  74.264  1.00  0.00     0.000 HD 
HETATM    5  H2  UNL     1      -7.342   8.153  74.545  1.00  0.00     0.000 HD 
ENDROOT
BRANCH   2   6
HETATM    6  C   UNL     1      -8.821   8.036  72.207  1.00  0.00    -0.224 C  
BRANCH   6   7
HETATM    7  C   UNL     1      -9.837   8.801  71.389  1.00  0.00    -0.353 A  
HETATM    8  C   UNL     1      -9.456   9.475  70.217  1.00  0.00    -0.307 A  
HETATM    9  C   UNL     1     -10.388  10.217  69.490  1.00  0.00    -0.267 A  
HETATM   10  C   UNL     1     -11.708  10.276  69.925  1.00  0.00    -0.225 A  
HETATM   11  C   UNL     1     -12.110   9.592  71.065  1.00  0.00    -0.421 A  
HETATM   12  O   UNL     1     -12.645  11.004  69.256  1.00  0.00    -0.540 OA 
HETATM   13  H   UNL     1     -13.546  11.045  69.553  1.00  0.00     0.000 HD 
HETATM   14  C   UNL     1     -11.178   8.855  71.796  1.00  0.00    -0.432 A  
ENDBRANCH   6   7
ENDBRANCH   2   6
TORSDOF 2
ENDMDL
MODEL      107
REMARK 921   NORMALIZED FREE ENERGY PREDICTED BY IDOCK:   -3.21 KCAL/MOL
REMARK 922        TOTAL FREE ENERGY PREDICTED BY IDOCK:   -3.78 KCAL/MOL
REMARK 923 INTER-LIGAND FREE ENERGY PREDICTED BY IDOCK:   -3.63 KCAL/MOL
REMARK 924 INTRA-LIGAND FREE ENERGY PREDICTED BY IDOCK:   -0.15 KCAL/MOL
REMARK 927      BINDING AFFINITY PREDICTED BY RF-SCORE:    0.00 PKD
ROOT
HETATM    1  C   UNL     1      -8.018   8.876  66.555  1.00  0.00    -0.103 C  
HETATM    2  C   UNL     1      -8.685  10.249  66.447  1.00  0.00    -0.135 C  
HETATM    3  N   UNL     1      -8.324  10.862  65.161  1.00  0.00    -0.363 NA 
HETATM    4  H1  UNL     1      -8.769  11.777  65.089  1.00  0.00     0.000 HD 
HETATM    5  H2  UNL     1      -8.548  10.259  64.369  1.00  0.00     0.000 HD 
ENDROOT
BRANCH   2   6
HETATM    6  C   UNL     1     -10.224  10.171  66.572  1.00  0.00    -0.288 C  
BRANCH   6   7
HETATM    7  C   UNL     1     -10.856  11.421  67.141  1.00  0.00    -0.316 A  
HETATM    8  C   UNL     1     -11.470  12.363  66.300  1.00  0.00    -0.423 A  
HETATM    9  C   UNL     1     -12.012  13.538  66.825  1.00  0.00    -0.453 A  
HETATM   10  C   UNL     1     -11.954  13.766  68.196  1.00  0.00    -0.358 A  
HETATM   11  C   UNL     1     -11.378  12.833  69.047  1.00  0.00    -0.346 A  
HETATM   12  O   UNL     1     -12.454  14.908  68.747  1.00  0.00    -0.584 OA 
HETATM   13  H   UNL     1     -12.414  15.064  69.683  1.00  0.00     0.000 HD 
HETATM   14  C   UNL     1     -10.830  11.662  68.522  1.00  0.00    -0.257 A  
ENDBRANCH   6   7
ENDBRANCH   2   6
TORSDOF 2
ENDMDL
MODEL      108
REMARK 921   NORMALIZED FREE ENERGY PREDICTED BY IDOCK:   -3.20 KCAL/MOL
REMARK 922        TOTAL FREE ENERGY PREDICTED BY IDOCK:   -3.77 KCAL/MOL
REMARK 923 INTER-LIGAND FREE ENERGY PREDICTED BY IDOCK:   -3.56 KCAL/MOL
REMARK 924 INTRA-LIGAND FREE ENERGY PREDICTED BY IDOCK:   -0.21 KCAL/MOL
REMARK 927      BINDING AFFINITY PREDICTED BY RF-SCORE:    0.00 PKD
ROOT
HETATM    1  C   UNL     1     -11.498  15.390  71.615  1.00  0.00    -0.492 C  
HETATM    2  C   UNL     1     -12.457  15.213  70.435  1.00  0.00    -0.368 C  
HETATM    3  N   UNL     1     -13.746  15.840  70.761  1.00  0.00    -0.664 NA 
HETATM    4  H1  UNL     1     -14.385  15.723  69.975  1.00  0.00     0.000 HD 
HETATM    5  H2  UNL     1     -13.643  16.818  71.033  1.00  0.00     0.000 HD 
ENDROOT
BRANCH   2   6
HETATM    6  C   UNL     1     -11.902  15.819  69.126  1.00  0.00    -0.367 C  
BRANCH   6   7
HETATM    7  C   UNL     1     -10.714  15.072  68.561  1.00  0.00    -0.244 A  
HETATM    8  C   UNL     1      -9.432  15.645  68.573  1.00  0.00    -0.200 A  
HETATM    9  C   UNL     1      -8.348  14.971  68.009  1.00  0.00    -0.148 A  
HETATM   10  C   UNL     1      -8.539  13.714  67.444  1.00  0.00    -0.209 A  
HETATM   11  C   UNL     1      -9.794  13.118  67.450  1.00  0.00    -0.226 A  
HETATM   12  O   UNL     1      -7.512  13.030  66.867  1.00  0.00    -0.379 OA 
HETATM   13  H   UNL     1      -7.643  12.172  66.481  1.00  0.00     0.000 HD 
HETATM   14  C   UNL     1     -10.880  13.794  68.007  1.00  0.00    -0.263 A  
ENDBRANCH   6   7
ENDBRANCH   2   6
TORSDOF 2
ENDMDL
MODEL      109
REMARK 921   NORMALIZED FREE ENERGY PREDICTED BY IDOCK:   -3.20 KCAL/MOL
REMARK 922        TOTAL FREE ENERGY PREDICTED BY IDOCK:   -3.76 KCAL/MOL
REMARK 923 INTER-LIGAND FREE ENERGY PREDICTED BY IDOCK:   -3.58 KCAL/MOL
REMARK 924 INTRA-LIGAND FREE ENERGY PREDICTED BY IDOCK:   -0.18 KCAL/MOL
REMARK 927      BINDING AFFINITY PREDICTED BY RF-SCORE:    0.00 PKD
ROOT
HETATM    1  C   UNL     1      -8.233  18.260  66.701  1.00  0.00    -0.282 C  
HETATM    2  C   UNL     1      -9.741  18.121  66.916  1.00  0.00    -0.318 C  
HETATM    3  N   UNL     1     -10.426  19.267  66.301  1.00  0.00    -0.459 NA 
HETATM    4  H1  UNL     1     -11.432  19.174  66.444  1.00  0.00     0.000 HD 
HETATM    5  H2  UNL     1     -10.185  19.379  65.316  1.00  0.00     0.000 HD 
ENDROOT
BRANCH   2   6
HETATM    6  C   UNL     1     -10.304  16.805  66.332  1.00  0.00    -0.309 C  
BRANCH   6   7
HETATM    7  C   UNL     1     -10.567  15.737  67.370  1.00  0.00    -0.313 A  
HETATM    8  C   UNL     1      -9.868  14.519  67.341  1.00  0.00    -0.227 A  
HETATM    9  C   UNL     1     -10.147  13.519  68.275  1.00  0.00    -0.247 A  
HETATM   10  C   UNL     1     -11.116  13.739  69.247  1.00  0.00    -0.208 A  
HETATM   11  C   UNL     1     -11.797  14.948  69.309  1.00  0.00    -0.350 A  
HETATM   12  O   UNL     1     -11.433  12.783  70.165  1.00  0.00    -0.519 OA 
HETATM   13  H   UNL     1     -12.095  12.933  70.829  1.00  0.00     0.000 HD 
HETATM   14  C   UNL     1     -11.524  15.946  68.373  1.00  0.00    -0.348 A  
ENDBRANCH   6   7
ENDBRANCH   2   6
TORSDOF 2
ENDMDL
MODEL      110
REMARK 921   NORMALIZED FREE ENERGY PREDICTED BY IDOCK:   -3.19 KCAL/MOL
REMARK 922        TOTAL FREE ENERGY PREDICTED BY IDOCK:   -3.75 KCAL/MOL
REMARK 923 INTER-LIGAND FREE ENERGY PREDICTED BY IDOCK:   -3.59 KCAL/MOL
REMARK 924 INTRA-LIGAND FREE ENERGY PREDICTED BY IDOCK:   -0.17 KCAL/MOL
REMARK 927      BINDING AFFINITY PREDICTED BY RF-SCORE:    0.00 PKD
ROOT
HETATM    1  C   UNL     1      -6.429   7.948  65.334  1.00  0.00    -0.041 C  
HETATM    2  C   UNL     1      -7.826   8.114  64.733  1.00  0.00    -0.137 C  
HETATM    3  N   UNL     1      -8.375   6.788  64.413  1.00  0.00    -0.333 NA 
HETATM    4  H1  UNL     1      -9.307   6.898  64.012  1.00  0.00     0.000 HD 
HETATM    5  H2  UNL     1      -8.372   6.163  65.219  1.00  0.00     0.000 HD 
ENDROOT
BRANCH   2   6
HETATM    6  C   UNL     1      -8.793   8.862  65.679  1.00  0.00    -0.230 C  
BRANCH   6   7
HETATM    7  C   UNL     1      -9.581   9.963  65.004  1.00  0.00    -0.364 A  
HETATM    8  C   UNL     1     -10.397  10.825  65.753  1.00  0.00    -0.295 A  
HETATM    9  C   UNL     1     -11.157  11.811  65.121  1.00  0.00    -0.341 A  
HETATM   10  C   UNL     1     -11.092  11.945  63.738  1.00  0.00    -0.436 A  
HETATM   11  C   UNL     1     -10.268  11.121  62.983  1.00  0.00    -0.265 A  
HETATM   12  O   UNL     1     -11.832  12.881  63.079  1.00  0.00    -0.827 OA 
HETATM   13  H   UNL     1     -11.788  12.972  62.135  1.00  0.00     0.000 HD 
HETATM   14  C   UNL     1      -9.513  10.131  63.614  1.00  0.00    -0.320 A  
ENDBRANCH   6   7
ENDBRANCH   2   6
TORSDOF 2
ENDMDL
MODEL      111
REMARK 921   NORMALIZED FREE ENERGY PREDICTED BY IDOCK:   -3.19 KCAL/MOL
REMARK 922        TOTAL FREE ENERGY PREDICTED BY IDOCK:   -3.75 KCAL/MOL
REMARK 923 INTER-LIGAND FREE ENERGY PREDICTED BY IDOCK:   -3.63 KCAL/MOL
REMARK 924 INTRA-LIGAND FREE ENERGY PREDICTED BY IDOCK:   -0.12 KCAL/MOL
REMARK 927      BINDING AFFINITY PREDICTED BY RF-SCORE:    0.00 PKD
ROOT
HETATM    1  C   UNL     1      -7.461  10.328  63.156  1.00  0.00    -0.125 C  
HETATM    2  C   UNL     1      -8.888  10.773  63.483  1.00  0.00    -0.147 C  
HETATM    3  N   UNL     1      -9.802  10.267  62.449  1.00  0.00    -0.732 NA 
HETATM    4  H1  UNL     1     -10.753  10.563  62.667  1.00  0.00     0.000 HD 
HETATM    5  H2  UNL     1      -9.729   9.256  62.330  1.00  0.00     0.000 HD 
ENDROOT
BRANCH   2   6
HETATM    6  C   UNL     1      -9.356  10.285  64.874  1.00  0.00    -0.306 C  
BRANCH   6   7
HETATM    7  C   UNL     1     -10.095  11.335  65.674  1.00  0.00    -0.295 A  
HETATM    8  C   UNL     1     -11.315  11.859  65.218  1.00  0.00    -0.333 A  
HETATM    9  C   UNL     1     -11.971  12.860  65.938  1.00  0.00    -0.504 A  
HETATM   10  C   UNL     1     -11.414  13.329  67.123  1.00  0.00    -0.341 A  
HETATM   11  C   UNL     1     -10.223  12.802  67.604  1.00  0.00    -0.219 A  
HETATM   12  O   UNL     1     -12.011  14.318  67.846  1.00  0.00    -0.421 OA 
HETATM   13  H   UNL     1     -11.630  14.639  68.655  1.00  0.00     0.000 HD 
HETATM   14  C   UNL     1      -9.563  11.807  66.883  1.00  0.00    -0.204 A  
ENDBRANCH   6   7
ENDBRANCH   2   6
TORSDOF 2
ENDMDL
MODEL      112
REMARK 921   NORMALIZED FREE ENERGY PREDICTED BY IDOCK:   -3.18 KCAL/MOL
REMARK 922        TOTAL FREE ENERGY PREDICTED BY IDOCK:   -3.74 KCAL/MOL
REMARK 923 INTER-LIGAND FREE ENERGY PREDICTED BY IDOCK:   -3.79 KCAL/MOL
REMARK 924 INTRA-LIGAND FREE ENERGY PREDICTED BY IDOCK:    0.05 KCAL/MOL
REMARK 927      BINDING AFFINITY PREDICTED BY RF-SCORE:    0.00 PKD
ROOT
HETATM    1  C   UNL     1      -8.586   5.868  70.623  1.00  0.00    -0.133 C  
HETATM    2  C   UNL     1      -9.975   5.232  70.700  1.00  0.00    -0.218 C  
HETATM    3  N   UNL     1     -10.392   5.149  72.107  1.00  0.00    -0.209 NA 
HETATM    4  H1  UNL     1     -11.318   4.725  72.159  1.00  0.00     0.000 HD 
HETATM    5  H2  UNL     1     -10.354   6.054  72.576  1.00  0.00     0.000 HD 
ENDROOT
BRANCH   2   6
HETATM    6  C   UNL     1     -11.032   6.019  69.891  1.00  0.00    -0.458 C  
BRANCH   6   7
HETATM    7  C   UNL     1     -11.636   7.184  70.643  1.00  0.00    -0.354 A  
HETATM    8  C   UNL     1     -12.915   7.085  71.214  1.00  0.00    -0.357 A  
HETATM    9  C   UNL     1     -13.486   8.178  71.869  1.00  0.00    -0.354 A  
HETATM   10  C   UNL     1     -12.774   9.369  71.965  1.00  0.00    -0.403 A  
HETATM   11  C   UNL     1     -11.497   9.476  71.432  1.00  0.00    -0.462 A  
HETATM   12  O   UNL     1     -13.303  10.465  72.578  1.00  0.00    -0.564 OA 
HETATM   13  H   UNL     1     -12.816  11.279  72.643  1.00  0.00     0.000 HD 
HETATM   14  C   UNL     1     -10.927   8.387  70.772  1.00  0.00    -0.276 A  
ENDBRANCH   6   7
ENDBRANCH   2   6
TORSDOF 2
ENDMDL
MODEL      113
REMARK 921   NORMALIZED FREE ENERGY PREDICTED BY IDOCK:   -3.18 KCAL/MOL
REMARK 922        TOTAL FREE ENERGY PREDICTED BY IDOCK:   -3.74 KCAL/MOL
REMARK 923 INTER-LIGAND FREE ENERGY PREDICTED BY IDOCK:   -3.57 KCAL/MOL
REMARK 924 INTRA-LIGAND FREE ENERGY PREDICTED BY IDOCK:   -0.17 KCAL/MOL
REMARK 927      BINDING AFFINITY PREDICTED BY RF-SCORE:    0.00 PKD
ROOT
HETATM    1  C   UNL     1      -9.858  20.477  67.415  1.00  0.00    -0.574 C  
HETATM    2  C   UNL     1      -9.873  19.512  68.602  1.00  0.00    -0.445 C  
HETATM    3  N   UNL     1     -10.509  20.171  69.753  1.00  0.00    -0.490 NA 
HETATM    4  H1  UNL     1     -10.519  19.528  70.545  1.00  0.00     0.000 HD 
HETATM    5  H2  UNL     1     -11.439  20.526  69.531  1.00  0.00     0.000 HD 
ENDROOT
BRANCH   2   6
HETATM    6  C   UNL     1     -10.616  18.194  68.284  1.00  0.00    -0.267 C  
BRANCH   6   7
HETATM    7  C   UNL     1      -9.698  17.042  67.940  1.00  0.00    -0.263 A  
HETATM    8  C   UNL     1      -9.476  16.674  66.604  1.00  0.00    -0.271 A  
HETATM    9  C   UNL     1      -8.664  15.581  66.294  1.00  0.00    -0.283 A  
HETATM   10  C   UNL     1      -8.061  14.862  67.320  1.00  0.00    -0.208 A  
HETATM   11  C   UNL     1      -8.244  15.229  68.646  1.00  0.00    -0.159 A  
HETATM   12  O   UNL     1      -7.276  13.778  67.062  1.00  0.00    -0.351 OA 
HETATM   13  H   UNL     1      -6.865  13.287  67.763  1.00  0.00     0.000 HD 
HETATM   14  C   UNL     1      -9.061  16.317  68.958  1.00  0.00    -0.255 A  
ENDBRANCH   6   7
ENDBRANCH   2   6
TORSDOF 2
ENDMDL
MODEL      114
REMARK 921   NORMALIZED FREE ENERGY PREDICTED BY IDOCK:   -3.18 KCAL/MOL
REMARK 922        TOTAL FREE ENERGY PREDICTED BY IDOCK:   -3.74 KCAL/MOL
REMARK 923 INTER-LIGAND FREE ENERGY PREDICTED BY IDOCK:   -3.68 KCAL/MOL
REMARK 924 INTRA-LIGAND FREE ENERGY PREDICTED BY IDOCK:   -0.05 KCAL/MOL
REMARK 927      BINDING AFFINITY PREDICTED BY RF-SCORE:    0.00 PKD
ROOT
HETATM    1  C   UNL     1     -11.610  14.482  65.604  1.00  0.00    -0.344 C  
HETATM    2  C   UNL     1     -11.829  13.408  66.672  1.00  0.00    -0.395 C  
HETATM    3  N   UNL     1     -11.780  12.081  66.040  1.00  0.00    -0.500 NA 
HETATM    4  H1  UNL     1     -11.926  11.365  66.752  1.00  0.00     0.000 HD 
HETATM    5  H2  UNL     1     -10.919  11.934  65.515  1.00  0.00     0.000 HD 
ENDROOT
BRANCH   2   6
HETATM    6  C   UNL     1     -10.784  13.481  67.808  1.00  0.00    -0.262 C  
BRANCH   6   7
HETATM    7  C   UNL     1     -10.953  12.413  68.865  1.00  0.00    -0.268 A  
HETATM    8  C   UNL     1     -10.144  11.265  68.864  1.00  0.00    -0.185 A  
HETATM    9  C   UNL     1     -10.334  10.261  69.815  1.00  0.00    -0.287 A  
HETATM   10  C   UNL     1     -11.326  10.408  70.778  1.00  0.00    -0.284 A  
HETATM   11  C   UNL     1     -12.116  11.549  70.814  1.00  0.00    -0.410 A  
HETATM   12  O   UNL     1     -11.558   9.444  71.713  1.00  0.00    -0.377 OA 
HETATM   13  H   UNL     1     -12.236   9.544  72.371  1.00  0.00     0.000 HD 
HETATM   14  C   UNL     1     -11.932  12.550  69.860  1.00  0.00    -0.371 A  
ENDBRANCH   6   7
ENDBRANCH   2   6
TORSDOF 2
ENDMDL
MODEL      115
REMARK 921   NORMALIZED FREE ENERGY PREDICTED BY IDOCK:   -3.17 KCAL/MOL
REMARK 922        TOTAL FREE ENERGY PREDICTED BY IDOCK:   -3.73 KCAL/MOL
REMARK 923 INTER-LIGAND FREE ENERGY PREDICTED BY IDOCK:   -3.55 KCAL/MOL
REMARK 924 INTRA-LIGAND FREE ENERGY PREDICTED BY IDOCK:   -0.18 KCAL/MOL
REMARK 927      BINDING AFFINITY PREDICTED BY RF-SCORE:    0.00 PKD
ROOT
HETATM    1  C   UNL     1      -8.037   7.168  74.565  1.00  0.00    -0.192 C  
HETATM    2  C   UNL     1      -8.139   8.252  73.491  1.00  0.00    -0.174 C  
HETATM    3  N   UNL     1      -6.824   8.887  73.318  1.00  0.00    -0.333 NA 
HETATM    4  H1  UNL     1      -6.891   9.610  72.601  1.00  0.00     0.000 HD 
HETATM    5  H2  UNL     1      -6.090   8.208  73.115  1.00  0.00     0.000 HD 
ENDROOT
BRANCH   2   6
HETATM    6  C   UNL     1      -8.629   7.696  72.134  1.00  0.00    -0.148 C  
BRANCH   6   7
HETATM    7  C   UNL     1     -10.121   7.822  71.923  1.00  0.00    -0.231 A  
HETATM    8  C   UNL     1     -10.950   6.689  71.955  1.00  0.00    -0.274 A  
HETATM    9  C   UNL     1     -12.320   6.806  71.716  1.00  0.00    -0.400 A  
HETATM   10  C   UNL     1     -12.868   8.057  71.457  1.00  0.00    -0.311 A  
HETATM   11  C   UNL     1     -12.069   9.193  71.451  1.00  0.00    -0.409 A  
HETATM   12  O   UNL     1     -14.197   8.212  71.199  1.00  0.00    -0.635 OA 
HETATM   13  H   UNL     1     -14.571   9.068  71.022  1.00  0.00     0.000 HD 
HETATM   14  C   UNL     1     -10.698   9.078  71.683  1.00  0.00    -0.441 A  
ENDBRANCH   6   7
ENDBRANCH   2   6
TORSDOF 2
ENDMDL
MODEL      116
REMARK 921   NORMALIZED FREE ENERGY PREDICTED BY IDOCK:   -3.16 KCAL/MOL
REMARK 922        TOTAL FREE ENERGY PREDICTED BY IDOCK:   -3.72 KCAL/MOL
REMARK 923 INTER-LIGAND FREE ENERGY PREDICTED BY IDOCK:   -3.54 KCAL/MOL
REMARK 924 INTRA-LIGAND FREE ENERGY PREDICTED BY IDOCK:   -0.18 KCAL/MOL
REMARK 927      BINDING AFFINITY PREDICTED BY RF-SCORE:    0.00 PKD
ROOT
HETATM    1  C   UNL     1      -9.810   5.062  68.090  1.00  0.00    -0.203 C  
HETATM    2  C   UNL     1     -10.469   6.392  68.460  1.00  0.00    -0.224 C  
HETATM    3  N   UNL     1     -11.249   6.882  67.314  1.00  0.00    -0.653 NA 
HETATM    4  H1  UNL     1     -11.689   7.768  67.561  1.00  0.00     0.000 HD 
HETATM    5  H2  UNL     1     -11.925   6.193  66.984  1.00  0.00     0.000 HD 
ENDROOT
BRANCH   2   6
HETATM    6  C   UNL     1     -11.386   6.273  69.699  1.00  0.00    -0.492 C  
BRANCH   6   7
HETATM    7  C   UNL     1     -10.742   6.742  70.985  1.00  0.00    -0.265 A  
HETATM    8  C   UNL     1     -10.482   8.104  71.204  1.00  0.00    -0.238 A  
HETATM    9  C   UNL     1      -9.847   8.527  72.373  1.00  0.00    -0.358 A  
HETATM   10  C   UNL     1      -9.482   7.589  73.333  1.00  0.00    -0.252 A  
HETATM   11  C   UNL     1      -9.758   6.240  73.147  1.00  0.00    -0.164 A  
HETATM   12  O   UNL     1      -8.843   7.956  74.479  1.00  0.00    -0.438 OA 
HETATM   13  H   UNL     1      -8.594   7.315  75.134  1.00  0.00     0.000 HD 
HETATM   14  C   UNL     1     -10.387   5.816  71.976  1.00  0.00    -0.254 A  
ENDBRANCH   6   7
ENDBRANCH   2   6
TORSDOF 2
ENDMDL
MODEL      117
REMARK 921   NORMALIZED FREE ENERGY PREDICTED BY IDOCK:   -3.15 KCAL/MOL
REMARK 922        TOTAL FREE ENERGY PREDICTED BY IDOCK:   -3.70 KCAL/MOL
REMARK 923 INTER-LIGAND FREE ENERGY PREDICTED BY IDOCK:   -3.78 KCAL/MOL
REMARK 924 INTRA-LIGAND FREE ENERGY PREDICTED BY IDOCK:    0.08 KCAL/MOL
REMARK 927      BINDING AFFINITY PREDICTED BY RF-SCORE:    0.00 PKD
ROOT
HETATM    1  C   UNL     1     -10.436   8.930  68.659  1.00  0.00    -0.223 C  
HETATM    2  C   UNL     1     -10.805  10.228  69.379  1.00  0.00    -0.245 C  
HETATM    3  N   UNL     1      -9.604  11.065  69.514  1.00  0.00    -0.399 NA 
HETATM    4  H1  UNL     1      -9.850  11.931  69.994  1.00  0.00     0.000 HD 
HETATM    5  H2  UNL     1      -9.148  11.236  68.618  1.00  0.00     0.000 HD 
ENDROOT
BRANCH   2   6
HETATM    6  C   UNL     1     -11.909  11.020  68.642  1.00  0.00    -0.318 C  
BRANCH   6   7
HETATM    7  C   UNL     1     -11.391  11.905  67.531  1.00  0.00    -0.381 A  
HETATM    8  C   UNL     1     -11.406  13.303  67.659  1.00  0.00    -0.328 A  
HETATM    9  C   UNL     1     -10.968  14.116  66.611  1.00  0.00    -0.303 A  
HETATM   10  C   UNL     1     -10.501  13.532  65.439  1.00  0.00    -0.315 A  
HETATM   11  C   UNL     1     -10.451  12.151  65.305  1.00  0.00    -0.311 A  
HETATM   12  O   UNL     1     -10.083  14.289  64.386  1.00  0.00    -0.646 OA 
HETATM   13  H   UNL     1      -9.765  13.890  63.584  1.00  0.00     0.000 HD 
HETATM   14  C   UNL     1     -10.895  11.337  66.348  1.00  0.00    -0.306 A  
ENDBRANCH   6   7
ENDBRANCH   2   6
TORSDOF 2
ENDMDL
MODEL      118
REMARK 921   NORMALIZED FREE ENERGY PREDICTED BY IDOCK:   -3.14 KCAL/MOL
REMARK 922        TOTAL FREE ENERGY PREDICTED BY IDOCK:   -3.70 KCAL/MOL
REMARK 923 INTER-LIGAND FREE ENERGY PREDICTED BY IDOCK:   -3.70 KCAL/MOL
REMARK 924 INTRA-LIGAND FREE ENERGY PREDICTED BY IDOCK:    0.00 KCAL/MOL
REMARK 927      BINDING AFFINITY PREDICTED BY RF-SCORE:    0.00 PKD
ROOT
HETATM    1  C   UNL     1     -11.113  15.934  64.774  1.00  0.00    -0.397 C  
HETATM    2  C   UNL     1     -11.119  14.558  65.444  1.00  0.00    -0.345 C  
HETATM    3  N   UNL     1      -9.980  13.773  64.946  1.00  0.00    -0.620 NA 
HETATM    4  H1  UNL     1      -9.983  12.856  65.393  1.00  0.00     0.000 HD 
HETATM    5  H2  UNL     1      -9.092  14.259  65.068  1.00  0.00     0.000 HD 
ENDROOT
BRANCH   2   6
HETATM    6  C   UNL     1     -11.051  14.650  66.986  1.00  0.00    -0.333 C  
BRANCH   6   7
HETATM    7  C   UNL     1     -10.219  15.807  67.494  1.00  0.00    -0.265 A  
HETATM    8  C   UNL     1     -10.832  16.981  67.963  1.00  0.00    -0.330 A  
HETATM    9  C   UNL     1     -10.059  18.063  68.389  1.00  0.00    -0.392 A  
HETATM   10  C   UNL     1      -8.672  17.969  68.359  1.00  0.00    -0.293 A  
HETATM   11  C   UNL     1      -8.049  16.806  67.927  1.00  0.00    -0.189 A  
HETATM   12  O   UNL     1      -7.881  19.008  68.748  1.00  0.00    -0.340 OA 
HETATM   13  H   UNL     1      -6.933  18.944  68.727  1.00  0.00     0.000 HD 
HETATM   14  C   UNL     1      -8.820  15.726  67.494  1.00  0.00    -0.196 A  
ENDBRANCH   6   7
ENDBRANCH   2   6
TORSDOF 2
ENDMDL
MODEL      119
REMARK 921   NORMALIZED FREE ENERGY PREDICTED BY IDOCK:   -3.13 KCAL/MOL
REMARK 922        TOTAL FREE ENERGY PREDICTED BY IDOCK:   -3.69 KCAL/MOL
REMARK 923 INTER-LIGAND FREE ENERGY PREDICTED BY IDOCK:   -3.59 KCAL/MOL
REMARK 924 INTRA-LIGAND FREE ENERGY PREDICTED BY IDOCK:   -0.09 KCAL/MOL
REMARK 927      BINDING AFFINITY PREDICTED BY RF-SCORE:    0.00 PKD
ROOT
HETATM    1  C   UNL     1     -10.721  12.680  64.703  1.00  0.00    -0.353 C  
HETATM    2  C   UNL     1     -10.746  11.169  64.465  1.00  0.00    -0.297 C  
HETATM    3  N   UNL     1     -10.642  10.905  63.022  1.00  0.00    -0.764 NA 
HETATM    4  H1  UNL     1     -10.658   9.897  62.864  1.00  0.00     0.000 HD 
HETATM    5  H2  UNL     1      -9.824  11.349  62.606  1.00  0.00     0.000 HD 
ENDROOT
BRANCH   2   6
HETATM    6  C   UNL     1      -9.609  10.434  65.211  1.00  0.00    -0.316 C  
BRANCH   6   7
HETATM    7  C   UNL     1     -10.033   9.826  66.529  1.00  0.00    -0.304 A  
HETATM    8  C   UNL     1      -9.974   8.439  66.733  1.00  0.00    -0.354 A  
HETATM    9  C   UNL     1     -10.409   7.879  67.936  1.00  0.00    -0.281 A  
HETATM   10  C   UNL     1     -10.893   8.707  68.943  1.00  0.00     0.008 A  
HETATM   11  C   UNL     1     -10.932  10.084  68.770  1.00  0.00    -0.242 A  
HETATM   12  O   UNL     1     -11.346   8.201  70.124  1.00  0.00    -0.419 OA 
HETATM   13  H   UNL     1     -11.676   8.767  70.811  1.00  0.00     0.000 HD 
HETATM   14  C   UNL     1     -10.503  10.645  67.566  1.00  0.00    -0.272 A  
ENDBRANCH   6   7
ENDBRANCH   2   6
TORSDOF 2
ENDMDL
MODEL      120
REMARK 921   NORMALIZED FREE ENERGY PREDICTED BY IDOCK:   -3.12 KCAL/MOL
REMARK 922        TOTAL FREE ENERGY PREDICTED BY IDOCK:   -3.67 KCAL/MOL
REMARK 923 INTER-LIGAND FREE ENERGY PREDICTED BY IDOCK:   -3.51 KCAL/MOL
REMARK 924 INTRA-LIGAND FREE ENERGY PREDICTED BY IDOCK:   -0.16 KCAL/MOL
REMARK 927      BINDING AFFINITY PREDICTED BY RF-SCORE:    0.00 PKD
ROOT
HETATM    1  C   UNL     1     -10.025   8.436  66.509  1.00  0.00    -0.335 C  
HETATM    2  C   UNL     1     -10.653   7.660  67.668  1.00  0.00    -0.224 C  
HETATM    3  N   UNL     1     -11.513   6.596  67.130  1.00  0.00    -0.746 NA 
HETATM    4  H1  UNL     1     -11.931   6.079  67.903  1.00  0.00     0.000 HD 
HETATM    5  H2  UNL     1     -11.014   5.987  66.481  1.00  0.00     0.000 HD 
ENDROOT
BRANCH   2   6
HETATM    6  C   UNL     1      -9.594   7.044  68.611  1.00  0.00    -0.138 C  
BRANCH   6   7
HETATM    7  C   UNL     1      -9.958   7.123  70.077  1.00  0.00    -0.182 A  
HETATM    8  C   UNL     1     -10.298   5.965  70.795  1.00  0.00    -0.292 A  
HETATM    9  C   UNL     1     -10.677   6.049  72.137  1.00  0.00    -0.270 A  
HETATM   10  C   UNL     1     -10.705   7.288  72.766  1.00  0.00    -0.299 A  
HETATM   11  C   UNL     1     -10.344   8.440  72.080  1.00  0.00    -0.374 A  
HETATM   12  O   UNL     1     -11.087   7.416  74.067  1.00  0.00    -0.426 OA 
HETATM   13  H   UNL     1     -11.107   8.263  74.497  1.00  0.00     0.000 HD 
HETATM   14  C   UNL     1      -9.971   8.359  70.737  1.00  0.00    -0.222 A  
ENDBRANCH   6   7
ENDBRANCH   2   6
TORSDOF 2
ENDMDL
MODEL      121
REMARK 921   NORMALIZED FREE ENERGY PREDICTED BY IDOCK:   -3.11 KCAL/MOL
REMARK 922        TOTAL FREE ENERGY PREDICTED BY IDOCK:   -3.66 KCAL/MOL
REMARK 923 INTER-LIGAND FREE ENERGY PREDICTED BY IDOCK:   -3.51 KCAL/MOL
REMARK 924 INTRA-LIGAND FREE ENERGY PREDICTED BY IDOCK:   -0.15 KCAL/MOL
REMARK 927      BINDING AFFINITY PREDICTED BY RF-SCORE:    0.00 PKD
ROOT
HETATM    1  C   UNL     1     -11.841  12.913  69.053  1.00  0.00    -0.352 C  
HETATM    2  C   UNL     1     -10.777  13.958  68.712  1.00  0.00    -0.262 C  
HETATM    3  N   UNL     1      -9.456  13.314  68.687  1.00  0.00    -0.394 NA 
HETATM    4  H1  UNL     1      -8.747  14.011  68.459  1.00  0.00     0.000 HD 
HETATM    5  H2  UNL     1      -9.428  12.514  68.055  1.00  0.00     0.000 HD 
ENDROOT
BRANCH   2   6
HETATM    6  C   UNL     1     -11.043  14.653  67.357  1.00  0.00    -0.331 C  
BRANCH   6   7
HETATM    7  C   UNL     1     -10.296  15.956  67.180  1.00  0.00    -0.300 A  
HETATM    8  C   UNL     1     -10.698  17.114  67.864  1.00  0.00    -0.355 A  
HETATM    9  C   UNL     1     -10.032  18.325  67.662  1.00  0.00    -0.348 A  
HETATM   10  C   UNL     1      -8.955  18.377  66.785  1.00  0.00    -0.288 A  
HETATM   11  C   UNL     1      -8.525  17.236  66.121  1.00  0.00    -0.216 A  
HETATM   12  O   UNL     1      -8.291  19.542  66.544  1.00  0.00    -0.298 OA 
HETATM   13  H   UNL     1      -7.555  19.578  65.945  1.00  0.00     0.000 HD 
HETATM   14  C   UNL     1      -9.193  16.027  66.317  1.00  0.00    -0.368 A  
ENDBRANCH   6   7
ENDBRANCH   2   6
TORSDOF 2
ENDMDL
MODEL      122
REMARK 921   NORMALIZED FREE ENERGY PREDICTED BY IDOCK:   -3.11 KCAL/MOL
REMARK 922        TOTAL FREE ENERGY PREDICTED BY IDOCK:   -3.66 KCAL/MOL
REMARK 923 INTER-LIGAND FREE ENERGY PREDICTED BY IDOCK:   -3.52 KCAL/MOL
REMARK 924 INTRA-LIGAND FREE ENERGY PREDICTED BY IDOCK:   -0.14 KCAL/MOL
REMARK 927      BINDING AFFINITY PREDICTED BY RF-SCORE:    0.00 PKD
ROOT
HETATM    1  C   UNL     1     -12.425  12.393  70.497  1.00  0.00    -0.270 C  
HETATM    2  C   UNL     1     -11.662  12.231  69.181  1.00  0.00    -0.323 C  
HETATM    3  N   UNL     1     -11.913  10.887  68.639  1.00  0.00    -0.727 NA 
HETATM    4  H1  UNL     1     -11.404  10.779  67.761  1.00  0.00     0.000 HD 
HETATM    5  H2  UNL     1     -12.908  10.692  68.535  1.00  0.00     0.000 HD 
ENDROOT
BRANCH   2   6
HETATM    6  C   UNL     1     -12.056  13.296  68.132  1.00  0.00    -0.248 C  
BRANCH   6   7
HETATM    7  C   UNL     1     -11.232  14.562  68.206  1.00  0.00    -0.295 A  
HETATM    8  C   UNL     1     -11.593  15.605  69.073  1.00  0.00    -0.396 A  
HETATM    9  C   UNL     1     -10.855  16.790  69.104  1.00  0.00    -0.287 A  
HETATM   10  C   UNL     1      -9.745  16.929  68.277  1.00  0.00    -0.256 A  
HETATM   11  C   UNL     1      -9.355  15.896  67.435  1.00  0.00    -0.214 A  
HETATM   12  O   UNL     1      -9.009  18.075  68.262  1.00  0.00    -0.268 OA 
HETATM   13  H   UNL     1      -8.251  18.170  67.697  1.00  0.00     0.000 HD 
HETATM   14  C   UNL     1     -10.096  14.714  67.398  1.00  0.00    -0.232 A  
ENDBRANCH   6   7
ENDBRANCH   2   6
TORSDOF 2
ENDMDL
MODEL      123
REMARK 921   NORMALIZED FREE ENERGY PREDICTED BY IDOCK:   -3.10 KCAL/MOL
REMARK 922        TOTAL FREE ENERGY PREDICTED BY IDOCK:   -3.65 KCAL/MOL
REMARK 923 INTER-LIGAND FREE ENERGY PREDICTED BY IDOCK:   -3.50 KCAL/MOL
REMARK 924 INTRA-LIGAND FREE ENERGY PREDICTED BY IDOCK:   -0.15 KCAL/MOL
REMARK 927      BINDING AFFINITY PREDICTED BY RF-SCORE:    0.00 PKD
ROOT
HETATM    1  C   UNL     1      -8.990  15.654  66.428  1.00  0.00    -0.362 C  
HETATM    2  C   UNL     1      -9.993  14.986  67.371  1.00  0.00    -0.226 C  
HETATM    3  N   UNL     1     -10.805  16.021  68.027  1.00  0.00    -0.324 NA 
HETATM    4  H1  UNL     1     -11.474  15.576  68.655  1.00  0.00     0.000 HD 
HETATM    5  H2  UNL     1     -11.259  16.641  67.355  1.00  0.00     0.000 HD 
ENDROOT
BRANCH   2   6
HETATM    6  C   UNL     1     -10.919  13.987  66.639  1.00  0.00    -0.300 C  
BRANCH   6   7
HETATM    7  C   UNL     1     -11.008  12.633  67.306  1.00  0.00    -0.291 A  
HETATM    8  C   UNL     1     -11.514  12.506  68.609  1.00  0.00    -0.348 A  
HETATM    9  C   UNL     1     -11.552  11.259  69.238  1.00  0.00    -0.390 A  
HETATM   10  C   UNL     1     -11.096  10.135  68.559  1.00  0.00    -0.214 A  
HETATM   11  C   UNL     1     -10.619  10.236  67.259  1.00  0.00    -0.324 A  
HETATM   12  O   UNL     1     -11.098   8.903  69.142  1.00  0.00    -0.429 OA 
HETATM   13  H   UNL     1     -10.786   8.135  68.678  1.00  0.00     0.000 HD 
HETATM   14  C   UNL     1     -10.574  11.482  66.632  1.00  0.00    -0.294 A  
ENDBRANCH   6   7
ENDBRANCH   2   6
TORSDOF 2
ENDMDL
MODEL      124
REMARK 921   NORMALIZED FREE ENERGY PREDICTED BY IDOCK:   -3.10 KCAL/MOL
REMARK 922        TOTAL FREE ENERGY PREDICTED BY IDOCK:   -3.65 KCAL/MOL
REMARK 923 INTER-LIGAND FREE ENERGY PREDICTED BY IDOCK:   -3.51 KCAL/MOL
REMARK 924 INTRA-LIGAND FREE ENERGY PREDICTED BY IDOCK:   -0.13 KCAL/MOL
REMARK 927      BINDING AFFINITY PREDICTED BY RF-SCORE:    0.00 PKD
ROOT
HETATM    1  C   UNL     1     -10.509   8.456  67.694  1.00  0.00    -0.307 C  
HETATM    2  C   UNL     1     -10.239   9.894  67.246  1.00  0.00    -0.222 C  
HETATM    3  N   UNL     1      -9.997   9.912  65.796  1.00  0.00    -0.284 NA 
HETATM    4  H1  UNL     1      -9.817  10.870  65.497  1.00  0.00     0.000 HD 
HETATM    5  H2  UNL     1     -10.758   9.479  65.271  1.00  0.00     0.000 HD 
ENDROOT
BRANCH   2   6
HETATM    6  C   UNL     1     -11.405  10.849  67.590  1.00  0.00    -0.345 C  
BRANCH   6   7
HETATM    7  C   UNL     1     -11.236  12.246  67.034  1.00  0.00    -0.367 A  
HETATM    8  C   UNL     1     -10.169  13.060  67.448  1.00  0.00    -0.231 A  
HETATM    9  C   UNL     1     -10.044  14.365  66.966  1.00  0.00    -0.256 A  
HETATM   10  C   UNL     1     -10.977  14.853  66.058  1.00  0.00    -0.334 A  
HETATM   11  C   UNL     1     -12.021  14.053  65.614  1.00  0.00    -0.408 A  
HETATM   12  O   UNL     1     -10.902  16.126  65.577  1.00  0.00    -0.332 OA 
HETATM   13  H   UNL     1     -11.540  16.460  64.957  1.00  0.00     0.000 HD 
HETATM   14  C   UNL     1     -12.152  12.751  66.100  1.00  0.00    -0.429 A  
ENDBRANCH   6   7
ENDBRANCH   2   6
TORSDOF 2
ENDMDL
MODEL      125
REMARK 921   NORMALIZED FREE ENERGY PREDICTED BY IDOCK:   -3.09 KCAL/MOL
REMARK 922        TOTAL FREE ENERGY PREDICTED BY IDOCK:   -3.64 KCAL/MOL
REMARK 923 INTER-LIGAND FREE ENERGY PREDICTED BY IDOCK:   -3.54 KCAL/MOL
REMARK 924 INTRA-LIGAND FREE ENERGY PREDICTED BY IDOCK:   -0.10 KCAL/MOL
REMARK 927      BINDING AFFINITY PREDICTED BY RF-SCORE:    0.00 PKD
ROOT
HETATM    1  C   UNL     1     -11.052  14.969  67.321  1.00  0.00    -0.334 C  
HETATM    2  C   UNL     1      -9.757  15.080  68.129  1.00  0.00    -0.215 C  
HETATM    3  N   UNL     1      -9.475  13.788  68.771  1.00  0.00    -0.394 NA 
HETATM    4  H1  UNL     1      -8.612  13.862  69.309  1.00  0.00     0.000 HD 
HETATM    5  H2  UNL     1      -9.448  13.020  68.100  1.00  0.00     0.000 HD 
ENDROOT
BRANCH   2   6
HETATM    6  C   UNL     1      -8.551  15.502  67.259  1.00  0.00    -0.215 C  
BRANCH   6   7
HETATM    7  C   UNL     1      -8.396  16.999  67.111  1.00  0.00    -0.213 A  
HETATM    8  C   UNL     1      -7.448  17.540  66.227  1.00  0.00    -0.355 A  
HETATM    9  C   UNL     1      -7.278  18.922  66.128  1.00  0.00    -0.288 A  
HETATM   10  C   UNL     1      -8.065  19.768  66.903  1.00  0.00    -0.297 A  
HETATM   11  C   UNL     1      -9.027  19.252  67.761  1.00  0.00    -0.354 A  
HETATM   12  O   UNL     1      -7.918  21.121  66.851  1.00  0.00    -0.609 OA 
HETATM   13  H   UNL     1      -8.455  21.699  67.380  1.00  0.00     0.000 HD 
HETATM   14  C   UNL     1      -9.194  17.871  67.866  1.00  0.00    -0.263 A  
ENDBRANCH   6   7
ENDBRANCH   2   6
TORSDOF 2
ENDMDL
MODEL      126
REMARK 921   NORMALIZED FREE ENERGY PREDICTED BY IDOCK:   -3.04 KCAL/MOL
REMARK 922        TOTAL FREE ENERGY PREDICTED BY IDOCK:   -3.59 KCAL/MOL
REMARK 923 INTER-LIGAND FREE ENERGY PREDICTED BY IDOCK:   -3.39 KCAL/MOL
REMARK 924 INTRA-LIGAND FREE ENERGY PREDICTED BY IDOCK:   -0.20 KCAL/MOL
REMARK 927      BINDING AFFINITY PREDICTED BY RF-SCORE:    0.00 PKD
ROOT
HETATM    1  C   UNL     1      -8.960   4.774  66.638  1.00  0.00    -0.111 C  
HETATM    2  C   UNL     1     -10.246   5.508  66.252  1.00  0.00    -0.153 C  
HETATM    3  N   UNL     1     -11.105   4.602  65.475  1.00  0.00    -0.942 NA 
HETATM    4  H1  UNL     1     -11.962   5.091  65.218  1.00  0.00     0.000 HD 
HETATM    5  H2  UNL     1     -11.291   3.728  65.968  1.00  0.00     0.000 HD 
ENDROOT
BRANCH   2   6
HETATM    6  C   UNL     1     -11.021   6.032  67.482  1.00  0.00    -0.335 C  
BRANCH   6   7
HETATM    7  C   UNL     1     -10.628   7.430  67.903  1.00  0.00    -0.255 A  
HETATM    8  C   UNL     1     -10.348   8.418  66.945  1.00  0.00    -0.378 A  
HETATM    9  C   UNL     1      -9.942   9.695  67.339  1.00  0.00    -0.237 A  
HETATM   10  C   UNL     1      -9.828   9.990  68.693  1.00  0.00    -0.160 A  
HETATM   11  C   UNL     1     -10.129   9.036  69.656  1.00  0.00    -0.202 A  
HETATM   12  O   UNL     1      -9.416  11.217  69.120  1.00  0.00    -0.394 OA 
HETATM   13  H   UNL     1      -9.338  11.419  70.045  1.00  0.00     0.000 HD 
HETATM   14  C   UNL     1     -10.528   7.758  69.263  1.00  0.00    -0.221 A  
ENDBRANCH   6   7
ENDBRANCH   2   6
TORSDOF 2
ENDMDL
MODEL      127
REMARK 921   NORMALIZED FREE ENERGY PREDICTED BY IDOCK:   -3.03 KCAL/MOL
REMARK 922        TOTAL FREE ENERGY PREDICTED BY IDOCK:   -3.57 KCAL/MOL
REMARK 923 INTER-LIGAND FREE ENERGY PREDICTED BY IDOCK:   -3.40 KCAL/MOL
REMARK 924 INTRA-LIGAND FREE ENERGY PREDICTED BY IDOCK:   -0.16 KCAL/MOL
REMARK 927      BINDING AFFINITY PREDICTED BY RF-SCORE:    0.00 PKD
ROOT
HETATM    1  C   UNL     1     -10.157  14.840  66.201  1.00  0.00    -0.312 C  
HETATM    2  C   UNL     1     -10.168  13.384  65.729  1.00  0.00    -0.295 C  
HETATM    3  N   UNL     1      -9.920  13.344  64.280  1.00  0.00    -0.746 NA 
HETATM    4  H1  UNL     1      -9.927  12.374  63.965  1.00  0.00     0.000 HD 
HETATM    5  H2  UNL     1      -9.061  13.829  64.021  1.00  0.00     0.000 HD 
ENDROOT
BRANCH   2   6
HETATM    6  C   UNL     1      -9.117  12.517  66.460  1.00  0.00    -0.177 C  
BRANCH   6   7
HETATM    7  C   UNL     1      -9.710  11.371  67.248  1.00  0.00    -0.201 A  
HETATM    8  C   UNL     1      -9.948  11.494  68.626  1.00  0.00    -0.207 A  
HETATM    9  C   UNL     1     -10.454  10.418  69.358  1.00  0.00    -0.261 A  
HETATM   10  C   UNL     1     -10.735   9.220  68.711  1.00  0.00    -0.154 A  
HETATM   11  C   UNL     1     -10.534   9.089  67.343  1.00  0.00    -0.338 A  
HETATM   12  O   UNL     1     -11.211   8.139  69.391  1.00  0.00    -0.440 OA 
HETATM   13  H   UNL     1     -11.403   7.321  68.949  1.00  0.00     0.000 HD 
HETATM   14  C   UNL     1     -10.022  10.161  66.612  1.00  0.00    -0.272 A  
ENDBRANCH   6   7
ENDBRANCH   2   6
TORSDOF 2
ENDMDL
MODEL      128
REMARK 921   NORMALIZED FREE ENERGY PREDICTED BY IDOCK:   -3.01 KCAL/MOL
REMARK 922        TOTAL FREE ENERGY PREDICTED BY IDOCK:   -3.55 KCAL/MOL
REMARK 923 INTER-LIGAND FREE ENERGY PREDICTED BY IDOCK:   -3.38 KCAL/MOL
REMARK 924 INTRA-LIGAND FREE ENERGY PREDICTED BY IDOCK:   -0.18 KCAL/MOL
REMARK 927      BINDING AFFINITY PREDICTED BY RF-SCORE:    0.00 PKD
ROOT
HETATM    1  C   UNL     1     -10.357   7.833  73.060  1.00  0.00    -0.410 C  
HETATM    2  C   UNL     1     -11.611   7.915  72.188  1.00  0.00    -0.328 C  
HETATM    3  N   UNL     1     -12.686   8.573  72.945  1.00  0.00    -0.658 NA 
HETATM    4  H1  UNL     1     -13.522   8.628  72.364  1.00  0.00     0.000 HD 
HETATM    5  H2  UNL     1     -12.403   9.486  73.303  1.00  0.00     0.000 HD 
ENDROOT
BRANCH   2   6
HETATM    6  C   UNL     1     -11.365   8.677  70.866  1.00  0.00    -0.314 C  
BRANCH   6   7
HETATM    7  C   UNL     1     -10.892   7.798  69.730  1.00  0.00    -0.211 A  
HETATM    8  C   UNL     1     -10.251   8.352  68.611  1.00  0.00    -0.220 A  
HETATM    9  C   UNL     1      -9.856   7.541  67.545  1.00  0.00    -0.209 A  
HETATM   10  C   UNL     1     -10.090   6.171  67.602  1.00  0.00    -0.155 A  
HETATM   11  C   UNL     1     -10.695   5.601  68.714  1.00  0.00    -0.267 A  
HETATM   12  O   UNL     1      -9.738   5.347  66.575  1.00  0.00    -0.145 OA 
HETATM   13  H   UNL     1      -9.898   4.412  66.614  1.00  0.00     0.000 HD 
HETATM   14  C   UNL     1     -11.096   6.411  69.777  1.00  0.00    -0.459 A  
ENDBRANCH   6   7
ENDBRANCH   2   6
TORSDOF 2
ENDMDL
MODEL      129
REMARK 921   NORMALIZED FREE ENERGY PREDICTED BY IDOCK:   -2.99 KCAL/MOL
REMARK 922        TOTAL FREE ENERGY PREDICTED BY IDOCK:   -3.53 KCAL/MOL
REMARK 923 INTER-LIGAND FREE ENERGY PREDICTED BY IDOCK:   -3.35 KCAL/MOL
REMARK 924 INTRA-LIGAND FREE ENERGY PREDICTED BY IDOCK:   -0.17 KCAL/MOL
REMARK 927      BINDING AFFINITY PREDICTED BY RF-SCORE:    0.00 PKD
ROOT
HETATM    1  C   UNL     1      -9.419   6.720  69.290  1.00  0.00    -0.142 C  
HETATM    2  C   UNL     1     -10.318   7.336  68.216  1.00  0.00    -0.193 C  
HETATM    3  N   UNL     1     -11.625   6.661  68.234  1.00  0.00    -0.442 NA 
HETATM    4  H1  UNL     1     -12.224   7.071  67.518  1.00  0.00     0.000 HD 
HETATM    5  H2  UNL     1     -12.057   6.680  69.157  1.00  0.00     0.000 HD 
ENDROOT
BRANCH   2   6
HETATM    6  C   UNL     1     -10.516   8.856  68.409  1.00  0.00    -0.230 C  
BRANCH   6   7
HETATM    7  C   UNL     1     -10.373   9.660  67.136  1.00  0.00    -0.319 A  
HETATM    8  C   UNL     1     -10.956  10.932  67.019  1.00  0.00    -0.310 A  
HETATM    9  C   UNL     1     -10.860  11.650  65.826  1.00  0.00    -0.334 A  
HETATM   10  C   UNL     1     -10.168  11.103  64.750  1.00  0.00    -0.306 A  
HETATM   11  C   UNL     1      -9.560   9.859  64.856  1.00  0.00    -0.356 A  
HETATM   12  O   UNL     1     -10.067  11.762  63.562  1.00  0.00    -0.365 OA 
HETATM   13  H   UNL     1      -9.595  11.388  62.827  1.00  0.00     0.000 HD 
HETATM   14  C   UNL     1      -9.661   9.138  66.046  1.00  0.00    -0.358 A  
ENDBRANCH   6   7
ENDBRANCH   2   6
TORSDOF 2
ENDMDL
MODEL      130
REMARK 921   NORMALIZED FREE ENERGY PREDICTED BY IDOCK:   -2.98 KCAL/MOL
REMARK 922        TOTAL FREE ENERGY PREDICTED BY IDOCK:   -3.52 KCAL/MOL
REMARK 923 INTER-LIGAND FREE ENERGY PREDICTED BY IDOCK:   -3.35 KCAL/MOL
REMARK 924 INTRA-LIGAND FREE ENERGY PREDICTED BY IDOCK:   -0.17 KCAL/MOL
REMARK 927      BINDING AFFINITY PREDICTED BY RF-SCORE:    0.00 PKD
ROOT
HETATM    1  C   UNL     1      -8.682   6.070  66.190  1.00  0.00    -0.146 C  
HETATM    2  C   UNL     1      -9.904   6.860  66.664  1.00  0.00    -0.153 C  
HETATM    3  N   UNL     1     -11.111   6.042  66.477  1.00  0.00    -0.761 NA 
HETATM    4  H1  UNL     1     -11.926   6.569  66.793  1.00  0.00     0.000 HD 
HETATM    5  H2  UNL     1     -11.037   5.133  66.934  1.00  0.00     0.000 HD 
ENDROOT
BRANCH   2   6
HETATM    6  C   UNL     1      -9.792   7.290  68.145  1.00  0.00    -0.165 C  
BRANCH   6   7
HETATM    7  C   UNL     1     -10.384   8.652  68.433  1.00  0.00    -0.239 A  
HETATM    8  C   UNL     1     -10.696   9.036  69.747  1.00  0.00    -0.233 A  
HETATM    9  C   UNL     1     -11.284  10.277  70.003  1.00  0.00    -0.376 A  
HETATM   10  C   UNL     1     -11.548  11.142  68.946  1.00  0.00    -0.317 A  
HETATM   11  C   UNL     1     -11.219  10.791  67.644  1.00  0.00    -0.370 A  
HETATM   12  O   UNL     1     -12.138  12.353  69.150  1.00  0.00    -0.253 OA 
HETATM   13  H   UNL     1     -12.319  12.943  68.428  1.00  0.00     0.000 HD 
HETATM   14  C   UNL     1     -10.638   9.549  67.386  1.00  0.00    -0.337 A  
ENDBRANCH   6   7
ENDBRANCH   2   6
TORSDOF 2
ENDMDL
MODEL      131
REMARK 921   NORMALIZED FREE ENERGY PREDICTED BY IDOCK:   -2.96 KCAL/MOL
REMARK 922        TOTAL FREE ENERGY PREDICTED BY IDOCK:   -3.50 KCAL/MOL
REMARK 923 INTER-LIGAND FREE ENERGY PREDICTED BY IDOCK:   -3.46 KCAL/MOL
REMARK 924 INTRA-LIGAND FREE ENERGY PREDICTED BY IDOCK:   -0.03 KCAL/MOL
REMARK 927      BINDING AFFINITY PREDICTED BY RF-SCORE:    0.00 PKD
ROOT
HETATM    1  C   UNL     1     -11.014   6.395  66.956  1.00  0.00    -0.463 C  
HETATM    2  C   UNL     1      -9.933   7.396  67.367  1.00  0.00    -0.183 C  
HETATM    3  N   UNL     1      -9.235   7.875  66.165  1.00  0.00    -0.300 NA 
HETATM    4  H1  UNL     1      -8.515   8.543  66.438  1.00  0.00     0.000 HD 
HETATM    5  H2  UNL     1      -9.877   8.260  65.472  1.00  0.00     0.000 HD 
ENDROOT
BRANCH   2   6
HETATM    6  C   UNL     1     -10.508   8.601  68.147  1.00  0.00    -0.241 C  
BRANCH   6   7
HETATM    7  C   UNL     1     -10.744   8.323  69.615  1.00  0.00    -0.196 A  
HETATM    8  C   UNL     1     -11.379   9.272  70.433  1.00  0.00    -0.283 A  
HETATM    9  C   UNL     1     -11.554   9.030  71.797  1.00  0.00    -0.444 A  
HETATM   10  C   UNL     1     -11.106   7.832  72.343  1.00  0.00    -0.323 A  
HETATM   11  C   UNL     1     -10.503   6.869  71.545  1.00  0.00    -0.231 A  
HETATM   12  O   UNL     1     -11.240   7.564  73.673  1.00  0.00    -0.583 OA 
HETATM   13  H   UNL     1     -10.934   6.746  74.046  1.00  0.00     0.000 HD 
HETATM   14  C   UNL     1     -10.322   7.113  70.183  1.00  0.00    -0.218 A  
ENDBRANCH   6   7
ENDBRANCH   2   6
TORSDOF 2
ENDMDL
MODEL      132
REMARK 921   NORMALIZED FREE ENERGY PREDICTED BY IDOCK:   -2.96 KCAL/MOL
REMARK 922        TOTAL FREE ENERGY PREDICTED BY IDOCK:   -3.49 KCAL/MOL
REMARK 923 INTER-LIGAND FREE ENERGY PREDICTED BY IDOCK:   -3.32 KCAL/MOL
REMARK 924 INTRA-LIGAND FREE ENERGY PREDICTED BY IDOCK:   -0.17 KCAL/MOL
REMARK 927      BINDING AFFINITY PREDICTED BY RF-SCORE:    0.00 PKD
ROOT
HETATM    1  C   UNL     1     -11.043   7.673  73.059  1.00  0.00    -0.437 C  
HETATM    2  C   UNL     1     -12.073   8.389  72.182  1.00  0.00    -0.373 C  
HETATM    3  N   UNL     1     -13.205   8.816  73.017  1.00  0.00    -0.854 NA 
HETATM    4  H1  UNL     1     -13.892   9.293  72.432  1.00  0.00     0.000 HD 
HETATM    5  H2  UNL     1     -12.909   9.386  73.809  1.00  0.00     0.000 HD 
ENDROOT
BRANCH   2   6
HETATM    6  C   UNL     1     -11.478   9.612  71.449  1.00  0.00    -0.455 C  
BRANCH   6   7
HETATM    7  C   UNL     1     -10.666   9.256  70.223  1.00  0.00    -0.284 A  
HETATM    8  C   UNL     1      -9.607  10.075  69.800  1.00  0.00    -0.249 A  
HETATM    9  C   UNL     1      -8.889   9.766  68.642  1.00  0.00    -0.126 A  
HETATM   10  C   UNL     1      -9.221   8.630  67.913  1.00  0.00    -0.139 A  
HETATM   11  C   UNL     1     -10.246   7.792  68.332  1.00  0.00    -0.230 A  
HETATM   12  O   UNL     1      -8.559   8.302  66.768  1.00  0.00    -0.121 OA 
HETATM   13  H   UNL     1      -8.786   7.526  66.269  1.00  0.00     0.000 HD 
HETATM   14  C   UNL     1     -10.968   8.103  69.485  1.00  0.00    -0.056 A  
ENDBRANCH   6   7
ENDBRANCH   2   6
TORSDOF 2
ENDMDL
MODEL      133
REMARK 921   NORMALIZED FREE ENERGY PREDICTED BY IDOCK:   -2.96 KCAL/MOL
REMARK 922        TOTAL FREE ENERGY PREDICTED BY IDOCK:   -3.49 KCAL/MOL
REMARK 923 INTER-LIGAND FREE ENERGY PREDICTED BY IDOCK:   -3.38 KCAL/MOL
REMARK 924 INTRA-LIGAND FREE ENERGY PREDICTED BY IDOCK:   -0.11 KCAL/MOL
REMARK 927      BINDING AFFINITY PREDICTED BY RF-SCORE:    0.00 PKD
ROOT
HETATM    1  C   UNL     1     -10.466   7.254  67.528  1.00  0.00    -0.337 C  
HETATM    2  C   UNL     1      -9.947   8.643  67.153  1.00  0.00    -0.231 C  
HETATM    3  N   UNL     1      -9.776   8.719  65.695  1.00  0.00    -0.455 NA 
HETATM    4  H1  UNL     1      -9.430   9.645  65.445  1.00  0.00     0.000 HD 
HETATM    5  H2  UNL     1     -10.631   8.477  65.193  1.00  0.00     0.000 HD 
ENDROOT
BRANCH   2   6
HETATM    6  C   UNL     1     -10.889   9.775  67.626  1.00  0.00    -0.301 C  
BRANCH   6   7
HETATM    7  C   UNL     1     -10.438  11.158  67.214  1.00  0.00    -0.263 A  
HETATM    8  C   UNL     1     -11.112  11.862  66.203  1.00  0.00    -0.374 A  
HETATM    9  C   UNL     1     -10.664  13.121  65.795  1.00  0.00    -0.292 A  
HETATM   10  C   UNL     1      -9.550  13.684  66.408  1.00  0.00    -0.268 A  
HETATM   11  C   UNL     1      -8.889  13.016  67.430  1.00  0.00    -0.203 A  
HETATM   12  O   UNL     1      -9.069  14.901  66.027  1.00  0.00    -0.475 OA 
HETATM   13  H   UNL     1      -8.307  15.285  66.446  1.00  0.00     0.000 HD 
HETATM   14  C   UNL     1      -9.331  11.755  67.833  1.00  0.00    -0.184 A  
ENDBRANCH   6   7
ENDBRANCH   2   6
TORSDOF 2
ENDMDL
MODEL      134
REMARK 921   NORMALIZED FREE ENERGY PREDICTED BY IDOCK:   -2.96 KCAL/MOL
REMARK 922        TOTAL FREE ENERGY PREDICTED BY IDOCK:   -3.49 KCAL/MOL
REMARK 923 INTER-LIGAND FREE ENERGY PREDICTED BY IDOCK:   -3.33 KCAL/MOL
REMARK 924 INTRA-LIGAND FREE ENERGY PREDICTED BY IDOCK:   -0.16 KCAL/MOL
REMARK 927      BINDING AFFINITY PREDICTED BY RF-SCORE:    0.00 PKD
ROOT
HETATM    1  C   UNL     1     -10.859  16.235  69.975  1.00  0.00    -0.329 C  
HETATM    2  C   UNL     1     -11.619  14.942  69.668  1.00  0.00    -0.303 C  
HETATM    3  N   UNL     1     -12.979  15.038  70.219  1.00  0.00    -0.627 NA 
HETATM    4  H1  UNL     1     -13.486  14.177  70.014  1.00  0.00     0.000 HD 
HETATM    5  H2  UNL     1     -13.474  15.866  69.887  1.00  0.00     0.000 HD 
ENDROOT
BRANCH   2   6
HETATM    6  C   UNL     1     -11.692  14.645  68.153  1.00  0.00    -0.360 C  
BRANCH   6   7
HETATM    7  C   UNL     1     -11.103  13.308  67.762  1.00  0.00    -0.289 A  
HETATM    8  C   UNL     1     -11.726  12.502  66.796  1.00  0.00    -0.453 A  
HETATM    9  C   UNL     1     -11.203  11.249  66.472  1.00  0.00    -0.222 A  
HETATM   10  C   UNL     1     -10.046  10.805  67.103  1.00  0.00    -0.204 A  
HETATM   11  C   UNL     1      -9.399  11.600  68.039  1.00  0.00    -0.178 A  
HETATM   12  O   UNL     1      -9.513   9.581  66.830  1.00  0.00    -0.152 OA 
HETATM   13  H   UNL     1      -8.723   9.277  67.262  1.00  0.00     0.000 HD 
HETATM   14  C   UNL     1      -9.925  12.850  68.369  1.00  0.00    -0.211 A  
ENDBRANCH   6   7
ENDBRANCH   2   6
TORSDOF 2
ENDMDL
MODEL      135
REMARK 921   NORMALIZED FREE ENERGY PREDICTED BY IDOCK:   -2.95 KCAL/MOL
REMARK 922        TOTAL FREE ENERGY PREDICTED BY IDOCK:   -3.49 KCAL/MOL
REMARK 923 INTER-LIGAND FREE ENERGY PREDICTED BY IDOCK:   -3.31 KCAL/MOL
REMARK 924 INTRA-LIGAND FREE ENERGY PREDICTED BY IDOCK:   -0.18 KCAL/MOL
REMARK 927      BINDING AFFINITY PREDICTED BY RF-SCORE:    0.00 PKD
ROOT
HETATM    1  C   UNL     1     -11.476   5.570  72.696  1.00  0.00    -0.331 C  
HETATM    2  C   UNL     1     -10.993   6.519  71.597  1.00  0.00    -0.249 C  
HETATM    3  N   UNL     1     -10.610   7.804  72.201  1.00  0.00    -0.225 NA 
HETATM    4  H1  UNL     1     -10.287   8.436  71.469  1.00  0.00     0.000 HD 
HETATM    5  H2  UNL     1      -9.921   7.691  72.946  1.00  0.00     0.000 HD 
ENDROOT
BRANCH   2   6
HETATM    6  C   UNL     1      -9.800   5.944  70.801  1.00  0.00    -0.229 C  
BRANCH   6   7
HETATM    7  C   UNL     1     -10.110   5.669  69.346  1.00  0.00    -0.290 A  
HETATM    8  C   UNL     1     -10.935   6.535  68.612  1.00  0.00    -0.363 A  
HETATM    9  C   UNL     1     -11.255   6.253  67.282  1.00  0.00    -0.254 A  
HETATM   10  C   UNL     1     -10.738   5.111  66.680  1.00  0.00    -0.153 A  
HETATM   11  C   UNL     1      -9.896   4.259  67.381  1.00  0.00    -0.176 A  
HETATM   12  O   UNL     1     -11.040   4.789  65.391  1.00  0.00    -0.812 OA 
HETATM   13  H   UNL     1     -10.688   4.009  64.979  1.00  0.00     0.000 HD 
HETATM   14  C   UNL     1      -9.581   4.536  68.712  1.00  0.00    -0.227 A  
ENDBRANCH   6   7
ENDBRANCH   2   6
TORSDOF 2
ENDMDL
MODEL      136
REMARK 921   NORMALIZED FREE ENERGY PREDICTED BY IDOCK:   -2.95 KCAL/MOL
REMARK 922        TOTAL FREE ENERGY PREDICTED BY IDOCK:   -3.48 KCAL/MOL
REMARK 923 INTER-LIGAND FREE ENERGY PREDICTED BY IDOCK:   -3.32 KCAL/MOL
REMARK 924 INTRA-LIGAND FREE ENERGY PREDICTED BY IDOCK:   -0.16 KCAL/MOL
REMARK 927      BINDING AFFINITY PREDICTED BY RF-SCORE:    0.00 PKD
ROOT
HETATM    1  C   UNL     1     -10.429   4.857  66.254  1.00  0.00    -0.349 C  
HETATM    2  C   UNL     1      -9.591   5.790  67.131  1.00  0.00    -0.127 C  
HETATM    3  N   UNL     1      -8.318   6.078  66.453  1.00  0.00    -0.115 NA 
HETATM    4  H1  UNL     1      -7.759   6.699  67.037  1.00  0.00     0.000 HD 
HETATM    5  H2  UNL     1      -8.457   6.450  65.513  1.00  0.00     0.000 HD 
ENDROOT
BRANCH   2   6
HETATM    6  C   UNL     1     -10.319   7.115  67.452  1.00  0.00    -0.324 C  
BRANCH   6   7
HETATM    7  C   UNL     1     -10.684   7.275  68.911  1.00  0.00    -0.173 A  
HETATM    8  C   UNL     1     -11.098   6.172  69.674  1.00  0.00    -0.489 A  
HETATM    9  C   UNL     1     -11.477   6.333  71.008  1.00  0.00    -0.370 A  
HETATM   10  C   UNL     1     -11.430   7.597  71.586  1.00  0.00    -0.260 A  
HETATM   11  C   UNL     1     -10.994   8.695  70.856  1.00  0.00    -0.301 A  
HETATM   12  O   UNL     1     -11.809   7.802  72.879  1.00  0.00    -0.597 OA 
HETATM   13  H   UNL     1     -11.776   8.665  73.274  1.00  0.00     0.000 HD 
HETATM   14  C   UNL     1     -10.622   8.536  69.521  1.00  0.00    -0.215 A  
ENDBRANCH   6   7
ENDBRANCH   2   6
TORSDOF 2
ENDMDL
MODEL      137
REMARK 921   NORMALIZED FREE ENERGY PREDICTED BY IDOCK:   -2.94 KCAL/MOL
REMARK 922        TOTAL FREE ENERGY PREDICTED BY IDOCK:   -3.47 KCAL/MOL
REMARK 923 INTER-LIGAND FREE ENERGY PREDICTED BY IDOCK:   -3.29 KCAL/MOL
REMARK 924 INTRA-LIGAND FREE ENERGY PREDICTED BY IDOCK:   -0.18 KCAL/MOL
REMARK 927      BINDING AFFINITY PREDICTED BY RF-SCORE:    0.00 PKD
ROOT
HETATM    1  C   UNL     1      -8.639   4.808  71.796  1.00  0.00    -0.129 C  
HETATM    2  C   UNL     1      -9.999   4.795  72.497  1.00  0.00    -0.166 C  
HETATM    3  N   UNL     1     -10.069   3.634  73.397  1.00  0.00    -0.128 NA 
HETATM    4  H1  UNL     1     -10.975   3.626  73.864  1.00  0.00     0.000 HD 
HETATM    5  H2  UNL     1      -9.292   3.610  74.058  1.00  0.00     0.000 HD 
ENDROOT
BRANCH   2   6
HETATM    6  C   UNL     1     -10.263   6.090  73.299  1.00  0.00    -0.218 C  
BRANCH   6   7
HETATM    7  C   UNL     1     -11.120   7.099  72.568  1.00  0.00    -0.317 A  
HETATM    8  C   UNL     1     -10.645   8.396  72.314  1.00  0.00    -0.412 A  
HETATM    9  C   UNL     1     -11.458   9.338  71.679  1.00  0.00    -0.468 A  
HETATM   10  C   UNL     1     -12.742   8.980  71.284  1.00  0.00    -0.262 A  
HETATM   11  C   UNL     1     -13.218   7.694  71.500  1.00  0.00    -0.380 A  
HETATM   12  O   UNL     1     -13.574   9.874  70.678  1.00  0.00    -0.574 OA 
HETATM   13  H   UNL     1     -14.452   9.630  70.409  1.00  0.00     0.000 HD 
HETATM   14  C   UNL     1     -12.410   6.754  72.141  1.00  0.00    -0.234 A  
ENDBRANCH   6   7
ENDBRANCH   2   6
TORSDOF 2
ENDMDL
MODEL      138
REMARK 921   NORMALIZED FREE ENERGY PREDICTED BY IDOCK:   -2.92 KCAL/MOL
REMARK 922        TOTAL FREE ENERGY PREDICTED BY IDOCK:   -3.44 KCAL/MOL
REMARK 923 INTER-LIGAND FREE ENERGY PREDICTED BY IDOCK:   -3.47 KCAL/MOL
REMARK 924 INTRA-LIGAND FREE ENERGY PREDICTED BY IDOCK:    0.03 KCAL/MOL
REMARK 927      BINDING AFFINITY PREDICTED BY RF-SCORE:    0.00 PKD
ROOT
HETATM    1  C   UNL     1      -9.293  15.768  66.156  1.00  0.00    -0.381 C  
HETATM    2  C   UNL     1      -8.075  15.522  67.048  1.00  0.00    -0.237 C  
HETATM    3  N   UNL     1      -7.669  16.789  67.674  1.00  0.00    -0.164 NA 
HETATM    4  H1  UNL     1      -6.858  16.625  68.269  1.00  0.00     0.000 HD 
HETATM    5  H2  UNL     1      -8.436  17.234  68.179  1.00  0.00     0.000 HD 
ENDROOT
BRANCH   2   6
HETATM    6  C   UNL     1      -8.348  14.466  68.144  1.00  0.00    -0.158 C  
BRANCH   6   7
HETATM    7  C   UNL     1      -9.707  14.596  68.795  1.00  0.00    -0.217 A  
HETATM    8  C   UNL     1     -10.761  13.743  68.434  1.00  0.00    -0.266 A  
HETATM    9  C   UNL     1     -12.026  13.897  69.005  1.00  0.00    -0.402 A  
HETATM   10  C   UNL     1     -12.235  14.896  69.950  1.00  0.00    -0.309 A  
HETATM   11  C   UNL     1     -11.197  15.730  70.341  1.00  0.00    -0.383 A  
HETATM   12  O   UNL     1     -13.458  15.092  70.518  1.00  0.00    -0.672 OA 
HETATM   13  H   UNL     1     -13.601  15.775  71.162  1.00  0.00     0.000 HD 
HETATM   14  C   UNL     1      -9.934  15.582  69.766  1.00  0.00    -0.281 A  
ENDBRANCH   6   7
ENDBRANCH   2   6
TORSDOF 2
ENDMDL
MODEL      139
REMARK 921   NORMALIZED FREE ENERGY PREDICTED BY IDOCK:   -2.88 KCAL/MOL
REMARK 922        TOTAL FREE ENERGY PREDICTED BY IDOCK:   -3.40 KCAL/MOL
REMARK 923 INTER-LIGAND FREE ENERGY PREDICTED BY IDOCK:   -3.25 KCAL/MOL
REMARK 924 INTRA-LIGAND FREE ENERGY PREDICTED BY IDOCK:   -0.16 KCAL/MOL
REMARK 927      BINDING AFFINITY PREDICTED BY RF-SCORE:    0.00 PKD
ROOT
HETATM    1  C   UNL     1     -11.453  16.010  70.225  1.00  0.00    -0.369 C  
HETATM    2  C   UNL     1     -11.119  14.986  69.139  1.00  0.00    -0.270 C  
HETATM    3  N   UNL     1     -12.356  14.319  68.706  1.00  0.00    -0.573 NA 
HETATM    4  H1  UNL     1     -12.133  13.637  67.981  1.00  0.00     0.000 HD 
HETATM    5  H2  UNL     1     -13.069  14.984  68.405  1.00  0.00     0.000 HD 
ENDROOT
BRANCH   2   6
HETATM    6  C   UNL     1     -10.419  15.626  67.917  1.00  0.00    -0.267 C  
BRANCH   6   7
HETATM    7  C   UNL     1      -9.289  16.563  68.281  1.00  0.00    -0.217 A  
HETATM    8  C   UNL     1      -9.353  17.927  67.956  1.00  0.00    -0.274 A  
HETATM    9  C   UNL     1      -8.287  18.779  68.253  1.00  0.00    -0.360 A  
HETATM   10  C   UNL     1      -7.159  18.270  68.888  1.00  0.00    -0.274 A  
HETATM   11  C   UNL     1      -7.090  16.930  69.243  1.00  0.00    -0.192 A  
HETATM   12  O   UNL     1      -6.089  19.062  69.178  1.00  0.00    -0.234 OA 
HETATM   13  H   UNL     1      -5.319  18.715  69.612  1.00  0.00     0.000 HD 
HETATM   14  C   UNL     1      -8.151  16.076  68.941  1.00  0.00    -0.218 A  
ENDBRANCH   6   7
ENDBRANCH   2   6
TORSDOF 2
ENDMDL
MODEL      140
REMARK 921   NORMALIZED FREE ENERGY PREDICTED BY IDOCK:   -2.86 KCAL/MOL
REMARK 922        TOTAL FREE ENERGY PREDICTED BY IDOCK:   -3.38 KCAL/MOL
REMARK 923 INTER-LIGAND FREE ENERGY PREDICTED BY IDOCK:   -3.52 KCAL/MOL
REMARK 924 INTRA-LIGAND FREE ENERGY PREDICTED BY IDOCK:    0.14 KCAL/MOL
REMARK 927      BINDING AFFINITY PREDICTED BY RF-SCORE:    0.00 PKD
ROOT
HETATM    1  C   UNL     1      -6.119  20.860  67.515  1.00  0.00    -0.351 C  
HETATM    2  C   UNL     1      -6.267  20.000  66.258  1.00  0.00    -0.184 C  
HETATM    3  N   UNL     1      -5.656  18.684  66.498  1.00  0.00    -0.145 NA 
HETATM    4  H1  UNL     1      -5.755  18.110  65.661  1.00  0.00     0.000 HD 
HETATM    5  H2  UNL     1      -6.035  18.227  67.328  1.00  0.00     0.000 HD 
ENDROOT
BRANCH   2   6
HETATM    6  C   UNL     1      -7.743  19.817  65.837  1.00  0.00    -0.328 C  
BRANCH   6   7
HETATM    7  C   UNL     1      -8.592  19.109  66.869  1.00  0.00    -0.315 A  
HETATM    8  C   UNL     1      -9.204  19.825  67.910  1.00  0.00    -0.427 A  
HETATM    9  C   UNL     1      -9.949  19.160  68.886  1.00  0.00    -0.481 A  
HETATM   10  C   UNL     1     -10.095  17.779  68.816  1.00  0.00    -0.381 A  
HETATM   11  C   UNL     1      -9.522  17.057  67.777  1.00  0.00    -0.245 A  
HETATM   12  O   UNL     1     -10.797  17.089  69.758  1.00  0.00    -0.389 OA 
HETATM   13  H   UNL     1     -10.896  16.146  69.710  1.00  0.00     0.000 HD 
HETATM   14  C   UNL     1      -8.771  17.719  66.805  1.00  0.00    -0.273 A  
ENDBRANCH   6   7
ENDBRANCH   2   6
TORSDOF 2
ENDMDL
MODEL      141
REMARK 921   NORMALIZED FREE ENERGY PREDICTED BY IDOCK:   -2.85 KCAL/MOL
REMARK 922        TOTAL FREE ENERGY PREDICTED BY IDOCK:   -3.38 KCAL/MOL
REMARK 923 INTER-LIGAND FREE ENERGY PREDICTED BY IDOCK:   -3.54 KCAL/MOL
REMARK 924 INTRA-LIGAND FREE ENERGY PREDICTED BY IDOCK:    0.16 KCAL/MOL
REMARK 927      BINDING AFFINITY PREDICTED BY RF-SCORE:    0.00 PKD
ROOT
HETATM    1  C   UNL     1      -9.739  11.385  67.019  1.00  0.00    -0.210 C  
HETATM    2  C   UNL     1     -11.183  11.054  66.638  1.00  0.00    -0.050 C  
HETATM    3  N   UNL     1     -11.909  10.608  67.836  1.00  0.00    -0.715 NA 
HETATM    4  H1  UNL     1     -12.872  10.387  67.583  1.00  0.00     0.000 HD 
HETATM    5  H2  UNL     1     -11.855  11.286  68.597  1.00  0.00     0.000 HD 
ENDROOT
BRANCH   2   6
HETATM    6  C   UNL     1     -11.919  12.257  66.004  1.00  0.00    -0.342 C  
BRANCH   6   7
HETATM    7  C   UNL     1     -11.661  13.572  66.705  1.00  0.00    -0.397 A  
HETATM    8  C   UNL     1     -11.976  13.736  68.064  1.00  0.00    -0.390 A  
HETATM    9  C   UNL     1     -11.778  14.966  68.695  1.00  0.00    -0.358 A  
HETATM   10  C   UNL     1     -11.252  16.031  67.972  1.00  0.00    -0.303 A  
HETATM   11  C   UNL     1     -10.906  15.879  66.636  1.00  0.00    -0.213 A  
HETATM   12  O   UNL     1     -11.061  17.252  68.544  1.00  0.00    -0.226 OA 
HETATM   13  H   UNL     1     -10.701  17.980  68.050  1.00  0.00     0.000 HD 
HETATM   14  C   UNL     1     -11.110  14.653  66.002  1.00  0.00    -0.332 A  
ENDBRANCH   6   7
ENDBRANCH   2   6
TORSDOF 2
ENDMDL
MODEL      142
REMARK 921   NORMALIZED FREE ENERGY PREDICTED BY IDOCK:   -2.85 KCAL/MOL
REMARK 922        TOTAL FREE ENERGY PREDICTED BY IDOCK:   -3.37 KCAL/MOL
REMARK 923 INTER-LIGAND FREE ENERGY PREDICTED BY IDOCK:   -3.21 KCAL/MOL
REMARK 924 INTRA-LIGAND FREE ENERGY PREDICTED BY IDOCK:   -0.17 KCAL/MOL
REMARK 927      BINDING AFFINITY PREDICTED BY RF-SCORE:    0.00 PKD
ROOT
HETATM    1  C   UNL     1      -6.444  16.141  68.703  1.00  0.00    -0.120 C  
HETATM    2  C   UNL     1      -7.815  15.606  68.285  1.00  0.00    -0.128 C  
HETATM    3  N   UNL     1      -8.838  16.123  69.206  1.00  0.00    -0.232 NA 
HETATM    4  H1  UNL     1      -9.752  15.767  68.927  1.00  0.00     0.000 HD 
HETATM    5  H2  UNL     1      -8.822  17.141  69.270  1.00  0.00     0.000 HD 
ENDROOT
BRANCH   2   6
HETATM    6  C   UNL     1      -8.183  15.990  66.833  1.00  0.00    -0.277 C  
BRANCH   6   7
HETATM    7  C   UNL     1      -9.275  15.135  66.231  1.00  0.00    -0.336 A  
HETATM    8  C   UNL     1     -10.287  15.709  65.445  1.00  0.00    -0.421 A  
HETATM    9  C   UNL     1     -11.318  14.921  64.929  1.00  0.00    -0.415 A  
HETATM   10  C   UNL     1     -11.332  13.555  65.187  1.00  0.00    -0.301 A  
HETATM   11  C   UNL     1     -10.324  12.964  65.937  1.00  0.00    -0.297 A  
HETATM   12  O   UNL     1     -12.330  12.753  64.718  1.00  0.00    -0.433 OA 
HETATM   13  H   UNL     1     -12.339  11.820  64.895  1.00  0.00     0.000 HD 
HETATM   14  C   UNL     1      -9.296  13.751  66.459  1.00  0.00    -0.249 A  
ENDBRANCH   6   7
ENDBRANCH   2   6
TORSDOF 2
ENDMDL
MODEL      143
REMARK 921   NORMALIZED FREE ENERGY PREDICTED BY IDOCK:   -2.84 KCAL/MOL
REMARK 922        TOTAL FREE ENERGY PREDICTED BY IDOCK:   -3.36 KCAL/MOL
REMARK 923 INTER-LIGAND FREE ENERGY PREDICTED BY IDOCK:   -3.37 KCAL/MOL
REMARK 924 INTRA-LIGAND FREE ENERGY PREDICTED BY IDOCK:    0.01 KCAL/MOL
REMARK 927      BINDING AFFINITY PREDICTED BY RF-SCORE:    0.00 PKD
ROOT
HETATM    1  C   UNL     1      -8.990  12.624  67.663  1.00  0.00    -0.186 C  
HETATM    2  C   UNL     1      -9.928  12.560  66.456  1.00  0.00    -0.244 C  
HETATM    3  N   UNL     1      -9.294  11.767  65.392  1.00  0.00    -0.399 NA 
HETATM    4  H1  UNL     1      -9.920  11.724  64.588  1.00  0.00     0.000 HD 
HETATM    5  H2  UNL     1      -9.014  10.841  65.714  1.00  0.00     0.000 HD 
ENDROOT
BRANCH   2   6
HETATM    6  C   UNL     1     -11.304  11.949  66.809  1.00  0.00    -0.393 C  
BRANCH   6   7
HETATM    7  C   UNL     1     -11.280  11.042  68.019  1.00  0.00    -0.372 A  
HETATM    8  C   UNL     1     -10.749   9.745  67.934  1.00  0.00    -0.312 A  
HETATM    9  C   UNL     1     -10.770   8.896  69.042  1.00  0.00    -0.148 A  
HETATM   10  C   UNL     1     -11.311   9.347  70.242  1.00  0.00    -0.220 A  
HETATM   11  C   UNL     1     -11.814  10.636  70.352  1.00  0.00    -0.441 A  
HETATM   12  O   UNL     1     -11.369   8.544  71.341  1.00  0.00    -0.246 OA 
HETATM   13  H   UNL     1     -11.738   8.852  72.160  1.00  0.00     0.000 HD 
HETATM   14  C   UNL     1     -11.799  11.484  69.244  1.00  0.00    -0.414 A  
ENDBRANCH   6   7
ENDBRANCH   2   6
TORSDOF 2
ENDMDL
MODEL      144
REMARK 921   NORMALIZED FREE ENERGY PREDICTED BY IDOCK:   -2.82 KCAL/MOL
REMARK 922        TOTAL FREE ENERGY PREDICTED BY IDOCK:   -3.34 KCAL/MOL
REMARK 923 INTER-LIGAND FREE ENERGY PREDICTED BY IDOCK:   -3.16 KCAL/MOL
REMARK 924 INTRA-LIGAND FREE ENERGY PREDICTED BY IDOCK:   -0.18 KCAL/MOL
REMARK 927      BINDING AFFINITY PREDICTED BY RF-SCORE:    0.00 PKD
ROOT
HETATM    1  C   UNL     1      -7.427   8.989  68.616  1.00  0.00    -0.084 C  
HETATM    2  C   UNL     1      -8.364   9.811  69.504  1.00  0.00    -0.161 C  
HETATM    3  N   UNL     1      -8.248  11.232  69.143  1.00  0.00    -0.369 NA 
HETATM    4  H1  UNL     1      -8.873  11.780  69.735  1.00  0.00     0.000 HD 
HETATM    5  H2  UNL     1      -8.415  11.394  68.150  1.00  0.00     0.000 HD 
ENDROOT
BRANCH   2   6
HETATM    6  C   UNL     1      -9.838   9.363  69.383  1.00  0.00    -0.183 C  
BRANCH   6   7
HETATM    7  C   UNL     1     -10.295   8.453  70.501  1.00  0.00    -0.220 A  
HETATM    8  C   UNL     1     -10.091   8.806  71.844  1.00  0.00    -0.409 A  
HETATM    9  C   UNL     1     -10.474   7.941  72.872  1.00  0.00    -0.422 A  
HETATM   10  C   UNL     1     -11.075   6.727  72.558  1.00  0.00    -0.264 A  
HETATM   11  C   UNL     1     -11.313   6.374  71.236  1.00  0.00    -0.361 A  
HETATM   12  O   UNL     1     -11.447   5.847  73.529  1.00  0.00    -0.403 OA 
HETATM   13  H   UNL     1     -11.857   5.017  73.315  1.00  0.00     0.000 HD 
HETATM   14  C   UNL     1     -10.924   7.234  70.208  1.00  0.00    -0.281 A  
ENDBRANCH   6   7
ENDBRANCH   2   6
TORSDOF 2
ENDMDL
MODEL      145
REMARK 921   NORMALIZED FREE ENERGY PREDICTED BY IDOCK:   -2.80 KCAL/MOL
REMARK 922        TOTAL FREE ENERGY PREDICTED BY IDOCK:   -3.31 KCAL/MOL
REMARK 923 INTER-LIGAND FREE ENERGY PREDICTED BY IDOCK:   -3.15 KCAL/MOL
REMARK 924 INTRA-LIGAND FREE ENERGY PREDICTED BY IDOCK:   -0.17 KCAL/MOL
REMARK 927      BINDING AFFINITY PREDICTED BY RF-SCORE:    0.00 PKD
ROOT
HETATM    1  C   UNL     1      -9.260  12.837  67.465  1.00  0.00    -0.191 C  
HETATM    2  C   UNL     1     -10.379  13.877  67.381  1.00  0.00    -0.252 C  
HETATM    3  N   UNL     1     -11.658  13.193  67.139  1.00  0.00    -0.340 NA 
HETATM    4  H1  UNL     1     -12.405  13.886  67.084  1.00  0.00     0.000 HD 
HETATM    5  H2  UNL     1     -11.850  12.473  67.837  1.00  0.00     0.000 HD 
ENDROOT
BRANCH   2   6
HETATM    6  C   UNL     1     -10.485  14.738  68.660  1.00  0.00    -0.250 C  
BRANCH   6   7
HETATM    7  C   UNL     1      -9.908  16.128  68.512  1.00  0.00    -0.226 A  
HETATM    8  C   UNL     1      -8.545  16.370  68.748  1.00  0.00    -0.250 A  
HETATM    9  C   UNL     1      -8.027  17.663  68.654  1.00  0.00    -0.275 A  
HETATM   10  C   UNL     1      -8.868  18.716  68.311  1.00  0.00    -0.326 A  
HETATM   11  C   UNL     1     -10.212  18.492  68.045  1.00  0.00    -0.415 A  
HETATM   12  O   UNL     1      -8.407  19.995  68.227  1.00  0.00    -0.255 OA 
HETATM   13  H   UNL     1      -8.982  20.714  67.993  1.00  0.00     0.000 HD 
HETATM   14  C   UNL     1     -10.733  17.201  68.145  1.00  0.00    -0.366 A  
ENDBRANCH   6   7
ENDBRANCH   2   6
TORSDOF 2
ENDMDL
MODEL      146
REMARK 921   NORMALIZED FREE ENERGY PREDICTED BY IDOCK:   -2.80 KCAL/MOL
REMARK 922        TOTAL FREE ENERGY PREDICTED BY IDOCK:   -3.31 KCAL/MOL
REMARK 923 INTER-LIGAND FREE ENERGY PREDICTED BY IDOCK:   -3.48 KCAL/MOL
REMARK 924 INTRA-LIGAND FREE ENERGY PREDICTED BY IDOCK:    0.16 KCAL/MOL
REMARK 927      BINDING AFFINITY PREDICTED BY RF-SCORE:    0.00 PKD
ROOT
HETATM    1  C   UNL     1     -10.201   9.716  66.448  1.00  0.00    -0.288 C  
HETATM    2  C   UNL     1      -9.953  11.130  66.978  1.00  0.00    -0.192 C  
HETATM    3  N   UNL     1     -11.180  11.925  66.828  1.00  0.00    -0.311 NA 
HETATM    4  H1  UNL     1     -11.015  12.867  67.181  1.00  0.00     0.000 HD 
HETATM    5  H2  UNL     1     -11.985  11.482  67.270  1.00  0.00     0.000 HD 
ENDROOT
BRANCH   2   6
HETATM    6  C   UNL     1      -9.507  11.137  68.458  1.00  0.00    -0.193 C  
BRANCH   6   7
HETATM    7  C   UNL     1     -10.582  10.689  69.424  1.00  0.00    -0.270 A  
HETATM    8  C   UNL     1     -11.557  11.590  69.882  1.00  0.00    -0.387 A  
HETATM    9  C   UNL     1     -12.520  11.183  70.808  1.00  0.00    -0.479 A  
HETATM   10  C   UNL     1     -12.517   9.871  71.268  1.00  0.00    -0.381 A  
HETATM   11  C   UNL     1     -11.579   8.958  70.804  1.00  0.00    -0.301 A  
HETATM   12  O   UNL     1     -13.427   9.438  72.186  1.00  0.00    -0.416 OA 
HETATM   13  H   UNL     1     -13.425   8.541  72.500  1.00  0.00     0.000 HD 
HETATM   14  C   UNL     1     -10.612   9.365  69.884  1.00  0.00    -0.258 A  
ENDBRANCH   6   7
ENDBRANCH   2   6
TORSDOF 2
ENDMDL
MODEL      147
REMARK 921   NORMALIZED FREE ENERGY PREDICTED BY IDOCK:   -2.80 KCAL/MOL
REMARK 922        TOTAL FREE ENERGY PREDICTED BY IDOCK:   -3.31 KCAL/MOL
REMARK 923 INTER-LIGAND FREE ENERGY PREDICTED BY IDOCK:   -3.13 KCAL/MOL
REMARK 924 INTRA-LIGAND FREE ENERGY PREDICTED BY IDOCK:   -0.18 KCAL/MOL
REMARK 927      BINDING AFFINITY PREDICTED BY RF-SCORE:    0.00 PKD
ROOT
HETATM    1  C   UNL     1      -7.898   3.525  64.581  1.00  0.00    -0.085 C  
HETATM    2  C   UNL     1      -9.100   3.146  65.449  1.00  0.00    -0.150 C  
HETATM    3  N   UNL     1      -9.538   1.786  65.102  1.00  0.00    -0.336 NA 
HETATM    4  H1  UNL     1     -10.339   1.534  65.681  1.00  0.00     0.000 HD 
HETATM    5  H2  UNL     1      -8.781   1.106  65.171  1.00  0.00     0.000 HD 
ENDROOT
BRANCH   2   6
HETATM    6  C   UNL     1      -8.785   3.220  66.961  1.00  0.00    -0.136 C  
BRANCH   6   7
HETATM    7  C   UNL     1      -9.567   4.285  67.697  1.00  0.00    -0.215 A  
HETATM    8  C   UNL     1     -10.314   5.244  66.995  1.00  0.00    -0.286 A  
HETATM    9  C   UNL     1     -10.998   6.251  67.678  1.00  0.00    -0.438 A  
HETATM   10  C   UNL     1     -10.946   6.294  69.067  1.00  0.00    -0.372 A  
HETATM   11  C   UNL     1     -10.237   5.337  69.781  1.00  0.00    -0.364 A  
HETATM   12  O   UNL     1     -11.583   7.272  69.772  1.00  0.00    -0.500 OA 
HETATM   13  H   UNL     1     -11.547   7.301  70.721  1.00  0.00     0.000 HD 
HETATM   14  C   UNL     1      -9.548   4.334  69.099  1.00  0.00    -0.249 A  
ENDBRANCH   6   7
ENDBRANCH   2   6
TORSDOF 2
ENDMDL
MODEL      148
REMARK 921   NORMALIZED FREE ENERGY PREDICTED BY IDOCK:   -2.78 KCAL/MOL
REMARK 922        TOTAL FREE ENERGY PREDICTED BY IDOCK:   -3.29 KCAL/MOL
REMARK 923 INTER-LIGAND FREE ENERGY PREDICTED BY IDOCK:   -3.19 KCAL/MOL
REMARK 924 INTRA-LIGAND FREE ENERGY PREDICTED BY IDOCK:   -0.10 KCAL/MOL
REMARK 927      BINDING AFFINITY PREDICTED BY RF-SCORE:    0.00 PKD
ROOT
HETATM    1  C   UNL     1     -12.583  10.576  70.611  1.00  0.00    -0.457 C  
HETATM    2  C   UNL     1     -12.322   9.822  71.917  1.00  0.00    -0.335 C  
HETATM    3  N   UNL     1     -13.605   9.536  72.575  1.00  0.00    -0.686 NA 
HETATM    4  H1  UNL     1     -13.431   9.033  73.445  1.00  0.00     0.000 HD 
HETATM    5  H2  UNL     1     -14.251   9.038  71.963  1.00  0.00     0.000 HD 
ENDROOT
BRANCH   2   6
HETATM    6  C   UNL     1     -11.547   8.503  71.694  1.00  0.00    -0.364 C  
BRANCH   6   7
HETATM    7  C   UNL     1     -10.048   8.641  71.835  1.00  0.00    -0.398 A  
HETATM    8  C   UNL     1      -9.289   9.290  70.848  1.00  0.00    -0.313 A  
HETATM    9  C   UNL     1      -7.900   9.375  70.962  1.00  0.00    -0.020 A  
HETATM   10  C   UNL     1      -7.268   8.823  72.071  1.00  0.00     0.014 A  
HETATM   11  C   UNL     1      -8.004   8.204  73.072  1.00  0.00    -0.220 A  
HETATM   12  O   UNL     1      -5.913   8.867  72.211  1.00  0.00    -0.074 OA 
HETATM   13  H   UNL     1      -5.481   8.490  72.969  1.00  0.00     0.000 HD 
HETATM   14  C   UNL     1      -9.391   8.112  72.956  1.00  0.00    -0.335 A  
ENDBRANCH   6   7
ENDBRANCH   2   6
TORSDOF 2
ENDMDL
MODEL      149
REMARK 921   NORMALIZED FREE ENERGY PREDICTED BY IDOCK:   -2.77 KCAL/MOL
REMARK 922        TOTAL FREE ENERGY PREDICTED BY IDOCK:   -3.28 KCAL/MOL
REMARK 923 INTER-LIGAND FREE ENERGY PREDICTED BY IDOCK:   -3.11 KCAL/MOL
REMARK 924 INTRA-LIGAND FREE ENERGY PREDICTED BY IDOCK:   -0.17 KCAL/MOL
REMARK 927      BINDING AFFINITY PREDICTED BY RF-SCORE:    0.00 PKD
ROOT
HETATM    1  C   UNL     1     -10.500  19.616  67.802  1.00  0.00    -0.573 C  
HETATM    2  C   UNL     1     -10.270  18.398  66.906  1.00  0.00    -0.380 C  
HETATM    3  N   UNL     1     -10.667  18.728  65.529  1.00  0.00    -0.506 NA 
HETATM    4  H1  UNL     1     -10.513  17.916  64.931  1.00  0.00     0.000 HD 
HETATM    5  H2  UNL     1     -10.194  19.561  65.179  1.00  0.00     0.000 HD 
ENDROOT
BRANCH   2   6
HETATM    6  C   UNL     1      -8.799  17.921  66.921  1.00  0.00    -0.263 C  
BRANCH   6   7
HETATM    7  C   UNL     1      -8.641  16.430  67.118  1.00  0.00    -0.204 A  
HETATM    8  C   UNL     1      -9.763  15.607  67.311  1.00  0.00    -0.219 A  
HETATM    9  C   UNL     1      -9.608  14.238  67.538  1.00  0.00    -0.216 A  
HETATM   10  C   UNL     1      -8.332  13.686  67.558  1.00  0.00    -0.188 A  
HETATM   11  C   UNL     1      -7.213  14.478  67.339  1.00  0.00    -0.165 A  
HETATM   12  O   UNL     1      -8.136  12.358  67.794  1.00  0.00    -0.138 OA 
HETATM   13  H   UNL     1      -7.264  11.981  67.808  1.00  0.00     0.000 HD 
HETATM   14  C   UNL     1      -7.365  15.848  67.119  1.00  0.00    -0.258 A  
ENDBRANCH   6   7
ENDBRANCH   2   6
TORSDOF 2
ENDMDL
MODEL      150
REMARK 921   NORMALIZED FREE ENERGY PREDICTED BY IDOCK:   -2.76 KCAL/MOL
REMARK 922        TOTAL FREE ENERGY PREDICTED BY IDOCK:   -3.27 KCAL/MOL
REMARK 923 INTER-LIGAND FREE ENERGY PREDICTED BY IDOCK:   -3.11 KCAL/MOL
REMARK 924 INTRA-LIGAND FREE ENERGY PREDICTED BY IDOCK:   -0.16 KCAL/MOL
REMARK 927      BINDING AFFINITY PREDICTED BY RF-SCORE:    0.00 PKD
ROOT
HETATM    1  C   UNL     1      -8.522   3.467  66.372  1.00  0.00    -0.109 C  
HETATM    2  C   UNL     1      -9.438   3.115  67.545  1.00  0.00    -0.142 C  
HETATM    3  N   UNL     1      -9.543   1.652  67.655  1.00  0.00    -0.403 NA 
HETATM    4  H1  UNL     1     -10.154   1.417  68.438  1.00  0.00     0.000 HD 
HETATM    5  H2  UNL     1      -8.630   1.203  67.729  1.00  0.00     0.000 HD 
ENDROOT
BRANCH   2   6
HETATM    6  C   UNL     1      -8.937   3.702  68.884  1.00  0.00    -0.182 C  
BRANCH   6   7
HETATM    7  C   UNL     1      -9.842   4.766  69.464  1.00  0.00    -0.292 A  
HETATM    8  C   UNL     1     -10.067   4.843  70.848  1.00  0.00    -0.292 A  
HETATM    9  C   UNL     1     -10.939   5.798  71.373  1.00  0.00    -0.304 A  
HETATM   10  C   UNL     1     -11.577   6.688  70.517  1.00  0.00    -0.390 A  
HETATM   11  C   UNL     1     -11.345   6.647  69.148  1.00  0.00    -0.262 A  
HETATM   12  O   UNL     1     -12.450   7.624  70.986  1.00  0.00    -0.461 OA 
HETATM   13  H   UNL     1     -12.887   8.231  70.401  1.00  0.00     0.000 HD 
HETATM   14  C   UNL     1     -10.479   5.688  68.621  1.00  0.00    -0.277 A  
ENDBRANCH   6   7
ENDBRANCH   2   6
TORSDOF 2
ENDMDL
MODEL      151
REMARK 921   NORMALIZED FREE ENERGY PREDICTED BY IDOCK:   -2.76 KCAL/MOL
REMARK 922        TOTAL FREE ENERGY PREDICTED BY IDOCK:   -3.27 KCAL/MOL
REMARK 923 INTER-LIGAND FREE ENERGY PREDICTED BY IDOCK:   -3.64 KCAL/MOL
REMARK 924 INTRA-LIGAND FREE ENERGY PREDICTED BY IDOCK:    0.36 KCAL/MOL
REMARK 927      BINDING AFFINITY PREDICTED BY RF-SCORE:    0.00 PKD
ROOT
HETATM    1  C   UNL     1     -13.271  10.338  71.946  1.00  0.00    -0.550 C  
HETATM    2  C   UNL     1     -13.239  11.682  71.216  1.00  0.00     0.005 C  
HETATM    3  N   UNL     1     -13.474  12.764  72.184  1.00  0.00    -0.542 NA 
HETATM    4  H1  UNL     1     -13.453  13.660  71.697  1.00  0.00     0.000 HD 
HETATM    5  H2  UNL     1     -12.820  12.733  72.966  1.00  0.00     0.000 HD 
ENDROOT
BRANCH   2   6
HETATM    6  C   UNL     1     -11.901  11.925  70.481  1.00  0.00    -0.253 C  
BRANCH   6   7
HETATM    7  C   UNL     1     -11.775  13.307  69.880  1.00  0.00    -0.330 A  
HETATM    8  C   UNL     1     -11.860  13.498  68.491  1.00  0.00    -0.398 A  
HETATM    9  C   UNL     1     -11.698  14.770  67.938  1.00  0.00    -0.367 A  
HETATM   10  C   UNL     1     -11.462  15.856  68.774  1.00  0.00    -0.393 A  
HETATM   11  C   UNL     1     -11.404  15.692  70.151  1.00  0.00    -0.354 A  
HETATM   12  O   UNL     1     -11.279  17.110  68.274  1.00  0.00    -0.229 OA 
HETATM   13  H   UNL     1     -11.118  17.853  68.845  1.00  0.00     0.000 HD 
HETATM   14  C   UNL     1     -11.560  14.421  70.705  1.00  0.00    -0.224 A  
ENDBRANCH   6   7
ENDBRANCH   2   6
TORSDOF 2
ENDMDL
MODEL      152
REMARK 921   NORMALIZED FREE ENERGY PREDICTED BY IDOCK:   -2.74 KCAL/MOL
REMARK 922        TOTAL FREE ENERGY PREDICTED BY IDOCK:   -3.25 KCAL/MOL
REMARK 923 INTER-LIGAND FREE ENERGY PREDICTED BY IDOCK:   -3.08 KCAL/MOL
REMARK 924 INTRA-LIGAND FREE ENERGY PREDICTED BY IDOCK:   -0.17 KCAL/MOL
REMARK 927      BINDING AFFINITY PREDICTED BY RF-SCORE:    0.00 PKD
ROOT
HETATM    1  C   UNL     1      -9.535   1.953  70.556  1.00  0.00    -0.168 C  
HETATM    2  C   UNL     1      -8.766   3.264  70.723  1.00  0.00    -0.075 C  
HETATM    3  N   UNL     1      -7.350   3.040  70.397  1.00  0.00    -0.040 NA 
HETATM    4  H1  UNL     1      -6.837   3.915  70.508  1.00  0.00     0.000 HD 
HETATM    5  H2  UNL     1      -7.227   2.635  69.469  1.00  0.00     0.000 HD 
ENDROOT
BRANCH   2   6
HETATM    6  C   UNL     1      -9.330   4.399  69.837  1.00  0.00    -0.225 C  
BRANCH   6   7
HETATM    7  C   UNL     1     -10.328   5.289  70.544  1.00  0.00    -0.336 A  
HETATM    8  C   UNL     1     -11.098   6.217  69.825  1.00  0.00    -0.486 A  
HETATM    9  C   UNL     1     -11.986   7.067  70.487  1.00  0.00    -0.315 A  
HETATM   10  C   UNL     1     -12.115   6.982  71.869  1.00  0.00    -0.323 A  
HETATM   11  C   UNL     1     -11.384   6.050  72.594  1.00  0.00    -0.320 A  
HETATM   12  O   UNL     1     -12.955   7.806  72.556  1.00  0.00    -0.519 OA 
HETATM   13  H   UNL     1     -13.043   7.748  73.500  1.00  0.00     0.000 HD 
HETATM   14  C   UNL     1     -10.492   5.204  71.934  1.00  0.00    -0.272 A  
ENDBRANCH   6   7
ENDBRANCH   2   6
TORSDOF 2
ENDMDL
MODEL      153
REMARK 921   NORMALIZED FREE ENERGY PREDICTED BY IDOCK:   -2.73 KCAL/MOL
REMARK 922        TOTAL FREE ENERGY PREDICTED BY IDOCK:   -3.23 KCAL/MOL
REMARK 923 INTER-LIGAND FREE ENERGY PREDICTED BY IDOCK:   -3.15 KCAL/MOL
REMARK 924 INTRA-LIGAND FREE ENERGY PREDICTED BY IDOCK:   -0.08 KCAL/MOL
REMARK 927      BINDING AFFINITY PREDICTED BY RF-SCORE:    0.00 PKD
ROOT
HETATM    1  C   UNL     1     -11.058   6.178  70.219  1.00  0.00    -0.436 C  
HETATM    2  C   UNL     1     -10.491   7.449  69.583  1.00  0.00    -0.232 C  
HETATM    3  N   UNL     1     -10.817   7.459  68.149  1.00  0.00    -0.435 NA 
HETATM    4  H1  UNL     1     -10.439   8.307  67.725  1.00  0.00     0.000 HD 
HETATM    5  H2  UNL     1     -11.817   7.355  67.979  1.00  0.00     0.000 HD 
ENDROOT
BRANCH   2   6
HETATM    6  C   UNL     1     -11.032   8.735  70.248  1.00  0.00    -0.255 C  
BRANCH   6   7
HETATM    7  C   UNL     1     -10.662  10.006  69.515  1.00  0.00    -0.269 A  
HETATM    8  C   UNL     1     -11.653  10.900  69.082  1.00  0.00    -0.389 A  
HETATM    9  C   UNL     1     -11.309  12.049  68.366  1.00  0.00    -0.332 A  
HETATM   10  C   UNL     1      -9.971  12.312  68.094  1.00  0.00    -0.210 A  
HETATM   11  C   UNL     1      -8.974  11.455  68.541  1.00  0.00    -0.158 A  
HETATM   12  O   UNL     1      -9.593  13.411  67.383  1.00  0.00    -0.212 OA 
HETATM   13  H   UNL     1      -8.679  13.591  67.197  1.00  0.00     0.000 HD 
HETATM   14  C   UNL     1      -9.317  10.303  69.250  1.00  0.00    -0.221 A  
ENDBRANCH   6   7
ENDBRANCH   2   6
TORSDOF 2
ENDMDL
MODEL      154
REMARK 921   NORMALIZED FREE ENERGY PREDICTED BY IDOCK:   -2.72 KCAL/MOL
REMARK 922        TOTAL FREE ENERGY PREDICTED BY IDOCK:   -3.22 KCAL/MOL
REMARK 923 INTER-LIGAND FREE ENERGY PREDICTED BY IDOCK:   -3.03 KCAL/MOL
REMARK 924 INTRA-LIGAND FREE ENERGY PREDICTED BY IDOCK:   -0.19 KCAL/MOL
REMARK 927      BINDING AFFINITY PREDICTED BY RF-SCORE:    0.00 PKD
ROOT
HETATM    1  C   UNL     1      -9.080   2.569  69.713  1.00  0.00    -0.183 C  
HETATM    2  C   UNL     1      -8.545   3.955  69.344  1.00  0.00    -0.074 C  
HETATM    3  N   UNL     1      -7.544   3.818  68.276  1.00  0.00    -0.061 NA 
HETATM    4  H1  UNL     1      -7.188   4.742  68.030  1.00  0.00     0.000 HD 
HETATM    5  H2  UNL     1      -7.907   3.315  67.467  1.00  0.00     0.000 HD 
ENDROOT
BRANCH   2   6
HETATM    6  C   UNL     1      -9.664   4.918  68.886  1.00  0.00    -0.242 C  
BRANCH   6   7
HETATM    7  C   UNL     1     -10.244   5.759  70.001  1.00  0.00    -0.304 A  
HETATM    8  C   UNL     1      -9.511   5.999  71.175  1.00  0.00    -0.182 A  
HETATM    9  C   UNL     1     -10.068   6.738  72.220  1.00  0.00    -0.191 A  
HETATM   10  C   UNL     1     -11.355   7.249  72.089  1.00  0.00    -0.265 A  
HETATM   11  C   UNL     1     -12.084   7.047  70.925  1.00  0.00    -0.403 A  
HETATM   12  O   UNL     1     -11.943   7.959  73.093  1.00  0.00    -0.662 OA 
HETATM   13  H   UNL     1     -12.822   8.308  73.004  1.00  0.00     0.000 HD 
HETATM   14  C   UNL     1     -11.531   6.303  69.882  1.00  0.00    -0.459 A  
ENDBRANCH   6   7
ENDBRANCH   2   6
TORSDOF 2
ENDMDL
MODEL      155
REMARK 921   NORMALIZED FREE ENERGY PREDICTED BY IDOCK:   -2.70 KCAL/MOL
REMARK 922        TOTAL FREE ENERGY PREDICTED BY IDOCK:   -3.21 KCAL/MOL
REMARK 923 INTER-LIGAND FREE ENERGY PREDICTED BY IDOCK:   -3.02 KCAL/MOL
REMARK 924 INTRA-LIGAND FREE ENERGY PREDICTED BY IDOCK:   -0.18 KCAL/MOL
REMARK 927      BINDING AFFINITY PREDICTED BY RF-SCORE:    0.00 PKD
ROOT
HETATM    1  C   UNL     1      -8.713   4.857  64.324  1.00  0.00    -0.130 C  
HETATM    2  C   UNL     1      -9.908   4.401  65.164  1.00  0.00    -0.182 C  
HETATM    3  N   UNL     1     -10.685   3.411  64.404  1.00  0.00    -0.478 NA 
HETATM    4  H1  UNL     1     -11.481   3.107  64.964  1.00  0.00     0.000 HD 
HETATM    5  H2  UNL     1     -10.112   2.628  64.089  1.00  0.00     0.000 HD 
ENDROOT
BRANCH   2   6
HETATM    6  C   UNL     1      -9.480   3.794  66.520  1.00  0.00    -0.204 C  
BRANCH   6   7
HETATM    7  C   UNL     1      -9.924   4.602  67.719  1.00  0.00    -0.150 A  
HETATM    8  C   UNL     1      -9.640   4.168  69.024  1.00  0.00    -0.232 A  
HETATM    9  C   UNL     1     -10.091   4.894  70.128  1.00  0.00    -0.332 A  
HETATM   10  C   UNL     1     -10.815   6.064  69.930  1.00  0.00    -0.363 A  
HETATM   11  C   UNL     1     -11.080   6.526  68.647  1.00  0.00    -0.348 A  
HETATM   12  O   UNL     1     -11.290   6.792  70.979  1.00  0.00    -0.274 OA 
HETATM   13  H   UNL     1     -11.785   7.592  70.844  1.00  0.00     0.000 HD 
HETATM   14  C   UNL     1     -10.636   5.797  67.543  1.00  0.00    -0.327 A  
ENDBRANCH   6   7
ENDBRANCH   2   6
TORSDOF 2
ENDMDL
MODEL      156
REMARK 921   NORMALIZED FREE ENERGY PREDICTED BY IDOCK:   -2.70 KCAL/MOL
REMARK 922        TOTAL FREE ENERGY PREDICTED BY IDOCK:   -3.20 KCAL/MOL
REMARK 923 INTER-LIGAND FREE ENERGY PREDICTED BY IDOCK:   -3.34 KCAL/MOL
REMARK 924 INTRA-LIGAND FREE ENERGY PREDICTED BY IDOCK:    0.14 KCAL/MOL
REMARK 927      BINDING AFFINITY PREDICTED BY RF-SCORE:    0.00 PKD
ROOT
HETATM    1  C   UNL     1     -10.452   8.143  68.972  1.00  0.00    -0.211 C  
HETATM    2  C   UNL     1     -10.104   7.637  67.571  1.00  0.00    -0.202 C  
HETATM    3  N   UNL     1     -11.210   6.810  67.066  1.00  0.00    -0.741 NA 
HETATM    4  H1  UNL     1     -10.978   6.473  66.132  1.00  0.00     0.000 HD 
HETATM    5  H2  UNL     1     -12.103   7.303  67.089  1.00  0.00     0.000 HD 
ENDROOT
BRANCH   2   6
HETATM    6  C   UNL     1      -9.821   8.788  66.579  1.00  0.00    -0.349 C  
BRANCH   6   7
HETATM    7  C   UNL     1      -9.905  10.165  67.198  1.00  0.00    -0.231 A  
HETATM    8  C   UNL     1      -8.748  10.825  67.642  1.00  0.00    -0.126 A  
HETATM    9  C   UNL     1      -8.836  12.077  68.255  1.00  0.00    -0.182 A  
HETATM   10  C   UNL     1     -10.081  12.677  68.413  1.00  0.00    -0.222 A  
HETATM   11  C   UNL     1     -11.233  12.053  67.953  1.00  0.00    -0.323 A  
HETATM   12  O   UNL     1     -10.213  13.889  69.022  1.00  0.00    -0.390 OA 
HETATM   13  H   UNL     1     -11.063  14.299  69.130  1.00  0.00     0.000 HD 
HETATM   14  C   UNL     1     -11.147  10.799  67.347  1.00  0.00    -0.363 A  
ENDBRANCH   6   7
ENDBRANCH   2   6
TORSDOF 2
ENDMDL
MODEL      157
REMARK 921   NORMALIZED FREE ENERGY PREDICTED BY IDOCK:   -2.69 KCAL/MOL
REMARK 922        TOTAL FREE ENERGY PREDICTED BY IDOCK:   -3.19 KCAL/MOL
REMARK 923 INTER-LIGAND FREE ENERGY PREDICTED BY IDOCK:   -3.20 KCAL/MOL
REMARK 924 INTRA-LIGAND FREE ENERGY PREDICTED BY IDOCK:    0.01 KCAL/MOL
REMARK 927      BINDING AFFINITY PREDICTED BY RF-SCORE:    0.00 PKD
ROOT
HETATM    1  C   UNL     1      -8.116  15.663  69.221  1.00  0.00    -0.244 C  
HETATM    2  C   UNL     1      -6.667  16.011  69.567  1.00  0.00    -0.199 C  
HETATM    3  N   UNL     1      -5.763  15.201  68.737  1.00  0.00    -0.088 NA 
HETATM    4  H1  UNL     1      -4.797  15.434  68.968  1.00  0.00     0.000 HD 
HETATM    5  H2  UNL     1      -5.958  15.302  67.741  1.00  0.00     0.000 HD 
ENDROOT
BRANCH   2   6
HETATM    6  C   UNL     1      -6.354  17.511  69.363  1.00  0.00    -0.246 C  
BRANCH   6   7
HETATM    7  C   UNL     1      -7.274  18.201  68.380  1.00  0.00    -0.264 A  
HETATM    8  C   UNL     1      -7.074  18.071  66.996  1.00  0.00    -0.218 A  
HETATM    9  C   UNL     1      -7.898  18.746  66.094  1.00  0.00    -0.263 A  
HETATM   10  C   UNL     1      -8.933  19.542  66.573  1.00  0.00    -0.361 A  
HETATM   11  C   UNL     1      -9.165  19.659  67.937  1.00  0.00    -0.410 A  
HETATM   12  O   UNL     1      -9.748  20.233  65.727  1.00  0.00    -0.608 OA 
HETATM   13  H   UNL     1     -10.455  20.777  66.055  1.00  0.00     0.000 HD 
HETATM   14  C   UNL     1      -8.338  18.990  68.840  1.00  0.00    -0.298 A  
ENDBRANCH   6   7
ENDBRANCH   2   6
TORSDOF 2
ENDMDL
MODEL      158
REMARK 921   NORMALIZED FREE ENERGY PREDICTED BY IDOCK:   -2.64 KCAL/MOL
REMARK 922        TOTAL FREE ENERGY PREDICTED BY IDOCK:   -3.13 KCAL/MOL
REMARK 923 INTER-LIGAND FREE ENERGY PREDICTED BY IDOCK:   -2.98 KCAL/MOL
REMARK 924 INTRA-LIGAND FREE ENERGY PREDICTED BY IDOCK:   -0.15 KCAL/MOL
REMARK 927      BINDING AFFINITY PREDICTED BY RF-SCORE:    0.00 PKD
ROOT
HETATM    1  C   UNL     1     -10.333   4.086  73.760  1.00  0.00    -0.240 C  
HETATM    2  C   UNL     1     -10.748   5.011  72.614  1.00  0.00    -0.222 C  
HETATM    3  N   UNL     1     -11.647   6.052  73.134  1.00  0.00    -0.461 NA 
HETATM    4  H1  UNL     1     -11.924   6.669  72.370  1.00  0.00     0.000 HD 
HETATM    5  H2  UNL     1     -11.237   6.564  73.915  1.00  0.00     0.000 HD 
ENDROOT
BRANCH   2   6
HETATM    6  C   UNL     1      -9.536   5.672  71.919  1.00  0.00    -0.171 C  
BRANCH   6   7
HETATM    7  C   UNL     1      -9.855   6.264  70.564  1.00  0.00    -0.207 A  
HETATM    8  C   UNL     1     -10.751   5.624  69.693  1.00  0.00    -0.398 A  
HETATM    9  C   UNL     1     -11.008   6.151  68.426  1.00  0.00    -0.391 A  
HETATM   10  C   UNL     1     -10.378   7.327  68.031  1.00  0.00    -0.197 A  
HETATM   11  C   UNL     1      -9.512   7.990  68.890  1.00  0.00    -0.151 A  
HETATM   12  O   UNL     1     -10.586   7.864  66.797  1.00  0.00    -0.394 OA 
HETATM   13  H   UNL     1     -10.155   8.667  66.527  1.00  0.00     0.000 HD 
HETATM   14  C   UNL     1      -9.249   7.461  70.155  1.00  0.00    -0.151 A  
ENDBRANCH   6   7
ENDBRANCH   2   6
TORSDOF 2
ENDMDL
MODEL      159
REMARK 921   NORMALIZED FREE ENERGY PREDICTED BY IDOCK:   -2.63 KCAL/MOL
REMARK 922        TOTAL FREE ENERGY PREDICTED BY IDOCK:   -3.13 KCAL/MOL
REMARK 923 INTER-LIGAND FREE ENERGY PREDICTED BY IDOCK:   -3.23 KCAL/MOL
REMARK 924 INTRA-LIGAND FREE ENERGY PREDICTED BY IDOCK:    0.11 KCAL/MOL
REMARK 927      BINDING AFFINITY PREDICTED BY RF-SCORE:    0.00 PKD
ROOT
HETATM    1  C   UNL     1      -7.657   8.248  65.991  1.00  0.00    -0.078 C  
HETATM    2  C   UNL     1      -8.462   9.023  67.037  1.00  0.00    -0.120 C  
HETATM    3  N   UNL     1      -7.878  10.362  67.201  1.00  0.00    -0.109 NA 
HETATM    4  H1  UNL     1      -8.414  10.879  67.898  1.00  0.00     0.000 HD 
HETATM    5  H2  UNL     1      -7.807  10.865  66.317  1.00  0.00     0.000 HD 
ENDROOT
BRANCH   2   6
HETATM    6  C   UNL     1      -9.955   9.150  66.659  1.00  0.00    -0.343 C  
BRANCH   6   7
HETATM    7  C   UNL     1     -10.298  10.439  65.945  1.00  0.00    -0.261 A  
HETATM    8  C   UNL     1     -10.226  10.526  64.545  1.00  0.00    -0.355 A  
HETATM    9  C   UNL     1     -10.500  11.731  63.894  1.00  0.00    -0.437 A  
HETATM   10  C   UNL     1     -10.860  12.847  64.641  1.00  0.00    -0.342 A  
HETATM   11  C   UNL     1     -10.966  12.772  66.023  1.00  0.00    -0.306 A  
HETATM   12  O   UNL     1     -11.117  14.047  64.047  1.00  0.00    -0.570 OA 
HETATM   13  H   UNL     1     -11.363  14.809  64.557  1.00  0.00     0.000 HD 
HETATM   14  C   UNL     1     -10.686  11.571  66.676  1.00  0.00    -0.311 A  
ENDBRANCH   6   7
ENDBRANCH   2   6
TORSDOF 2
ENDMDL
MODEL      160
REMARK 921   NORMALIZED FREE ENERGY PREDICTED BY IDOCK:   -2.63 KCAL/MOL
REMARK 922        TOTAL FREE ENERGY PREDICTED BY IDOCK:   -3.12 KCAL/MOL
REMARK 923 INTER-LIGAND FREE ENERGY PREDICTED BY IDOCK:   -2.91 KCAL/MOL
REMARK 924 INTRA-LIGAND FREE ENERGY PREDICTED BY IDOCK:   -0.21 KCAL/MOL
REMARK 927      BINDING AFFINITY PREDICTED BY RF-SCORE:    0.00 PKD
ROOT
HETATM    1  C   UNL     1      -8.253   4.301  66.229  1.00  0.00    -0.102 C  
HETATM    2  C   UNL     1      -9.383   5.006  65.478  1.00  0.00    -0.140 C  
HETATM    3  N   UNL     1      -9.702   4.247  64.260  1.00  0.00    -0.276 NA 
HETATM    4  H1  UNL     1     -10.457   4.718  63.759  1.00  0.00     0.000 HD 
HETATM    5  H2  UNL     1      -9.920   3.271  64.459  1.00  0.00     0.000 HD 
ENDROOT
BRANCH   2   6
HETATM    6  C   UNL     1     -10.657   5.165  66.340  1.00  0.00    -0.336 C  
BRANCH   6   7
HETATM    7  C   UNL     1     -10.605   6.332  67.301  1.00  0.00    -0.371 A  
HETATM    8  C   UNL     1     -10.858   6.147  68.669  1.00  0.00    -0.403 A  
HETATM    9  C   UNL     1     -10.853   7.235  69.545  1.00  0.00    -0.224 A  
HETATM   10  C   UNL     1     -10.582   8.508  69.056  1.00  0.00    -0.154 A  
HETATM   11  C   UNL     1     -10.301   8.706  67.711  1.00  0.00    -0.303 A  
HETATM   12  O   UNL     1     -10.587   9.599  69.873  1.00  0.00    -0.215 OA 
HETATM   13  H   UNL     1     -10.402  10.469  69.538  1.00  0.00     0.000 HD 
HETATM   14  C   UNL     1     -10.312   7.621  66.833  1.00  0.00    -0.388 A  
ENDBRANCH   6   7
ENDBRANCH   2   6
TORSDOF 2
ENDMDL
MODEL      161
REMARK 921   NORMALIZED FREE ENERGY PREDICTED BY IDOCK:   -2.61 KCAL/MOL
REMARK 922        TOTAL FREE ENERGY PREDICTED BY IDOCK:   -3.11 KCAL/MOL
REMARK 923 INTER-LIGAND FREE ENERGY PREDICTED BY IDOCK:   -2.90 KCAL/MOL
REMARK 924 INTRA-LIGAND FREE ENERGY PREDICTED BY IDOCK:   -0.20 KCAL/MOL
REMARK 927      BINDING AFFINITY PREDICTED BY RF-SCORE:    0.00 PKD
ROOT
HETATM    1  C   UNL     1      -8.032   9.112  67.193  1.00  0.00    -0.106 C  
HETATM    2  C   UNL     1      -9.465   9.373  66.727  1.00  0.00    -0.165 C  
HETATM    3  N   UNL     1      -9.514   9.318  65.258  1.00  0.00    -0.428 NA 
HETATM    4  H1  UNL     1     -10.470   9.492  64.947  1.00  0.00     0.000 HD 
HETATM    5  H2  UNL     1      -9.141   8.442  64.892  1.00  0.00     0.000 HD 
ENDROOT
BRANCH   2   6
HETATM    6  C   UNL     1     -10.474   8.362  67.318  1.00  0.00    -0.373 C  
BRANCH   6   7
HETATM    7  C   UNL     1     -10.453   8.288  68.829  1.00  0.00    -0.200 A  
HETATM    8  C   UNL     1     -10.168   7.080  69.485  1.00  0.00    -0.208 A  
HETATM    9  C   UNL     1     -10.195   7.007  70.879  1.00  0.00    -0.210 A  
HETATM   10  C   UNL     1     -10.493   8.145  71.621  1.00  0.00    -0.228 A  
HETATM   11  C   UNL     1     -10.749   9.355  70.990  1.00  0.00    -0.407 A  
HETATM   12  O   UNL     1     -10.549   8.112  72.982  1.00  0.00    -0.325 OA 
HETATM   13  H   UNL     1     -10.753   8.890  73.488  1.00  0.00     0.000 HD 
HETATM   14  C   UNL     1     -10.729   9.429  69.597  1.00  0.00    -0.251 A  
ENDBRANCH   6   7
ENDBRANCH   2   6
TORSDOF 2
ENDMDL
MODEL      162
REMARK 921   NORMALIZED FREE ENERGY PREDICTED BY IDOCK:   -2.60 KCAL/MOL
REMARK 922        TOTAL FREE ENERGY PREDICTED BY IDOCK:   -3.09 KCAL/MOL
REMARK 923 INTER-LIGAND FREE ENERGY PREDICTED BY IDOCK:   -3.02 KCAL/MOL
REMARK 924 INTRA-LIGAND FREE ENERGY PREDICTED BY IDOCK:   -0.07 KCAL/MOL
REMARK 927      BINDING AFFINITY PREDICTED BY RF-SCORE:    0.00 PKD
ROOT
HETATM    1  C   UNL     1      -6.923  19.984  68.129  1.00  0.00    -0.330 C  
HETATM    2  C   UNL     1      -7.289  18.501  68.046  1.00  0.00    -0.248 C  
HETATM    3  N   UNL     1      -6.745  17.802  69.219  1.00  0.00    -0.247 NA 
HETATM    4  H1  UNL     1      -6.989  16.813  69.164  1.00  0.00     0.000 HD 
HETATM    5  H2  UNL     1      -7.046  18.226  70.097  1.00  0.00     0.000 HD 
ENDROOT
BRANCH   2   6
HETATM    6  C   UNL     1      -8.816  18.272  67.967  1.00  0.00    -0.290 C  
BRANCH   6   7
HETATM    7  C   UNL     1      -9.204  16.883  67.511  1.00  0.00    -0.223 A  
HETATM    8  C   UNL     1      -9.313  16.580  66.144  1.00  0.00    -0.339 A  
HETATM    9  C   UNL     1      -9.715  15.309  65.729  1.00  0.00    -0.385 A  
HETATM   10  C   UNL     1      -9.997  14.334  66.680  1.00  0.00    -0.275 A  
HETATM   11  C   UNL     1      -9.867  14.607  68.035  1.00  0.00    -0.216 A  
HETATM   12  O   UNL     1     -10.412  13.088  66.318  1.00  0.00    -0.268 OA 
HETATM   13  H   UNL     1     -10.605  12.422  66.967  1.00  0.00     0.000 HD 
HETATM   14  C   UNL     1      -9.471  15.878  68.451  1.00  0.00    -0.201 A  
ENDBRANCH   6   7
ENDBRANCH   2   6
TORSDOF 2
ENDMDL
MODEL      163
REMARK 921   NORMALIZED FREE ENERGY PREDICTED BY IDOCK:   -2.59 KCAL/MOL
REMARK 922        TOTAL FREE ENERGY PREDICTED BY IDOCK:   -3.08 KCAL/MOL
REMARK 923 INTER-LIGAND FREE ENERGY PREDICTED BY IDOCK:   -2.92 KCAL/MOL
REMARK 924 INTRA-LIGAND FREE ENERGY PREDICTED BY IDOCK:   -0.16 KCAL/MOL
REMARK 927      BINDING AFFINITY PREDICTED BY RF-SCORE:    0.00 PKD
ROOT
HETATM    1  C   UNL     1     -12.245  12.110  70.055  1.00  0.00    -0.270 C  
HETATM    2  C   UNL     1     -11.776  10.768  69.488  1.00  0.00    -0.312 C  
HETATM    3  N   UNL     1     -11.447  10.932  68.065  1.00  0.00    -0.458 NA 
HETATM    4  H1  UNL     1     -11.134  10.038  67.687  1.00  0.00     0.000 HD 
HETATM    5  H2  UNL     1     -10.768  11.677  67.909  1.00  0.00     0.000 HD 
ENDROOT
BRANCH   2   6
HETATM    6  C   UNL     1     -10.551  10.203  70.243  1.00  0.00    -0.324 C  
BRANCH   6   7
HETATM    7  C   UNL     1     -10.551   8.696  70.369  1.00  0.00    -0.244 A  
HETATM    8  C   UNL     1     -11.667   8.018  70.887  1.00  0.00    -0.265 A  
HETATM    9  C   UNL     1     -11.645   6.631  71.044  1.00  0.00    -0.399 A  
HETATM   10  C   UNL     1     -10.511   5.916  70.670  1.00  0.00    -0.253 A  
HETATM   11  C   UNL     1      -9.410   6.566  70.129  1.00  0.00    -0.162 A  
HETATM   12  O   UNL     1     -10.441   4.564  70.825  1.00  0.00    -0.074 OA 
HETATM   13  H   UNL     1      -9.667   4.076  70.570  1.00  0.00     0.000 HD 
HETATM   14  C   UNL     1      -9.428   7.953  69.978  1.00  0.00    -0.157 A  
ENDBRANCH   6   7
ENDBRANCH   2   6
TORSDOF 2
ENDMDL
MODEL      164
REMARK 921   NORMALIZED FREE ENERGY PREDICTED BY IDOCK:   -2.58 KCAL/MOL
REMARK 922        TOTAL FREE ENERGY PREDICTED BY IDOCK:   -3.06 KCAL/MOL
REMARK 923 INTER-LIGAND FREE ENERGY PREDICTED BY IDOCK:   -2.90 KCAL/MOL
REMARK 924 INTRA-LIGAND FREE ENERGY PREDICTED BY IDOCK:   -0.16 KCAL/MOL
REMARK 927      BINDING AFFINITY PREDICTED BY RF-SCORE:    0.00 PKD
ROOT
HETATM    1  C   UNL     1      -8.573   8.217  73.772  1.00  0.00    -0.307 C  
HETATM    2  C   UNL     1      -9.263   8.053  72.416  1.00  0.00    -0.202 C  
HETATM    3  N   UNL     1      -9.166   9.316  71.668  1.00  0.00    -0.280 NA 
HETATM    4  H1  UNL     1      -9.625   9.206  70.764  1.00  0.00     0.000 HD 
HETATM    5  H2  UNL     1      -8.203   9.638  71.576  1.00  0.00     0.000 HD 
ENDROOT
BRANCH   2   6
HETATM    6  C   UNL     1      -8.655   6.905  71.577  1.00  0.00    -0.122 C  
BRANCH   6   7
HETATM    7  C   UNL     1      -9.337   6.692  70.244  1.00  0.00    -0.160 A  
HETATM    8  C   UNL     1      -8.627   6.840  69.042  1.00  0.00    -0.131 A  
HETATM    9  C   UNL     1      -9.273   6.686  67.813  1.00  0.00    -0.111 A  
HETATM   10  C   UNL     1     -10.627   6.372  67.785  1.00  0.00    -0.266 A  
HETATM   11  C   UNL     1     -11.339   6.194  68.964  1.00  0.00    -0.257 A  
HETATM   12  O   UNL     1     -11.300   6.233  66.608  1.00  0.00    -0.741 OA 
HETATM   13  H   UNL     1     -12.225   6.019  66.589  1.00  0.00     0.000 HD 
HETATM   14  C   UNL     1     -10.697   6.353  70.192  1.00  0.00    -0.328 A  
ENDBRANCH   6   7
ENDBRANCH   2   6
TORSDOF 2
ENDMDL
MODEL      165
REMARK 921   NORMALIZED FREE ENERGY PREDICTED BY IDOCK:   -2.58 KCAL/MOL
REMARK 922        TOTAL FREE ENERGY PREDICTED BY IDOCK:   -3.06 KCAL/MOL
REMARK 923 INTER-LIGAND FREE ENERGY PREDICTED BY IDOCK:   -2.90 KCAL/MOL
REMARK 924 INTRA-LIGAND FREE ENERGY PREDICTED BY IDOCK:   -0.16 KCAL/MOL
REMARK 927      BINDING AFFINITY PREDICTED BY RF-SCORE:    0.00 PKD
ROOT
HETATM    1  C   UNL     1      -8.553   2.332  72.026  1.00  0.00    -0.088 C  
HETATM    2  C   UNL     1      -9.641   3.111  72.769  1.00  0.00    -0.112 C  
HETATM    3  N   UNL     1      -9.968   2.411  74.020  1.00  0.00    -0.096 NA 
HETATM    4  H1  UNL     1     -10.693   2.931  74.515  1.00  0.00     0.000 HD 
HETATM    5  H2  UNL     1      -9.144   2.249  74.599  1.00  0.00     0.000 HD 
ENDROOT
BRANCH   2   6
HETATM    6  C   UNL     1      -9.219   4.565  73.082  1.00  0.00    -0.128 C  
BRANCH   6   7
HETATM    7  C   UNL     1     -10.118   5.611  72.462  1.00  0.00    -0.208 A  
HETATM    8  C   UNL     1     -10.584   5.469  71.145  1.00  0.00    -0.303 A  
HETATM    9  C   UNL     1     -11.377   6.459  70.562  1.00  0.00    -0.438 A  
HETATM   10  C   UNL     1     -11.717   7.588  71.300  1.00  0.00    -0.287 A  
HETATM   11  C   UNL     1     -11.290   7.732  72.613  1.00  0.00    -0.449 A  
HETATM   12  O   UNL     1     -12.473   8.587  70.763  1.00  0.00    -0.499 OA 
HETATM   13  H   UNL     1     -12.705   9.358  71.267  1.00  0.00     0.000 HD 
HETATM   14  C   UNL     1     -10.492   6.746  73.195  1.00  0.00    -0.296 A  
ENDBRANCH   6   7
ENDBRANCH   2   6
TORSDOF 2
ENDMDL
MODEL      166
REMARK 921   NORMALIZED FREE ENERGY PREDICTED BY IDOCK:   -2.58 KCAL/MOL
REMARK 922        TOTAL FREE ENERGY PREDICTED BY IDOCK:   -3.06 KCAL/MOL
REMARK 923 INTER-LIGAND FREE ENERGY PREDICTED BY IDOCK:   -2.87 KCAL/MOL
REMARK 924 INTRA-LIGAND FREE ENERGY PREDICTED BY IDOCK:   -0.19 KCAL/MOL
REMARK 927      BINDING AFFINITY PREDICTED BY RF-SCORE:    0.00 PKD
ROOT
HETATM    1  C   UNL     1      -7.603  10.058  63.275  1.00  0.00    -0.140 C  
HETATM    2  C   UNL     1      -9.007  10.633  63.475  1.00  0.00    -0.208 C  
HETATM    3  N   UNL     1      -9.892  10.128  62.415  1.00  0.00    -0.693 NA 
HETATM    4  H1  UNL     1     -10.828  10.511  62.549  1.00  0.00     0.000 HD 
HETATM    5  H2  UNL     1      -9.894   9.109  62.366  1.00  0.00     0.000 HD 
ENDROOT
BRANCH   2   6
HETATM    6  C   UNL     1      -9.599  10.281  64.858  1.00  0.00    -0.365 C  
BRANCH   6   7
HETATM    7  C   UNL     1      -9.257  11.278  65.943  1.00  0.00    -0.229 A  
HETATM    8  C   UNL     1      -9.764  12.586  65.903  1.00  0.00    -0.226 A  
HETATM    9  C   UNL     1      -9.409  13.515  66.883  1.00  0.00    -0.255 A  
HETATM   10  C   UNL     1      -8.555  13.134  67.912  1.00  0.00    -0.185 A  
HETATM   11  C   UNL     1      -8.067  11.836  67.985  1.00  0.00    -0.145 A  
HETATM   12  O   UNL     1      -8.168  14.015  68.877  1.00  0.00    -0.289 OA 
HETATM   13  H   UNL     1      -7.585  13.754  69.580  1.00  0.00     0.000 HD 
HETATM   14  C   UNL     1      -8.416  10.909  67.003  1.00  0.00    -0.134 A  
ENDBRANCH   6   7
ENDBRANCH   2   6
TORSDOF 2
ENDMDL
MODEL      167
REMARK 921   NORMALIZED FREE ENERGY PREDICTED BY IDOCK:   -2.56 KCAL/MOL
REMARK 922        TOTAL FREE ENERGY PREDICTED BY IDOCK:   -3.04 KCAL/MOL
REMARK 923 INTER-LIGAND FREE ENERGY PREDICTED BY IDOCK:   -2.87 KCAL/MOL
REMARK 924 INTRA-LIGAND FREE ENERGY PREDICTED BY IDOCK:   -0.17 KCAL/MOL
REMARK 927      BINDING AFFINITY PREDICTED BY RF-SCORE:    0.00 PKD
ROOT
HETATM    1  C   UNL     1      -9.258  11.473  65.622  1.00  0.00    -0.184 C  
HETATM    2  C   UNL     1      -9.927  10.158  65.215  1.00  0.00    -0.311 C  
HETATM    3  N   UNL     1     -10.148  10.156  63.762  1.00  0.00    -0.467 NA 
HETATM    4  H1  UNL     1     -10.593   9.279  63.491  1.00  0.00     0.000 HD 
HETATM    5  H2  UNL     1      -9.289  10.331  63.240  1.00  0.00     0.000 HD 
ENDROOT
BRANCH   2   6
HETATM    6  C   UNL     1      -9.091   8.920  65.615  1.00  0.00    -0.269 C  
BRANCH   6   7
HETATM    7  C   UNL     1      -9.537   8.271  66.907  1.00  0.00    -0.269 A  
HETATM    8  C   UNL     1      -8.859   8.525  68.110  1.00  0.00    -0.142 A  
HETATM    9  C   UNL     1      -9.247   7.888  69.291  1.00  0.00    -0.148 A  
HETATM   10  C   UNL     1     -10.322   7.006  69.273  1.00  0.00    -0.200 A  
HETATM   11  C   UNL     1     -11.023   6.765  68.099  1.00  0.00    -0.277 A  
HETATM   12  O   UNL     1     -10.720   6.350  70.399  1.00  0.00    -0.228 OA 
HETATM   13  H   UNL     1     -11.455   5.747  70.386  1.00  0.00     0.000 HD 
HETATM   14  C   UNL     1     -10.632   7.396  66.917  1.00  0.00    -0.375 A  
ENDBRANCH   6   7
ENDBRANCH   2   6
TORSDOF 2
ENDMDL
MODEL      168
REMARK 921   NORMALIZED FREE ENERGY PREDICTED BY IDOCK:   -2.55 KCAL/MOL
REMARK 922        TOTAL FREE ENERGY PREDICTED BY IDOCK:   -3.04 KCAL/MOL
REMARK 923 INTER-LIGAND FREE ENERGY PREDICTED BY IDOCK:   -3.05 KCAL/MOL
REMARK 924 INTRA-LIGAND FREE ENERGY PREDICTED BY IDOCK:    0.02 KCAL/MOL
REMARK 927      BINDING AFFINITY PREDICTED BY RF-SCORE:    0.00 PKD
ROOT
HETATM    1  C   UNL     1     -10.574   8.563  72.401  1.00  0.00    -0.368 C  
HETATM    2  C   UNL     1     -11.807   8.330  71.526  1.00  0.00    -0.293 C  
HETATM    3  N   UNL     1     -11.473   8.638  70.128  1.00  0.00    -0.457 NA 
HETATM    4  H1  UNL     1     -12.295   8.482  69.544  1.00  0.00     0.000 HD 
HETATM    5  H2  UNL     1     -10.661   8.115  69.800  1.00  0.00     0.000 HD 
ENDROOT
BRANCH   2   6
HETATM    6  C   UNL     1     -12.338   6.882  71.626  1.00  0.00    -0.413 C  
BRANCH   6   7
HETATM    7  C   UNL     1     -11.298   5.876  72.066  1.00  0.00    -0.325 A  
HETATM    8  C   UNL     1     -11.216   5.466  73.407  1.00  0.00    -0.270 A  
HETATM    9  C   UNL     1     -10.224   4.572  73.816  1.00  0.00    -0.233 A  
HETATM   10  C   UNL     1      -9.321   4.076  72.883  1.00  0.00    -0.114 A  
HETATM   11  C   UNL     1      -9.404   4.447  71.548  1.00  0.00    -0.203 A  
HETATM   12  O   UNL     1      -8.327   3.217  73.244  1.00  0.00    -0.073 OA 
HETATM   13  H   UNL     1      -7.709   2.878  72.606  1.00  0.00     0.000 HD 
HETATM   14  C   UNL     1     -10.390   5.346  71.138  1.00  0.00    -0.304 A  
ENDBRANCH   6   7
ENDBRANCH   2   6
TORSDOF 2
ENDMDL
MODEL      169
REMARK 921   NORMALIZED FREE ENERGY PREDICTED BY IDOCK:   -2.55 KCAL/MOL
REMARK 922        TOTAL FREE ENERGY PREDICTED BY IDOCK:   -3.03 KCAL/MOL
REMARK 923 INTER-LIGAND FREE ENERGY PREDICTED BY IDOCK:   -3.18 KCAL/MOL
REMARK 924 INTRA-LIGAND FREE ENERGY PREDICTED BY IDOCK:    0.15 KCAL/MOL
REMARK 927      BINDING AFFINITY PREDICTED BY RF-SCORE:    0.00 PKD
ROOT
HETATM    1  C   UNL     1      -9.787   8.620  70.046  1.00  0.00    -0.185 C  
HETATM    2  C   UNL     1     -10.514   9.242  68.853  1.00  0.00    -0.215 C  
HETATM    3  N   UNL     1     -11.759   9.871  69.318  1.00  0.00    -0.460 NA 
HETATM    4  H1  UNL     1     -12.244  10.287  68.523  1.00  0.00     0.000 HD 
HETATM    5  H2  UNL     1     -11.595  10.545  70.066  1.00  0.00     0.000 HD 
ENDROOT
BRANCH   2   6
HETATM    6  C   UNL     1      -9.649  10.288  68.113  1.00  0.00    -0.151 C  
BRANCH   6   7
HETATM    7  C   UNL     1     -10.430  11.480  67.605  1.00  0.00    -0.218 A  
HETATM    8  C   UNL     1     -11.018  11.465  66.330  1.00  0.00    -0.315 A  
HETATM    9  C   UNL     1     -11.699  12.584  65.849  1.00  0.00    -0.480 A  
HETATM   10  C   UNL     1     -11.805  13.718  66.647  1.00  0.00    -0.412 A  
HETATM   11  C   UNL     1     -11.256  13.742  67.922  1.00  0.00    -0.299 A  
HETATM   12  O   UNL     1     -12.444  14.839  66.209  1.00  0.00    -0.189 OA 
HETATM   13  H   UNL     1     -12.517  15.613  66.754  1.00  0.00     0.000 HD 
HETATM   14  C   UNL     1     -10.570  12.626  68.402  1.00  0.00    -0.258 A  
ENDBRANCH   6   7
ENDBRANCH   2   6
TORSDOF 2
ENDMDL
MODEL      170
REMARK 921   NORMALIZED FREE ENERGY PREDICTED BY IDOCK:   -2.51 KCAL/MOL
REMARK 922        TOTAL FREE ENERGY PREDICTED BY IDOCK:   -2.99 KCAL/MOL
REMARK 923 INTER-LIGAND FREE ENERGY PREDICTED BY IDOCK:   -3.00 KCAL/MOL
REMARK 924 INTRA-LIGAND FREE ENERGY PREDICTED BY IDOCK:    0.01 KCAL/MOL
REMARK 927      BINDING AFFINITY PREDICTED BY RF-SCORE:    0.00 PKD
ROOT
HETATM    1  C   UNL     1      -8.651   9.823  68.146  1.00  0.00    -0.118 C  
HETATM    2  C   UNL     1      -8.876   9.521  66.663  1.00  0.00    -0.135 C  
HETATM    3  N   UNL     1     -10.038   8.631  66.521  1.00  0.00    -0.301 NA 
HETATM    4  H1  UNL     1     -10.188   8.430  65.532  1.00  0.00     0.000 HD 
HETATM    5  H2  UNL     1     -10.872   9.009  66.970  1.00  0.00     0.000 HD 
ENDROOT
BRANCH   2   6
HETATM    6  C   UNL     1      -9.098  10.802  65.825  1.00  0.00    -0.208 C  
BRANCH   6   7
HETATM    7  C   UNL     1      -9.877  11.879  66.547  1.00  0.00    -0.225 A  
HETATM    8  C   UNL     1      -9.219  12.975  67.127  1.00  0.00    -0.226 A  
HETATM    9  C   UNL     1      -9.937  13.943  67.831  1.00  0.00    -0.242 A  
HETATM   10  C   UNL     1     -11.318  13.824  67.946  1.00  0.00    -0.299 A  
HETATM   11  C   UNL     1     -11.990  12.762  67.354  1.00  0.00    -0.335 A  
HETATM   12  O   UNL     1     -12.055  14.735  68.640  1.00  0.00    -0.525 OA 
HETATM   13  H   UNL     1     -12.998  14.653  68.719  1.00  0.00     0.000 HD 
HETATM   14  C   UNL     1     -11.272  11.790  66.656  1.00  0.00    -0.383 A  
ENDBRANCH   6   7
ENDBRANCH   2   6
TORSDOF 2
ENDMDL
MODEL      171
REMARK 921   NORMALIZED FREE ENERGY PREDICTED BY IDOCK:   -2.50 KCAL/MOL
REMARK 922        TOTAL FREE ENERGY PREDICTED BY IDOCK:   -2.98 KCAL/MOL
REMARK 923 INTER-LIGAND FREE ENERGY PREDICTED BY IDOCK:   -2.82 KCAL/MOL
REMARK 924 INTRA-LIGAND FREE ENERGY PREDICTED BY IDOCK:   -0.16 KCAL/MOL
REMARK 927      BINDING AFFINITY PREDICTED BY RF-SCORE:    0.00 PKD
ROOT
HETATM    1  C   UNL     1     -10.728   5.428  72.286  1.00  0.00    -0.287 C  
HETATM    2  C   UNL     1     -10.903   6.928  72.041  1.00  0.00    -0.225 C  
HETATM    3  N   UNL     1     -11.357   7.572  73.283  1.00  0.00    -0.614 NA 
HETATM    4  H1  UNL     1     -11.473   8.572  73.119  1.00  0.00     0.000 HD 
HETATM    5  H2  UNL     1     -10.735   7.378  74.068  1.00  0.00     0.000 HD 
ENDROOT
BRANCH   2   6
HETATM    6  C   UNL     1      -9.601   7.603  71.552  1.00  0.00    -0.179 C  
BRANCH   6   7
HETATM    7  C   UNL     1      -9.757   8.365  70.254  1.00  0.00    -0.178 A  
HETATM    8  C   UNL     1      -9.411   9.723  70.172  1.00  0.00    -0.261 A  
HETATM    9  C   UNL     1      -9.599  10.433  68.985  1.00  0.00    -0.212 A  
HETATM   10  C   UNL     1     -10.121   9.783  67.872  1.00  0.00    -0.173 A  
HETATM   11  C   UNL     1     -10.441   8.433  67.925  1.00  0.00    -0.255 A  
HETATM   12  O   UNL     1     -10.338  10.443  66.700  1.00  0.00    -0.229 OA 
HETATM   13  H   UNL     1     -10.694   9.998  65.940  1.00  0.00     0.000 HD 
HETATM   14  C   UNL     1     -10.260   7.724  69.113  1.00  0.00    -0.210 A  
ENDBRANCH   6   7
ENDBRANCH   2   6
TORSDOF 2
ENDMDL
MODEL      172
REMARK 921   NORMALIZED FREE ENERGY PREDICTED BY IDOCK:   -2.50 KCAL/MOL
REMARK 922        TOTAL FREE ENERGY PREDICTED BY IDOCK:   -2.98 KCAL/MOL
REMARK 923 INTER-LIGAND FREE ENERGY PREDICTED BY IDOCK:   -2.98 KCAL/MOL
REMARK 924 INTRA-LIGAND FREE ENERGY PREDICTED BY IDOCK:    0.01 KCAL/MOL
REMARK 927      BINDING AFFINITY PREDICTED BY RF-SCORE:    0.00 PKD
ROOT
HETATM    1  C   UNL     1     -12.714  10.470  71.445  1.00  0.00    -0.547 C  
HETATM    2  C   UNL     1     -12.003   9.906  70.214  1.00  0.00    -0.138 C  
HETATM    3  N   UNL     1     -12.487  10.603  69.013  1.00  0.00    -0.740 NA 
HETATM    4  H1  UNL     1     -12.012  10.227  68.193  1.00  0.00     0.000 HD 
HETATM    5  H2  UNL     1     -12.386  11.616  69.088  1.00  0.00     0.000 HD 
ENDROOT
BRANCH   2   6
HETATM    6  C   UNL     1     -10.466  10.036  70.307  1.00  0.00    -0.331 C  
BRANCH   6   7
HETATM    7  C   UNL     1      -9.782   8.824  70.899  1.00  0.00    -0.277 A  
HETATM    8  C   UNL     1      -8.582   8.338  70.356  1.00  0.00    -0.134 A  
HETATM    9  C   UNL     1      -7.979   7.192  70.878  1.00  0.00    -0.096 A  
HETATM   10  C   UNL     1      -8.569   6.536  71.953  1.00  0.00    -0.129 A  
HETATM   11  C   UNL     1      -9.740   7.018  72.522  1.00  0.00    -0.170 A  
HETATM   12  O   UNL     1      -8.024   5.404  72.480  1.00  0.00    -0.101 OA 
HETATM   13  H   UNL     1      -8.427   4.956  73.214  1.00  0.00     0.000 HD 
HETATM   14  C   UNL     1     -10.347   8.160  71.997  1.00  0.00    -0.320 A  
ENDBRANCH   6   7
ENDBRANCH   2   6
TORSDOF 2
ENDMDL
MODEL      173
REMARK 921   NORMALIZED FREE ENERGY PREDICTED BY IDOCK:   -2.45 KCAL/MOL
REMARK 922        TOTAL FREE ENERGY PREDICTED BY IDOCK:   -2.92 KCAL/MOL
REMARK 923 INTER-LIGAND FREE ENERGY PREDICTED BY IDOCK:   -2.77 KCAL/MOL
REMARK 924 INTRA-LIGAND FREE ENERGY PREDICTED BY IDOCK:   -0.16 KCAL/MOL
REMARK 927      BINDING AFFINITY PREDICTED BY RF-SCORE:    0.00 PKD
ROOT
HETATM    1  C   UNL     1     -11.049  12.561  63.622  1.00  0.00    -0.523 C  
HETATM    2  C   UNL     1     -10.370  11.192  63.719  1.00  0.00    -0.386 C  
HETATM    3  N   UNL     1     -10.022  10.729  62.368  1.00  0.00    -0.701 NA 
HETATM    4  H1  UNL     1      -9.570   9.817  62.432  1.00  0.00     0.000 HD 
HETATM    5  H2  UNL     1      -9.454  11.407  61.860  1.00  0.00     0.000 HD 
ENDROOT
BRANCH   2   6
HETATM    6  C   UNL     1      -9.101  11.222  64.601  1.00  0.00    -0.015 C  
BRANCH   6   7
HETATM    7  C   UNL     1      -9.001  10.065  65.570  1.00  0.00    -0.206 A  
HETATM    8  C   UNL     1      -8.183   8.959  65.287  1.00  0.00    -0.139 A  
HETATM    9  C   UNL     1      -8.129   7.874  66.164  1.00  0.00    -0.109 A  
HETATM   10  C   UNL     1      -8.884   7.897  67.331  1.00  0.00    -0.127 A  
HETATM   11  C   UNL     1      -9.677   8.993  67.642  1.00  0.00    -0.196 A  
HETATM   12  O   UNL     1      -8.876   6.850  68.204  1.00  0.00    -0.126 OA 
HETATM   13  H   UNL     1      -9.392   6.865  69.001  1.00  0.00     0.000 HD 
HETATM   14  C   UNL     1      -9.737  10.076  66.764  1.00  0.00    -0.239 A  
ENDBRANCH   6   7
ENDBRANCH   2   6
TORSDOF 2
ENDMDL
MODEL      174
REMARK 921   NORMALIZED FREE ENERGY PREDICTED BY IDOCK:   -2.45 KCAL/MOL
REMARK 922        TOTAL FREE ENERGY PREDICTED BY IDOCK:   -2.92 KCAL/MOL
REMARK 923 INTER-LIGAND FREE ENERGY PREDICTED BY IDOCK:   -2.71 KCAL/MOL
REMARK 924 INTRA-LIGAND FREE ENERGY PREDICTED BY IDOCK:   -0.21 KCAL/MOL
REMARK 927      BINDING AFFINITY PREDICTED BY RF-SCORE:    0.00 PKD
ROOT
HETATM    1  C   UNL     1      -8.213   4.495  70.347  1.00  0.00    -0.072 C  
HETATM    2  C   UNL     1      -9.704   4.151  70.370  1.00  0.00    -0.201 C  
HETATM    3  N   UNL     1      -9.981   3.277  71.520  1.00  0.00    -0.137 NA 
HETATM    4  H1  UNL     1     -10.975   3.048  71.536  1.00  0.00     0.000 HD 
HETATM    5  H2  UNL     1      -9.664   3.684  72.400  1.00  0.00     0.000 HD 
ENDROOT
BRANCH   2   6
HETATM    6  C   UNL     1     -10.601   5.409  70.446  1.00  0.00    -0.322 C  
BRANCH   6   7
HETATM    7  C   UNL     1     -10.502   6.305  69.232  1.00  0.00    -0.298 A  
HETATM    8  C   UNL     1     -10.253   7.680  69.373  1.00  0.00    -0.206 A  
HETATM    9  C   UNL     1     -10.208   8.511  68.252  1.00  0.00    -0.244 A  
HETATM   10  C   UNL     1     -10.399   7.967  66.986  1.00  0.00    -0.341 A  
HETATM   11  C   UNL     1     -10.617   6.605  66.825  1.00  0.00    -0.315 A  
HETATM   12  O   UNL     1     -10.382   8.745  65.868  1.00  0.00    -0.276 OA 
HETATM   13  H   UNL     1     -10.513   8.374  65.004  1.00  0.00     0.000 HD 
HETATM   14  C   UNL     1     -10.669   5.774  67.945  1.00  0.00    -0.295 A  
ENDBRANCH   6   7
ENDBRANCH   2   6
TORSDOF 2
ENDMDL
MODEL      175
REMARK 921   NORMALIZED FREE ENERGY PREDICTED BY IDOCK:   -2.44 KCAL/MOL
REMARK 922        TOTAL FREE ENERGY PREDICTED BY IDOCK:   -2.92 KCAL/MOL
REMARK 923 INTER-LIGAND FREE ENERGY PREDICTED BY IDOCK:   -2.72 KCAL/MOL
REMARK 924 INTRA-LIGAND FREE ENERGY PREDICTED BY IDOCK:   -0.20 KCAL/MOL
REMARK 927      BINDING AFFINITY PREDICTED BY RF-SCORE:    0.00 PKD
ROOT
HETATM    1  C   UNL     1      -9.326   6.638  68.357  1.00  0.00    -0.123 C  
HETATM    2  C   UNL     1      -9.991   7.245  67.119  1.00  0.00    -0.215 C  
HETATM    3  N   UNL     1     -11.107   6.386  66.699  1.00  0.00    -0.721 NA 
HETATM    4  H1  UNL     1     -11.550   6.790  65.874  1.00  0.00     0.000 HD 
HETATM    5  H2  UNL     1     -11.773   6.220  67.453  1.00  0.00     0.000 HD 
ENDROOT
BRANCH   2   6
HETATM    6  C   UNL     1     -10.506   8.681  67.369  1.00  0.00    -0.351 C  
BRANCH   6   7
HETATM    7  C   UNL     1      -9.453   9.751  67.186  1.00  0.00    -0.189 A  
HETATM    8  C   UNL     1      -8.841   9.952  65.939  1.00  0.00    -0.171 A  
HETATM    9  C   UNL     1      -7.837  10.910  65.787  1.00  0.00    -0.057 A  
HETATM   10  C   UNL     1      -7.452  11.679  66.879  1.00  0.00    -0.131 A  
HETATM   11  C   UNL     1      -8.066  11.515  68.114  1.00  0.00    -0.146 A  
HETATM   12  O   UNL     1      -6.463  12.611  66.779  1.00  0.00    -0.466 OA 
HETATM   13  H   UNL     1      -6.200  13.136  67.526  1.00  0.00     0.000 HD 
HETATM   14  C   UNL     1      -9.065  10.553  68.269  1.00  0.00    -0.146 A  
ENDBRANCH   6   7
ENDBRANCH   2   6
TORSDOF 2
ENDMDL
MODEL      176
REMARK 921   NORMALIZED FREE ENERGY PREDICTED BY IDOCK:   -2.44 KCAL/MOL
REMARK 922        TOTAL FREE ENERGY PREDICTED BY IDOCK:   -2.91 KCAL/MOL
REMARK 923 INTER-LIGAND FREE ENERGY PREDICTED BY IDOCK:   -2.74 KCAL/MOL
REMARK 924 INTRA-LIGAND FREE ENERGY PREDICTED BY IDOCK:   -0.17 KCAL/MOL
REMARK 927      BINDING AFFINITY PREDICTED BY RF-SCORE:    0.00 PKD
ROOT
HETATM    1  C   UNL     1     -12.909  13.561  70.710  1.00  0.00    -0.243 C  
HETATM    2  C   UNL     1     -11.671  13.395  69.826  1.00  0.00    -0.286 C  
HETATM    3  N   UNL     1     -11.658  12.038  69.261  1.00  0.00    -0.298 NA 
HETATM    4  H1  UNL     1     -10.833  11.927  68.672  1.00  0.00     0.000 HD 
HETATM    5  H2  UNL     1     -12.521  11.818  68.764  1.00  0.00     0.000 HD 
ENDROOT
BRANCH   2   6
HETATM    6  C   UNL     1     -11.617  14.434  68.683  1.00  0.00    -0.347 C  
BRANCH   6   7
HETATM    7  C   UNL     1     -10.213  14.810  68.264  1.00  0.00    -0.227 A  
HETATM    8  C   UNL     1      -9.854  14.850  66.907  1.00  0.00    -0.246 A  
HETATM    9  C   UNL     1      -8.546  15.154  66.527  1.00  0.00    -0.226 A  
HETATM   10  C   UNL     1      -7.595  15.432  67.504  1.00  0.00    -0.181 A  
HETATM   11  C   UNL     1      -7.938  15.426  68.849  1.00  0.00    -0.177 A  
HETATM   12  O   UNL     1      -6.303  15.714  67.177  1.00  0.00    -0.308 OA 
HETATM   13  H   UNL     1      -5.653  15.903  67.844  1.00  0.00     0.000 HD 
HETATM   14  C   UNL     1      -9.244  15.116  69.230  1.00  0.00    -0.205 A  
ENDBRANCH   6   7
ENDBRANCH   2   6
TORSDOF 2
ENDMDL
MODEL      177
REMARK 921   NORMALIZED FREE ENERGY PREDICTED BY IDOCK:   -2.43 KCAL/MOL
REMARK 922        TOTAL FREE ENERGY PREDICTED BY IDOCK:   -2.90 KCAL/MOL
REMARK 923 INTER-LIGAND FREE ENERGY PREDICTED BY IDOCK:   -2.96 KCAL/MOL
REMARK 924 INTRA-LIGAND FREE ENERGY PREDICTED BY IDOCK:    0.06 KCAL/MOL
REMARK 927      BINDING AFFINITY PREDICTED BY RF-SCORE:    0.00 PKD
ROOT
HETATM    1  C   UNL     1      -6.121  18.513  67.403  1.00  0.00    -0.177 C  
HETATM    2  C   UNL     1      -6.659  17.451  66.442  1.00  0.00    -0.257 C  
HETATM    3  N   UNL     1      -6.254  16.120  66.916  1.00  0.00    -0.309 NA 
HETATM    4  H1  UNL     1      -6.613  15.412  66.276  1.00  0.00     0.000 HD 
HETATM    5  H2  UNL     1      -6.539  15.949  67.881  1.00  0.00     0.000 HD 
ENDROOT
BRANCH   2   6
HETATM    6  C   UNL     1      -8.197  17.506  66.300  1.00  0.00    -0.275 C  
BRANCH   6   7
HETATM    7  C   UNL     1      -8.927  16.483  67.143  1.00  0.00    -0.221 A  
HETATM    8  C   UNL     1      -9.113  16.687  68.519  1.00  0.00    -0.234 A  
HETATM    9  C   UNL     1      -9.747  15.719  69.301  1.00  0.00    -0.263 A  
HETATM   10  C   UNL     1     -10.209  14.551  68.704  1.00  0.00    -0.243 A  
HETATM   11  C   UNL     1     -10.061  14.345  67.339  1.00  0.00    -0.243 A  
HETATM   12  O   UNL     1     -10.816  13.573  69.434  1.00  0.00    -0.432 OA 
HETATM   13  H   UNL     1     -11.132  12.775  69.026  1.00  0.00     0.000 HD 
HETATM   14  C   UNL     1      -9.421  15.308  66.558  1.00  0.00    -0.308 A  
ENDBRANCH   6   7
ENDBRANCH   2   6
TORSDOF 2
ENDMDL
MODEL      178
REMARK 921   NORMALIZED FREE ENERGY PREDICTED BY IDOCK:   -2.41 KCAL/MOL
REMARK 922        TOTAL FREE ENERGY PREDICTED BY IDOCK:   -2.88 KCAL/MOL
REMARK 923 INTER-LIGAND FREE ENERGY PREDICTED BY IDOCK:   -2.70 KCAL/MOL
REMARK 924 INTRA-LIGAND FREE ENERGY PREDICTED BY IDOCK:   -0.18 KCAL/MOL
REMARK 927      BINDING AFFINITY PREDICTED BY RF-SCORE:    0.00 PKD
ROOT
HETATM    1  C   UNL     1     -11.332  13.090  67.316  1.00  0.00    -0.348 C  
HETATM    2  C   UNL     1     -10.815  12.629  68.680  1.00  0.00    -0.249 C  
HETATM    3  N   UNL     1     -10.904  13.745  69.633  1.00  0.00    -0.449 NA 
HETATM    4  H1  UNL     1     -10.559  13.438  70.543  1.00  0.00     0.000 HD 
HETATM    5  H2  UNL     1     -11.845  14.134  69.687  1.00  0.00     0.000 HD 
ENDROOT
BRANCH   2   6
HETATM    6  C   UNL     1     -11.597  11.414  69.229  1.00  0.00    -0.384 C  
BRANCH   6   7
HETATM    7  C   UNL     1     -10.739  10.191  69.466  1.00  0.00    -0.277 A  
HETATM    8  C   UNL     1     -11.284   9.032  70.042  1.00  0.00    -0.141 A  
HETATM    9  C   UNL     1     -10.478   7.921  70.300  1.00  0.00    -0.225 A  
HETATM   10  C   UNL     1      -9.128   7.962  69.969  1.00  0.00    -0.152 A  
HETATM   11  C   UNL     1      -8.578   9.088  69.372  1.00  0.00    -0.137 A  
HETATM   12  O   UNL     1      -8.302   6.908  70.222  1.00  0.00    -0.130 OA 
HETATM   13  H   UNL     1      -7.380   6.936  69.996  1.00  0.00     0.000 HD 
HETATM   14  C   UNL     1      -9.381  10.201  69.120  1.00  0.00    -0.205 A  
ENDBRANCH   6   7
ENDBRANCH   2   6
TORSDOF 2
ENDMDL
MODEL      179
REMARK 921   NORMALIZED FREE ENERGY PREDICTED BY IDOCK:   -2.40 KCAL/MOL
REMARK 922        TOTAL FREE ENERGY PREDICTED BY IDOCK:   -2.87 KCAL/MOL
REMARK 923 INTER-LIGAND FREE ENERGY PREDICTED BY IDOCK:   -2.88 KCAL/MOL
REMARK 924 INTRA-LIGAND FREE ENERGY PREDICTED BY IDOCK:    0.01 KCAL/MOL
REMARK 927      BINDING AFFINITY PREDICTED BY RF-SCORE:    0.00 PKD
ROOT
HETATM    1  C   UNL     1      -8.427   5.908  70.224  1.00  0.00    -0.127 C  
HETATM    2  C   UNL     1      -9.744   5.325  70.741  1.00  0.00    -0.185 C  
HETATM    3  N   UNL     1      -9.772   5.421  72.208  1.00  0.00    -0.155 NA 
HETATM    4  H1  UNL     1     -10.650   5.033  72.553  1.00  0.00     0.000 HD 
HETATM    5  H2  UNL     1      -9.615   6.374  72.537  1.00  0.00     0.000 HD 
ENDROOT
BRANCH   2   6
HETATM    6  C   UNL     1     -10.980   6.041  70.150  1.00  0.00    -0.429 C  
BRANCH   6   7
HETATM    7  C   UNL     1     -10.793   7.529  69.958  1.00  0.00    -0.260 A  
HETATM    8  C   UNL     1     -10.508   8.060  68.690  1.00  0.00    -0.196 A  
HETATM    9  C   UNL     1     -10.291   9.430  68.527  1.00  0.00    -0.236 A  
HETATM   10  C   UNL     1     -10.372  10.274  69.629  1.00  0.00    -0.248 A  
HETATM   11  C   UNL     1     -10.682   9.771  70.886  1.00  0.00    -0.375 A  
HETATM   12  O   UNL     1     -10.149  11.613  69.517  1.00  0.00    -0.384 OA 
HETATM   13  H   UNL     1     -10.204  12.189  70.270  1.00  0.00     0.000 HD 
HETATM   14  C   UNL     1     -10.892   8.401  71.052  1.00  0.00    -0.280 A  
ENDBRANCH   6   7
ENDBRANCH   2   6
TORSDOF 2
ENDMDL
MODEL      180
REMARK 921   NORMALIZED FREE ENERGY PREDICTED BY IDOCK:   -2.36 KCAL/MOL
REMARK 922        TOTAL FREE ENERGY PREDICTED BY IDOCK:   -2.82 KCAL/MOL
REMARK 923 INTER-LIGAND FREE ENERGY PREDICTED BY IDOCK:   -2.84 KCAL/MOL
REMARK 924 INTRA-LIGAND FREE ENERGY PREDICTED BY IDOCK:    0.03 KCAL/MOL
REMARK 927      BINDING AFFINITY PREDICTED BY RF-SCORE:    0.00 PKD
ROOT
HETATM    1  C   UNL     1     -11.038   8.525  70.998  1.00  0.00    -0.306 C  
HETATM    2  C   UNL     1     -11.855   7.241  70.832  1.00  0.00    -0.316 C  
HETATM    3  N   UNL     1     -11.634   6.698  69.484  1.00  0.00    -0.640 NA 
HETATM    4  H1  UNL     1     -12.178   5.842  69.374  1.00  0.00     0.000 HD 
HETATM    5  H2  UNL     1     -10.644   6.556  69.282  1.00  0.00     0.000 HD 
ENDROOT
BRANCH   2   6
HETATM    6  C   UNL     1     -11.497   6.171  71.889  1.00  0.00    -0.355 C  
BRANCH   6   7
HETATM    7  C   UNL     1     -10.146   6.378  72.537  1.00  0.00    -0.191 A  
HETATM    8  C   UNL     1      -8.971   5.943  71.903  1.00  0.00    -0.139 A  
HETATM    9  C   UNL     1      -7.731   6.096  72.526  1.00  0.00    -0.103 A  
HETATM   10  C   UNL     1      -7.661   6.696  73.779  1.00  0.00    -0.085 A  
HETATM   11  C   UNL     1      -8.809   7.158  74.408  1.00  0.00    -0.238 A  
HETATM   12  O   UNL     1      -6.474   6.846  74.429  1.00  0.00    -0.082 OA 
HETATM   13  H   UNL     1      -6.427   7.256  75.285  1.00  0.00     0.000 HD 
HETATM   14  C   UNL     1     -10.050   7.000  73.790  1.00  0.00    -0.390 A  
ENDBRANCH   6   7
ENDBRANCH   2   6
TORSDOF 2
ENDMDL
MODEL      181
REMARK 921   NORMALIZED FREE ENERGY PREDICTED BY IDOCK:   -2.33 KCAL/MOL
REMARK 922        TOTAL FREE ENERGY PREDICTED BY IDOCK:   -2.79 KCAL/MOL
REMARK 923 INTER-LIGAND FREE ENERGY PREDICTED BY IDOCK:   -2.63 KCAL/MOL
REMARK 924 INTRA-LIGAND FREE ENERGY PREDICTED BY IDOCK:   -0.16 KCAL/MOL
REMARK 927      BINDING AFFINITY PREDICTED BY RF-SCORE:    0.00 PKD
ROOT
HETATM    1  C   UNL     1      -6.648   8.508  66.425  1.00  0.00    -0.059 C  
HETATM    2  C   UNL     1      -7.409   9.796  66.746  1.00  0.00    -0.091 C  
HETATM    3  N   UNL     1      -6.854  10.898  65.948  1.00  0.00    -0.313 NA 
HETATM    4  H1  UNL     1      -7.361  11.757  66.161  1.00  0.00     0.000 HD 
HETATM    5  H2  UNL     1      -6.850  10.690  64.949  1.00  0.00     0.000 HD 
ENDROOT
BRANCH   2   6
HETATM    6  C   UNL     1      -8.926   9.671  66.474  1.00  0.00    -0.171 C  
BRANCH   6   7
HETATM    7  C   UNL     1      -9.795  10.184  67.600  1.00  0.00    -0.201 A  
HETATM    8  C   UNL     1     -10.784  11.152  67.361  1.00  0.00    -0.294 A  
HETATM    9  C   UNL     1     -11.553  11.655  68.412  1.00  0.00    -0.376 A  
HETATM   10  C   UNL     1     -11.344  11.182  69.703  1.00  0.00    -0.294 A  
HETATM   11  C   UNL     1     -10.391  10.204  69.954  1.00  0.00    -0.308 A  
HETATM   12  O   UNL     1     -12.058  11.661  70.760  1.00  0.00    -0.364 OA 
HETATM   13  H   UNL     1     -11.915  11.338  71.642  1.00  0.00     0.000 HD 
HETATM   14  C   UNL     1      -9.617   9.705  68.906  1.00  0.00    -0.161 A  
ENDBRANCH   6   7
ENDBRANCH   2   6
TORSDOF 2
ENDMDL
MODEL      182
REMARK 921   NORMALIZED FREE ENERGY PREDICTED BY IDOCK:   -2.33 KCAL/MOL
REMARK 922        TOTAL FREE ENERGY PREDICTED BY IDOCK:   -2.79 KCAL/MOL
REMARK 923 INTER-LIGAND FREE ENERGY PREDICTED BY IDOCK:   -2.71 KCAL/MOL
REMARK 924 INTRA-LIGAND FREE ENERGY PREDICTED BY IDOCK:   -0.08 KCAL/MOL
REMARK 927      BINDING AFFINITY PREDICTED BY RF-SCORE:    0.00 PKD
ROOT
HETATM    1  C   UNL     1     -10.573   3.171  74.106  1.00  0.00    -0.255 C  
HETATM    2  C   UNL     1     -10.891   4.167  72.989  1.00  0.00    -0.164 C  
HETATM    3  N   UNL     1     -11.461   5.388  73.578  1.00  0.00    -0.433 NA 
HETATM    4  H1  UNL     1     -11.672   6.052  72.833  1.00  0.00     0.000 HD 
HETATM    5  H2  UNL     1     -10.856   5.790  74.294  1.00  0.00     0.000 HD 
ENDROOT
BRANCH   2   6
HETATM    6  C   UNL     1      -9.647   4.528  72.146  1.00  0.00    -0.206 C  
BRANCH   6   7
HETATM    7  C   UNL     1      -9.841   5.733  71.253  1.00  0.00    -0.223 A  
HETATM    8  C   UNL     1      -9.156   6.932  71.505  1.00  0.00    -0.144 A  
HETATM    9  C   UNL     1      -9.373   8.055  70.704  1.00  0.00    -0.162 A  
HETATM   10  C   UNL     1     -10.266   7.977  69.641  1.00  0.00    -0.208 A  
HETATM   11  C   UNL     1     -10.930   6.791  69.358  1.00  0.00    -0.321 A  
HETATM   12  O   UNL     1     -10.521   9.055  68.847  1.00  0.00    -0.216 OA 
HETATM   13  H   UNL     1     -11.131   9.001  68.120  1.00  0.00     0.000 HD 
HETATM   14  C   UNL     1     -10.719   5.670  70.162  1.00  0.00    -0.376 A  
ENDBRANCH   6   7
ENDBRANCH   2   6
TORSDOF 2
ENDMDL
MODEL      183
REMARK 921   NORMALIZED FREE ENERGY PREDICTED BY IDOCK:   -2.29 KCAL/MOL
REMARK 922        TOTAL FREE ENERGY PREDICTED BY IDOCK:   -2.75 KCAL/MOL
REMARK 923 INTER-LIGAND FREE ENERGY PREDICTED BY IDOCK:   -2.59 KCAL/MOL
REMARK 924 INTRA-LIGAND FREE ENERGY PREDICTED BY IDOCK:   -0.15 KCAL/MOL
REMARK 927      BINDING AFFINITY PREDICTED BY RF-SCORE:    0.00 PKD
ROOT
HETATM    1  C   UNL     1      -9.780   3.305  71.479  1.00  0.00    -0.233 C  
HETATM    2  C   UNL     1     -10.603   4.468  72.037  1.00  0.00    -0.033 C  
HETATM    3  N   UNL     1     -11.253   4.046  73.287  1.00  0.00    -0.209 NA 
HETATM    4  H1  UNL     1     -11.801   4.821  73.659  1.00  0.00     0.000 HD 
HETATM    5  H2  UNL     1     -10.585   3.683  73.967  1.00  0.00     0.000 HD 
ENDROOT
BRANCH   2   6
HETATM    6  C   UNL     1      -9.746   5.728  72.298  1.00  0.00    -0.174 C  
BRANCH   6   7
HETATM    7  C   UNL     1     -10.218   6.955  71.551  1.00  0.00    -0.210 A  
HETATM    8  C   UNL     1     -10.260   6.971  70.148  1.00  0.00    -0.206 A  
HETATM    9  C   UNL     1     -10.653   8.122  69.463  1.00  0.00    -0.215 A  
HETATM   10  C   UNL     1     -11.019   9.257  70.180  1.00  0.00    -0.246 A  
HETATM   11  C   UNL     1     -11.012   9.250  71.569  1.00  0.00    -0.446 A  
HETATM   12  O   UNL     1     -11.390  10.406  69.551  1.00  0.00    -0.243 OA 
HETATM   13  H   UNL     1     -11.640  11.181  70.041  1.00  0.00     0.000 HD 
HETATM   14  C   UNL     1     -10.612   8.103  72.255  1.00  0.00    -0.378 A  
ENDBRANCH   6   7
ENDBRANCH   2   6
TORSDOF 2
ENDMDL
MODEL      184
REMARK 921   NORMALIZED FREE ENERGY PREDICTED BY IDOCK:   -2.28 KCAL/MOL
REMARK 922        TOTAL FREE ENERGY PREDICTED BY IDOCK:   -2.73 KCAL/MOL
REMARK 923 INTER-LIGAND FREE ENERGY PREDICTED BY IDOCK:   -2.67 KCAL/MOL
REMARK 924 INTRA-LIGAND FREE ENERGY PREDICTED BY IDOCK:   -0.06 KCAL/MOL
REMARK 927      BINDING AFFINITY PREDICTED BY RF-SCORE:    0.00 PKD
ROOT
HETATM    1  C   UNL     1     -10.868   5.061  73.318  1.00  0.00    -0.356 C  
HETATM    2  C   UNL     1     -10.657   6.338  72.502  1.00  0.00    -0.212 C  
HETATM    3  N   UNL     1     -10.611   7.492  73.412  1.00  0.00    -0.379 NA 
HETATM    4  H1  UNL     1     -10.470   8.343  72.868  1.00  0.00     0.000 HD 
HETATM    5  H2  UNL     1      -9.909   7.380  74.144  1.00  0.00     0.000 HD 
ENDROOT
BRANCH   2   6
HETATM    6  C   UNL     1      -9.365   6.293  71.655  1.00  0.00    -0.153 C  
BRANCH   6   7
HETATM    7  C   UNL     1      -9.481   5.451  70.404  1.00  0.00    -0.215 A  
HETATM    8  C   UNL     1      -9.262   4.065  70.447  1.00  0.00    -0.204 A  
HETATM    9  C   UNL     1      -9.327   3.300  69.281  1.00  0.00    -0.233 A  
HETATM   10  C   UNL     1      -9.624   3.917  68.071  1.00  0.00    -0.129 A  
HETATM   11  C   UNL     1      -9.873   5.282  68.014  1.00  0.00    -0.193 A  
HETATM   12  O   UNL     1      -9.678   3.211  66.907  1.00  0.00    -0.408 OA 
HETATM   13  H   UNL     1      -9.880   3.633  66.080  1.00  0.00     0.000 HD 
HETATM   14  C   UNL     1      -9.802   6.049  69.177  1.00  0.00    -0.185 A  
ENDBRANCH   6   7
ENDBRANCH   2   6
TORSDOF 2
ENDMDL
MODEL      185
REMARK 921   NORMALIZED FREE ENERGY PREDICTED BY IDOCK:   -2.26 KCAL/MOL
REMARK 922        TOTAL FREE ENERGY PREDICTED BY IDOCK:   -2.71 KCAL/MOL
REMARK 923 INTER-LIGAND FREE ENERGY PREDICTED BY IDOCK:   -2.55 KCAL/MOL
REMARK 924 INTRA-LIGAND FREE ENERGY PREDICTED BY IDOCK:   -0.16 KCAL/MOL
REMARK 927      BINDING AFFINITY PREDICTED BY RF-SCORE:    0.00 PKD
ROOT
HETATM    1  C   UNL     1      -7.940   4.671  65.945  1.00  0.00    -0.099 C  
HETATM    2  C   UNL     1      -9.173   5.371  66.520  1.00  0.00    -0.138 C  
HETATM    3  N   UNL     1     -10.256   5.338  65.526  1.00  0.00    -0.405 NA 
HETATM    4  H1  UNL     1     -11.078   5.805  65.909  1.00  0.00     0.000 HD 
HETATM    5  H2  UNL     1     -10.461   4.390  65.209  1.00  0.00     0.000 HD 
ENDROOT
BRANCH   2   6
HETATM    6  C   UNL     1      -9.658   4.728  67.838  1.00  0.00    -0.198 C  
BRANCH   6   7
HETATM    7  C   UNL     1      -9.783   5.704  68.987  1.00  0.00    -0.187 A  
HETATM    8  C   UNL     1      -8.641   6.201  69.635  1.00  0.00    -0.128 A  
HETATM    9  C   UNL     1      -8.762   7.066  70.724  1.00  0.00    -0.148 A  
HETATM   10  C   UNL     1     -10.027   7.447  71.159  1.00  0.00    -0.185 A  
HETATM   11  C   UNL     1     -11.167   6.989  70.512  1.00  0.00    -0.335 A  
HETATM   12  O   UNL     1     -10.191   8.274  72.229  1.00  0.00    -0.250 OA 
HETATM   13  H   UNL     1     -11.055   8.534  72.527  1.00  0.00     0.000 HD 
HETATM   14  C   UNL     1     -11.047   6.119  69.428  1.00  0.00    -0.479 A  
ENDBRANCH   6   7
ENDBRANCH   2   6
TORSDOF 2
ENDMDL
MODEL      186
REMARK 921   NORMALIZED FREE ENERGY PREDICTED BY IDOCK:   -2.22 KCAL/MOL
REMARK 922        TOTAL FREE ENERGY PREDICTED BY IDOCK:   -2.67 KCAL/MOL
REMARK 923 INTER-LIGAND FREE ENERGY PREDICTED BY IDOCK:   -2.51 KCAL/MOL
REMARK 924 INTRA-LIGAND FREE ENERGY PREDICTED BY IDOCK:   -0.16 KCAL/MOL
REMARK 927      BINDING AFFINITY PREDICTED BY RF-SCORE:    0.00 PKD
ROOT
HETATM    1  C   UNL     1     -11.120   6.633  67.118  1.00  0.00    -0.427 C  
HETATM    2  C   UNL     1     -10.337   7.937  66.958  1.00  0.00    -0.341 C  
HETATM    3  N   UNL     1     -11.015   9.005  67.707  1.00  0.00    -0.496 NA 
HETATM    4  H1  UNL     1     -10.492   9.874  67.600  1.00  0.00     0.000 HD 
HETATM    5  H2  UNL     1     -11.160   8.758  68.686  1.00  0.00     0.000 HD 
ENDROOT
BRANCH   2   6
HETATM    6  C   UNL     1      -8.874   7.812  67.442  1.00  0.00    -0.128 C  
BRANCH   6   7
HETATM    7  C   UNL     1      -7.908   8.722  66.716  1.00  0.00    -0.097 A  
HETATM    8  C   UNL     1      -6.739   9.178  67.346  1.00  0.00    -0.069 A  
HETATM    9  C   UNL     1      -5.874  10.055  66.688  1.00  0.00    -0.055 A  
HETATM   10  C   UNL     1      -6.170  10.467  65.393  1.00  0.00    -0.127 A  
HETATM   11  C   UNL     1      -7.306  10.003  64.743  1.00  0.00    -0.143 A  
HETATM   12  O   UNL     1      -5.363  11.336  64.722  1.00  0.00    -0.490 OA 
HETATM   13  H   UNL     1      -5.565  11.617  63.837  1.00  0.00     0.000 HD 
HETATM   14  C   UNL     1      -8.175   9.132  65.402  1.00  0.00    -0.131 A  
ENDBRANCH   6   7
ENDBRANCH   2   6
TORSDOF 2
ENDMDL
MODEL      187
REMARK 921   NORMALIZED FREE ENERGY PREDICTED BY IDOCK:   -2.22 KCAL/MOL
REMARK 922        TOTAL FREE ENERGY PREDICTED BY IDOCK:   -2.67 KCAL/MOL
REMARK 923 INTER-LIGAND FREE ENERGY PREDICTED BY IDOCK:   -2.53 KCAL/MOL
REMARK 924 INTRA-LIGAND FREE ENERGY PREDICTED BY IDOCK:   -0.14 KCAL/MOL
REMARK 927      BINDING AFFINITY PREDICTED BY RF-SCORE:    0.00 PKD
ROOT
HETATM    1  C   UNL     1     -12.943   7.194  71.112  1.00  0.00    -0.316 C  
HETATM    2  C   UNL     1     -11.974   8.280  71.583  1.00  0.00    -0.303 C  
HETATM    3  N   UNL     1     -12.710   9.539  71.766  1.00  0.00    -0.373 NA 
HETATM    4  H1  UNL     1     -12.064  10.263  72.081  1.00  0.00     0.000 HD 
HETATM    5  H2  UNL     1     -13.508   9.433  72.394  1.00  0.00     0.000 HD 
ENDROOT
BRANCH   2   6
HETATM    6  C   UNL     1     -11.256   7.902  72.899  1.00  0.00    -0.429 C  
BRANCH   6   7
HETATM    7  C   UNL     1      -9.806   7.514  72.715  1.00  0.00    -0.261 A  
HETATM    8  C   UNL     1      -8.786   8.205  73.390  1.00  0.00    -0.322 A  
HETATM    9  C   UNL     1      -7.446   7.872  73.182  1.00  0.00    -0.150 A  
HETATM   10  C   UNL     1      -7.123   6.839  72.310  1.00  0.00    -0.075 A  
HETATM   11  C   UNL     1      -8.119   6.125  71.657  1.00  0.00    -0.110 A  
HETATM   12  O   UNL     1      -5.828   6.495  72.064  1.00  0.00    -0.036 OA 
HETATM   13  H   UNL     1      -5.607   5.789  71.468  1.00  0.00     0.000 HD 
HETATM   14  C   UNL     1      -9.458   6.460  71.858  1.00  0.00    -0.157 A  
ENDBRANCH   6   7
ENDBRANCH   2   6
TORSDOF 2
ENDMDL
MODEL      188
REMARK 921   NORMALIZED FREE ENERGY PREDICTED BY IDOCK:   -2.22 KCAL/MOL
REMARK 922        TOTAL FREE ENERGY PREDICTED BY IDOCK:   -2.66 KCAL/MOL
REMARK 923 INTER-LIGAND FREE ENERGY PREDICTED BY IDOCK:   -2.49 KCAL/MOL
REMARK 924 INTRA-LIGAND FREE ENERGY PREDICTED BY IDOCK:   -0.17 KCAL/MOL
REMARK 927      BINDING AFFINITY PREDICTED BY RF-SCORE:    0.00 PKD
ROOT
HETATM    1  C   UNL     1      -9.116   3.700  62.868  1.00  0.00    -0.099 C  
HETATM    2  C   UNL     1     -10.171   3.823  63.970  1.00  0.00    -0.229 C  
HETATM    3  N   UNL     1     -11.169   2.756  63.806  1.00  0.00    -0.567 NA 
HETATM    4  H1  UNL     1     -11.872   2.837  64.541  1.00  0.00     0.000 HD 
HETATM    5  H2  UNL     1     -10.744   1.829  63.778  1.00  0.00     0.000 HD 
ENDROOT
BRANCH   2   6
HETATM    6  C   UNL     1      -9.558   3.746  65.387  1.00  0.00    -0.174 C  
BRANCH   6   7
HETATM    7  C   UNL     1      -9.562   5.064  66.129  1.00  0.00    -0.178 A  
HETATM    8  C   UNL     1      -8.358   5.695  66.481  1.00  0.00    -0.110 A  
HETATM    9  C   UNL     1      -8.368   6.889  67.205  1.00  0.00    -0.121 A  
HETATM   10  C   UNL     1      -9.582   7.462  67.567  1.00  0.00    -0.140 A  
HETATM   11  C   UNL     1     -10.783   6.868  67.202  1.00  0.00    -0.436 A  
HETATM   12  O   UNL     1      -9.636   8.616  68.290  1.00  0.00    -0.144 OA 
HETATM   13  H   UNL     1     -10.466   9.007  68.538  1.00  0.00     0.000 HD 
HETATM   14  C   UNL     1     -10.775   5.672  66.485  1.00  0.00    -0.296 A  
ENDBRANCH   6   7
ENDBRANCH   2   6
TORSDOF 2
ENDMDL
MODEL      189
REMARK 921   NORMALIZED FREE ENERGY PREDICTED BY IDOCK:   -2.21 KCAL/MOL
REMARK 922        TOTAL FREE ENERGY PREDICTED BY IDOCK:   -2.66 KCAL/MOL
REMARK 923 INTER-LIGAND FREE ENERGY PREDICTED BY IDOCK:   -2.48 KCAL/MOL
REMARK 924 INTRA-LIGAND FREE ENERGY PREDICTED BY IDOCK:   -0.18 KCAL/MOL
REMARK 927      BINDING AFFINITY PREDICTED BY RF-SCORE:    0.00 PKD
ROOT
HETATM    1  C   UNL     1     -11.474   6.103  72.155  1.00  0.00    -0.361 C  
HETATM    2  C   UNL     1     -11.849   6.725  70.808  1.00  0.00    -0.392 C  
HETATM    3  N   UNL     1     -12.927   7.704  71.010  1.00  0.00    -0.562 NA 
HETATM    4  H1  UNL     1     -13.177   8.118  70.112  1.00  0.00     0.000 HD 
HETATM    5  H2  UNL     1     -12.684   8.408  71.707  1.00  0.00     0.000 HD 
ENDROOT
BRANCH   2   6
HETATM    6  C   UNL     1     -10.648   7.410  70.118  1.00  0.00    -0.240 C  
BRANCH   6   7
HETATM    7  C   UNL     1      -9.641   6.443  69.537  1.00  0.00    -0.154 A  
HETATM    8  C   UNL     1      -8.267   6.731  69.567  1.00  0.00    -0.131 A  
HETATM    9  C   UNL     1      -7.345   5.855  68.989  1.00  0.00    -0.084 A  
HETATM   10  C   UNL     1      -7.794   4.682  68.392  1.00  0.00    -0.080 A  
HETATM   11  C   UNL     1      -9.146   4.366  68.379  1.00  0.00    -0.165 A  
HETATM   12  O   UNL     1      -6.931   3.810  67.800  1.00  0.00    -0.053 OA 
HETATM   13  H   UNL     1      -7.238   3.009  67.392  1.00  0.00     0.000 HD 
HETATM   14  C   UNL     1     -10.069   5.243  68.950  1.00  0.00    -0.254 A  
ENDBRANCH   6   7
ENDBRANCH   2   6
TORSDOF 2
ENDMDL
MODEL      190
REMARK 921   NORMALIZED FREE ENERGY PREDICTED BY IDOCK:   -2.20 KCAL/MOL
REMARK 922        TOTAL FREE ENERGY PREDICTED BY IDOCK:   -2.65 KCAL/MOL
REMARK 923 INTER-LIGAND FREE ENERGY PREDICTED BY IDOCK:   -2.82 KCAL/MOL
REMARK 924 INTRA-LIGAND FREE ENERGY PREDICTED BY IDOCK:    0.17 KCAL/MOL
REMARK 927      BINDING AFFINITY PREDICTED BY RF-SCORE:    0.00 PKD
ROOT
HETATM    1  C   UNL     1      -6.798   7.096  65.590  1.00  0.00    -0.052 C  
HETATM    2  C   UNL     1      -7.767   7.558  66.681  1.00  0.00    -0.101 C  
HETATM    3  N   UNL     1      -7.322   8.858  67.205  1.00  0.00    -0.083 NA 
HETATM    4  H1  UNL     1      -7.967   9.166  67.932  1.00  0.00     0.000 HD 
HETATM    5  H2  UNL     1      -7.209   9.554  66.467  1.00  0.00     0.000 HD 
ENDROOT
BRANCH   2   6
HETATM    6  C   UNL     1      -9.221   7.674  66.171  1.00  0.00    -0.168 C  
BRANCH   6   7
HETATM    7  C   UNL     1      -9.819   9.054  66.333  1.00  0.00    -0.356 A  
HETATM    8  C   UNL     1     -10.456   9.426  67.528  1.00  0.00    -0.343 A  
HETATM    9  C   UNL     1     -11.046  10.685  67.655  1.00  0.00    -0.385 A  
HETATM   10  C   UNL     1     -10.988  11.580  66.593  1.00  0.00    -0.296 A  
HETATM   11  C   UNL     1     -10.337  11.241  65.414  1.00  0.00    -0.328 A  
HETATM   12  O   UNL     1     -11.567  12.811  66.669  1.00  0.00    -0.330 OA 
HETATM   13  H   UNL     1     -11.528  13.423  65.943  1.00  0.00     0.000 HD 
HETATM   14  C   UNL     1      -9.753   9.981  65.283  1.00  0.00    -0.373 A  
ENDBRANCH   6   7
ENDBRANCH   2   6
TORSDOF 2
ENDMDL
MODEL      191
REMARK 921   NORMALIZED FREE ENERGY PREDICTED BY IDOCK:   -2.17 KCAL/MOL
REMARK 922        TOTAL FREE ENERGY PREDICTED BY IDOCK:   -2.61 KCAL/MOL
REMARK 923 INTER-LIGAND FREE ENERGY PREDICTED BY IDOCK:   -2.70 KCAL/MOL
REMARK 924 INTRA-LIGAND FREE ENERGY PREDICTED BY IDOCK:    0.10 KCAL/MOL
REMARK 927      BINDING AFFINITY PREDICTED BY RF-SCORE:    0.00 PKD
ROOT
HETATM    1  C   UNL     1     -11.193  12.202  69.215  1.00  0.00    -0.288 C  
HETATM    2  C   UNL     1     -10.064  12.562  68.248  1.00  0.00    -0.228 C  
HETATM    3  N   UNL     1      -8.811  11.953  68.718  1.00  0.00    -0.378 NA 
HETATM    4  H1  UNL     1      -8.059  12.192  68.073  1.00  0.00     0.000 HD 
HETATM    5  H2  UNL     1      -8.899  10.945  68.853  1.00  0.00     0.000 HD 
ENDROOT
BRANCH   2   6
HETATM    6  C   UNL     1     -10.355  12.102  66.801  1.00  0.00    -0.237 C  
BRANCH   6   7
HETATM    7  C   UNL     1      -9.879  10.699  66.497  1.00  0.00    -0.250 A  
HETATM    8  C   UNL     1     -10.470   9.588  67.121  1.00  0.00    -0.322 A  
HETATM    9  C   UNL     1      -9.997   8.299  66.871  1.00  0.00    -0.343 A  
HETATM   10  C   UNL     1      -8.939   8.115  65.987  1.00  0.00    -0.171 A  
HETATM   11  C   UNL     1      -8.361   9.198  65.339  1.00  0.00    -0.147 A  
HETATM   12  O   UNL     1      -8.435   6.876  65.730  1.00  0.00    -0.141 OA 
HETATM   13  H   UNL     1      -7.712   6.751  65.126  1.00  0.00     0.000 HD 
HETATM   14  C   UNL     1      -8.829  10.488  65.592  1.00  0.00    -0.197 A  
ENDBRANCH   6   7
ENDBRANCH   2   6
TORSDOF 2
ENDMDL
MODEL      192
REMARK 921   NORMALIZED FREE ENERGY PREDICTED BY IDOCK:   -2.17 KCAL/MOL
REMARK 922        TOTAL FREE ENERGY PREDICTED BY IDOCK:   -2.61 KCAL/MOL
REMARK 923 INTER-LIGAND FREE ENERGY PREDICTED BY IDOCK:   -2.56 KCAL/MOL
REMARK 924 INTRA-LIGAND FREE ENERGY PREDICTED BY IDOCK:   -0.04 KCAL/MOL
REMARK 927      BINDING AFFINITY PREDICTED BY RF-SCORE:    0.00 PKD
ROOT
HETATM    1  C   UNL     1      -8.329   9.787  68.327  1.00  0.00    -0.106 C  
HETATM    2  C   UNL     1      -9.450  10.258  69.256  1.00  0.00    -0.215 C  
HETATM    3  N   UNL     1      -9.713  11.684  69.013  1.00  0.00    -0.413 NA 
HETATM    4  H1  UNL     1     -10.460  11.998  69.632  1.00  0.00     0.000 HD 
HETATM    5  H2  UNL     1      -9.915  11.878  68.032  1.00  0.00     0.000 HD 
ENDROOT
BRANCH   2   6
HETATM    6  C   UNL     1     -10.754   9.450  69.067  1.00  0.00    -0.209 C  
BRANCH   6   7
HETATM    7  C   UNL     1     -10.528   8.002  68.692  1.00  0.00    -0.196 A  
HETATM    8  C   UNL     1     -10.084   7.073  69.646  1.00  0.00    -0.194 A  
HETATM    9  C   UNL     1      -9.834   5.748  69.284  1.00  0.00    -0.220 A  
HETATM   10  C   UNL     1     -10.041   5.346  67.969  1.00  0.00    -0.173 A  
HETATM   11  C   UNL     1     -10.509   6.243  67.018  1.00  0.00    -0.341 A  
HETATM   12  O   UNL     1      -9.792   4.067  67.569  1.00  0.00    -0.163 OA 
HETATM   13  H   UNL     1      -9.933   3.792  66.671  1.00  0.00     0.000 HD 
HETATM   14  C   UNL     1     -10.753   7.569  67.377  1.00  0.00    -0.331 A  
ENDBRANCH   6   7
ENDBRANCH   2   6
TORSDOF 2
ENDMDL
MODEL      193
REMARK 921   NORMALIZED FREE ENERGY PREDICTED BY IDOCK:   -2.16 KCAL/MOL
REMARK 922        TOTAL FREE ENERGY PREDICTED BY IDOCK:   -2.59 KCAL/MOL
REMARK 923 INTER-LIGAND FREE ENERGY PREDICTED BY IDOCK:   -2.60 KCAL/MOL
REMARK 924 INTRA-LIGAND FREE ENERGY PREDICTED BY IDOCK:    0.01 KCAL/MOL
REMARK 927      BINDING AFFINITY PREDICTED BY RF-SCORE:    0.00 PKD
ROOT
HETATM    1  C   UNL     1     -10.585   9.570  70.925  1.00  0.00    -0.395 C  
HETATM    2  C   UNL     1     -10.222  10.087  69.532  1.00  0.00    -0.234 C  
HETATM    3  N   UNL     1      -8.862  10.644  69.561  1.00  0.00    -0.398 NA 
HETATM    4  H1  UNL     1      -8.620  10.989  68.632  1.00  0.00     0.000 HD 
HETATM    5  H2  UNL     1      -8.178   9.975  69.916  1.00  0.00     0.000 HD 
ENDROOT
BRANCH   2   6
HETATM    6  C   UNL     1     -10.309   8.986  68.450  1.00  0.00    -0.242 C  
BRANCH   6   7
HETATM    7  C   UNL     1      -9.930   7.609  68.947  1.00  0.00    -0.178 A  
HETATM    8  C   UNL     1     -10.915   6.687  69.333  1.00  0.00    -0.361 A  
HETATM    9  C   UNL     1     -10.558   5.433  69.833  1.00  0.00    -0.351 A  
HETATM   10  C   UNL     1      -9.213   5.093  69.935  1.00  0.00    -0.127 A  
HETATM   11  C   UNL     1      -8.225   5.981  69.530  1.00  0.00    -0.115 A  
HETATM   12  O   UNL     1      -8.820   3.888  70.436  1.00  0.00    -0.075 OA 
HETATM   13  H   UNL     1      -7.902   3.657  70.506  1.00  0.00     0.000 HD 
HETATM   14  C   UNL     1      -8.581   7.237  69.037  1.00  0.00    -0.129 A  
ENDBRANCH   6   7
ENDBRANCH   2   6
TORSDOF 2
ENDMDL
MODEL      194
REMARK 921   NORMALIZED FREE ENERGY PREDICTED BY IDOCK:   -2.12 KCAL/MOL
REMARK 922        TOTAL FREE ENERGY PREDICTED BY IDOCK:   -2.56 KCAL/MOL
REMARK 923 INTER-LIGAND FREE ENERGY PREDICTED BY IDOCK:   -2.57 KCAL/MOL
REMARK 924 INTRA-LIGAND FREE ENERGY PREDICTED BY IDOCK:    0.01 KCAL/MOL
REMARK 927      BINDING AFFINITY PREDICTED BY RF-SCORE:    0.00 PKD
ROOT
HETATM    1  C   UNL     1     -10.556   8.625  67.304  1.00  0.00    -0.308 C  
HETATM    2  C   UNL     1     -10.718  10.087  67.725  1.00  0.00    -0.280 C  
HETATM    3  N   UNL     1     -11.997  10.248  68.431  1.00  0.00    -0.622 NA 
HETATM    4  H1  UNL     1     -12.105  11.223  68.712  1.00  0.00     0.000 HD 
HETATM    5  H2  UNL     1     -12.088   9.606  69.219  1.00  0.00     0.000 HD 
ENDROOT
BRANCH   2   6
HETATM    6  C   UNL     1      -9.561  10.575  68.627  1.00  0.00    -0.171 C  
BRANCH   6   7
HETATM    7  C   UNL     1      -9.091   9.545  69.630  1.00  0.00    -0.207 A  
HETATM    8  C   UNL     1      -9.862   9.241  70.763  1.00  0.00    -0.350 A  
HETATM    9  C   UNL     1      -9.402   8.323  71.710  1.00  0.00    -0.266 A  
HETATM   10  C   UNL     1      -8.175   7.697  71.518  1.00  0.00    -0.103 A  
HETATM   11  C   UNL     1      -7.412   7.963  70.389  1.00  0.00    -0.077 A  
HETATM   12  O   UNL     1      -7.681   6.810  72.426  1.00  0.00    -0.093 OA 
HETATM   13  H   UNL     1      -6.842   6.382  72.295  1.00  0.00     0.000 HD 
HETATM   14  C   UNL     1      -7.867   8.885  69.446  1.00  0.00    -0.098 A  
ENDBRANCH   6   7
ENDBRANCH   2   6
TORSDOF 2
ENDMDL
MODEL      195
REMARK 921   NORMALIZED FREE ENERGY PREDICTED BY IDOCK:   -2.08 KCAL/MOL
REMARK 922        TOTAL FREE ENERGY PREDICTED BY IDOCK:   -2.51 KCAL/MOL
REMARK 923 INTER-LIGAND FREE ENERGY PREDICTED BY IDOCK:   -2.65 KCAL/MOL
REMARK 924 INTRA-LIGAND FREE ENERGY PREDICTED BY IDOCK:    0.15 KCAL/MOL
REMARK 927      BINDING AFFINITY PREDICTED BY RF-SCORE:    0.00 PKD
ROOT
HETATM    1  C   UNL     1      -8.074  17.023  68.037  1.00  0.00    -0.204 C  
HETATM    2  C   UNL     1      -9.250  16.148  67.597  1.00  0.00    -0.205 C  
HETATM    3  N   UNL     1      -8.979  15.614  66.254  1.00  0.00    -0.324 NA 
HETATM    4  H1  UNL     1      -9.763  15.031  65.961  1.00  0.00     0.000 HD 
HETATM    5  H2  UNL     1      -8.089  15.118  66.207  1.00  0.00     0.000 HD 
ENDROOT
BRANCH   2   6
HETATM    6  C   UNL     1      -9.519  14.982  68.575  1.00  0.00    -0.203 C  
BRANCH   6   7
HETATM    7  C   UNL     1      -9.761  13.654  67.893  1.00  0.00    -0.234 A  
HETATM    8  C   UNL     1     -11.045  13.297  67.451  1.00  0.00    -0.300 A  
HETATM    9  C   UNL     1     -11.272  12.051  66.863  1.00  0.00    -0.375 A  
HETATM   10  C   UNL     1     -10.212  11.165  66.703  1.00  0.00    -0.232 A  
HETATM   11  C   UNL     1      -8.930  11.512  67.107  1.00  0.00    -0.166 A  
HETATM   12  O   UNL     1     -10.394   9.932  66.151  1.00  0.00    -0.230 OA 
HETATM   13  H   UNL     1      -9.670   9.326  66.042  1.00  0.00     0.000 HD 
HETATM   14  C   UNL     1      -8.703  12.754  67.701  1.00  0.00    -0.180 A  
ENDBRANCH   6   7
ENDBRANCH   2   6
TORSDOF 2
ENDMDL
MODEL      196
REMARK 921   NORMALIZED FREE ENERGY PREDICTED BY IDOCK:   -2.05 KCAL/MOL
REMARK 922        TOTAL FREE ENERGY PREDICTED BY IDOCK:   -2.47 KCAL/MOL
REMARK 923 INTER-LIGAND FREE ENERGY PREDICTED BY IDOCK:   -2.29 KCAL/MOL
REMARK 924 INTRA-LIGAND FREE ENERGY PREDICTED BY IDOCK:   -0.18 KCAL/MOL
REMARK 927      BINDING AFFINITY PREDICTED BY RF-SCORE:    0.00 PKD
ROOT
HETATM    1  C   UNL     1      -6.895   9.049  64.973  1.00  0.00    -0.076 C  
HETATM    2  C   UNL     1      -8.425   9.015  64.998  1.00  0.00    -0.174 C  
HETATM    3  N   UNL     1      -8.929   8.908  63.621  1.00  0.00    -0.395 NA 
HETATM    4  H1  UNL     1      -9.948   8.885  63.637  1.00  0.00     0.000 HD 
HETATM    5  H2  UNL     1      -8.531   8.110  63.124  1.00  0.00     0.000 HD 
ENDROOT
BRANCH   2   6
HETATM    6  C   UNL     1      -8.977   7.846  65.845  1.00  0.00    -0.166 C  
BRANCH   6   7
HETATM    7  C   UNL     1      -9.327   8.230  67.265  1.00  0.00    -0.181 A  
HETATM    8  C   UNL     1     -10.452   9.024  67.538  1.00  0.00    -0.338 A  
HETATM    9  C   UNL     1     -10.745   9.414  68.847  1.00  0.00    -0.203 A  
HETATM   10  C   UNL     1      -9.921   8.999  69.887  1.00  0.00    -0.191 A  
HETATM   11  C   UNL     1      -8.821   8.189  69.640  1.00  0.00    -0.143 A  
HETATM   12  O   UNL     1     -10.160   9.373  71.175  1.00  0.00    -0.296 OA 
HETATM   13  H   UNL     1      -9.597   9.089  71.886  1.00  0.00     0.000 HD 
HETATM   14  C   UNL     1      -8.523   7.804  68.332  1.00  0.00    -0.125 A  
ENDBRANCH   6   7
ENDBRANCH   2   6
TORSDOF 2
ENDMDL
MODEL      197
REMARK 921   NORMALIZED FREE ENERGY PREDICTED BY IDOCK:   -1.99 KCAL/MOL
REMARK 922        TOTAL FREE ENERGY PREDICTED BY IDOCK:   -2.41 KCAL/MOL
REMARK 923 INTER-LIGAND FREE ENERGY PREDICTED BY IDOCK:   -2.19 KCAL/MOL
REMARK 924 INTRA-LIGAND FREE ENERGY PREDICTED BY IDOCK:   -0.23 KCAL/MOL
REMARK 927      BINDING AFFINITY PREDICTED BY RF-SCORE:    0.00 PKD
ROOT
HETATM    1  C   UNL     1      -9.586   3.421  65.590  1.00  0.00    -0.080 C  
HETATM    2  C   UNL     1      -8.508   4.487  65.792  1.00  0.00    -0.115 C  
HETATM    3  N   UNL     1      -7.814   4.721  64.517  1.00  0.00    -0.086 NA 
HETATM    4  H1  UNL     1      -7.095   5.432  64.651  1.00  0.00     0.000 HD 
HETATM    5  H2  UNL     1      -8.459   4.961  63.764  1.00  0.00     0.000 HD 
ENDROOT
BRANCH   2   6
HETATM    6  C   UNL     1      -9.085   5.820  66.321  1.00  0.00    -0.154 C  
BRANCH   6   7
HETATM    7  C   UNL     1      -9.616   5.738  67.735  1.00  0.00    -0.121 A  
HETATM    8  C   UNL     1     -10.926   6.144  68.036  1.00  0.00    -0.399 A  
HETATM    9  C   UNL     1     -11.396   6.110  69.350  1.00  0.00    -0.401 A  
HETATM   10  C   UNL     1     -10.560   5.657  70.366  1.00  0.00    -0.294 A  
HETATM   11  C   UNL     1      -9.272   5.223  70.083  1.00  0.00    -0.181 A  
HETATM   12  O   UNL     1     -10.973   5.625  71.664  1.00  0.00    -0.253 OA 
HETATM   13  H   UNL     1     -10.402   5.316  72.357  1.00  0.00     0.000 HD 
HETATM   14  C   UNL     1      -8.799   5.263  68.771  1.00  0.00    -0.104 A  
ENDBRANCH   6   7
ENDBRANCH   2   6
TORSDOF 2
ENDMDL
MODEL      198
REMARK 921   NORMALIZED FREE ENERGY PREDICTED BY IDOCK:   -1.99 KCAL/MOL
REMARK 922        TOTAL FREE ENERGY PREDICTED BY IDOCK:   -2.41 KCAL/MOL
REMARK 923 INTER-LIGAND FREE ENERGY PREDICTED BY IDOCK:   -2.34 KCAL/MOL
REMARK 924 INTRA-LIGAND FREE ENERGY PREDICTED BY IDOCK:   -0.07 KCAL/MOL
REMARK 927      BINDING AFFINITY PREDICTED BY RF-SCORE:    0.00 PKD
ROOT
HETATM    1  C   UNL     1      -7.900   9.573  67.144  1.00  0.00    -0.095 C  
HETATM    2  C   UNL     1      -7.666  11.048  66.812  1.00  0.00    -0.146 C  
HETATM    3  N   UNL     1      -6.586  11.156  65.820  1.00  0.00    -0.366 NA 
HETATM    4  H1  UNL     1      -6.431  12.139  65.598  1.00  0.00     0.000 HD 
HETATM    5  H2  UNL     1      -6.768  10.596  64.988  1.00  0.00     0.000 HD 
ENDROOT
BRANCH   2   6
HETATM    6  C   UNL     1      -8.938  11.742  66.271  1.00  0.00    -0.176 C  
BRANCH   6   7
HETATM    7  C   UNL     1      -9.103  13.170  66.741  1.00  0.00    -0.214 A  
HETATM    8  C   UNL     1     -10.350  13.811  66.666  1.00  0.00    -0.279 A  
HETATM    9  C   UNL     1     -10.487  15.144  67.058  1.00  0.00    -0.282 A  
HETATM   10  C   UNL     1      -9.380  15.835  67.539  1.00  0.00    -0.209 A  
HETATM   11  C   UNL     1      -8.146  15.209  67.648  1.00  0.00    -0.177 A  
HETATM   12  O   UNL     1      -9.466  17.142  67.914  1.00  0.00    -0.248 OA 
HETATM   13  H   UNL     1      -8.710  17.614  68.242  1.00  0.00     0.000 HD 
HETATM   14  C   UNL     1      -8.006  13.879  67.250  1.00  0.00    -0.147 A  
ENDBRANCH   6   7
ENDBRANCH   2   6
TORSDOF 2
ENDMDL
MODEL      199
REMARK 921   NORMALIZED FREE ENERGY PREDICTED BY IDOCK:   -1.95 KCAL/MOL
REMARK 922        TOTAL FREE ENERGY PREDICTED BY IDOCK:   -2.37 KCAL/MOL
REMARK 923 INTER-LIGAND FREE ENERGY PREDICTED BY IDOCK:   -2.20 KCAL/MOL
REMARK 924 INTRA-LIGAND FREE ENERGY PREDICTED BY IDOCK:   -0.16 KCAL/MOL
REMARK 927      BINDING AFFINITY PREDICTED BY RF-SCORE:    0.00 PKD
ROOT
HETATM    1  C   UNL     1     -10.795   6.875  67.353  1.00  0.00    -0.396 C  
HETATM    2  C   UNL     1     -10.499   6.818  68.853  1.00  0.00    -0.207 C  
HETATM    3  N   UNL     1     -11.660   7.330  69.595  1.00  0.00    -0.497 NA 
HETATM    4  H1  UNL     1     -11.463   7.292  70.595  1.00  0.00     0.000 HD 
HETATM    5  H2  UNL     1     -12.521   6.840  69.352  1.00  0.00     0.000 HD 
ENDROOT
BRANCH   2   6
HETATM    6  C   UNL     1     -10.163   5.388  69.336  1.00  0.00    -0.334 C  
BRANCH   6   7
HETATM    7  C   UNL     1      -9.093   5.339  70.404  1.00  0.00    -0.173 A  
HETATM    8  C   UNL     1      -8.889   4.175  71.163  1.00  0.00    -0.149 A  
HETATM    9  C   UNL     1      -7.931   4.149  72.179  1.00  0.00    -0.086 A  
HETATM   10  C   UNL     1      -7.165   5.283  72.428  1.00  0.00    -0.092 A  
HETATM   11  C   UNL     1      -7.333   6.433  71.669  1.00  0.00    -0.088 A  
HETATM   12  O   UNL     1      -6.233   5.306  73.422  1.00  0.00    -0.048 OA 
HETATM   13  H   UNL     1      -5.711   6.081  73.593  1.00  0.00     0.000 HD 
HETATM   14  C   UNL     1      -8.294   6.463  70.658  1.00  0.00    -0.133 A  
ENDBRANCH   6   7
ENDBRANCH   2   6
TORSDOF 2
ENDMDL
MODEL      200
REMARK 921   NORMALIZED FREE ENERGY PREDICTED BY IDOCK:   -1.88 KCAL/MOL
REMARK 922        TOTAL FREE ENERGY PREDICTED BY IDOCK:   -2.28 KCAL/MOL
REMARK 923 INTER-LIGAND FREE ENERGY PREDICTED BY IDOCK:   -2.12 KCAL/MOL
REMARK 924 INTRA-LIGAND FREE ENERGY PREDICTED BY IDOCK:   -0.17 KCAL/MOL
REMARK 927      BINDING AFFINITY PREDICTED BY RF-SCORE:    0.00 PKD
ROOT
HETATM    1  C   UNL     1      -5.529  19.867  69.321  1.00  0.00    -0.245 C  
HETATM    2  C   UNL     1      -5.860  18.422  69.702  1.00  0.00    -0.252 C  
HETATM    3  N   UNL     1      -5.250  18.113  71.004  1.00  0.00    -0.303 NA 
HETATM    4  H1  UNL     1      -5.471  17.151  71.258  1.00  0.00     0.000 HD 
HETATM    5  H2  UNL     1      -5.525  18.778  71.727  1.00  0.00     0.000 HD 
ENDROOT
BRANCH   2   6
HETATM    6  C   UNL     1      -7.382  18.161  69.767  1.00  0.00     0.576 C  
BRANCH   6   7
HETATM    7  C   UNL     1      -7.905  17.302  68.638  1.00  0.00    -0.272 A  
HETATM    8  C   UNL     1      -8.581  17.877  67.550  1.00  0.00    -0.239 A  
HETATM    9  C   UNL     1      -9.102  17.074  66.533  1.00  0.00    -0.291 A  
HETATM   10  C   UNL     1      -8.935  15.695  66.595  1.00  0.00    -0.284 A  
HETATM   11  C   UNL     1      -8.243  15.111  67.647  1.00  0.00    -0.178 A  
HETATM   12  O   UNL     1      -9.443  14.874  65.633  1.00  0.00    -0.466 OA 
HETATM   13  H   UNL     1      -9.330  13.932  65.676  1.00  0.00     0.000 HD 
HETATM   14  C   UNL     1      -7.728  15.911  68.668  1.00  0.00    -0.161 A  
ENDBRANCH   6   7
ENDBRANCH   2   6
TORSDOF 2
ENDMDL
MODEL      201
REMARK 921   NORMALIZED FREE ENERGY PREDICTED BY IDOCK:   -1.86 KCAL/MOL
REMARK 922        TOTAL FREE ENERGY PREDICTED BY IDOCK:   -2.27 KCAL/MOL
REMARK 923 INTER-LIGAND FREE ENERGY PREDICTED BY IDOCK:   -2.09 KCAL/MOL
REMARK 924 INTRA-LIGAND FREE ENERGY PREDICTED BY IDOCK:   -0.18 KCAL/MOL
REMARK 927      BINDING AFFINITY PREDICTED BY RF-SCORE:    0.00 PKD
ROOT
HETATM    1  C   UNL     1     -12.061   7.407  71.908  1.00  0.00    -0.341 C  
HETATM    2  C   UNL     1     -11.563   8.274  70.749  1.00  0.00    -0.236 C  
HETATM    3  N   UNL     1     -12.340   9.522  70.710  1.00  0.00    -0.465 NA 
HETATM    4  H1  UNL     1     -12.009  10.100  69.938  1.00  0.00     0.000 HD 
HETATM    5  H2  UNL     1     -12.321  10.018  71.601  1.00  0.00     0.000 HD 
ENDROOT
BRANCH   2   6
HETATM    6  C   UNL     1     -10.057   8.604  70.862  1.00  0.00    -0.262 C  
BRANCH   6   7
HETATM    7  C   UNL     1      -9.241   8.155  69.670  1.00  0.00    -0.155 A  
HETATM    8  C   UNL     1      -9.814   7.358  68.666  1.00  0.00    -0.165 A  
HETATM    9  C   UNL     1      -9.045   6.908  67.591  1.00  0.00    -0.118 A  
HETATM   10  C   UNL     1      -7.703   7.266  67.511  1.00  0.00    -0.111 A  
HETATM   11  C   UNL     1      -7.127   8.077  68.479  1.00  0.00    -0.080 A  
HETATM   12  O   UNL     1      -6.912   6.833  66.490  1.00  0.00    -0.059 OA 
HETATM   13  H   UNL     1      -5.996   7.077  66.435  1.00  0.00     0.000 HD 
HETATM   14  C   UNL     1      -7.893   8.522  69.557  1.00  0.00    -0.097 A  
ENDBRANCH   6   7
ENDBRANCH   2   6
TORSDOF 2
ENDMDL
MODEL      202
REMARK 921   NORMALIZED FREE ENERGY PREDICTED BY IDOCK:   -1.83 KCAL/MOL
REMARK 922        TOTAL FREE ENERGY PREDICTED BY IDOCK:   -2.24 KCAL/MOL
REMARK 923 INTER-LIGAND FREE ENERGY PREDICTED BY IDOCK:   -2.35 KCAL/MOL
REMARK 924 INTRA-LIGAND FREE ENERGY PREDICTED BY IDOCK:    0.11 KCAL/MOL
REMARK 927      BINDING AFFINITY PREDICTED BY RF-SCORE:    0.00 PKD
ROOT
HETATM    1  C   UNL     1      -9.598   4.264  64.497  1.00  0.00    -0.149 C  
HETATM    2  C   UNL     1      -8.302   5.058  64.329  1.00  0.00    -0.136 C  
HETATM    3  N   UNL     1      -8.491   6.080  63.289  1.00  0.00    -0.326 NA 
HETATM    4  H1  UNL     1      -7.627   6.610  63.177  1.00  0.00     0.000 HD 
HETATM    5  H2  UNL     1      -9.292   6.682  63.479  1.00  0.00     0.000 HD 
ENDROOT
BRANCH   2   6
HETATM    6  C   UNL     1      -7.847   5.734  65.643  1.00  0.00    -0.100 C  
BRANCH   6   7
HETATM    7  C   UNL     1      -8.610   6.996  65.979  1.00  0.00    -0.154 A  
HETATM    8  C   UNL     1      -9.808   6.939  66.710  1.00  0.00    -0.243 A  
HETATM    9  C   UNL     1     -10.532   8.102  66.978  1.00  0.00    -0.396 A  
HETATM   10  C   UNL     1     -10.053   9.328  66.527  1.00  0.00    -0.273 A  
HETATM   11  C   UNL     1      -8.855   9.407  65.828  1.00  0.00    -0.204 A  
HETATM   12  O   UNL     1     -10.738  10.484  66.750  1.00  0.00    -0.240 OA 
HETATM   13  H   UNL     1     -10.410  11.321  66.442  1.00  0.00     0.000 HD 
HETATM   14  C   UNL     1      -8.134   8.245  65.554  1.00  0.00    -0.128 A  
ENDBRANCH   6   7
ENDBRANCH   2   6
TORSDOF 2
ENDMDL
MODEL      203
REMARK 921   NORMALIZED FREE ENERGY PREDICTED BY IDOCK:   -1.79 KCAL/MOL
REMARK 922        TOTAL FREE ENERGY PREDICTED BY IDOCK:   -2.18 KCAL/MOL
REMARK 923 INTER-LIGAND FREE ENERGY PREDICTED BY IDOCK:   -3.10 KCAL/MOL
REMARK 924 INTRA-LIGAND FREE ENERGY PREDICTED BY IDOCK:    0.91 KCAL/MOL
REMARK 927      BINDING AFFINITY PREDICTED BY RF-SCORE:    0.00 PKD
ROOT
HETATM    1  C   UNL     1     -12.741  13.756  65.788  1.00  0.00    -0.494 C  
HETATM    2  C   UNL     1     -11.921  13.076  64.690  1.00  0.00    -0.392 C  
HETATM    3  N   UNL     1     -11.114  14.088  63.991  1.00  0.00    -0.527 NA 
HETATM    4  H1  UNL     1     -10.568  13.634  63.259  1.00  0.00     0.000 HD 
HETATM    5  H2  UNL     1     -10.532  14.627  64.631  1.00  0.00     0.000 HD 
ENDROOT
BRANCH   2   6
HETATM    6  C   UNL     1     -10.997  11.966  65.242  1.00  0.00    -0.354 C  
BRANCH   6   7
HETATM    7  C   UNL     1      -9.934  12.471  66.192  1.00  0.00    -0.267 A  
HETATM    8  C   UNL     1     -10.028  13.751  66.761  1.00  0.00    -0.270 A  
HETATM    9  C   UNL     1      -9.021  14.229  67.602  1.00  0.00    -0.194 A  
HETATM   10  C   UNL     1      -7.924  13.422  67.886  1.00  0.00    -0.155 A  
HETATM   11  C   UNL     1      -7.828  12.143  67.356  1.00  0.00    -0.168 A  
HETATM   12  O   UNL     1      -6.910  13.858  68.686  1.00  0.00    -0.088 OA 
HETATM   13  H   UNL     1      -6.161  13.307  68.880  1.00  0.00     0.000 HD 
HETATM   14  C   UNL     1      -8.831  11.666  66.510  1.00  0.00    -0.188 A  
ENDBRANCH   6   7
ENDBRANCH   2   6
TORSDOF 2
ENDMDL
MODEL      204
REMARK 921   NORMALIZED FREE ENERGY PREDICTED BY IDOCK:   -1.67 KCAL/MOL
REMARK 922        TOTAL FREE ENERGY PREDICTED BY IDOCK:   -2.05 KCAL/MOL
REMARK 923 INTER-LIGAND FREE ENERGY PREDICTED BY IDOCK:   -1.89 KCAL/MOL
REMARK 924 INTRA-LIGAND FREE ENERGY PREDICTED BY IDOCK:   -0.16 KCAL/MOL
REMARK 927      BINDING AFFINITY PREDICTED BY RF-SCORE:    0.00 PKD
ROOT
HETATM    1  C   UNL     1     -11.016   6.479  67.036  1.00  0.00    -0.466 C  
HETATM    2  C   UNL     1     -10.177   7.725  67.326  1.00  0.00    -0.273 C  
HETATM    3  N   UNL     1     -11.068   8.832  67.706  1.00  0.00    -0.432 NA 
HETATM    4  H1  UNL     1     -10.509   9.662  67.900  1.00  0.00     0.000 HD 
HETATM    5  H2  UNL     1     -11.678   8.586  68.486  1.00  0.00     0.000 HD 
ENDROOT
BRANCH   2   6
HETATM    6  C   UNL     1      -9.135   7.491  68.444  1.00  0.00    -0.133 C  
BRANCH   6   7
HETATM    7  C   UNL     1      -8.124   8.607  68.584  1.00  0.00    -0.117 A  
HETATM    8  C   UNL     1      -7.464   9.123  67.457  1.00  0.00    -0.088 A  
HETATM    9  C   UNL     1      -6.498  10.122  67.597  1.00  0.00    -0.063 A  
HETATM   10  C   UNL     1      -6.201  10.617  68.862  1.00  0.00    -0.044 A  
HETATM   11  C   UNL     1      -6.865  10.139  69.984  1.00  0.00    -0.137 A  
HETATM   12  O   UNL     1      -5.252  11.578  69.045  1.00  0.00    -0.044 OA 
HETATM   13  H   UNL     1      -5.049  11.915  69.909  1.00  0.00     0.000 HD 
HETATM   14  C   UNL     1      -7.825   9.136  69.847  1.00  0.00    -0.091 A  
ENDBRANCH   6   7
ENDBRANCH   2   6
TORSDOF 2
ENDMDL
MODEL      205
REMARK 921   NORMALIZED FREE ENERGY PREDICTED BY IDOCK:   -1.66 KCAL/MOL
REMARK 922        TOTAL FREE ENERGY PREDICTED BY IDOCK:   -2.05 KCAL/MOL
REMARK 923 INTER-LIGAND FREE ENERGY PREDICTED BY IDOCK:   -1.90 KCAL/MOL
REMARK 924 INTRA-LIGAND FREE ENERGY PREDICTED BY IDOCK:   -0.14 KCAL/MOL
REMARK 927      BINDING AFFINITY PREDICTED BY RF-SCORE:    0.00 PKD
ROOT
HETATM    1  C   UNL     1     -11.976   5.943  72.669  1.00  0.00    -0.123 C  
HETATM    2  C   UNL     1     -11.912   6.788  71.395  1.00  0.00    -0.355 C  
HETATM    3  N   UNL     1     -12.652   8.041  71.606  1.00  0.00    -0.315 NA 
HETATM    4  H1  UNL     1     -12.609   8.604  70.757  1.00  0.00     0.000 HD 
HETATM    5  H2  UNL     1     -12.323   8.551  72.426  1.00  0.00     0.000 HD 
ENDROOT
BRANCH   2   6
HETATM    6  C   UNL     1     -10.460   7.108  70.970  1.00  0.00    -0.230 C  
BRANCH   6   7
HETATM    7  C   UNL     1      -9.537   5.911  70.994  1.00  0.00    -0.197 A  
HETATM    8  C   UNL     1      -8.550   5.784  71.985  1.00  0.00    -0.130 A  
HETATM    9  C   UNL     1      -7.670   4.700  71.976  1.00  0.00    -0.091 A  
HETATM   10  C   UNL     1      -7.785   3.732  70.983  1.00  0.00    -0.048 A  
HETATM   11  C   UNL     1      -8.773   3.825  70.013  1.00  0.00    -0.119 A  
HETATM   12  O   UNL     1      -6.935   2.668  70.927  1.00  0.00    -0.032 OA 
HETATM   13  H   UNL     1      -7.013   2.007  70.249  1.00  0.00     0.000 HD 
HETATM   14  C   UNL     1      -9.648   4.912  70.017  1.00  0.00    -0.261 A  
ENDBRANCH   6   7
ENDBRANCH   2   6
TORSDOF 2
ENDMDL
MODEL      206
REMARK 921   NORMALIZED FREE ENERGY PREDICTED BY IDOCK:   -1.66 KCAL/MOL
REMARK 922        TOTAL FREE ENERGY PREDICTED BY IDOCK:   -2.04 KCAL/MOL
REMARK 923 INTER-LIGAND FREE ENERGY PREDICTED BY IDOCK:   -1.84 KCAL/MOL
REMARK 924 INTRA-LIGAND FREE ENERGY PREDICTED BY IDOCK:   -0.20 KCAL/MOL
REMARK 927      BINDING AFFINITY PREDICTED BY RF-SCORE:    0.00 PKD
ROOT
HETATM    1  C   UNL     1      -6.729   3.631  69.133  1.00  0.00    -0.044 C  
HETATM    2  C   UNL     1      -7.552   2.349  69.275  1.00  0.00    -0.043 C  
HETATM    3  N   UNL     1      -7.424   1.841  70.649  1.00  0.00    -0.033 NA 
HETATM    4  H1  UNL     1      -7.973   0.987  70.744  1.00  0.00     0.000 HD 
HETATM    5  H2  UNL     1      -7.676   2.542  71.346  1.00  0.00     0.000 HD 
ENDROOT
BRANCH   2   6
HETATM    6  C   UNL     1      -9.045   2.565  68.938  1.00  0.00    -0.195 C  
BRANCH   6   7
HETATM    7  C   UNL     1      -9.286   3.127  67.555  1.00  0.00    -0.233 A  
HETATM    8  C   UNL     1      -9.010   2.363  66.410  1.00  0.00    -0.124 A  
HETATM    9  C   UNL     1      -9.191   2.903  65.135  1.00  0.00    -0.145 A  
HETATM   10  C   UNL     1      -9.662   4.205  65.003  1.00  0.00    -0.194 A  
HETATM   11  C   UNL     1      -9.968   4.966  66.123  1.00  0.00    -0.252 A  
HETATM   12  O   UNL     1      -9.834   4.777  63.778  1.00  0.00    -0.361 OA 
HETATM   13  H   UNL     1     -10.155   5.667  63.688  1.00  0.00     0.000 HD 
HETATM   14  C   UNL     1      -9.781   4.430  67.398  1.00  0.00    -0.217 A  
ENDBRANCH   6   7
ENDBRANCH   2   6
TORSDOF 2
ENDMDL
MODEL      207
REMARK 921   NORMALIZED FREE ENERGY PREDICTED BY IDOCK:   -1.61 KCAL/MOL
REMARK 922        TOTAL FREE ENERGY PREDICTED BY IDOCK:   -1.98 KCAL/MOL
REMARK 923 INTER-LIGAND FREE ENERGY PREDICTED BY IDOCK:   -1.94 KCAL/MOL
REMARK 924 INTRA-LIGAND FREE ENERGY PREDICTED BY IDOCK:   -0.05 KCAL/MOL
REMARK 927      BINDING AFFINITY PREDICTED BY RF-SCORE:    0.00 PKD
ROOT
HETATM    1  C   UNL     1      -6.907   4.403  70.564  1.00  0.00    -0.037 C  
HETATM    2  C   UNL     1      -7.852   3.348  71.142  1.00  0.00    -0.054 C  
HETATM    3  N   UNL     1      -7.724   3.334  72.607  1.00  0.00    -0.061 NA 
HETATM    4  H1  UNL     1      -8.354   2.631  72.992  1.00  0.00     0.000 HD 
HETATM    5  H2  UNL     1      -7.875   4.255  73.017  1.00  0.00     0.000 HD 
ENDROOT
BRANCH   2   6
HETATM    6  C   UNL     1      -9.327   3.597  70.753  1.00  0.00    -0.225 C  
BRANCH   6   7
HETATM    7  C   UNL     1      -9.506   4.164  69.362  1.00  0.00    -0.260 A  
HETATM    8  C   UNL     1      -9.418   3.336  68.231  1.00  0.00    -0.214 A  
HETATM    9  C   UNL     1      -9.539   3.872  66.948  1.00  0.00    -0.226 A  
HETATM   10  C   UNL     1      -9.761   5.236  66.792  1.00  0.00    -0.160 A  
HETATM   11  C   UNL     1      -9.881   6.065  67.899  1.00  0.00    -0.130 A  
HETATM   12  O   UNL     1      -9.866   5.802  65.557  1.00  0.00    -0.360 OA 
HETATM   13  H   UNL     1     -10.018   6.734  65.451  1.00  0.00     0.000 HD 
HETATM   14  C   UNL     1      -9.754   5.532  69.182  1.00  0.00    -0.208 A  
ENDBRANCH   6   7
ENDBRANCH   2   6
TORSDOF 2
ENDMDL
MODEL      208
REMARK 921   NORMALIZED FREE ENERGY PREDICTED BY IDOCK:   -1.60 KCAL/MOL
REMARK 922        TOTAL FREE ENERGY PREDICTED BY IDOCK:   -1.98 KCAL/MOL
REMARK 923 INTER-LIGAND FREE ENERGY PREDICTED BY IDOCK:   -1.81 KCAL/MOL
REMARK 924 INTRA-LIGAND FREE ENERGY PREDICTED BY IDOCK:   -0.17 KCAL/MOL
REMARK 927      BINDING AFFINITY PREDICTED BY RF-SCORE:    0.00 PKD
ROOT
HETATM    1  C   UNL     1     -11.156   6.638  67.105  1.00  0.00    -0.427 C  
HETATM    2  C   UNL     1     -10.389   7.955  66.975  1.00  0.00    -0.341 C  
HETATM    3  N   UNL     1     -11.105   9.007  67.712  1.00  0.00    -0.456 NA 
HETATM    4  H1  UNL     1     -10.594   9.885  67.626  1.00  0.00     0.000 HD 
HETATM    5  H2  UNL     1     -11.274   8.752  68.685  1.00  0.00     0.000 HD 
ENDROOT
BRANCH   2   6
HETATM    6  C   UNL     1      -8.939   7.850  67.500  1.00  0.00    -0.131 C  
BRANCH   6   7
HETATM    7  C   UNL     1      -7.935   7.434  66.447  1.00  0.00    -0.108 A  
HETATM    8  C   UNL     1      -8.261   7.489  65.082  1.00  0.00    -0.122 A  
HETATM    9  C   UNL     1      -7.347   7.062  64.117  1.00  0.00    -0.090 A  
HETATM   10  C   UNL     1      -6.100   6.591  64.514  1.00  0.00    -0.034 A  
HETATM   11  C   UNL     1      -5.749   6.557  65.857  1.00  0.00    -0.021 A  
HETATM   12  O   UNL     1      -5.187   6.147  63.605  1.00  0.00    -0.017 OA 
HETATM   13  H   UNL     1      -4.335   5.825  63.877  1.00  0.00     0.000 HD 
HETATM   14  C   UNL     1      -6.664   6.977  66.823  1.00  0.00    -0.060 A  
ENDBRANCH   6   7
ENDBRANCH   2   6
TORSDOF 2
ENDMDL
MODEL      209
REMARK 921   NORMALIZED FREE ENERGY PREDICTED BY IDOCK:   -1.59 KCAL/MOL
REMARK 922        TOTAL FREE ENERGY PREDICTED BY IDOCK:   -1.96 KCAL/MOL
REMARK 923 INTER-LIGAND FREE ENERGY PREDICTED BY IDOCK:   -1.92 KCAL/MOL
REMARK 924 INTRA-LIGAND FREE ENERGY PREDICTED BY IDOCK:   -0.04 KCAL/MOL
REMARK 927      BINDING AFFINITY PREDICTED BY RF-SCORE:    0.00 PKD
ROOT
HETATM    1  C   UNL     1      -5.500   8.286  65.347  1.00  0.00    -0.035 C  
HETATM    2  C   UNL     1      -6.886   8.615  65.905  1.00  0.00    -0.068 C  
HETATM    3  N   UNL     1      -7.384   9.845  65.270  1.00  0.00    -0.124 NA 
HETATM    4  H1  UNL     1      -8.308  10.064  65.641  1.00  0.00     0.000 HD 
HETATM    5  H2  UNL     1      -7.380   9.783  64.252  1.00  0.00     0.000 HD 
ENDROOT
BRANCH   2   6
HETATM    6  C   UNL     1      -7.900   7.470  65.682  1.00  0.00    -0.110 C  
BRANCH   6   7
HETATM    7  C   UNL     1      -9.010   7.426  66.709  1.00  0.00    -0.159 A  
HETATM    8  C   UNL     1      -9.052   8.354  67.762  1.00  0.00    -0.142 A  
HETATM    9  C   UNL     1     -10.053   8.281  68.733  1.00  0.00    -0.212 A  
HETATM   10  C   UNL     1     -11.023   7.289  68.644  1.00  0.00     0.014 A  
HETATM   11  C   UNL     1     -11.016   6.382  67.594  1.00  0.00    -0.441 A  
HETATM   12  O   UNL     1     -12.006   7.171  69.581  1.00  0.00    -0.433 OA 
HETATM   13  H   UNL     1     -12.669   6.493  69.520  1.00  0.00     0.000 HD 
HETATM   14  C   UNL     1     -10.012   6.448  66.627  1.00  0.00    -0.207 A  
ENDBRANCH   6   7
ENDBRANCH   2   6
TORSDOF 2
ENDMDL
MODEL      210
REMARK 921   NORMALIZED FREE ENERGY PREDICTED BY IDOCK:   -1.53 KCAL/MOL
REMARK 922        TOTAL FREE ENERGY PREDICTED BY IDOCK:   -1.90 KCAL/MOL
REMARK 923 INTER-LIGAND FREE ENERGY PREDICTED BY IDOCK:   -2.01 KCAL/MOL
REMARK 924 INTRA-LIGAND FREE ENERGY PREDICTED BY IDOCK:    0.11 KCAL/MOL
REMARK 927      BINDING AFFINITY PREDICTED BY RF-SCORE:    0.00 PKD
ROOT
HETATM    1  C   UNL     1     -10.810   6.281  66.764  1.00  0.00    -0.367 C  
HETATM    2  C   UNL     1      -9.305   6.429  66.535  1.00  0.00    -0.155 C  
HETATM    3  N   UNL     1      -8.920   7.834  66.735  1.00  0.00    -0.133 NA 
HETATM    4  H1  UNL     1      -7.917   7.933  66.583  1.00  0.00     0.000 HD 
HETATM    5  H2  UNL     1      -9.209   8.187  67.647  1.00  0.00     0.000 HD 
ENDROOT
BRANCH   2   6
HETATM    6  C   UNL     1      -8.471   5.524  67.471  1.00  0.00    -0.106 C  
BRANCH   6   7
HETATM    7  C   UNL     1      -8.828   5.662  68.934  1.00  0.00    -0.109 A  
HETATM    8  C   UNL     1      -8.203   6.628  69.738  1.00  0.00    -0.127 A  
HETATM    9  C   UNL     1      -8.503   6.722  71.099  1.00  0.00    -0.125 A  
HETATM   10  C   UNL     1      -9.440   5.858  71.655  1.00  0.00    -0.149 A  
HETATM   11  C   UNL     1     -10.090   4.916  70.869  1.00  0.00    -0.292 A  
HETATM   12  O   UNL     1      -9.748   5.902  72.982  1.00  0.00    -0.154 OA 
HETATM   13  H   UNL     1     -10.388   5.312  73.362  1.00  0.00     0.000 HD 
HETATM   14  C   UNL     1      -9.786   4.817  69.511  1.00  0.00    -0.292 A  
ENDBRANCH   6   7
ENDBRANCH   2   6
TORSDOF 2
ENDMDL
MODEL      211
REMARK 921   NORMALIZED FREE ENERGY PREDICTED BY IDOCK:   -1.49 KCAL/MOL
REMARK 922        TOTAL FREE ENERGY PREDICTED BY IDOCK:   -1.85 KCAL/MOL
REMARK 923 INTER-LIGAND FREE ENERGY PREDICTED BY IDOCK:   -1.75 KCAL/MOL
REMARK 924 INTRA-LIGAND FREE ENERGY PREDICTED BY IDOCK:   -0.09 KCAL/MOL
REMARK 927      BINDING AFFINITY PREDICTED BY RF-SCORE:    0.00 PKD
ROOT
HETATM    1  C   UNL     1      -8.076   2.696  69.832  1.00  0.00    -0.057 C  
HETATM    2  C   UNL     1      -7.963   3.760  68.738  1.00  0.00    -0.062 C  
HETATM    3  N   UNL     1      -7.255   3.192  67.582  1.00  0.00    -0.054 NA 
HETATM    4  H1  UNL     1      -7.180   3.901  66.852  1.00  0.00     0.000 HD 
HETATM    5  H2  UNL     1      -7.692   2.334  67.244  1.00  0.00     0.000 HD 
ENDROOT
BRANCH   2   6
HETATM    6  C   UNL     1      -9.342   4.297  68.290  1.00  0.00    -0.207 C  
BRANCH   6   7
HETATM    7  C   UNL     1      -9.695   5.645  68.880  1.00  0.00    -0.181 A  
HETATM    8  C   UNL     1     -10.213   6.669  68.071  1.00  0.00    -0.193 A  
HETATM    9  C   UNL     1     -10.494   7.926  68.611  1.00  0.00    -0.196 A  
HETATM   10  C   UNL     1     -10.271   8.156  69.965  1.00  0.00    -0.202 A  
HETATM   11  C   UNL     1      -9.788   7.146  70.786  1.00  0.00    -0.180 A  
HETATM   12  O   UNL     1     -10.515   9.373  70.528  1.00  0.00    -0.232 OA 
HETATM   13  H   UNL     1     -10.362   9.530  71.452  1.00  0.00     0.000 HD 
HETATM   14  C   UNL     1      -9.499   5.892  70.246  1.00  0.00    -0.191 A  
ENDBRANCH   6   7
ENDBRANCH   2   6
TORSDOF 2
ENDMDL
MODEL      212
REMARK 921   NORMALIZED FREE ENERGY PREDICTED BY IDOCK:   -1.44 KCAL/MOL
REMARK 922        TOTAL FREE ENERGY PREDICTED BY IDOCK:   -1.79 KCAL/MOL
REMARK 923 INTER-LIGAND FREE ENERGY PREDICTED BY IDOCK:   -1.75 KCAL/MOL
REMARK 924 INTRA-LIGAND FREE ENERGY PREDICTED BY IDOCK:   -0.04 KCAL/MOL
REMARK 927      BINDING AFFINITY PREDICTED BY RF-SCORE:    0.00 PKD
ROOT
HETATM    1  C   UNL     1     -11.057  10.387  70.809  1.00  0.00    -0.197 C  
HETATM    2  C   UNL     1     -10.043  10.569  69.678  1.00  0.00    -0.139 C  
HETATM    3  N   UNL     1      -8.708  10.179  70.157  1.00  0.00    -0.345 NA 
HETATM    4  H1  UNL     1      -8.032  10.300  69.403  1.00  0.00     0.000 HD 
HETATM    5  H2  UNL     1      -8.696   9.233  70.539  1.00  0.00     0.000 HD 
ENDROOT
BRANCH   2   6
HETATM    6  C   UNL     1     -10.404   9.746  68.421  1.00  0.00    -0.230 C  
BRANCH   6   7
HETATM    7  C   UNL     1      -9.279   9.636  67.416  1.00  0.00    -0.148 A  
HETATM    8  C   UNL     1      -8.958  10.714  66.576  1.00  0.00    -0.169 A  
HETATM    9  C   UNL     1      -7.948  10.591  65.619  1.00  0.00    -0.158 A  
HETATM   10  C   UNL     1      -7.248   9.395  65.510  1.00  0.00    -0.088 A  
HETATM   11  C   UNL     1      -7.531   8.328  66.353  1.00  0.00    -0.080 A  
HETATM   12  O   UNL     1      -6.268   9.227  64.578  1.00  0.00    -0.073 OA 
HETATM   13  H   UNL     1      -5.790   8.409  64.504  1.00  0.00     0.000 HD 
HETATM   14  C   UNL     1      -8.545   8.447  67.304  1.00  0.00    -0.123 A  
ENDBRANCH   6   7
ENDBRANCH   2   6
TORSDOF 2
ENDMDL
MODEL      213
REMARK 921   NORMALIZED FREE ENERGY PREDICTED BY IDOCK:   -1.42 KCAL/MOL
REMARK 922        TOTAL FREE ENERGY PREDICTED BY IDOCK:   -1.77 KCAL/MOL
REMARK 923 INTER-LIGAND FREE ENERGY PREDICTED BY IDOCK:   -1.63 KCAL/MOL
REMARK 924 INTRA-LIGAND FREE ENERGY PREDICTED BY IDOCK:   -0.15 KCAL/MOL
REMARK 927      BINDING AFFINITY PREDICTED BY RF-SCORE:    0.00 PKD
ROOT
HETATM    1  C   UNL     1     -10.774   5.721  67.160  1.00  0.00    -0.358 C  
HETATM    2  C   UNL     1     -10.322   5.533  68.610  1.00  0.00    -0.185 C  
HETATM    3  N   UNL     1     -11.398   5.970  69.513  1.00  0.00    -0.360 NA 
HETATM    4  H1  UNL     1     -11.097   5.844  70.479  1.00  0.00     0.000 HD 
HETATM    5  H2  UNL     1     -12.281   5.498  69.318  1.00  0.00     0.000 HD 
ENDROOT
BRANCH   2   6
HETATM    6  C   UNL     1      -9.941   4.069  68.926  1.00  0.00     0.094 C  
BRANCH   6   7
HETATM    7  C   UNL     1      -9.392   3.866  70.321  1.00  0.00    -0.238 A  
HETATM    8  C   UNL     1      -8.358   4.680  70.811  1.00  0.00    -0.096 A  
HETATM    9  C   UNL     1      -7.824   4.460  72.083  1.00  0.00    -0.090 A  
HETATM   10  C   UNL     1      -8.331   3.433  72.871  1.00  0.00    -0.081 A  
HETATM   11  C   UNL     1      -9.373   2.637  72.415  1.00  0.00    -0.151 A  
HETATM   12  O   UNL     1      -7.826   3.172  74.109  1.00  0.00    -0.063 OA 
HETATM   13  H   UNL     1      -8.172   2.470  74.648  1.00  0.00     0.000 HD 
HETATM   14  C   UNL     1      -9.903   2.851  71.142  1.00  0.00    -0.098 A  
ENDBRANCH   6   7
ENDBRANCH   2   6
TORSDOF 2
ENDMDL
MODEL      214
REMARK 921   NORMALIZED FREE ENERGY PREDICTED BY IDOCK:   -1.42 KCAL/MOL
REMARK 922        TOTAL FREE ENERGY PREDICTED BY IDOCK:   -1.77 KCAL/MOL
REMARK 923 INTER-LIGAND FREE ENERGY PREDICTED BY IDOCK:   -2.02 KCAL/MOL
REMARK 924 INTRA-LIGAND FREE ENERGY PREDICTED BY IDOCK:    0.25 KCAL/MOL
REMARK 927      BINDING AFFINITY PREDICTED BY RF-SCORE:    0.00 PKD
ROOT
HETATM    1  C   UNL     1      -9.262   6.585  66.366  1.00  0.00    -0.178 C  
HETATM    2  C   UNL     1      -9.888   7.093  67.666  1.00  0.00    -0.147 C  
HETATM    3  N   UNL     1     -11.161   6.395  67.896  1.00  0.00    -0.573 NA 
HETATM    4  H1  UNL     1     -11.579   6.733  68.762  1.00  0.00     0.000 HD 
HETATM    5  H2  UNL     1     -11.053   5.380  67.889  1.00  0.00     0.000 HD 
ENDROOT
BRANCH   2   6
HETATM    6  C   UNL     1      -8.961   6.896  68.887  1.00  0.00    -0.131 C  
BRANCH   6   7
HETATM    7  C   UNL     1      -9.357   5.738  69.777  1.00  0.00    -0.175 A  
HETATM    8  C   UNL     1     -10.392   5.875  70.716  1.00  0.00    -0.292 A  
HETATM    9  C   UNL     1     -10.724   4.818  71.566  1.00  0.00     0.018 A  
HETATM   10  C   UNL     1     -10.030   3.617  71.469  1.00  0.00    -0.111 A  
HETATM   11  C   UNL     1      -9.024   3.453  70.527  1.00  0.00    -0.162 A  
HETATM   12  O   UNL     1     -10.309   2.567  72.292  1.00  0.00    -0.155 OA 
HETATM   13  H   UNL     1      -9.835   1.747  72.226  1.00  0.00     0.000 HD 
HETATM   14  C   UNL     1      -8.686   4.511  69.681  1.00  0.00    -0.115 A  
ENDBRANCH   6   7
ENDBRANCH   2   6
TORSDOF 2
ENDMDL
MODEL      215
REMARK 921   NORMALIZED FREE ENERGY PREDICTED BY IDOCK:   -1.39 KCAL/MOL
REMARK 922        TOTAL FREE ENERGY PREDICTED BY IDOCK:   -1.74 KCAL/MOL
REMARK 923 INTER-LIGAND FREE ENERGY PREDICTED BY IDOCK:   -1.76 KCAL/MOL
REMARK 924 INTRA-LIGAND FREE ENERGY PREDICTED BY IDOCK:    0.02 KCAL/MOL
REMARK 927      BINDING AFFINITY PREDICTED BY RF-SCORE:    0.00 PKD
ROOT
HETATM    1  C   UNL     1      -7.959   6.914  63.265  1.00  0.00    -0.066 C  
HETATM    2  C   UNL     1      -7.067   6.405  64.400  1.00  0.00    -0.057 C  
HETATM    3  N   UNL     1      -5.685   6.846  64.163  1.00  0.00    -0.031 NA 
HETATM    4  H1  UNL     1      -5.090   6.507  64.920  1.00  0.00     0.000 HD 
HETATM    5  H2  UNL     1      -5.616   7.856  64.041  1.00  0.00     0.000 HD 
ENDROOT
BRANCH   2   6
HETATM    6  C   UNL     1      -7.538   6.896  65.788  1.00  0.00    -0.091 C  
BRANCH   6   7
HETATM    7  C   UNL     1      -8.014   8.331  65.802  1.00  0.00    -0.099 A  
HETATM    8  C   UNL     1      -9.385   8.635  65.802  1.00  0.00    -0.227 A  
HETATM    9  C   UNL     1      -9.818   9.962  65.769  1.00  0.00    -0.356 A  
HETATM   10  C   UNL     1      -8.881  10.989  65.749  1.00  0.00    -0.191 A  
HETATM   11  C   UNL     1      -7.522  10.709  65.778  1.00  0.00    -0.114 A  
HETATM   12  O   UNL     1      -9.261  12.296  65.697  1.00  0.00    -0.433 OA 
HETATM   13  H   UNL     1      -8.621  12.998  65.683  1.00  0.00     0.000 HD 
HETATM   14  C   UNL     1      -7.087   9.384  65.804  1.00  0.00    -0.091 A  
ENDBRANCH   6   7
ENDBRANCH   2   6
TORSDOF 2
ENDMDL
MODEL      216
REMARK 921   NORMALIZED FREE ENERGY PREDICTED BY IDOCK:   -1.36 KCAL/MOL
REMARK 922        TOTAL FREE ENERGY PREDICTED BY IDOCK:   -1.70 KCAL/MOL
REMARK 923 INTER-LIGAND FREE ENERGY PREDICTED BY IDOCK:   -1.75 KCAL/MOL
REMARK 924 INTRA-LIGAND FREE ENERGY PREDICTED BY IDOCK:    0.05 KCAL/MOL
REMARK 927      BINDING AFFINITY PREDICTED BY RF-SCORE:    0.00 PKD
ROOT
HETATM    1  C   UNL     1     -10.611   3.426  63.695  1.00  0.00    -0.270 C  
HETATM    2  C   UNL     1      -9.301   3.972  63.125  1.00  0.00    -0.131 C  
HETATM    3  N   UNL     1      -9.510   5.355  62.670  1.00  0.00    -0.208 NA 
HETATM    4  H1  UNL     1      -8.636   5.720  62.291  1.00  0.00     0.000 HD 
HETATM    5  H2  UNL     1      -9.890   5.951  63.406  1.00  0.00     0.000 HD 
ENDROOT
BRANCH   2   6
HETATM    6  C   UNL     1      -8.146   3.933  64.152  1.00  0.00    -0.090 C  
BRANCH   6   7
HETATM    7  C   UNL     1      -8.603   4.036  65.591  1.00  0.00    -0.110 A  
HETATM    8  C   UNL     1      -8.491   2.939  66.460  1.00  0.00    -0.101 A  
HETATM    9  C   UNL     1      -8.955   3.025  67.774  1.00  0.00    -0.192 A  
HETATM   10  C   UNL     1      -9.521   4.213  68.226  1.00  0.00    -0.154 A  
HETATM   11  C   UNL     1      -9.613   5.317  67.389  1.00  0.00    -0.146 A  
HETATM   12  O   UNL     1     -10.003   4.333  69.494  1.00  0.00    -0.200 OA 
HETATM   13  H   UNL     1     -10.390   5.144  69.802  1.00  0.00     0.000 HD 
HETATM   14  C   UNL     1      -9.155   5.231  66.074  1.00  0.00    -0.154 A  
ENDBRANCH   6   7
ENDBRANCH   2   6
TORSDOF 2
ENDMDL
MODEL      217
REMARK 921   NORMALIZED FREE ENERGY PREDICTED BY IDOCK:   -1.17 KCAL/MOL
REMARK 922        TOTAL FREE ENERGY PREDICTED BY IDOCK:   -1.49 KCAL/MOL
REMARK 923 INTER-LIGAND FREE ENERGY PREDICTED BY IDOCK:   -1.70 KCAL/MOL
REMARK 924 INTRA-LIGAND FREE ENERGY PREDICTED BY IDOCK:    0.21 KCAL/MOL
REMARK 927      BINDING AFFINITY PREDICTED BY RF-SCORE:    0.00 PKD
ROOT
HETATM    1  C   UNL     1      -9.714  13.314  66.652  1.00  0.00    -0.270 C  
HETATM    2  C   UNL     1     -10.499  12.633  67.776  1.00  0.00    -0.221 C  
HETATM    3  N   UNL     1     -11.923  12.974  67.647  1.00  0.00    -0.337 NA 
HETATM    4  H1  UNL     1     -12.446  12.520  68.395  1.00  0.00     0.000 HD 
HETATM    5  H2  UNL     1     -12.293  12.747  66.724  1.00  0.00     0.000 HD 
ENDROOT
BRANCH   2   6
HETATM    6  C   UNL     1     -10.330  11.097  67.769  1.00  0.00    -0.215 C  
BRANCH   6   7
HETATM    7  C   UNL     1      -8.938  10.635  67.399  1.00  0.00    -0.138 A  
HETATM    8  C   UNL     1      -7.805  11.282  67.919  1.00  0.00    -0.116 A  
HETATM    9  C   UNL     1      -6.522  10.881  67.539  1.00  0.00    -0.058 A  
HETATM   10  C   UNL     1      -6.369   9.823  66.649  1.00  0.00    -0.066 A  
HETATM   11  C   UNL     1      -7.477   9.153  66.148  1.00  0.00    -0.095 A  
HETATM   12  O   UNL     1      -5.137   9.413  66.238  1.00  0.00    -0.038 OA 
HETATM   13  H   UNL     1      -5.033   8.691  65.630  1.00  0.00     0.000 HD 
HETATM   14  C   UNL     1      -8.760   9.557  66.521  1.00  0.00    -0.147 A  
ENDBRANCH   6   7
ENDBRANCH   2   6
TORSDOF 2
ENDMDL
MODEL      218
REMARK 921   NORMALIZED FREE ENERGY PREDICTED BY IDOCK:   -1.16 KCAL/MOL
REMARK 922        TOTAL FREE ENERGY PREDICTED BY IDOCK:   -1.48 KCAL/MOL
REMARK 923 INTER-LIGAND FREE ENERGY PREDICTED BY IDOCK:   -1.43 KCAL/MOL
REMARK 924 INTRA-LIGAND FREE ENERGY PREDICTED BY IDOCK:   -0.04 KCAL/MOL
REMARK 927      BINDING AFFINITY PREDICTED BY RF-SCORE:    0.00 PKD
ROOT
HETATM    1  C   UNL     1      -8.005   7.294  64.529  1.00  0.00    -0.112 C  
HETATM    2  C   UNL     1      -6.598   7.092  65.097  1.00  0.00    -0.047 C  
HETATM    3  N   UNL     1      -5.644   7.901  64.324  1.00  0.00    -0.044 NA 
HETATM    4  H1  UNL     1      -4.707   7.767  64.703  1.00  0.00     0.000 HD 
HETATM    5  H2  UNL     1      -5.910   8.885  64.290  1.00  0.00     0.000 HD 
ENDROOT
BRANCH   2   6
HETATM    6  C   UNL     1      -6.505   7.468  66.593  1.00  0.00    -0.049 C  
BRANCH   6   7
HETATM    7  C   UNL     1      -7.733   7.098  67.396  1.00  0.00    -0.110 A  
HETATM    8  C   UNL     1      -7.933   5.781  67.837  1.00  0.00    -0.098 A  
HETATM    9  C   UNL     1      -9.090   5.436  68.538  1.00  0.00    -0.121 A  
HETATM   10  C   UNL     1     -10.043   6.411  68.811  1.00  0.00    -0.158 A  
HETATM   11  C   UNL     1      -9.849   7.725  68.409  1.00  0.00    -0.180 A  
HETATM   12  O   UNL     1     -11.195   6.113  69.476  1.00  0.00    -0.389 OA 
HETATM   13  H   UNL     1     -11.846   6.779  69.662  1.00  0.00     0.000 HD 
HETATM   14  C   UNL     1      -8.696   8.070  67.702  1.00  0.00    -0.126 A  
ENDBRANCH   6   7
ENDBRANCH   2   6
TORSDOF 2
ENDMDL
MODEL      219
REMARK 921   NORMALIZED FREE ENERGY PREDICTED BY IDOCK:   -0.54 KCAL/MOL
REMARK 922        TOTAL FREE ENERGY PREDICTED BY IDOCK:   -0.79 KCAL/MOL
REMARK 923 INTER-LIGAND FREE ENERGY PREDICTED BY IDOCK:   -0.61 KCAL/MOL
REMARK 924 INTRA-LIGAND FREE ENERGY PREDICTED BY IDOCK:   -0.18 KCAL/MOL
REMARK 927      BINDING AFFINITY PREDICTED BY RF-SCORE:    0.00 PKD
ROOT
HETATM    1  C   UNL     1      -8.002   7.335  64.543  1.00  0.00    -0.112 C  
HETATM    2  C   UNL     1      -6.625   7.211  65.198  1.00  0.00    -0.047 C  
HETATM    3  N   UNL     1      -5.657   8.027  64.448  1.00  0.00    -0.040 NA 
HETATM    4  H1  UNL     1      -4.739   7.944  64.885  1.00  0.00     0.000 HD 
HETATM    5  H2  UNL     1      -5.958   8.997  64.359  1.00  0.00     0.000 HD 
ENDROOT
BRANCH   2   6
HETATM    6  C   UNL     1      -6.633   7.647  66.681  1.00  0.00    -0.057 C  
BRANCH   6   7
HETATM    7  C   UNL     1      -6.712   6.495  67.657  1.00  0.00    -0.067 A  
HETATM    8  C   UNL     1      -5.570   5.740  67.973  1.00  0.00    -0.012 A  
HETATM    9  C   UNL     1      -5.658   4.649  68.840  1.00  0.00    -0.012 A  
HETATM   10  C   UNL     1      -6.885   4.319  69.405  1.00  0.00    -0.046 A  
HETATM   11  C   UNL     1      -8.019   5.071  69.128  1.00  0.00    -0.080 A  
HETATM   12  O   UNL     1      -7.018   3.251  70.241  1.00  0.00    -0.033 OA 
HETATM   13  H   UNL     1      -7.857   3.025  70.626  1.00  0.00     0.000 HD 
HETATM   14  C   UNL     1      -7.934   6.158  68.256  1.00  0.00    -0.107 A  
ENDBRANCH   6   7
ENDBRANCH   2   6
TORSDOF 2
ENDMDL
MODEL      220
REMARK 921   NORMALIZED FREE ENERGY PREDICTED BY IDOCK:   38.72 KCAL/MOL
REMARK 922        TOTAL FREE ENERGY PREDICTED BY IDOCK:   43.06 KCAL/MOL
REMARK 923 INTER-LIGAND FREE ENERGY PREDICTED BY IDOCK:   42.81 KCAL/MOL
REMARK 924 INTRA-LIGAND FREE ENERGY PREDICTED BY IDOCK:    0.25 KCAL/MOL
REMARK 927      BINDING AFFINITY PREDICTED BY RF-SCORE:    0.00 PKD
ROOT
HETATM    1  C   UNL     1     -13.922  15.446  70.356  1.00  0.00     0.645 C  
HETATM    2  C   UNL     1     -13.462  16.251  69.139  1.00  0.00     3.983 C  
HETATM    3  N   UNL     1     -13.882  17.651  69.297  1.00  0.00    10.550 NA 
HETATM    4  H1  UNL     1     -13.575  18.188  68.486  1.00  0.00     0.000 HD 
HETATM    5  H2  UNL     1     -13.556  18.056  70.175  1.00  0.00     0.000 HD 
ENDROOT
BRANCH   2   6
HETATM    6  C   UNL     1     -11.931  16.190  68.932  1.00  0.00    -0.029 C  
BRANCH   6   7
HETATM    7  C   UNL     1     -11.134  16.746  70.091  1.00  0.00     0.079 A  
HETATM    8  C   UNL     1     -11.106  16.083  71.328  1.00  0.00    -0.126 A  
HETATM    9  C   UNL     1     -10.405  16.625  72.408  1.00  0.00     4.855 A  
HETATM   10  C   UNL     1      -9.720  17.824  72.249  1.00  0.00     9.474 A  
HETATM   11  C   UNL     1      -9.711  18.479  71.024  1.00  0.00     3.962 A  
HETATM   12  O   UNL     1      -9.040  18.397  73.281  1.00  0.00     8.584 OA 
HETATM   13  H   UNL     1      -8.572  19.216  73.172  1.00  0.00     0.000 HD 
HETATM   14  C   UNL     1     -10.417  17.943  69.946  1.00  0.00     0.831 A  
ENDBRANCH   6   7
ENDBRANCH   2   6
TORSDOF 2
ENDMDL
