MODEL        1
REMARK 921   NORMALIZED FREE ENERGY PREDICTED BY IDOCK:   -7.57 KCAL/MOL
REMARK 922        TOTAL FREE ENERGY PREDICTED BY IDOCK:  -10.96 KCAL/MOL
REMARK 923 INTER-LIGAND FREE ENERGY PREDICTED BY IDOCK:  -10.23 KCAL/MOL
REMARK 924 INTRA-LIGAND FREE ENERGY PREDICTED BY IDOCK:   -0.73 KCAL/MOL
REMARK 927      BINDING AFFINITY PREDICTED BY RF-SCORE:    0.00 PKD
ROOT
HETATM    1  C   UNL     1     -11.850  14.788  69.156  1.00  0.00    -0.340 C  
HETATM    2  C   UNL     1     -11.091  15.318  70.225  1.00  0.00    -0.316 C  
HETATM    3  C   UNL     1     -10.258  14.785  69.101  1.00  0.00    -0.224 C  
HETATM    4  C   UNL     1     -11.201  14.353  67.316  1.00  0.00    -0.323 C  
HETATM    5  C   UNL     1      -8.729   9.174  70.731  1.00  0.00    -0.285 C  
HETATM    6  O   UNL     1     -12.651  14.596  67.142  1.00  0.00    -0.445 OA 
HETATM    7  C   UNL     1     -10.638  15.482  67.811  1.00  0.00    -0.281 C  
HETATM    8  C   UNL     1      -9.115  14.346  67.416  1.00  0.00    -0.202 C  
HETATM    9  H   UNL     1     -13.086  14.397  66.320  1.00  0.00     0.000 HD 
HETATM   10  C   UNL     1     -11.366  10.289  70.608  1.00  0.00    -0.431 C  
HETATM   11  O   UNL     1      -9.979   7.182  71.232  1.00  0.00    -0.189 OA 
HETATM   12  C   UNL     1     -10.815  16.957  67.506  1.00  0.00    -0.207 C  
HETATM   13  C   UNL     1      -9.519  12.639  67.733  1.00  0.00    -0.198 C  
HETATM   14  C   UNL     1     -12.624  11.089  70.834  1.00  0.00    -0.488 C  
HETATM   15  O   UNL     1     -10.193  12.195  66.542  1.00  0.00    -0.203 OA 
HETATM   16  C   UNL     1      -9.946   8.400  71.117  1.00  0.00    -0.194 C  
HETATM   17  C   UNL     1     -10.421  12.175  69.078  1.00  0.00    -0.072 C  
HETATM   18  C   UNL     1     -11.175   9.807  68.219  1.00  0.00    -0.074 C  
HETATM   19  C   UNL     1     -11.128   9.229  71.408  1.00  0.00    -0.437 C  
HETATM   20  H   UNL     1     -10.409  11.284  66.711  1.00  0.00     0.000 HD 
HETATM   21  C   UNL     1     -11.853  12.978  69.300  1.00  0.00    -0.370 C  
HETATM   22  C   UNL     1     -12.429  12.591  70.677  1.00  0.00    -0.323 C  
HETATM   23  C   UNL     1     -10.503  10.598  69.359  1.00  0.00    -0.252 C  
HETATM   24  C   UNL     1      -9.022  10.054  69.519  1.00  0.00    -0.220 C  
ENDROOT
BRANCH   4  25
HETATM   25  C   UNL     1     -10.912  14.819  65.642  1.00  0.00    -0.344 C  
HETATM   26  O   UNL     1      -9.801  15.023  65.116  1.00  0.00    -0.293 OA 
BRANCH  25  27
HETATM   27  C   UNL     1     -12.126  15.070  64.716  1.00  0.00    -0.263 C  
BRANCH  27  28
HETATM   28  O   UNL     1     -12.163  14.073  63.653  1.00  0.00    -0.609 OA 
BRANCH  28  29
HETATM   29  C   UNL     1     -12.532  12.813  64.011  1.00  0.00    -0.360 C  
HETATM   30  O   UNL     1     -13.274  12.550  64.947  1.00  0.00    -0.787 OA 
BRANCH  29  31
HETATM   31  C   UNL     1     -11.867  11.756  63.160  1.00  0.00    -0.194 C  
BRANCH  31  32
HETATM   32  C   UNL     1     -10.348  11.799  63.218  1.00  0.00    -0.446 C  
HETATM   33  C   UNL     1      -9.701  10.462  63.487  1.00  0.00    -0.275 C  
HETATM   34  O   UNL     1      -9.787  10.039  64.760  1.00  0.00    -0.322 OA 
HETATM   35  O   UNL     1      -9.096   9.828  62.625  1.00  0.00    -0.260 OA 
ENDBRANCH  31  32
ENDBRANCH  29  31
ENDBRANCH  28  29
ENDBRANCH  27  28
ENDBRANCH  25  27
ENDBRANCH   4  25
TORSDOF 6
ENDMDL
MODEL        2
REMARK 921   NORMALIZED FREE ENERGY PREDICTED BY IDOCK:   -7.25 KCAL/MOL
REMARK 922        TOTAL FREE ENERGY PREDICTED BY IDOCK:  -10.53 KCAL/MOL
REMARK 923 INTER-LIGAND FREE ENERGY PREDICTED BY IDOCK:  -10.42 KCAL/MOL
REMARK 924 INTRA-LIGAND FREE ENERGY PREDICTED BY IDOCK:   -0.10 KCAL/MOL
REMARK 927      BINDING AFFINITY PREDICTED BY RF-SCORE:    0.00 PKD
ROOT
HETATM    1  C   UNL     1     -11.448  15.057  65.986  1.00  0.00    -0.221 C  
HETATM    2  C   UNL     1     -11.165  14.907  64.608  1.00  0.00    -0.349 C  
HETATM    3  C   UNL     1     -10.162  14.250  65.503  1.00  0.00    -0.379 C  
HETATM    4  C   UNL     1     -10.640  14.032  67.500  1.00  0.00    -0.260 C  
HETATM    5  C   UNL     1      -5.635  18.209  66.054  1.00  0.00    -0.222 C  
HETATM    6  O   UNL     1     -11.950  14.481  68.023  1.00  0.00    -0.457 OA 
HETATM    7  C   UNL     1     -10.861  13.258  66.410  1.00  0.00    -0.296 C  
HETATM    8  C   UNL     1      -8.955  13.071  66.725  1.00  0.00    -0.179 C  
HETATM    9  H   UNL     1     -12.170  14.381  68.942  1.00  0.00     0.000 HD 
HETATM   10  C   UNL     1      -8.418  18.674  66.553  1.00  0.00    -0.302 C  
HETATM   11  O   UNL     1      -5.472  20.451  66.911  1.00  0.00    -0.167 OA 
HETATM   12  C   UNL     1     -11.871  12.174  66.086  1.00  0.00    -0.327 C  
HETATM   13  C   UNL     1      -8.277  14.603  67.332  1.00  0.00    -0.201 C  
HETATM   14  C   UNL     1      -9.909  18.868  66.436  1.00  0.00    -0.412 C  
HETATM   15  O   UNL     1      -8.539  14.586  68.746  1.00  0.00    -0.168 OA 
HETATM   16  C   UNL     1      -6.164  19.543  66.470  1.00  0.00    -0.168 C  
HETATM   17  C   UNL     1      -8.749  16.094  66.705  1.00  0.00    -0.273 C  
HETATM   18  C   UNL     1      -7.944  17.606  68.700  1.00  0.00    -0.275 C  
HETATM   19  C   UNL     1      -7.612  19.715  66.261  1.00  0.00    -0.319 C  
HETATM   20  H   UNL     1      -8.177  15.403  69.070  1.00  0.00     0.000 HD 
HETATM   21  C   UNL     1     -10.382  16.369  66.648  1.00  0.00    -0.292 C  
HETATM   22  C   UNL     1     -10.638  17.665  65.854  1.00  0.00    -0.203 C  
HETATM   23  C   UNL     1      -7.887  17.361  67.179  1.00  0.00    -0.226 C  
HETATM   24  C   UNL     1      -6.373  17.093  66.787  1.00  0.00    -0.248 C  
ENDROOT
BRANCH   4  25
HETATM   25  C   UNL     1     -10.657  12.661  68.605  1.00  0.00    -0.222 C  
HETATM   26  O   UNL     1      -9.700  11.901  68.850  1.00  0.00    -0.093 OA 
BRANCH  25  27
HETATM   27  C   UNL     1     -11.981  12.289  69.315  1.00  0.00    -0.253 C  
BRANCH  27  28
HETATM   28  O   UNL     1     -12.078  12.979  70.595  1.00  0.00    -0.348 OA 
BRANCH  28  29
HETATM   29  C   UNL     1     -12.882  12.410  71.535  1.00  0.00    -0.274 C  
HETATM   30  O   UNL     1     -12.957  11.208  71.745  1.00  0.00    -0.451 OA 
BRANCH  29  31
HETATM   31  C   UNL     1     -13.732  13.430  72.257  1.00  0.00    -0.705 C  
BRANCH  31  32
HETATM   32  C   UNL     1     -13.662  14.820  71.644  1.00  0.00    -0.512 C  
HETATM   33  C   UNL     1     -12.916  15.828  72.484  1.00  0.00    -0.470 C  
HETATM   34  O   UNL     1     -13.591  16.281  73.555  1.00  0.00    -0.642 OA 
HETATM   35  O   UNL     1     -11.798  16.247  72.188  1.00  0.00    -0.507 OA 
ENDBRANCH  31  32
ENDBRANCH  29  31
ENDBRANCH  28  29
ENDBRANCH  27  28
ENDBRANCH  25  27
ENDBRANCH   4  25
TORSDOF 6
ENDMDL
MODEL        3
REMARK 921   NORMALIZED FREE ENERGY PREDICTED BY IDOCK:   -7.22 KCAL/MOL
REMARK 922        TOTAL FREE ENERGY PREDICTED BY IDOCK:  -10.48 KCAL/MOL
REMARK 923 INTER-LIGAND FREE ENERGY PREDICTED BY IDOCK:  -10.46 KCAL/MOL
REMARK 924 INTRA-LIGAND FREE ENERGY PREDICTED BY IDOCK:   -0.01 KCAL/MOL
REMARK 927      BINDING AFFINITY PREDICTED BY RF-SCORE:    0.00 PKD
ROOT
HETATM    1  C   UNL     1     -10.027   9.873  66.099  1.00  0.00    -0.331 C  
HETATM    2  C   UNL     1      -8.913   9.864  65.227  1.00  0.00    -0.228 C  
HETATM    3  C   UNL     1      -8.640  10.514  66.547  1.00  0.00    -0.140 C  
HETATM    4  C   UNL     1     -10.018  10.251  68.062  1.00  0.00    -0.153 C  
HETATM    5  C   UNL     1      -9.377  16.437  65.629  1.00  0.00     0.006 C  
HETATM    6  O   UNL     1     -11.224   9.417  67.857  1.00  0.00    -0.509 OA 
HETATM    7  C   UNL     1      -8.937   9.537  67.667  1.00  0.00    -0.124 C  
HETATM    8  C   UNL     1      -8.167  11.120  68.483  1.00  0.00    -0.149 C  
HETATM    9  H   UNL     1     -11.859   9.296  68.555  1.00  0.00     0.000 HD 
HETATM   10  C   UNL     1     -11.242  14.343  65.038  1.00  0.00    -0.376 C  
HETATM   11  O   UNL     1     -11.233  17.800  64.932  1.00  0.00    -0.705 OA 
HETATM   12  C   UNL     1      -8.519   8.090  67.844  1.00  0.00    -0.125 C  
HETATM   13  C   UNL     1      -9.192  12.542  68.161  1.00  0.00    -0.209 C  
HETATM   14  C   UNL     1     -11.957  13.144  64.466  1.00  0.00    -0.442 C  
HETATM   15  O   UNL     1     -10.219  12.490  69.168  1.00  0.00    -0.421 OA 
HETATM   16  C   UNL     1     -10.703  16.698  64.991  1.00  0.00    -0.152 C  
HETATM   17  C   UNL     1      -9.911  12.797  66.659  1.00  0.00    -0.250 C  
HETATM   18  C   UNL     1     -11.768  14.495  67.420  1.00  0.00    -0.425 C  
HETATM   19  C   UNL     1     -11.326  15.515  64.375  1.00  0.00    -0.260 C  
HETATM   20  H   UNL     1     -10.766  13.248  68.996  1.00  0.00     0.000 HD 
HETATM   21  C   UNL     1     -10.779  11.524  66.048  1.00  0.00    -0.332 C  
HETATM   22  C   UNL     1     -11.172  11.846  64.593  1.00  0.00    -0.364 C  
HETATM   23  C   UNL     1     -10.604  14.227  66.444  1.00  0.00    -0.286 C  
HETATM   24  C   UNL     1      -9.503  15.343  66.685  1.00  0.00    -0.281 C  
ENDROOT
BRANCH   4  25
HETATM   25  C   UNL     1      -9.904   9.697  69.730  1.00  0.00    -0.229 C  
HETATM   26  O   UNL     1      -8.855   9.438  70.349  1.00  0.00    -0.217 OA 
BRANCH  25  27
HETATM   27  C   UNL     1     -11.208   9.432  70.520  1.00  0.00    -0.275 C  
BRANCH  27  28
HETATM   28  O   UNL     1     -12.168  10.504  70.282  1.00  0.00    -0.294 OA 
BRANCH  28  29
HETATM   29  C   UNL     1     -12.716  11.087  71.383  1.00  0.00    -0.429 C  
HETATM   30  O   UNL     1     -13.253  10.474  72.295  1.00  0.00    -0.402 OA 
BRANCH  29  31
HETATM   31  C   UNL     1     -12.650  12.596  71.327  1.00  0.00    -0.339 C  
BRANCH  31  32
HETATM   32  C   UNL     1     -13.608  13.280  72.290  1.00  0.00    -0.703 C  
HETATM   33  C   UNL     1     -13.250  14.713  72.605  1.00  0.00    -0.464 C  
HETATM   34  O   UNL     1     -12.215  14.864  73.449  1.00  0.00    -0.371 OA 
HETATM   35  O   UNL     1     -13.885  15.670  72.167  1.00  0.00    -0.487 OA 
ENDBRANCH  31  32
ENDBRANCH  29  31
ENDBRANCH  28  29
ENDBRANCH  27  28
ENDBRANCH  25  27
ENDBRANCH   4  25
TORSDOF 6
ENDMDL
MODEL        4
REMARK 921   NORMALIZED FREE ENERGY PREDICTED BY IDOCK:   -7.13 KCAL/MOL
REMARK 922        TOTAL FREE ENERGY PREDICTED BY IDOCK:  -10.36 KCAL/MOL
REMARK 923 INTER-LIGAND FREE ENERGY PREDICTED BY IDOCK:  -10.65 KCAL/MOL
REMARK 924 INTRA-LIGAND FREE ENERGY PREDICTED BY IDOCK:    0.29 KCAL/MOL
REMARK 927      BINDING AFFINITY PREDICTED BY RF-SCORE:    0.00 PKD
ROOT
HETATM    1  C   UNL     1     -10.840  12.807  63.986  1.00  0.00    -0.458 C  
HETATM    2  C   UNL     1     -12.021  12.203  63.495  1.00  0.00    -0.619 C  
HETATM    3  C   UNL     1     -12.067  12.513  64.958  1.00  0.00    -0.504 C  
HETATM    4  C   UNL     1     -10.604  13.745  65.736  1.00  0.00    -0.293 C  
HETATM    5  C   UNL     1     -10.548   7.381  67.756  1.00  0.00    -0.278 C  
HETATM    6  O   UNL     1      -9.561  14.333  64.864  1.00  0.00    -0.435 OA 
HETATM    7  C   UNL     1     -11.813  13.991  65.174  1.00  0.00    -0.370 C  
HETATM    8  C   UNL     1     -12.257  13.232  66.904  1.00  0.00    -0.315 C  
HETATM    9  H   UNL     1      -8.887  14.900  65.222  1.00  0.00     0.000 HD 
HETATM   10  C   UNL     1      -9.081   8.740  65.703  1.00  0.00    -0.247 C  
HETATM   11  O   UNL     1      -8.586   5.990  67.742  1.00  0.00    -0.108 OA 
HETATM   12  C   UNL     1     -12.422  15.202  64.494  1.00  0.00    -0.099 C  
HETATM   13  C   UNL     1     -11.067  11.984  67.355  1.00  0.00    -0.281 C  
HETATM   14  C   UNL     1      -8.609   9.351  64.408  1.00  0.00    -0.214 C  
HETATM   15  O   UNL     1      -9.968  12.715  67.928  1.00  0.00    -0.214 OA 
HETATM   16  C   UNL     1      -9.265   6.852  67.202  1.00  0.00    -0.139 C  
HETATM   17  C   UNL     1     -10.466  10.883  66.230  1.00  0.00    -0.304 C  
HETATM   18  C   UNL     1      -8.312  10.148  67.548  1.00  0.00    -0.118 C  
HETATM   19  C   UNL     1      -8.887   7.419  65.896  1.00  0.00    -0.149 C  
HETATM   20  H   UNL     1      -9.334  12.049  68.168  1.00  0.00     0.000 HD 
HETATM   21  C   UNL     1      -9.859  11.536  64.834  1.00  0.00    -0.289 C  
HETATM   22  C   UNL     1      -9.563  10.394  63.841  1.00  0.00    -0.370 C  
HETATM   23  C   UNL     1      -9.591   9.677  66.825  1.00  0.00    -0.225 C  
HETATM   24  C   UNL     1     -10.485   8.901  67.880  1.00  0.00    -0.281 C  
ENDROOT
BRANCH   4  25
HETATM   25  C   UNL     1     -10.639  15.217  66.703  1.00  0.00    -0.304 C  
HETATM   26  O   UNL     1     -11.464  15.491  67.596  1.00  0.00    -0.307 OA 
BRANCH  25  27
HETATM   27  C   UNL     1      -9.605  16.330  66.408  1.00  0.00    -0.291 C  
BRANCH  27  28
HETATM   28  O   UNL     1     -10.205  17.368  65.579  1.00  0.00    -0.604 OA 
BRANCH  28  29
HETATM   29  C   UNL     1     -10.468  18.558  66.186  1.00  0.00    -0.413 C  
HETATM   30  O   UNL     1     -10.661  19.609  65.592  1.00  0.00    -0.503 OA 
BRANCH  29  31
HETATM   31  C   UNL     1     -10.430  18.454  67.693  1.00  0.00    -0.445 C  
BRANCH  31  32
HETATM   32  C   UNL     1      -9.802  19.663  68.368  1.00  0.00    -0.531 C  
HETATM   33  C   UNL     1      -8.318  19.803  68.131  1.00  0.00    -0.289 C  
HETATM   34  O   UNL     1      -7.551  18.951  68.833  1.00  0.00    -0.327 OA 
HETATM   35  O   UNL     1      -7.838  20.662  67.393  1.00  0.00    -0.331 OA 
ENDBRANCH  31  32
ENDBRANCH  29  31
ENDBRANCH  28  29
ENDBRANCH  27  28
ENDBRANCH  25  27
ENDBRANCH   4  25
TORSDOF 6
ENDMDL
MODEL        5
REMARK 921   NORMALIZED FREE ENERGY PREDICTED BY IDOCK:   -7.12 KCAL/MOL
REMARK 922        TOTAL FREE ENERGY PREDICTED BY IDOCK:  -10.35 KCAL/MOL
REMARK 923 INTER-LIGAND FREE ENERGY PREDICTED BY IDOCK:   -9.47 KCAL/MOL
REMARK 924 INTRA-LIGAND FREE ENERGY PREDICTED BY IDOCK:   -0.88 KCAL/MOL
REMARK 927      BINDING AFFINITY PREDICTED BY RF-SCORE:    0.00 PKD
ROOT
HETATM    1  C   UNL     1      -9.867   9.387  65.861  1.00  0.00    -0.362 C  
HETATM    2  C   UNL     1      -8.827   9.432  64.904  1.00  0.00    -0.240 C  
HETATM    3  C   UNL     1      -8.427   9.940  66.254  1.00  0.00    -0.133 C  
HETATM    4  C   UNL     1      -9.690   9.570  67.843  1.00  0.00    -0.147 C  
HETATM    5  C   UNL     1      -9.014  15.944  65.971  1.00  0.00    -0.337 C  
HETATM    6  O   UNL     1     -10.939   8.795  67.660  1.00  0.00    -0.493 OA 
HETATM    7  C   UNL     1      -8.671   8.866  67.295  1.00  0.00    -0.125 C  
HETATM    8  C   UNL     1      -7.781  10.339  68.193  1.00  0.00    -0.092 C  
HETATM    9  H   UNL     1     -11.521   8.625  68.392  1.00  0.00     0.000 HD 
HETATM   10  C   UNL     1     -10.996  13.974  65.336  1.00  0.00    -0.321 C  
HETATM   11  O   UNL     1     -10.867  17.422  65.562  1.00  0.00    -0.429 OA 
HETATM   12  C   UNL     1      -8.294   7.397  67.298  1.00  0.00    -0.119 C  
HETATM   13  C   UNL     1      -8.775  11.814  68.094  1.00  0.00    -0.168 C  
HETATM   14  C   UNL     1     -11.798  12.858  64.713  1.00  0.00    -0.409 C  
HETATM   15  O   UNL     1      -9.721  11.693  69.172  1.00  0.00    -0.415 OA 
HETATM   16  C   UNL     1     -10.375  16.305  65.472  1.00  0.00    -0.338 C  
HETATM   17  C   UNL     1      -9.599  12.237  66.687  1.00  0.00    -0.227 C  
HETATM   18  C   UNL     1     -11.327  13.905  67.757  1.00  0.00    -0.335 C  
HETATM   19  C   UNL     1     -11.088  15.207  64.798  1.00  0.00    -0.395 C  
HETATM   20  H   UNL     1     -10.251  12.480  69.118  1.00  0.00     0.000 HD 
HETATM   21  C   UNL     1     -10.559  11.057  66.030  1.00  0.00    -0.275 C  
HETATM   22  C   UNL     1     -11.053  11.532  64.650  1.00  0.00    -0.317 C  
HETATM   23  C   UNL     1     -10.254  13.701  66.668  1.00  0.00    -0.276 C  
HETATM   24  C   UNL     1      -9.097  14.755  66.924  1.00  0.00    -0.268 C  
ENDROOT
BRANCH   4  25
HETATM   25  C   UNL     1      -9.467   8.851  69.436  1.00  0.00    -0.161 C  
HETATM   26  O   UNL     1      -8.739   9.291  70.346  1.00  0.00    -0.189 OA 
BRANCH  25  27
HETATM   27  C   UNL     1     -10.173   7.512  69.757  1.00  0.00    -0.211 C  
BRANCH  27  28
HETATM   28  O   UNL     1     -11.536   7.757  70.211  1.00  0.00    -0.223 OA 
BRANCH  28  29
HETATM   29  C   UNL     1     -11.730   7.813  71.558  1.00  0.00    -0.280 C  
HETATM   30  O   UNL     1     -11.679   6.846  72.304  1.00  0.00    -0.278 OA 
BRANCH  29  31
HETATM   31  C   UNL     1     -12.085   9.204  72.029  1.00  0.00    -0.431 C  
BRANCH  31  32
HETATM   32  C   UNL     1     -13.142   9.884  71.173  1.00  0.00    -0.453 C  
HETATM   33  C   UNL     1     -12.611  10.996  70.301  1.00  0.00    -0.243 C  
HETATM   34  O   UNL     1     -12.334  12.139  70.952  1.00  0.00    -0.373 OA 
HETATM   35  O   UNL     1     -12.489  10.888  69.083  1.00  0.00    -0.409 OA 
ENDBRANCH  31  32
ENDBRANCH  29  31
ENDBRANCH  28  29
ENDBRANCH  27  28
ENDBRANCH  25  27
ENDBRANCH   4  25
TORSDOF 6
ENDMDL
MODEL        6
REMARK 921   NORMALIZED FREE ENERGY PREDICTED BY IDOCK:   -7.08 KCAL/MOL
REMARK 922        TOTAL FREE ENERGY PREDICTED BY IDOCK:  -10.30 KCAL/MOL
REMARK 923 INTER-LIGAND FREE ENERGY PREDICTED BY IDOCK:  -10.47 KCAL/MOL
REMARK 924 INTRA-LIGAND FREE ENERGY PREDICTED BY IDOCK:    0.18 KCAL/MOL
REMARK 927      BINDING AFFINITY PREDICTED BY RF-SCORE:    0.00 PKD
ROOT
HETATM    1  C   UNL     1     -10.980  12.821  63.784  1.00  0.00    -0.445 C  
HETATM    2  C   UNL     1     -12.177  12.209  63.344  1.00  0.00    -0.635 C  
HETATM    3  C   UNL     1     -12.185  12.575  64.796  1.00  0.00    -0.532 C  
HETATM    4  C   UNL     1     -10.695  13.824  65.489  1.00  0.00    -0.302 C  
HETATM    5  C   UNL     1     -10.634   7.541  67.750  1.00  0.00    -0.274 C  
HETATM    6  O   UNL     1      -9.668  14.369  64.571  1.00  0.00    -0.505 OA 
HETATM    7  C   UNL     1     -11.915  14.058  64.949  1.00  0.00    -0.416 C  
HETATM    8  C   UNL     1     -12.321  13.369  66.717  1.00  0.00    -0.287 C  
HETATM    9  H   UNL     1      -8.982  14.944  64.890  1.00  0.00     0.000 HD 
HETATM   10  C   UNL     1      -9.209   8.808  65.611  1.00  0.00    -0.244 C  
HETATM   11  O   UNL     1      -8.684   6.134  67.741  1.00  0.00    -0.114 OA 
HETATM   12  C   UNL     1     -12.532  15.247  64.238  1.00  0.00    -0.015 C  
HETATM   13  C   UNL     1     -11.130  12.129  67.186  1.00  0.00    -0.291 C  
HETATM   14  C   UNL     1      -8.765   9.366  64.282  1.00  0.00    -0.224 C  
HETATM   15  O   UNL     1     -10.012  12.872  67.703  1.00  0.00    -0.210 OA 
HETATM   16  C   UNL     1      -9.370   6.981  67.185  1.00  0.00    -0.143 C  
HETATM   17  C   UNL     1     -10.565  10.981  66.090  1.00  0.00    -0.288 C  
HETATM   18  C   UNL     1      -8.385  10.279  67.381  1.00  0.00    -0.118 C  
HETATM   19  C   UNL     1      -9.020   7.494  65.849  1.00  0.00    -0.128 C  
HETATM   20  H   UNL     1      -9.376  12.211  67.953  1.00  0.00     0.000 HD 
HETATM   21  C   UNL     1      -9.988  11.575  64.655  1.00  0.00    -0.305 C  
HETATM   22  C   UNL     1      -9.726  10.394  63.700  1.00  0.00    -0.338 C  
HETATM   23  C   UNL     1      -9.684   9.792  66.709  1.00  0.00    -0.248 C  
HETATM   24  C   UNL     1     -10.558   9.063  67.814  1.00  0.00    -0.278 C  
ENDROOT
BRANCH   4  25
HETATM   25  C   UNL     1     -10.694  15.331  66.400  1.00  0.00    -0.318 C  
HETATM   26  O   UNL     1     -11.427  15.605  67.371  1.00  0.00    -0.235 OA 
BRANCH  25  27
HETATM   27  C   UNL     1      -9.756  16.477  65.950  1.00  0.00    -0.270 C  
BRANCH  27  28
HETATM   28  O   UNL     1     -10.531  17.675  65.654  1.00  0.00    -0.606 OA 
BRANCH  28  29
HETATM   29  C   UNL     1     -10.434  18.700  66.546  1.00  0.00    -0.420 C  
HETATM   30  O   UNL     1     -10.948  18.701  67.656  1.00  0.00    -0.365 OA 
BRANCH  29  31
HETATM   31  C   UNL     1      -9.671  19.878  65.987  1.00  0.00    -0.469 C  
BRANCH  31  32
HETATM   32  C   UNL     1      -8.293  20.056  66.604  1.00  0.00    -0.363 C  
HETATM   33  C   UNL     1      -7.151  19.815  65.648  1.00  0.00    -0.309 C  
HETATM   34  O   UNL     1      -6.912  18.522  65.367  1.00  0.00    -0.514 OA 
HETATM   35  O   UNL     1      -6.455  20.723  65.197  1.00  0.00    -0.263 OA 
ENDBRANCH  31  32
ENDBRANCH  29  31
ENDBRANCH  28  29
ENDBRANCH  27  28
ENDBRANCH  25  27
ENDBRANCH   4  25
TORSDOF 6
ENDMDL
MODEL        7
REMARK 921   NORMALIZED FREE ENERGY PREDICTED BY IDOCK:   -7.08 KCAL/MOL
REMARK 922        TOTAL FREE ENERGY PREDICTED BY IDOCK:  -10.30 KCAL/MOL
REMARK 923 INTER-LIGAND FREE ENERGY PREDICTED BY IDOCK:  -10.24 KCAL/MOL
REMARK 924 INTRA-LIGAND FREE ENERGY PREDICTED BY IDOCK:   -0.06 KCAL/MOL
REMARK 927      BINDING AFFINITY PREDICTED BY RF-SCORE:    0.00 PKD
ROOT
HETATM    1  C   UNL     1     -10.998  12.702  63.831  1.00  0.00    -0.468 C  
HETATM    2  C   UNL     1     -12.206  12.075  63.447  1.00  0.00    -0.627 C  
HETATM    3  C   UNL     1     -12.180  12.505  64.881  1.00  0.00    -0.534 C  
HETATM    4  C   UNL     1     -10.671  13.779  65.484  1.00  0.00    -0.302 C  
HETATM    5  C   UNL     1     -10.574   7.603  68.020  1.00  0.00    -0.213 C  
HETATM    6  O   UNL     1      -9.665  14.279  64.519  1.00  0.00    -0.539 OA 
HETATM    7  C   UNL     1     -11.903  13.993  64.961  1.00  0.00    -0.383 C  
HETATM    8  C   UNL     1     -12.270  13.385  66.766  1.00  0.00    -0.367 C  
HETATM    9  H   UNL     1      -8.970  14.865  64.796  1.00  0.00     0.000 HD 
HETATM   10  C   UNL     1      -9.195   8.768  65.795  1.00  0.00    -0.269 C  
HETATM   11  O   UNL     1      -8.628   6.190  68.030  1.00  0.00    -0.116 OA 
HETATM   12  C   UNL     1     -12.533  15.151  64.212  1.00  0.00    -0.073 C  
HETATM   13  C   UNL     1     -11.072  12.163  67.263  1.00  0.00    -0.287 C  
HETATM   14  C   UNL     1      -8.780   9.265  64.433  1.00  0.00    -0.211 C  
HETATM   15  O   UNL     1      -9.940  12.924  67.722  1.00  0.00    -0.218 OA 
HETATM   16  C   UNL     1      -9.325   7.014  67.452  1.00  0.00    -0.126 C  
HETATM   17  C   UNL     1     -10.534  10.965  66.207  1.00  0.00    -0.304 C  
HETATM   18  C   UNL     1      -8.327  10.314  67.479  1.00  0.00    -0.114 C  
HETATM   19  C   UNL     1      -9.004   7.466  66.087  1.00  0.00    -0.182 C  
HETATM   20  H   UNL     1      -9.301  12.273  67.986  1.00  0.00     0.000 HD 
HETATM   21  C   UNL     1      -9.989  11.493  64.734  1.00  0.00    -0.304 C  
HETATM   22  C   UNL     1      -9.751  10.269  63.827  1.00  0.00    -0.298 C  
HETATM   23  C   UNL     1      -9.643   9.802  66.858  1.00  0.00    -0.228 C  
HETATM   24  C   UNL     1     -10.493   9.127  68.014  1.00  0.00    -0.276 C  
ENDROOT
BRANCH   4  25
HETATM   25  C   UNL     1     -10.646  15.326  66.326  1.00  0.00    -0.309 C  
HETATM   26  O   UNL     1     -11.195  15.579  67.416  1.00  0.00    -0.315 OA 
BRANCH  25  27
HETATM   27  C   UNL     1      -9.942  16.530  65.658  1.00  0.00    -0.204 C  
BRANCH  27  28
HETATM   28  O   UNL     1      -8.510  16.490  65.929  1.00  0.00    -0.420 OA 
BRANCH  28  29
HETATM   29  C   UNL     1      -7.902  17.683  66.174  1.00  0.00    -0.234 C  
HETATM   30  O   UNL     1      -7.198  18.278  65.370  1.00  0.00    -0.541 OA 
BRANCH  29  31
HETATM   31  C   UNL     1      -8.136  18.168  67.586  1.00  0.00    -0.234 C  
BRANCH  31  32
HETATM   32  C   UNL     1      -8.600  19.614  67.661  1.00  0.00    -0.365 C  
HETATM   33  C   UNL     1     -10.053  19.779  68.035  1.00  0.00    -0.446 C  
HETATM   34  O   UNL     1     -10.924  19.500  67.050  1.00  0.00    -0.477 OA 
HETATM   35  O   UNL     1     -10.416  20.188  69.136  1.00  0.00    -0.254 OA 
ENDBRANCH  31  32
ENDBRANCH  29  31
ENDBRANCH  28  29
ENDBRANCH  27  28
ENDBRANCH  25  27
ENDBRANCH   4  25
TORSDOF 6
ENDMDL
MODEL        8
REMARK 921   NORMALIZED FREE ENERGY PREDICTED BY IDOCK:   -6.73 KCAL/MOL
REMARK 922        TOTAL FREE ENERGY PREDICTED BY IDOCK:   -9.83 KCAL/MOL
REMARK 923 INTER-LIGAND FREE ENERGY PREDICTED BY IDOCK:   -9.82 KCAL/MOL
REMARK 924 INTRA-LIGAND FREE ENERGY PREDICTED BY IDOCK:   -0.00 KCAL/MOL
REMARK 927      BINDING AFFINITY PREDICTED BY RF-SCORE:    0.00 PKD
ROOT
HETATM    1  C   UNL     1     -11.041  12.737  63.815  1.00  0.00    -0.475 C  
HETATM    2  C   UNL     1     -12.201  12.000  63.483  1.00  0.00    -0.653 C  
HETATM    3  C   UNL     1     -11.882  11.993  64.945  1.00  0.00    -0.304 C  
HETATM    4  C   UNL     1     -10.474  13.335  65.637  1.00  0.00    -0.281 C  
HETATM    5  C   UNL     1      -8.845   6.865  65.922  1.00  0.00    -0.125 C  
HETATM    6  O   UNL     1      -9.824  14.299  64.719  1.00  0.00    -0.518 OA 
HETATM    7  C   UNL     1     -11.814  13.418  65.458  1.00  0.00    -0.394 C  
HETATM    8  C   UNL     1     -11.627  12.249  66.996  1.00  0.00    -0.418 C  
HETATM    9  H   UNL     1      -9.175  14.917  65.037  1.00  0.00     0.000 HD 
HETATM   10  C   UNL     1      -8.250   8.894  63.988  1.00  0.00    -0.168 C  
HETATM   11  O   UNL     1      -6.773   5.969  65.094  1.00  0.00    -0.042 OA 
HETATM   12  C   UNL     1     -12.774  14.577  65.269  1.00  0.00    -0.176 C  
HETATM   13  C   UNL     1     -10.177  11.228  66.824  1.00  0.00    -0.226 C  
HETATM   14  C   UNL     1      -8.265   9.841  62.814  1.00  0.00    -0.151 C  
HETATM   15  O   UNL     1      -9.091  12.051  67.284  1.00  0.00    -0.168 OA 
HETATM   16  C   UNL     1      -7.705   6.752  64.965  1.00  0.00    -0.108 C  
HETATM   17  C   UNL     1      -9.751  10.533  65.350  1.00  0.00    -0.315 C  
HETATM   18  C   UNL     1      -7.225  10.039  65.891  1.00  0.00    -0.115 C  
HETATM   19  C   UNL     1      -7.803   7.637  63.791  1.00  0.00    -0.117 C  
HETATM   20  H   UNL     1      -8.318  11.507  67.192  1.00  0.00     0.000 HD 
HETATM   21  C   UNL     1      -9.673  11.568  64.059  1.00  0.00    -0.248 C  
HETATM   22  C   UNL     1      -9.492  10.741  62.771  1.00  0.00    -0.358 C  
HETATM   23  C   UNL     1      -8.564   9.454  65.398  1.00  0.00    -0.176 C  
HETATM   24  C   UNL     1      -8.992   8.306  66.404  1.00  0.00    -0.202 C  
ENDROOT
BRANCH   4  25
HETATM   25  C   UNL     1     -10.466  14.540  66.922  1.00  0.00    -0.269 C  
HETATM   26  O   UNL     1     -11.071  14.459  68.009  1.00  0.00    -0.257 OA 
BRANCH  25  27
HETATM   27  C   UNL     1      -9.702  15.866  66.699  1.00  0.00    -0.253 C  
BRANCH  27  28
HETATM   28  O   UNL     1     -10.630  16.990  66.711  1.00  0.00    -0.284 OA 
BRANCH  28  29
HETATM   29  C   UNL     1     -10.448  17.921  67.688  1.00  0.00    -0.397 C  
HETATM   30  O   UNL     1     -10.057  17.669  68.819  1.00  0.00    -0.348 OA 
BRANCH  29  31
HETATM   31  C   UNL     1     -10.848  19.308  67.241  1.00  0.00    -0.554 C  
BRANCH  31  32
HETATM   32  C   UNL     1     -10.015  19.837  66.084  1.00  0.00    -0.573 C  
HETATM   33  C   UNL     1      -8.525  19.703  66.283  1.00  0.00    -0.360 C  
HETATM   34  O   UNL     1      -7.987  20.589  67.139  1.00  0.00    -0.333 OA 
HETATM   35  O   UNL     1      -7.841  18.883  65.673  1.00  0.00    -0.459 OA 
ENDBRANCH  31  32
ENDBRANCH  29  31
ENDBRANCH  28  29
ENDBRANCH  27  28
ENDBRANCH  25  27
ENDBRANCH   4  25
TORSDOF 6
ENDMDL
MODEL        9
REMARK 921   NORMALIZED FREE ENERGY PREDICTED BY IDOCK:   -6.66 KCAL/MOL
REMARK 922        TOTAL FREE ENERGY PREDICTED BY IDOCK:   -9.73 KCAL/MOL
REMARK 923 INTER-LIGAND FREE ENERGY PREDICTED BY IDOCK:   -9.33 KCAL/MOL
REMARK 924 INTRA-LIGAND FREE ENERGY PREDICTED BY IDOCK:   -0.40 KCAL/MOL
REMARK 927      BINDING AFFINITY PREDICTED BY RF-SCORE:    0.00 PKD
ROOT
HETATM    1  C   UNL     1     -11.049  12.727  63.879  1.00  0.00    -0.477 C  
HETATM    2  C   UNL     1     -12.249  12.083  63.498  1.00  0.00    -0.653 C  
HETATM    3  C   UNL     1     -12.221  12.505  64.934  1.00  0.00    -0.534 C  
HETATM    4  C   UNL     1     -10.730  13.799  65.536  1.00  0.00    -0.302 C  
HETATM    5  C   UNL     1     -10.521   7.609  68.034  1.00  0.00    -0.247 C  
HETATM    6  O   UNL     1      -9.737  14.320  64.569  1.00  0.00    -0.539 OA 
HETATM    7  C   UNL     1     -11.967  13.996  65.021  1.00  0.00    -0.409 C  
HETATM    8  C   UNL     1     -12.315  13.371  66.825  1.00  0.00    -0.287 C  
HETATM    9  H   UNL     1      -9.050  14.916  64.846  1.00  0.00     0.000 HD 
HETATM   10  C   UNL     1      -9.173   8.810  65.809  1.00  0.00    -0.269 C  
HETATM   11  O   UNL     1      -8.553   6.228  68.025  1.00  0.00    -0.117 OA 
HETATM   12  C   UNL     1     -12.620  15.149  64.283  1.00  0.00     0.104 C  
HETATM   13  C   UNL     1     -11.094  12.166  67.308  1.00  0.00    -0.287 C  
HETATM   14  C   UNL     1      -8.774   9.321  64.447  1.00  0.00    -0.211 C  
HETATM   15  O   UNL     1      -9.973  12.942  67.765  1.00  0.00    -0.218 OA 
HETATM   16  C   UNL     1      -9.266   7.044  67.456  1.00  0.00    -0.124 C  
HETATM   17  C   UNL     1     -10.544  10.983  66.242  1.00  0.00    -0.295 C  
HETATM   18  C   UNL     1      -8.320  10.359  67.497  1.00  0.00    -0.114 C  
HETATM   19  C   UNL     1      -8.960   7.509  66.092  1.00  0.00    -0.188 C  
HETATM   20  H   UNL     1      -9.321  12.299  68.021  1.00  0.00     0.000 HD 
HETATM   21  C   UNL     1     -10.016  11.528  64.769  1.00  0.00    -0.304 C  
HETATM   22  C   UNL     1      -9.764  10.314  63.853  1.00  0.00    -0.325 C  
HETATM   23  C   UNL     1      -9.631   9.830  66.881  1.00  0.00    -0.228 C  
HETATM   24  C   UNL     1     -10.464   9.134  68.037  1.00  0.00    -0.276 C  
ENDROOT
BRANCH   4  25
HETATM   25  C   UNL     1     -10.724  15.340  66.388  1.00  0.00    -0.318 C  
HETATM   26  O   UNL     1     -11.266  15.576  67.485  1.00  0.00    -0.322 OA 
BRANCH  25  27
HETATM   27  C   UNL     1     -10.050  16.562  65.719  1.00  0.00    -0.303 C  
BRANCH  27  28
HETATM   28  O   UNL     1      -8.600  16.450  65.812  1.00  0.00    -0.398 OA 
BRANCH  28  29
HETATM   29  C   UNL     1      -7.923  17.576  66.170  1.00  0.00    -0.226 C  
HETATM   30  O   UNL     1      -8.282  18.713  65.901  1.00  0.00    -0.488 OA 
BRANCH  29  31
HETATM   31  C   UNL     1      -6.629  17.265  66.886  1.00  0.00    -0.229 C  
BRANCH  31  32
HETATM   32  C   UNL     1      -6.584  15.863  67.474  1.00  0.00    -0.212 C  
HETATM   33  C   UNL     1      -7.144  15.760  68.872  1.00  0.00    -0.139 C  
HETATM   34  O   UNL     1      -6.344  16.244  69.838  1.00  0.00    -0.198 OA 
HETATM   35  O   UNL     1      -8.225  15.229  69.120  1.00  0.00    -0.200 OA 
ENDBRANCH  31  32
ENDBRANCH  29  31
ENDBRANCH  28  29
ENDBRANCH  27  28
ENDBRANCH  25  27
ENDBRANCH   4  25
TORSDOF 6
ENDMDL
MODEL       10
REMARK 921   NORMALIZED FREE ENERGY PREDICTED BY IDOCK:   -6.65 KCAL/MOL
REMARK 922        TOTAL FREE ENERGY PREDICTED BY IDOCK:   -9.71 KCAL/MOL
REMARK 923 INTER-LIGAND FREE ENERGY PREDICTED BY IDOCK:   -9.90 KCAL/MOL
REMARK 924 INTRA-LIGAND FREE ENERGY PREDICTED BY IDOCK:    0.19 KCAL/MOL
REMARK 927      BINDING AFFINITY PREDICTED BY RF-SCORE:    0.00 PKD
ROOT
HETATM    1  C   UNL     1     -10.959  12.624  65.100  1.00  0.00    -0.324 C  
HETATM    2  C   UNL     1     -12.301  12.272  64.822  1.00  0.00    -0.416 C  
HETATM    3  C   UNL     1     -12.133  13.062  66.083  1.00  0.00    -0.473 C  
HETATM    4  C   UNL     1     -10.318  13.986  66.414  1.00  0.00    -0.289 C  
HETATM    5  C   UNL     1     -11.936   8.989  70.537  1.00  0.00    -0.044 C  
HETATM    6  O   UNL     1      -9.225  13.899  65.419  1.00  0.00    -0.286 OA 
HETATM    7  C   UNL     1     -11.446  14.376  65.773  1.00  0.00    -0.335 C  
HETATM    8  C   UNL     1     -11.945  14.423  67.648  1.00  0.00    -0.378 C  
HETATM    9  H   UNL     1      -8.389  14.324  65.571  1.00  0.00     0.000 HD 
HETATM   10  C   UNL     1     -10.315   9.058  68.175  1.00  0.00    -0.262 C  
HETATM   11  O   UNL     1     -10.469   7.156  71.060  1.00  0.00    -0.214 OA 
HETATM   12  C   UNL     1     -11.733  15.405  64.697  1.00  0.00    -0.267 C  
HETATM   13  C   UNL     1     -11.133  13.108  68.536  1.00  0.00    -0.266 C  
HETATM   14  C   UNL     1      -9.797   9.020  66.759  1.00  0.00    -0.300 C  
HETATM   15  O   UNL     1      -9.826  13.625  68.844  1.00  0.00    -0.407 OA 
HETATM   16  C   UNL     1     -10.912   7.944  70.235  1.00  0.00    -0.248 C  
HETATM   17  C   UNL     1     -10.972  11.563  67.884  1.00  0.00    -0.287 C  
HETATM   18  C   UNL     1      -9.021  10.712  69.428  1.00  0.00    -0.049 C  
HETATM   19  C   UNL     1     -10.496   7.889  68.823  1.00  0.00    -0.198 C  
HETATM   20  H   UNL     1      -9.393  12.923  69.317  1.00  0.00     0.000 HD 
HETATM   21  C   UNL     1     -10.321  11.486  66.362  1.00  0.00    -0.277 C  
HETATM   22  C   UNL     1     -10.452  10.041  65.841  1.00  0.00    -0.115 C  
HETATM   23  C   UNL     1     -10.437  10.430  68.885  1.00  0.00    -0.232 C  
HETATM   24  C   UNL     1     -11.426  10.366  70.122  1.00  0.00    -0.396 C  
ENDROOT
BRANCH   4  25
HETATM   25  C   UNL     1      -9.844  15.637  66.804  1.00  0.00    -0.244 C  
HETATM   26  O   UNL     1     -10.560  16.499  67.350  1.00  0.00    -0.316 OA 
BRANCH  25  27
HETATM   27  C   UNL     1      -8.437  16.129  66.390  1.00  0.00    -0.334 C  
BRANCH  27  28
HETATM   28  O   UNL     1      -8.535  17.401  65.685  1.00  0.00    -0.468 OA 
BRANCH  28  29
HETATM   29  C   UNL     1      -7.604  18.345  65.998  1.00  0.00    -0.195 C  
HETATM   30  O   UNL     1      -6.932  18.951  65.176  1.00  0.00    -0.490 OA 
BRANCH  29  31
HETATM   31  C   UNL     1      -7.440  18.518  67.490  1.00  0.00    -0.225 C  
BRANCH  31  32
HETATM   32  C   UNL     1      -8.032  19.815  68.019  1.00  0.00    -0.337 C  
HETATM   33  C   UNL     1      -9.538  19.812  68.119  1.00  0.00    -0.380 C  
HETATM   34  O   UNL     1     -10.182  19.938  66.947  1.00  0.00    -0.413 OA 
HETATM   35  O   UNL     1     -10.134  19.750  69.193  1.00  0.00    -0.438 OA 
ENDBRANCH  31  32
ENDBRANCH  29  31
ENDBRANCH  28  29
ENDBRANCH  27  28
ENDBRANCH  25  27
ENDBRANCH   4  25
TORSDOF 6
ENDMDL
MODEL       11
REMARK 921   NORMALIZED FREE ENERGY PREDICTED BY IDOCK:   -6.56 KCAL/MOL
REMARK 922        TOTAL FREE ENERGY PREDICTED BY IDOCK:   -9.60 KCAL/MOL
REMARK 923 INTER-LIGAND FREE ENERGY PREDICTED BY IDOCK:   -9.52 KCAL/MOL
REMARK 924 INTRA-LIGAND FREE ENERGY PREDICTED BY IDOCK:   -0.08 KCAL/MOL
REMARK 927      BINDING AFFINITY PREDICTED BY RF-SCORE:    0.00 PKD
ROOT
HETATM    1  C   UNL     1      -7.809  12.266  67.658  1.00  0.00    -0.156 C  
HETATM    2  C   UNL     1      -7.227  11.726  68.829  1.00  0.00    -0.113 C  
HETATM    3  C   UNL     1      -8.514  11.069  68.436  1.00  0.00    -0.144 C  
HETATM    4  C   UNL     1      -9.270  11.462  66.556  1.00  0.00    -0.189 C  
HETATM    5  C   UNL     1     -12.789  13.763  71.744  1.00  0.00    -0.415 C  
HETATM    6  O   UNL     1      -8.543  12.341  65.611  1.00  0.00    -0.177 OA 
HETATM    7  C   UNL     1      -8.402  10.533  67.024  1.00  0.00    -0.128 C  
HETATM    8  C   UNL     1     -10.117   9.949  67.719  1.00  0.00    -0.221 C  
HETATM    9  H   UNL     1      -8.891  12.522  64.745  1.00  0.00     0.000 HD 
HETATM   10  C   UNL     1     -10.855  15.024  70.047  1.00  0.00    -0.243 C  
HETATM   11  O   UNL     1     -13.579  16.027  71.926  1.00  0.00    -0.282 OA 
HETATM   12  C   UNL     1      -7.317   9.696  66.374  1.00  0.00    -0.094 C  
HETATM   13  C   UNL     1     -11.130  11.358  68.127  1.00  0.00    -0.248 C  
HETATM   14  C   UNL     1      -9.591  15.556  69.418  1.00  0.00    -0.279 C  
HETATM   15  O   UNL     1     -11.737  11.746  66.882  1.00  0.00    -0.557 OA 
HETATM   16  C   UNL     1     -12.697  15.246  71.595  1.00  0.00    -0.384 C  
HETATM   17  C   UNL     1     -10.490  12.725  68.874  1.00  0.00    -0.106 C  
HETATM   18  C   UNL     1     -12.410  14.414  68.261  1.00  0.00    -0.015 C  
HETATM   19  C   UNL     1     -11.414  15.726  71.053  1.00  0.00    -0.451 C  
HETATM   20  H   UNL     1     -12.277  12.497  67.099  1.00  0.00     0.000 HD 
HETATM   21  C   UNL     1      -9.152  13.384  68.152  1.00  0.00    -0.207 C  
HETATM   22  C   UNL     1      -8.576  14.474  69.077  1.00  0.00    -0.041 C  
HETATM   23  C   UNL     1     -11.555  13.807  69.392  1.00  0.00    -0.365 C  
HETATM   24  C   UNL     1     -12.536  13.079  70.403  1.00  0.00    -0.266 C  
ENDROOT
BRANCH   4  25
HETATM   25  C   UNL     1      -9.799  10.445  65.219  1.00  0.00    -0.297 C  
HETATM   26  O   UNL     1      -9.702   9.204  65.154  1.00  0.00    -0.089 OA 
BRANCH  25  27
HETATM   27  C   UNL     1     -10.390  11.117  63.957  1.00  0.00    -0.376 C  
BRANCH  27  28
HETATM   28  O   UNL     1     -10.501  12.557  64.158  1.00  0.00    -0.351 OA 
BRANCH  28  29
HETATM   29  C   UNL     1     -11.735  13.105  63.980  1.00  0.00    -0.439 C  
HETATM   30  O   UNL     1     -12.566  12.691  63.185  1.00  0.00    -0.610 OA 
BRANCH  29  31
HETATM   31  C   UNL     1     -11.945  14.334  64.833  1.00  0.00    -0.430 C  
BRANCH  31  32
HETATM   32  C   UNL     1     -10.672  15.130  65.075  1.00  0.00    -0.451 C  
HETATM   33  C   UNL     1     -10.903  16.587  65.391  1.00  0.00    -0.206 C  
HETATM   34  O   UNL     1     -11.235  17.348  64.334  1.00  0.00    -0.978 OA 
HETATM   35  O   UNL     1     -10.750  17.058  66.516  1.00  0.00    -0.212 OA 
ENDBRANCH  31  32
ENDBRANCH  29  31
ENDBRANCH  28  29
ENDBRANCH  27  28
ENDBRANCH  25  27
ENDBRANCH   4  25
TORSDOF 6
ENDMDL
MODEL       12
REMARK 921   NORMALIZED FREE ENERGY PREDICTED BY IDOCK:   -6.53 KCAL/MOL
REMARK 922        TOTAL FREE ENERGY PREDICTED BY IDOCK:   -9.56 KCAL/MOL
REMARK 923 INTER-LIGAND FREE ENERGY PREDICTED BY IDOCK:   -9.75 KCAL/MOL
REMARK 924 INTRA-LIGAND FREE ENERGY PREDICTED BY IDOCK:    0.19 KCAL/MOL
REMARK 927      BINDING AFFINITY PREDICTED BY RF-SCORE:    0.00 PKD
ROOT
HETATM    1  C   UNL     1     -11.539  15.007  65.932  1.00  0.00    -0.165 C  
HETATM    2  C   UNL     1     -11.184  14.763  64.584  1.00  0.00    -0.350 C  
HETATM    3  C   UNL     1     -10.214  14.199  65.575  1.00  0.00    -0.371 C  
HETATM    4  C   UNL     1     -10.788  14.118  67.556  1.00  0.00    -0.275 C  
HETATM    5  C   UNL     1      -5.804  18.299  66.047  1.00  0.00    -0.231 C  
HETATM    6  O   UNL     1     -12.132  14.573  67.980  1.00  0.00    -0.529 OA 
HETATM    7  C   UNL     1     -10.938  13.260  66.518  1.00  0.00    -0.299 C  
HETATM    8  C   UNL     1      -9.047  13.144  66.940  1.00  0.00    -0.231 C  
HETATM    9  H   UNL     1     -12.396  14.535  68.892  1.00  0.00     0.000 HD 
HETATM   10  C   UNL     1      -8.619  18.731  66.372  1.00  0.00    -0.294 C  
HETATM   11  O   UNL     1      -5.733  20.601  66.740  1.00  0.00    -0.172 OA 
HETATM   12  C   UNL     1     -11.907  12.131  66.228  1.00  0.00    -0.320 C  
HETATM   13  C   UNL     1      -8.432  14.733  67.462  1.00  0.00    -0.192 C  
HETATM   14  C   UNL     1     -10.106  18.878  66.168  1.00  0.00    -0.438 C  
HETATM   15  O   UNL     1      -8.765  14.815  68.859  1.00  0.00    -0.175 OA 
HETATM   16  C   UNL     1      -6.382  19.646  66.335  1.00  0.00    -0.181 C  
HETATM   17  C   UNL     1      -8.902  16.161  66.702  1.00  0.00    -0.298 C  
HETATM   18  C   UNL     1      -8.231  17.836  68.615  1.00  0.00    -0.272 C  
HETATM   19  C   UNL     1      -7.821  19.767  66.043  1.00  0.00    -0.344 C  
HETATM   20  H   UNL     1      -8.437  15.662  69.138  1.00  0.00     0.000 HD 
HETATM   21  C   UNL     1     -10.536  16.391  66.545  1.00  0.00    -0.282 C  
HETATM   22  C   UNL     1     -10.778  17.617  65.643  1.00  0.00    -0.084 C  
HETATM   23  C   UNL     1      -8.092  17.481  67.121  1.00  0.00    -0.229 C  
HETATM   24  C   UNL     1      -6.556  17.222  66.825  1.00  0.00    -0.247 C  
ENDROOT
BRANCH   4  25
HETATM   25  C   UNL     1     -10.832  12.833  68.760  1.00  0.00    -0.234 C  
HETATM   26  O   UNL     1     -10.084  11.837  68.801  1.00  0.00    -0.206 OA 
BRANCH  25  27
HETATM   27  C   UNL     1     -11.928  12.869  69.852  1.00  0.00    -0.307 C  
BRANCH  27  28
HETATM   28  O   UNL     1     -12.382  11.517  70.155  1.00  0.00    -0.288 OA 
BRANCH  28  29
HETATM   29  C   UNL     1     -12.907  11.314  71.395  1.00  0.00    -0.410 C  
HETATM   30  O   UNL     1     -13.324  12.203  72.123  1.00  0.00    -0.522 OA 
BRANCH  29  31
HETATM   31  C   UNL     1     -12.858   9.861  71.808  1.00  0.00    -0.540 C  
BRANCH  31  32
HETATM   32  C   UNL     1     -11.475   9.242  71.684  1.00  0.00    -0.468 C  
HETATM   33  C   UNL     1     -11.346   8.232  70.570  1.00  0.00    -0.219 C  
HETATM   34  O   UNL     1     -11.912   7.039  70.820  1.00  0.00    -0.349 OA 
HETATM   35  O   UNL     1     -10.729   8.461  69.531  1.00  0.00    -0.227 OA 
ENDBRANCH  31  32
ENDBRANCH  29  31
ENDBRANCH  28  29
ENDBRANCH  27  28
ENDBRANCH  25  27
ENDBRANCH   4  25
TORSDOF 6
ENDMDL
MODEL       13
REMARK 921   NORMALIZED FREE ENERGY PREDICTED BY IDOCK:   -6.53 KCAL/MOL
REMARK 922        TOTAL FREE ENERGY PREDICTED BY IDOCK:   -9.55 KCAL/MOL
REMARK 923 INTER-LIGAND FREE ENERGY PREDICTED BY IDOCK:   -9.80 KCAL/MOL
REMARK 924 INTRA-LIGAND FREE ENERGY PREDICTED BY IDOCK:    0.25 KCAL/MOL
REMARK 927      BINDING AFFINITY PREDICTED BY RF-SCORE:    0.00 PKD
ROOT
HETATM    1  C   UNL     1     -10.634  12.696  64.193  1.00  0.00    -0.434 C  
HETATM    2  C   UNL     1     -11.777  12.162  63.554  1.00  0.00    -0.579 C  
HETATM    3  C   UNL     1     -11.938  12.333  65.032  1.00  0.00    -0.413 C  
HETATM    4  C   UNL     1     -10.531  13.461  66.037  1.00  0.00    -0.294 C  
HETATM    5  C   UNL     1     -10.698   6.934  67.438  1.00  0.00    -0.396 C  
HETATM    6  O   UNL     1      -9.414  14.109  65.311  1.00  0.00    -0.514 OA 
HETATM    7  C   UNL     1     -11.687  13.779  65.408  1.00  0.00    -0.346 C  
HETATM    8  C   UNL     1     -12.276  12.868  67.016  1.00  0.00    -0.155 C  
HETATM    9  H   UNL     1      -8.766  14.629  65.774  1.00  0.00     0.000 HD 
HETATM   10  C   UNL     1      -9.058   8.454  65.647  1.00  0.00    -0.155 C  
HETATM   11  O   UNL     1      -8.755   5.516  67.447  1.00  0.00    -0.109 OA 
HETATM   12  C   UNL     1     -12.228  15.059  64.801  1.00  0.00    -0.223 C  
HETATM   13  C   UNL     1     -11.139  11.562  67.439  1.00  0.00    -0.282 C  
HETATM   14  C   UNL     1      -8.478   9.177  64.457  1.00  0.00    -0.195 C  
HETATM   15  O   UNL     1     -10.083  12.216  68.164  1.00  0.00    -0.194 OA 
HETATM   16  C   UNL     1      -9.381   6.438  66.939  1.00  0.00    -0.134 C  
HETATM   17  C   UNL     1     -10.460  10.562  66.266  1.00  0.00    -0.250 C  
HETATM   18  C   UNL     1      -8.427   9.669  67.673  1.00  0.00    -0.125 C  
HETATM   19  C   UNL     1      -8.893   7.118  65.727  1.00  0.00    -0.090 C  
HETATM   20  H   UNL     1      -9.476  11.520  68.389  1.00  0.00     0.000 HD 
HETATM   21  C   UNL     1      -9.737  11.333  64.990  1.00  0.00    -0.293 C  
HETATM   22  C   UNL     1      -9.373  10.285  63.919  1.00  0.00    -0.337 C  
HETATM   23  C   UNL     1      -9.647   9.291  66.810  1.00  0.00    -0.240 C  
HETATM   24  C   UNL     1     -10.631   8.434  67.711  1.00  0.00    -0.238 C  
ENDROOT
BRANCH   4  25
HETATM   25  C   UNL     1     -10.628  14.835  67.135  1.00  0.00    -0.285 C  
HETATM   26  O   UNL     1     -11.673  15.340  67.590  1.00  0.00    -0.308 OA 
BRANCH  25  27
HETATM   27  C   UNL     1      -9.323  15.554  67.551  1.00  0.00    -0.206 C  
BRANCH  27  28
HETATM   28  O   UNL     1      -9.622  16.659  68.452  1.00  0.00    -0.220 OA 
BRANCH  28  29
HETATM   29  C   UNL     1      -8.776  17.726  68.412  1.00  0.00    -0.292 C  
HETATM   30  O   UNL     1      -7.561  17.648  68.519  1.00  0.00    -0.252 OA 
BRANCH  29  31
HETATM   31  C   UNL     1      -9.513  19.039  68.286  1.00  0.00    -0.401 C  
BRANCH  31  32
HETATM   32  C   UNL     1     -10.784  18.944  67.456  1.00  0.00    -0.509 C  
HETATM   33  C   UNL     1     -10.551  18.943  65.965  1.00  0.00    -0.403 C  
HETATM   34  O   UNL     1     -10.240  20.142  65.441  1.00  0.00    -0.287 OA 
HETATM   35  O   UNL     1     -10.683  17.938  65.269  1.00  0.00    -0.640 OA 
ENDBRANCH  31  32
ENDBRANCH  29  31
ENDBRANCH  28  29
ENDBRANCH  27  28
ENDBRANCH  25  27
ENDBRANCH   4  25
TORSDOF 6
ENDMDL
MODEL       14
REMARK 921   NORMALIZED FREE ENERGY PREDICTED BY IDOCK:   -6.52 KCAL/MOL
REMARK 922        TOTAL FREE ENERGY PREDICTED BY IDOCK:   -9.55 KCAL/MOL
REMARK 923 INTER-LIGAND FREE ENERGY PREDICTED BY IDOCK:   -9.03 KCAL/MOL
REMARK 924 INTRA-LIGAND FREE ENERGY PREDICTED BY IDOCK:   -0.52 KCAL/MOL
REMARK 927      BINDING AFFINITY PREDICTED BY RF-SCORE:    0.00 PKD
ROOT
HETATM    1  C   UNL     1      -7.413   9.515  66.620  1.00  0.00    -0.093 C  
HETATM    2  C   UNL     1      -6.372  10.103  65.864  1.00  0.00    -0.098 C  
HETATM    3  C   UNL     1      -6.750  10.888  67.081  1.00  0.00    -0.088 C  
HETATM    4  C   UNL     1      -7.953   9.975  68.488  1.00  0.00    -0.102 C  
HETATM    5  C   UNL     1     -10.605  15.120  65.158  1.00  0.00    -0.447 C  
HETATM    6  O   UNL     1      -8.402   8.574  68.314  1.00  0.00    -0.122 OA 
HETATM    7  C   UNL     1      -6.611  10.015  68.312  1.00  0.00    -0.055 C  
HETATM    8  C   UNL     1      -7.046  11.803  68.928  1.00  0.00    -0.114 C  
HETATM    9  H   UNL     1      -8.956   8.154  68.962  1.00  0.00     0.000 HD 
HETATM   10  C   UNL     1     -10.787  12.289  64.747  1.00  0.00    -0.345 C  
HETATM   11  O   UNL     1     -12.758  15.054  64.087  1.00  0.00    -0.729 OA 
HETATM   12  C   UNL     1      -5.471   9.119  68.757  1.00  0.00    -0.037 C  
HETATM   13  C   UNL     1      -8.632  12.307  68.291  1.00  0.00    -0.172 C  
HETATM   14  C   UNL     1     -10.572  10.860  64.315  1.00  0.00    -0.336 C  
HETATM   15  O   UNL     1      -9.591  11.733  69.197  1.00  0.00    -0.405 OA 
HETATM   16  C   UNL     1     -11.708  14.492  64.370  1.00  0.00    -0.367 C  
HETATM   17  C   UNL     1      -9.102  11.968  66.709  1.00  0.00    -0.197 C  
HETATM   18  C   UNL     1     -11.695  12.282  67.018  1.00  0.00    -0.399 C  
HETATM   19  C   UNL     1     -11.420  13.126  63.900  1.00  0.00    -0.451 C  
HETATM   20  H   UNL     1     -10.437  12.001  68.857  1.00  0.00     0.000 HD 
HETATM   21  C   UNL     1      -8.959  10.386  66.236  1.00  0.00    -0.172 C  
HETATM   22  C   UNL     1      -9.216  10.298  64.719  1.00  0.00    -0.287 C  
HETATM   23  C   UNL     1     -10.447  12.684  66.206  1.00  0.00    -0.270 C  
HETATM   24  C   UNL     1     -10.251  14.250  66.361  1.00  0.00    -0.295 C  
ENDROOT
BRANCH   4  25
HETATM   25  C   UNL     1      -7.822   9.727  70.228  1.00  0.00    -0.171 C  
HETATM   26  O   UNL     1      -6.886  10.109  70.956  1.00  0.00    -0.341 OA 
BRANCH  25  27
HETATM   27  C   UNL     1      -8.918   8.910  70.951  1.00  0.00    -0.222 C  
BRANCH  27  28
HETATM   28  O   UNL     1     -10.204   9.093  70.288  1.00  0.00    -0.189 OA 
BRANCH  28  29
HETATM   29  C   UNL     1     -11.296   8.584  70.923  1.00  0.00    -0.268 C  
HETATM   30  O   UNL     1     -11.630   7.409  70.890  1.00  0.00    -0.280 OA 
BRANCH  29  31
HETATM   31  C   UNL     1     -12.099   9.653  71.629  1.00  0.00    -0.481 C  
BRANCH  31  32
HETATM   32  C   UNL     1     -12.743  10.652  70.681  1.00  0.00    -0.445 C  
HETATM   33  C   UNL     1     -12.718  12.078  71.174  1.00  0.00    -0.266 C  
HETATM   34  O   UNL     1     -13.603  12.355  72.146  1.00  0.00    -0.483 OA 
HETATM   35  O   UNL     1     -11.982  12.937  70.691  1.00  0.00    -0.299 OA 
ENDBRANCH  31  32
ENDBRANCH  29  31
ENDBRANCH  28  29
ENDBRANCH  27  28
ENDBRANCH  25  27
ENDBRANCH   4  25
TORSDOF 6
ENDMDL
MODEL       15
REMARK 921   NORMALIZED FREE ENERGY PREDICTED BY IDOCK:   -6.51 KCAL/MOL
REMARK 922        TOTAL FREE ENERGY PREDICTED BY IDOCK:   -9.53 KCAL/MOL
REMARK 923 INTER-LIGAND FREE ENERGY PREDICTED BY IDOCK:  -10.48 KCAL/MOL
REMARK 924 INTRA-LIGAND FREE ENERGY PREDICTED BY IDOCK:    0.95 KCAL/MOL
REMARK 927      BINDING AFFINITY PREDICTED BY RF-SCORE:    0.00 PKD
ROOT
HETATM    1  C   UNL     1     -11.002  12.670  63.837  1.00  0.00    -0.468 C  
HETATM    2  C   UNL     1     -12.213  12.047  63.454  1.00  0.00    -0.627 C  
HETATM    3  C   UNL     1     -12.180  12.469  64.890  1.00  0.00    -0.534 C  
HETATM    4  C   UNL     1     -10.666  13.736  65.494  1.00  0.00    -0.302 C  
HETATM    5  C   UNL     1     -10.571   7.545  67.994  1.00  0.00    -0.217 C  
HETATM    6  O   UNL     1      -9.663  14.240  64.528  1.00  0.00    -0.539 OA 
HETATM    7  C   UNL     1     -11.900  13.956  64.977  1.00  0.00    -0.383 C  
HETATM    8  C   UNL     1     -12.261  13.337  66.781  1.00  0.00    -0.340 C  
HETATM    9  H   UNL     1      -8.966  14.823  64.806  1.00  0.00     0.000 HD 
HETATM   10  C   UNL     1      -9.199   8.721  65.770  1.00  0.00    -0.269 C  
HETATM   11  O   UNL     1      -8.627   6.129  67.988  1.00  0.00    -0.116 OA 
HETATM   12  C   UNL     1     -12.531  15.119  64.238  1.00  0.00    -0.073 C  
HETATM   13  C   UNL     1     -11.062  12.111  67.266  1.00  0.00    -0.287 C  
HETATM   14  C   UNL     1      -8.789   9.225  64.409  1.00  0.00    -0.197 C  
HETATM   15  O   UNL     1      -9.928  12.867  67.724  1.00  0.00    -0.218 OA 
HETATM   16  C   UNL     1      -9.325   6.957  67.418  1.00  0.00    -0.131 C  
HETATM   17  C   UNL     1     -10.532  10.918  66.201  1.00  0.00    -0.290 C  
HETATM   18  C   UNL     1      -8.321  10.255  67.459  1.00  0.00    -0.114 C  
HETATM   19  C   UNL     1      -9.009   7.416  66.054  1.00  0.00    -0.156 C  
HETATM   20  H   UNL     1      -9.288  12.213  67.982  1.00  0.00     0.000 HD 
HETATM   21  C   UNL     1      -9.992  11.453  64.728  1.00  0.00    -0.313 C  
HETATM   22  C   UNL     1      -9.760  10.234  63.814  1.00  0.00    -0.298 C  
HETATM   23  C   UNL     1      -9.640   9.749  66.841  1.00  0.00    -0.228 C  
HETATM   24  C   UNL     1     -10.486   9.069  67.997  1.00  0.00    -0.270 C  
ENDROOT
BRANCH   4  25
HETATM   25  C   UNL     1     -10.635  15.278  66.345  1.00  0.00    -0.308 C  
HETATM   26  O   UNL     1      -9.935  16.266  66.052  1.00  0.00    -0.305 OA 
BRANCH  25  27
HETATM   27  C   UNL     1     -11.494  15.445  67.621  1.00  0.00    -0.251 C  
BRANCH  27  28
HETATM   28  O   UNL     1     -10.639  15.510  68.800  1.00  0.00    -0.228 OA 
BRANCH  28  29
HETATM   29  C   UNL     1     -11.263  15.682  69.998  1.00  0.00    -0.325 C  
HETATM   30  O   UNL     1     -11.013  16.585  70.783  1.00  0.00    -0.179 OA 
BRANCH  29  31
HETATM   31  C   UNL     1     -12.263  14.587  70.287  1.00  0.00    -0.391 C  
BRANCH  31  32
HETATM   32  C   UNL     1     -13.522  15.083  70.980  1.00  0.00    -0.461 C  
HETATM   33  C   UNL     1     -13.522  14.889  72.477  1.00  0.00    -0.446 C  
HETATM   34  O   UNL     1     -13.738  13.625  72.882  1.00  0.00    -0.672 OA 
HETATM   35  O   UNL     1     -13.388  15.818  73.270  1.00  0.00    -0.546 OA 
ENDBRANCH  31  32
ENDBRANCH  29  31
ENDBRANCH  28  29
ENDBRANCH  27  28
ENDBRANCH  25  27
ENDBRANCH   4  25
TORSDOF 6
ENDMDL
MODEL       16
REMARK 921   NORMALIZED FREE ENERGY PREDICTED BY IDOCK:   -6.46 KCAL/MOL
REMARK 922        TOTAL FREE ENERGY PREDICTED BY IDOCK:   -9.46 KCAL/MOL
REMARK 923 INTER-LIGAND FREE ENERGY PREDICTED BY IDOCK:   -9.73 KCAL/MOL
REMARK 924 INTRA-LIGAND FREE ENERGY PREDICTED BY IDOCK:    0.27 KCAL/MOL
REMARK 927      BINDING AFFINITY PREDICTED BY RF-SCORE:    0.00 PKD
ROOT
HETATM    1  C   UNL     1      -8.048   9.738  70.413  1.00  0.00    -0.134 C  
HETATM    2  C   UNL     1      -6.768   9.137  70.418  1.00  0.00    -0.058 C  
HETATM    3  C   UNL     1      -7.685   8.594  69.366  1.00  0.00    -0.091 C  
HETATM    4  C   UNL     1      -9.425   9.631  68.967  1.00  0.00    -0.168 C  
HETATM    5  C   UNL     1     -10.101   3.593  71.737  1.00  0.00    -0.160 C  
HETATM    6  O   UNL     1      -9.740  10.892  69.676  1.00  0.00    -0.428 OA 
HETATM    7  C   UNL     1      -8.165   9.724  68.477  1.00  0.00    -0.106 C  
HETATM    8  C   UNL     1      -8.835   8.072  67.710  1.00  0.00    -0.126 C  
HETATM    9  H   UNL     1     -10.541  11.370  69.493  1.00  0.00     0.000 HD 
HETATM   10  C   UNL     1     -10.076   6.220  72.882  1.00  0.00    -0.196 C  
HETATM   11  O   UNL     1     -11.464   3.151  73.669  1.00  0.00    -0.208 OA 
HETATM   12  C   UNL     1      -7.389  10.832  67.792  1.00  0.00    -0.093 C  
HETATM   13  C   UNL     1      -9.910   7.245  68.866  1.00  0.00    -0.158 C  
HETATM   14  C   UNL     1      -9.686   7.536  73.506  1.00  0.00    -0.358 C  
HETATM   15  O   UNL     1     -11.191   7.877  68.692  1.00  0.00    -0.355 OA 
HETATM   16  C   UNL     1     -10.687   3.890  73.079  1.00  0.00    -0.153 C  
HETATM   17  C   UNL     1      -9.556   7.170  70.512  1.00  0.00    -0.169 C  
HETATM   18  C   UNL     1     -11.970   6.605  71.385  1.00  0.00    -0.405 C  
HETATM   19  C   UNL     1     -10.214   5.146  73.685  1.00  0.00    -0.237 C  
HETATM   20  H   UNL     1     -11.764   7.436  69.309  1.00  0.00     0.000 HD 
HETATM   21  C   UNL     1      -9.210   8.616  71.242  1.00  0.00    -0.283 C  
HETATM   22  C   UNL     1      -8.698   8.340  72.670  1.00  0.00    -0.291 C  
HETATM   23  C   UNL     1     -10.483   6.198  71.387  1.00  0.00    -0.273 C  
HETATM   24  C   UNL     1     -10.379   4.741  70.771  1.00  0.00    -0.184 C  
ENDROOT
BRANCH   4  25
HETATM   25  C   UNL     1     -10.155  10.265  67.495  1.00  0.00    -0.198 C  
HETATM   26  O   UNL     1     -10.262   9.663  66.409  1.00  0.00    -0.247 OA 
BRANCH  25  27
HETATM   27  C   UNL     1     -10.667  11.725  67.483  1.00  0.00    -0.221 C  
BRANCH  27  28
HETATM   28  O   UNL     1     -12.015  11.781  66.931  1.00  0.00    -0.605 OA 
BRANCH  28  29
HETATM   29  C   UNL     1     -12.231  12.688  65.939  1.00  0.00    -0.307 C  
HETATM   30  O   UNL     1     -12.917  12.478  64.948  1.00  0.00    -0.821 OA 
BRANCH  29  31
HETATM   31  C   UNL     1     -11.470  13.974  66.161  1.00  0.00    -0.350 C  
BRANCH  31  32
HETATM   32  C   UNL     1     -10.840  14.532  64.894  1.00  0.00    -0.436 C  
HETATM   33  C   UNL     1     -11.603  15.680  64.278  1.00  0.00    -0.189 C  
HETATM   34  O   UNL     1     -12.723  15.328  63.625  1.00  0.00    -0.518 OA 
HETATM   35  O   UNL     1     -11.208  16.844  64.323  1.00  0.00    -1.204 OA 
ENDBRANCH  31  32
ENDBRANCH  29  31
ENDBRANCH  28  29
ENDBRANCH  27  28
ENDBRANCH  25  27
ENDBRANCH   4  25
TORSDOF 6
ENDMDL
MODEL       17
REMARK 921   NORMALIZED FREE ENERGY PREDICTED BY IDOCK:   -6.42 KCAL/MOL
REMARK 922        TOTAL FREE ENERGY PREDICTED BY IDOCK:   -9.41 KCAL/MOL
REMARK 923 INTER-LIGAND FREE ENERGY PREDICTED BY IDOCK:   -9.45 KCAL/MOL
REMARK 924 INTRA-LIGAND FREE ENERGY PREDICTED BY IDOCK:    0.04 KCAL/MOL
REMARK 927      BINDING AFFINITY PREDICTED BY RF-SCORE:    0.00 PKD
ROOT
HETATM    1  C   UNL     1      -8.402  11.920  68.271  1.00  0.00    -0.159 C  
HETATM    2  C   UNL     1      -7.593  11.360  67.255  1.00  0.00    -0.138 C  
HETATM    3  C   UNL     1      -9.062  11.204  67.011  1.00  0.00    -0.158 C  
HETATM    4  C   UNL     1     -10.362  12.305  68.178  1.00  0.00    -0.216 C  
HETATM    5  C   UNL     1     -10.461   5.680  69.011  1.00  0.00    -0.321 C  
HETATM    6  O   UNL     1      -9.855  13.247  69.202  1.00  0.00    -0.393 OA 
HETATM    7  C   UNL     1      -9.726  12.566  67.010  1.00  0.00    -0.213 C  
HETATM    8  C   UNL     1     -11.083  11.271  66.514  1.00  0.00    -0.280 C  
HETATM    9  H   UNL     1     -10.453  13.753  69.740  1.00  0.00     0.000 HD 
HETATM   10  C   UNL     1      -9.117   7.759  70.453  1.00  0.00    -0.155 C  
HETATM   11  O   UNL     1     -10.332   4.598  71.156  1.00  0.00    -0.171 OA 
HETATM   12  C   UNL     1      -9.341  13.846  66.294  1.00  0.00    -0.180 C  
HETATM   13  C   UNL     1     -11.324  10.093  67.830  1.00  0.00    -0.032 C  
HETATM   14  C   UNL     1      -8.133   8.786  70.955  1.00  0.00    -0.174 C  
HETATM   15  O   UNL     1     -12.235  10.739  68.738  1.00  0.00    -0.783 OA 
HETATM   16  C   UNL     1      -9.969   5.499  70.410  1.00  0.00    -0.214 C  
HETATM   17  C   UNL     1     -10.031   9.464  68.707  1.00  0.00    -0.191 C  
HETATM   18  C   UNL     1     -11.378   8.621  70.801  1.00  0.00    -0.299 C  
HETATM   19  C   UNL     1      -8.949   6.475  70.828  1.00  0.00    -0.144 C  
HETATM   20  H   UNL     1     -12.363  10.111  69.440  1.00  0.00     0.000 HD 
HETATM   21  C   UNL     1      -8.982  10.576  69.345  1.00  0.00    -0.111 C  
HETATM   22  C   UNL     1      -7.757   9.832  69.914  1.00  0.00    -0.162 C  
HETATM   23  C   UNL     1     -10.375   8.246  69.692  1.00  0.00    -0.218 C  
HETATM   24  C   UNL     1     -11.023   7.087  68.825  1.00  0.00    -0.150 C  
ENDROOT
BRANCH   4  25
HETATM   25  C   UNL     1     -11.694  13.398  67.817  1.00  0.00    -0.359 C  
HETATM   26  O   UNL     1     -12.254  13.537  66.712  1.00  0.00    -0.390 OA 
BRANCH  25  27
HETATM   27  C   UNL     1     -12.211  14.340  68.931  1.00  0.00    -0.205 C  
BRANCH  27  28
HETATM   28  O   UNL     1     -12.438  13.590  70.160  1.00  0.00    -0.290 OA 
BRANCH  28  29
HETATM   29  C   UNL     1     -13.128  14.228  71.146  1.00  0.00    -0.343 C  
HETATM   30  O   UNL     1     -13.950  13.690  71.873  1.00  0.00    -0.405 OA 
BRANCH  29  31
HETATM   31  C   UNL     1     -12.815  15.705  71.202  1.00  0.00    -0.540 C  
BRANCH  31  32
HETATM   32  C   UNL     1     -11.892  16.086  72.349  1.00  0.00    -0.639 C  
HETATM   33  C   UNL     1     -12.493  15.884  73.719  1.00  0.00    -0.613 C  
HETATM   34  O   UNL     1     -13.402  16.806  74.079  1.00  0.00    -0.293 OA 
HETATM   35  O   UNL     1     -12.144  14.978  74.473  1.00  0.00    -0.514 OA 
ENDBRANCH  31  32
ENDBRANCH  29  31
ENDBRANCH  28  29
ENDBRANCH  27  28
ENDBRANCH  25  27
ENDBRANCH   4  25
TORSDOF 6
ENDMDL
MODEL       18
REMARK 921   NORMALIZED FREE ENERGY PREDICTED BY IDOCK:   -6.34 KCAL/MOL
REMARK 922        TOTAL FREE ENERGY PREDICTED BY IDOCK:   -9.29 KCAL/MOL
REMARK 923 INTER-LIGAND FREE ENERGY PREDICTED BY IDOCK:   -8.95 KCAL/MOL
REMARK 924 INTRA-LIGAND FREE ENERGY PREDICTED BY IDOCK:   -0.34 KCAL/MOL
REMARK 927      BINDING AFFINITY PREDICTED BY RF-SCORE:    0.00 PKD
ROOT
HETATM    1  C   UNL     1     -11.371  11.872  67.550  1.00  0.00    -0.381 C  
HETATM    2  C   UNL     1     -11.599  11.912  66.155  1.00  0.00    -0.299 C  
HETATM    3  C   UNL     1     -10.156  11.765  66.525  1.00  0.00    -0.232 C  
HETATM    4  C   UNL     1      -9.701  11.290  68.482  1.00  0.00    -0.198 C  
HETATM    5  C   UNL     1      -7.860  17.348  66.362  1.00  0.00    -0.337 C  
HETATM    6  O   UNL     1     -10.771  11.068  69.481  1.00  0.00    -0.322 OA 
HETATM    7  C   UNL     1      -9.975  10.535  67.391  1.00  0.00    -0.214 C  
HETATM    8  C   UNL     1      -8.204  11.240  67.027  1.00  0.00    -0.151 C  
HETATM    9  H   UNL     1     -10.562  10.849  70.382  1.00  0.00     0.000 HD 
HETATM   10  C   UNL     1     -10.162  16.460  67.818  1.00  0.00    -0.274 C  
HETATM   11  O   UNL     1      -8.334  19.384  67.551  1.00  0.00    -0.280 OA 
HETATM   12  C   UNL     1     -10.481   9.118  67.202  1.00  0.00    -0.325 C  
HETATM   13  C   UNL     1      -8.052  12.893  67.676  1.00  0.00    -0.167 C  
HETATM   14  C   UNL     1     -11.519  15.947  68.232  1.00  0.00    -0.320 C  
HETATM   15  O   UNL     1      -7.724  12.713  69.065  1.00  0.00    -0.321 OA 
HETATM   16  C   UNL     1      -8.695  18.273  67.185  1.00  0.00    -0.256 C  
HETATM   17  C   UNL     1      -9.301  14.015  67.548  1.00  0.00    -0.209 C  
HETATM   18  C   UNL     1      -8.509  15.666  69.435  1.00  0.00    -0.244 C  
HETATM   19  C   UNL     1     -10.041  17.764  67.496  1.00  0.00    -0.340 C  
HETATM   20  H   UNL     1      -7.643  13.595  69.411  1.00  0.00     0.000 HD 
HETATM   21  C   UNL     1     -10.786  13.507  68.080  1.00  0.00    -0.265 C  
HETATM   22  C   UNL     1     -11.840  14.562  67.689  1.00  0.00    -0.395 C  
HETATM   23  C   UNL     1      -8.938  15.522  67.961  1.00  0.00    -0.174 C  
HETATM   24  C   UNL     1      -7.725  15.995  67.055  1.00  0.00    -0.264 C  
ENDROOT
BRANCH   4  25
HETATM   25  C   UNL     1      -8.723  10.033  69.235  1.00  0.00    -0.177 C  
HETATM   26  O   UNL     1      -7.619   9.619  68.832  1.00  0.00    -0.073 OA 
BRANCH  25  27
HETATM   27  C   UNL     1      -9.277   9.300  70.480  1.00  0.00    -0.261 C  
BRANCH  27  28
HETATM   28  O   UNL     1      -9.885   8.034  70.091  1.00  0.00    -0.183 OA 
BRANCH  28  29
HETATM   29  C   UNL     1     -10.939   7.608  70.840  1.00  0.00    -0.250 C  
HETATM   30  O   UNL     1     -11.747   6.764  70.479  1.00  0.00    -0.351 OA 
BRANCH  29  31
HETATM   31  C   UNL     1     -11.046   8.347  72.154  1.00  0.00    -0.415 C  
BRANCH  31  32
HETATM   32  C   UNL     1     -12.479   8.645  72.567  1.00  0.00    -0.372 C  
HETATM   33  C   UNL     1     -13.207   9.588  71.640  1.00  0.00    -0.406 C  
HETATM   34  O   UNL     1     -12.853  10.880  71.757  1.00  0.00    -0.431 OA 
HETATM   35  O   UNL     1     -14.093   9.218  70.872  1.00  0.00    -0.065 OA 
ENDBRANCH  31  32
ENDBRANCH  29  31
ENDBRANCH  28  29
ENDBRANCH  27  28
ENDBRANCH  25  27
ENDBRANCH   4  25
TORSDOF 6
ENDMDL
MODEL       19
REMARK 921   NORMALIZED FREE ENERGY PREDICTED BY IDOCK:   -6.33 KCAL/MOL
REMARK 922        TOTAL FREE ENERGY PREDICTED BY IDOCK:   -9.29 KCAL/MOL
REMARK 923 INTER-LIGAND FREE ENERGY PREDICTED BY IDOCK:   -8.95 KCAL/MOL
REMARK 924 INTRA-LIGAND FREE ENERGY PREDICTED BY IDOCK:   -0.34 KCAL/MOL
REMARK 927      BINDING AFFINITY PREDICTED BY RF-SCORE:    0.00 PKD
ROOT
HETATM    1  C   UNL     1      -9.883   9.628  65.424  1.00  0.00    -0.322 C  
HETATM    2  C   UNL     1      -8.939   9.721  64.374  1.00  0.00    -0.284 C  
HETATM    3  C   UNL     1      -8.402  10.143  65.707  1.00  0.00    -0.147 C  
HETATM    4  C   UNL     1      -9.511   9.688  67.387  1.00  0.00    -0.142 C  
HETATM    5  C   UNL     1      -8.924  16.158  65.842  1.00  0.00    -0.241 C  
HETATM    6  O   UNL     1     -10.784   8.938  67.281  1.00  0.00    -0.362 OA 
HETATM    7  C   UNL     1      -8.560   9.010  66.701  1.00  0.00    -0.134 C  
HETATM    8  C   UNL     1      -7.566  10.416  67.594  1.00  0.00    -0.089 C  
HETATM    9  H   UNL     1     -11.294   8.728  68.055  1.00  0.00     0.000 HD 
HETATM   10  C   UNL     1     -10.987  14.248  65.287  1.00  0.00    -0.347 C  
HETATM   11  O   UNL     1     -10.785  17.675  65.705  1.00  0.00    -0.495 OA 
HETATM   12  C   UNL     1      -8.208   7.540  66.579  1.00  0.00    -0.123 C  
HETATM   13  C   UNL     1      -8.542  11.904  67.681  1.00  0.00    -0.156 C  
HETATM   14  C   UNL     1     -11.863  13.180  64.680  1.00  0.00    -0.417 C  
HETATM   15  O   UNL     1      -9.380  11.727  68.837  1.00  0.00    -0.393 OA 
HETATM   16  C   UNL     1     -10.321  16.561  65.501  1.00  0.00    -0.284 C  
HETATM   17  C   UNL     1      -9.493  12.420  66.389  1.00  0.00    -0.240 C  
HETATM   18  C   UNL     1     -11.083  14.035  67.721  1.00  0.00    -0.284 C  
HETATM   19  C   UNL     1     -11.113  15.512  64.836  1.00  0.00    -0.428 C  
HETATM   20  H   UNL     1      -9.901  12.520  68.883  1.00  0.00     0.000 HD 
HETATM   21  C   UNL     1     -10.530  11.290  65.760  1.00  0.00    -0.310 C  
HETATM   22  C   UNL     1     -11.148  11.853  64.465  1.00  0.00    -0.381 C  
HETATM   23  C   UNL     1     -10.124  13.888  66.522  1.00  0.00    -0.286 C  
HETATM   24  C   UNL     1      -8.932  14.913  66.726  1.00  0.00    -0.295 C  
ENDROOT
BRANCH   4  25
HETATM   25  C   UNL     1      -9.145   8.871  68.905  1.00  0.00    -0.140 C  
HETATM   26  O   UNL     1      -8.133   9.048  69.609  1.00  0.00    -0.094 OA 
BRANCH  25  27
HETATM   27  C   UNL     1     -10.112   7.778  69.418  1.00  0.00    -0.195 C  
BRANCH  27  28
HETATM   28  O   UNL     1     -11.328   8.388  69.944  1.00  0.00    -0.107 OA 
BRANCH  28  29
HETATM   29  C   UNL     1     -11.166   9.345  70.899  1.00  0.00    -0.325 C  
HETATM   30  O   UNL     1     -11.455  10.524  70.752  1.00  0.00    -0.331 OA 
BRANCH  29  31
HETATM   31  C   UNL     1     -10.520   8.802  72.153  1.00  0.00    -0.384 C  
BRANCH  31  32
HETATM   32  C   UNL     1     -11.389   7.801  72.897  1.00  0.00    -0.406 C  
HETATM   33  C   UNL     1     -10.656   6.559  73.345  1.00  0.00    -0.285 C  
HETATM   34  O   UNL     1     -10.392   5.676  72.367  1.00  0.00    -0.191 OA 
HETATM   35  O   UNL     1     -10.368   6.343  74.521  1.00  0.00    -0.329 OA 
ENDBRANCH  31  32
ENDBRANCH  29  31
ENDBRANCH  28  29
ENDBRANCH  27  28
ENDBRANCH  25  27
ENDBRANCH   4  25
TORSDOF 6
ENDMDL
MODEL       20
REMARK 921   NORMALIZED FREE ENERGY PREDICTED BY IDOCK:   -6.31 KCAL/MOL
REMARK 922        TOTAL FREE ENERGY PREDICTED BY IDOCK:   -9.25 KCAL/MOL
REMARK 923 INTER-LIGAND FREE ENERGY PREDICTED BY IDOCK:   -9.01 KCAL/MOL
REMARK 924 INTRA-LIGAND FREE ENERGY PREDICTED BY IDOCK:   -0.24 KCAL/MOL
REMARK 927      BINDING AFFINITY PREDICTED BY RF-SCORE:    0.00 PKD
ROOT
HETATM    1  C   UNL     1      -7.893  10.459  68.744  1.00  0.00    -0.108 C  
HETATM    2  C   UNL     1      -7.170   9.456  68.057  1.00  0.00    -0.078 C  
HETATM    3  C   UNL     1      -8.644   9.418  67.802  1.00  0.00    -0.116 C  
HETATM    4  C   UNL     1      -9.774  11.039  68.398  1.00  0.00    -0.180 C  
HETATM    5  C   UNL     1     -10.850   5.288  71.616  1.00  0.00    -0.181 C  
HETATM    6  O   UNL     1      -9.140  12.219  69.029  1.00  0.00    -0.364 OA 
HETATM    7  C   UNL     1      -9.101  10.756  67.257  1.00  0.00    -0.151 C  
HETATM    8  C   UNL     1     -10.631   9.563  67.195  1.00  0.00    -0.295 C  
HETATM    9  H   UNL     1      -9.660  12.966  69.304  1.00  0.00     0.000 HD 
HETATM   10  C   UNL     1      -9.223   7.555  72.264  1.00  0.00    -0.176 C  
HETATM   11  O   UNL     1     -10.893   5.082  74.012  1.00  0.00    -0.295 OA 
HETATM   12  C   UNL     1      -8.528  11.610  66.142  1.00  0.00    -0.008 C  
HETATM   13  C   UNL     1     -11.050   9.009  68.836  1.00  0.00     0.164 C  
HETATM   14  C   UNL     1      -8.101   8.554  72.408  1.00  0.00    -0.134 C  
HETATM   15  O   UNL     1     -11.860  10.064  69.384  1.00  0.00    -0.474 OA 
HETATM   16  C   UNL     1     -10.397   5.579  73.009  1.00  0.00    -0.202 C  
HETATM   17  C   UNL     1      -9.867   8.587  69.959  1.00  0.00    -0.181 C  
HETATM   18  C   UNL     1     -11.335   8.780  72.132  1.00  0.00    -0.411 C  
HETATM   19  C   UNL     1      -9.247   6.495  73.097  1.00  0.00    -0.138 C  
HETATM   20  H   UNL     1     -12.083   9.768  70.260  1.00  0.00     0.000 HD 
HETATM   21  C   UNL     1      -8.669   9.706  70.202  1.00  0.00    -0.263 C  
HETATM   22  C   UNL     1      -7.571   9.072  71.078  1.00  0.00    -0.138 C  
HETATM   23  C   UNL     1     -10.392   7.885  71.303  1.00  0.00    -0.222 C  
HETATM   24  C   UNL     1     -11.198   6.584  70.889  1.00  0.00    -0.366 C  
ENDROOT
BRANCH   4  25
HETATM   25  C   UNL     1     -10.930  12.086  67.579  1.00  0.00    -0.253 C  
HETATM   26  O   UNL     1     -11.757  11.735  66.715  1.00  0.00    -0.555 OA 
BRANCH  25  27
HETATM   27  C   UNL     1     -10.911  13.603  67.883  1.00  0.00    -0.250 C  
BRANCH  27  28
HETATM   28  O   UNL     1     -12.147  14.000  68.546  1.00  0.00    -0.357 OA 
BRANCH  28  29
HETATM   29  C   UNL     1     -12.198  13.827  69.895  1.00  0.00    -0.321 C  
HETATM   30  O   UNL     1     -12.358  12.748  70.448  1.00  0.00    -0.318 OA 
BRANCH  29  31
HETATM   31  C   UNL     1     -12.101  15.135  70.646  1.00  0.00    -0.378 C  
BRANCH  31  32
HETATM   32  C   UNL     1     -13.400  15.544  71.321  1.00  0.00    -0.588 C  
HETATM   33  C   UNL     1     -13.392  15.392  72.823  1.00  0.00    -0.518 C  
HETATM   34  O   UNL     1     -13.505  14.127  73.262  1.00  0.00    -0.518 OA 
HETATM   35  O   UNL     1     -13.338  16.351  73.590  1.00  0.00    -0.640 OA 
ENDBRANCH  31  32
ENDBRANCH  29  31
ENDBRANCH  28  29
ENDBRANCH  27  28
ENDBRANCH  25  27
ENDBRANCH   4  25
TORSDOF 6
ENDMDL
MODEL       21
REMARK 921   NORMALIZED FREE ENERGY PREDICTED BY IDOCK:   -6.28 KCAL/MOL
REMARK 922        TOTAL FREE ENERGY PREDICTED BY IDOCK:   -9.22 KCAL/MOL
REMARK 923 INTER-LIGAND FREE ENERGY PREDICTED BY IDOCK:   -8.97 KCAL/MOL
REMARK 924 INTRA-LIGAND FREE ENERGY PREDICTED BY IDOCK:   -0.25 KCAL/MOL
REMARK 927      BINDING AFFINITY PREDICTED BY RF-SCORE:    0.00 PKD
ROOT
HETATM    1  C   UNL     1     -10.334  13.267  68.755  1.00  0.00    -0.154 C  
HETATM    2  C   UNL     1     -11.422  13.646  69.576  1.00  0.00    -0.324 C  
HETATM    3  C   UNL     1     -11.682  13.822  68.112  1.00  0.00    -0.392 C  
HETATM    4  C   UNL     1     -10.367  12.948  66.782  1.00  0.00    -0.245 C  
HETATM    5  C   UNL     1     -10.486  19.622  66.933  1.00  0.00    -0.606 C  
HETATM    6  O   UNL     1      -9.220  12.143  67.262  1.00  0.00    -0.175 OA 
HETATM    7  C   UNL     1     -11.487  12.499  67.398  1.00  0.00    -0.404 C  
HETATM    8  C   UNL     1     -12.159  13.761  66.086  1.00  0.00    -0.477 C  
HETATM    9  H   UNL     1      -8.615  11.740  66.650  1.00  0.00     0.000 HD 
HETATM   10  C   UNL     1      -8.766  17.720  68.211  1.00  0.00    -0.277 C  
HETATM   11  O   UNL     1      -8.517  20.992  67.119  1.00  0.00    -0.153 OA 
HETATM   12  C   UNL     1     -12.015  11.117  67.730  1.00  0.00     0.083 C  
HETATM   13  C   UNL     1     -11.024  15.121  65.899  1.00  0.00    -0.339 C  
HETATM   14  C   UNL     1      -8.125  16.739  69.161  1.00  0.00    -0.109 C  
HETATM   15  O   UNL     1     -10.031  14.646  64.972  1.00  0.00    -0.455 OA 
HETATM   16  C   UNL     1      -9.129  19.982  67.442  1.00  0.00    -0.357 C  
HETATM   17  C   UNL     1     -10.249  15.820  67.221  1.00  0.00    -0.268 C  
HETATM   18  C   UNL     1      -8.293  17.002  65.922  1.00  0.00    -0.016 C  
HETATM   19  C   UNL     1      -8.578  19.038  68.429  1.00  0.00    -0.383 C  
HETATM   20  H   UNL     1      -9.425  15.372  64.873  1.00  0.00     0.000 HD 
HETATM   21  C   UNL     1      -9.462  14.771  68.234  1.00  0.00    -0.207 C  
HETATM   22  C   UNL     1      -9.008  15.542  69.489  1.00  0.00    -0.244 C  
HETATM   23  C   UNL     1      -9.447  17.178  66.930  1.00  0.00    -0.267 C  
HETATM   24  C   UNL     1     -10.468  18.225  66.319  1.00  0.00    -0.397 C  
ENDROOT
BRANCH   4  25
HETATM   25  C   UNL     1     -10.565  11.865  65.407  1.00  0.00    -0.271 C  
HETATM   26  O   UNL     1     -11.502  11.881  64.586  1.00  0.00    -0.323 OA 
BRANCH  25  27
HETATM   27  C   UNL     1      -9.535  10.729  65.195  1.00  0.00    -0.226 C  
BRANCH  27  28
HETATM   28  O   UNL     1     -10.124   9.443  65.545  1.00  0.00    -0.217 OA 
BRANCH  28  29
HETATM   29  C   UNL     1      -9.553   8.772  66.584  1.00  0.00    -0.220 C  
HETATM   30  O   UNL     1      -8.503   9.094  67.120  1.00  0.00    -0.119 OA 
BRANCH  29  31
HETATM   31  C   UNL     1     -10.331   7.534  66.965  1.00  0.00    -0.395 C  
BRANCH  31  32
HETATM   32  C   UNL     1      -9.849   6.888  68.255  1.00  0.00    -0.141 C  
HETATM   33  C   UNL     1     -10.794   7.052  69.420  1.00  0.00    -0.227 C  
HETATM   34  O   UNL     1     -10.798   8.275  69.976  1.00  0.00    -0.247 OA 
HETATM   35  O   UNL     1     -11.472   6.127  69.863  1.00  0.00    -0.421 OA 
ENDBRANCH  31  32
ENDBRANCH  29  31
ENDBRANCH  28  29
ENDBRANCH  27  28
ENDBRANCH  25  27
ENDBRANCH   4  25
TORSDOF 6
ENDMDL
MODEL       22
REMARK 921   NORMALIZED FREE ENERGY PREDICTED BY IDOCK:   -6.21 KCAL/MOL
REMARK 922        TOTAL FREE ENERGY PREDICTED BY IDOCK:   -9.12 KCAL/MOL
REMARK 923 INTER-LIGAND FREE ENERGY PREDICTED BY IDOCK:   -9.07 KCAL/MOL
REMARK 924 INTRA-LIGAND FREE ENERGY PREDICTED BY IDOCK:   -0.05 KCAL/MOL
REMARK 927      BINDING AFFINITY PREDICTED BY RF-SCORE:    0.00 PKD
ROOT
HETATM    1  C   UNL     1     -10.407  10.294  66.045  1.00  0.00    -0.248 C  
HETATM    2  C   UNL     1      -9.303  10.230  65.163  1.00  0.00    -0.279 C  
HETATM    3  C   UNL     1      -8.959  10.752  66.523  1.00  0.00    -0.168 C  
HETATM    4  C   UNL     1     -10.353  10.530  68.029  1.00  0.00    -0.181 C  
HETATM    5  C   UNL     1      -9.068  16.770  66.030  1.00  0.00    -0.226 C  
HETATM    6  O   UNL     1     -11.641   9.844  67.780  1.00  0.00    -0.542 OA 
HETATM    7  C   UNL     1      -9.354   9.735  67.574  1.00  0.00    -0.152 C  
HETATM    8  C   UNL     1      -8.419  11.167  68.491  1.00  0.00    -0.156 C  
HETATM    9  H   UNL     1     -12.283   9.741  68.474  1.00  0.00     0.000 HD 
HETATM   10  C   UNL     1     -11.145  14.931  65.312  1.00  0.00    -0.382 C  
HETATM   11  O   UNL     1     -10.771  18.367  65.449  1.00  0.00    -0.594 OA 
HETATM   12  C   UNL     1      -9.092   8.243  67.646  1.00  0.00    -0.139 C  
HETATM   13  C   UNL     1      -9.289  12.708  68.281  1.00  0.00    -0.195 C  
HETATM   14  C   UNL     1     -11.986  13.858  64.666  1.00  0.00    -0.443 C  
HETATM   15  O   UNL     1     -10.312  12.693  69.292  1.00  0.00    -0.424 OA 
HETATM   16  C   UNL     1     -10.360  17.214  65.426  1.00  0.00    -0.018 C  
HETATM   17  C   UNL     1      -9.981  13.143  66.807  1.00  0.00    -0.250 C  
HETATM   18  C   UNL     1     -11.646  14.969  67.705  1.00  0.00    -0.336 C  
HETATM   19  C   UNL     1     -11.107  16.149  64.735  1.00  0.00    -0.345 C  
HETATM   20  H   UNL     1     -10.776  13.515  69.179  1.00  0.00     0.000 HD 
HETATM   21  C   UNL     1     -10.980  12.015  66.118  1.00  0.00    -0.343 C  
HETATM   22  C   UNL     1     -11.341  12.479  64.693  1.00  0.00    -0.363 C  
HETATM   23  C   UNL     1     -10.520  14.649  66.701  1.00  0.00    -0.278 C  
HETATM   24  C   UNL     1      -9.306  15.623  67.008  1.00  0.00    -0.241 C  
ENDROOT
BRANCH   4  25
HETATM   25  C   UNL     1     -10.294   9.850  69.653  1.00  0.00    -0.241 C  
HETATM   26  O   UNL     1      -9.285   9.767  70.380  1.00  0.00    -0.237 OA 
BRANCH  25  27
HETATM   27  C   UNL     1     -11.578   9.228  70.251  1.00  0.00    -0.114 C  
BRANCH  27  28
HETATM   28  O   UNL     1     -11.533   7.775  70.140  1.00  0.00    -0.185 OA 
BRANCH  28  29
HETATM   29  C   UNL     1     -11.525   7.075  71.308  1.00  0.00    -0.286 C  
HETATM   30  O   UNL     1     -11.625   5.858  71.385  1.00  0.00    -0.214 OA 
BRANCH  29  31
HETATM   31  C   UNL     1     -11.446   7.976  72.518  1.00  0.00    -0.471 C  
BRANCH  31  32
HETATM   32  C   UNL     1     -10.529   7.446  73.610  1.00  0.00    -0.350 C  
HETATM   33  C   UNL     1      -9.070   7.770  73.403  1.00  0.00    -0.276 C  
HETATM   34  O   UNL     1      -8.455   7.033  72.462  1.00  0.00    -0.113 OA 
HETATM   35  O   UNL     1      -8.470   8.606  74.077  1.00  0.00    -0.279 OA 
ENDBRANCH  31  32
ENDBRANCH  29  31
ENDBRANCH  28  29
ENDBRANCH  27  28
ENDBRANCH  25  27
ENDBRANCH   4  25
TORSDOF 6
ENDMDL
MODEL       23
REMARK 921   NORMALIZED FREE ENERGY PREDICTED BY IDOCK:   -6.17 KCAL/MOL
REMARK 922        TOTAL FREE ENERGY PREDICTED BY IDOCK:   -9.07 KCAL/MOL
REMARK 923 INTER-LIGAND FREE ENERGY PREDICTED BY IDOCK:   -9.01 KCAL/MOL
REMARK 924 INTRA-LIGAND FREE ENERGY PREDICTED BY IDOCK:   -0.06 KCAL/MOL
REMARK 927      BINDING AFFINITY PREDICTED BY RF-SCORE:    0.00 PKD
ROOT
HETATM    1  C   UNL     1      -9.313  11.206  65.435  1.00  0.00    -0.243 C  
HETATM    2  C   UNL     1     -10.257  10.507  64.647  1.00  0.00    -0.364 C  
HETATM    3  C   UNL     1     -10.859  11.215  65.820  1.00  0.00    -0.218 C  
HETATM    4  C   UNL     1      -9.695  12.594  66.823  1.00  0.00    -0.240 C  
HETATM    5  C   UNL     1     -11.330   7.051  70.168  1.00  0.00    -0.321 C  
HETATM    6  O   UNL     1      -8.317  12.898  66.374  1.00  0.00    -0.391 OA 
HETATM    7  C   UNL     1     -10.520  12.691  65.752  1.00  0.00    -0.299 C  
HETATM    8  C   UNL     1     -11.735  12.453  67.247  1.00  0.00    -0.419 C  
HETATM    9  H   UNL     1      -7.781  13.533  66.836  1.00  0.00     0.000 HD 
HETATM   10  C   UNL     1      -8.980   7.757  68.688  1.00  0.00    -0.133 C  
HETATM   11  O   UNL     1      -9.742   5.682  71.348  1.00  0.00    -0.157 OA 
HETATM   12  C   UNL     1     -10.627  13.671  64.601  1.00  0.00    -0.446 C  
HETATM   13  C   UNL     1     -11.015  11.364  68.461  1.00  0.00    -0.221 C  
HETATM   14  C   UNL     1      -7.940   7.974  67.617  1.00  0.00    -0.123 C  
HETATM   15  O   UNL     1     -10.162  12.209  69.253  1.00  0.00    -0.414 OA 
HETATM   16  C   UNL     1     -10.017   6.369  70.372  1.00  0.00    -0.183 C  
HETATM   17  C   UNL     1     -10.158   9.983  68.017  1.00  0.00    -0.197 C  
HETATM   18  C   UNL     1      -8.858   9.615  70.273  1.00  0.00    -0.253 C  
HETATM   19  C   UNL     1      -9.062   6.541  69.264  1.00  0.00    -0.137 C  
HETATM   20  H   UNL     1      -9.778  11.628  69.900  1.00  0.00     0.000 HD 
HETATM   21  C   UNL     1      -8.948  10.209  66.908  1.00  0.00    -0.146 C  
HETATM   22  C   UNL     1      -8.427   8.830  66.457  1.00  0.00    -0.120 C  
HETATM   23  C   UNL     1      -9.776   8.980  69.209  1.00  0.00    -0.168 C  
HETATM   24  C   UNL     1     -11.120   8.543  69.927  1.00  0.00    -0.114 C  
ENDROOT
BRANCH   4  25
HETATM   25  C   UNL     1      -9.927  14.278  67.284  1.00  0.00    -0.252 C  
HETATM   26  O   UNL     1     -10.970  14.777  67.749  1.00  0.00    -0.274 OA 
BRANCH  25  27
HETATM   27  C   UNL     1      -8.775  15.283  67.048  1.00  0.00    -0.234 C  
BRANCH  27  28
HETATM   28  O   UNL     1      -8.645  16.178  68.192  1.00  0.00    -0.172 OA 
BRANCH  28  29
HETATM   29  C   UNL     1      -8.271  17.460  67.924  1.00  0.00    -0.225 C  
HETATM   30  O   UNL     1      -7.201  17.778  67.425  1.00  0.00    -0.182 OA 
BRANCH  29  31
HETATM   31  C   UNL     1      -9.304  18.466  68.377  1.00  0.00    -0.347 C  
BRANCH  31  32
HETATM   32  C   UNL     1     -10.624  18.357  67.631  1.00  0.00    -0.437 C  
HETATM   33  C   UNL     1     -10.516  18.598  66.145  1.00  0.00    -0.430 C  
HETATM   34  O   UNL     1     -10.365  19.885  65.790  1.00  0.00    -0.489 OA 
HETATM   35  O   UNL     1     -10.610  17.695  65.315  1.00  0.00    -0.663 OA 
ENDBRANCH  31  32
ENDBRANCH  29  31
ENDBRANCH  28  29
ENDBRANCH  27  28
ENDBRANCH  25  27
ENDBRANCH   4  25
TORSDOF 6
ENDMDL
MODEL       24
REMARK 921   NORMALIZED FREE ENERGY PREDICTED BY IDOCK:   -6.16 KCAL/MOL
REMARK 922        TOTAL FREE ENERGY PREDICTED BY IDOCK:   -9.05 KCAL/MOL
REMARK 923 INTER-LIGAND FREE ENERGY PREDICTED BY IDOCK:   -9.36 KCAL/MOL
REMARK 924 INTRA-LIGAND FREE ENERGY PREDICTED BY IDOCK:    0.31 KCAL/MOL
REMARK 927      BINDING AFFINITY PREDICTED BY RF-SCORE:    0.00 PKD
ROOT
HETATM    1  C   UNL     1      -9.081  11.125  65.543  1.00  0.00    -0.211 C  
HETATM    2  C   UNL     1      -9.878  10.346  64.672  1.00  0.00    -0.405 C  
HETATM    3  C   UNL     1     -10.652  11.003  65.773  1.00  0.00    -0.260 C  
HETATM    4  C   UNL     1      -9.714  12.478  66.871  1.00  0.00    -0.232 C  
HETATM    5  C   UNL     1     -11.198   6.823  70.097  1.00  0.00    -0.387 C  
HETATM    6  O   UNL     1      -8.329  12.898  66.558  1.00  0.00    -0.413 OA 
HETATM    7  C   UNL     1     -10.434  12.502  65.723  1.00  0.00    -0.296 C  
HETATM    8  C   UNL     1     -11.766  12.165  67.094  1.00  0.00    -0.372 C  
HETATM    9  H   UNL     1      -7.897  13.577  67.063  1.00  0.00     0.000 HD 
HETATM   10  C   UNL     1      -8.781   7.724  68.849  1.00  0.00    -0.135 C  
HETATM   11  O   UNL     1      -9.625   5.597  71.442  1.00  0.00    -0.150 OA 
HETATM   12  C   UNL     1     -10.509  13.468  64.556  1.00  0.00    -0.426 C  
HETATM   13  C   UNL     1     -11.081  11.144  68.384  1.00  0.00    -0.247 C  
HETATM   14  C   UNL     1      -7.662   8.027  67.884  1.00  0.00    -0.114 C  
HETATM   15  O   UNL     1     -10.386  12.060  69.247  1.00  0.00    -0.429 OA 
HETATM   16  C   UNL     1      -9.859   6.256  70.437  1.00  0.00    -0.176 C  
HETATM   17  C   UNL     1     -10.071   9.840  68.042  1.00  0.00    -0.204 C  
HETATM   18  C   UNL     1      -8.974   9.589  70.418  1.00  0.00    -0.291 C  
HETATM   19  C   UNL     1      -8.816   6.506  69.427  1.00  0.00    -0.133 C  
HETATM   20  H   UNL     1     -10.021  11.516  69.935  1.00  0.00     0.000 HD 
HETATM   21  C   UNL     1      -8.781  10.166  67.055  1.00  0.00    -0.137 C  
HETATM   22  C   UNL     1      -8.102   8.836  66.672  1.00  0.00    -0.103 C  
HETATM   23  C   UNL     1      -9.725   8.875  69.276  1.00  0.00    -0.165 C  
HETATM   24  C   UNL     1     -11.093   8.327  69.862  1.00  0.00    -0.100 C  
ENDROOT
BRANCH   4  25
HETATM   25  C   UNL     1     -10.132  14.137  67.289  1.00  0.00    -0.256 C  
HETATM   26  O   UNL     1     -11.100  14.786  66.847  1.00  0.00    -0.324 OA 
BRANCH  25  27
HETATM   27  C   UNL     1      -9.203  14.925  68.244  1.00  0.00    -0.187 C  
BRANCH  27  28
HETATM   28  O   UNL     1      -9.703  14.846  69.611  1.00  0.00    -0.103 OA 
BRANCH  28  29
HETATM   29  C   UNL     1     -10.737  15.671  69.931  1.00  0.00    -0.322 C  
HETATM   30  O   UNL     1     -10.710  16.888  69.821  1.00  0.00    -0.291 OA 
BRANCH  29  31
HETATM   31  C   UNL     1     -11.914  14.919  70.508  1.00  0.00    -0.365 C  
BRANCH  31  32
HETATM   32  C   UNL     1     -12.735  15.739  71.491  1.00  0.00    -0.512 C  
HETATM   33  C   UNL     1     -12.853  15.125  72.864  1.00  0.00    -0.435 C  
HETATM   34  O   UNL     1     -13.701  14.086  72.947  1.00  0.00    -0.677 OA 
HETATM   35  O   UNL     1     -12.260  15.568  73.846  1.00  0.00    -0.507 OA 
ENDBRANCH  31  32
ENDBRANCH  29  31
ENDBRANCH  28  29
ENDBRANCH  27  28
ENDBRANCH  25  27
ENDBRANCH   4  25
TORSDOF 6
ENDMDL
MODEL       25
REMARK 921   NORMALIZED FREE ENERGY PREDICTED BY IDOCK:   -6.15 KCAL/MOL
REMARK 922        TOTAL FREE ENERGY PREDICTED BY IDOCK:   -9.04 KCAL/MOL
REMARK 923 INTER-LIGAND FREE ENERGY PREDICTED BY IDOCK:   -8.92 KCAL/MOL
REMARK 924 INTRA-LIGAND FREE ENERGY PREDICTED BY IDOCK:   -0.12 KCAL/MOL
REMARK 927      BINDING AFFINITY PREDICTED BY RF-SCORE:    0.00 PKD
ROOT
HETATM    1  C   UNL     1     -11.372  11.877  67.643  1.00  0.00    -0.372 C  
HETATM    2  C   UNL     1     -11.731  11.971  66.279  1.00  0.00    -0.319 C  
HETATM    3  C   UNL     1     -10.257  11.843  66.506  1.00  0.00    -0.232 C  
HETATM    4  C   UNL     1      -9.610  11.295  68.389  1.00  0.00    -0.195 C  
HETATM    5  C   UNL     1      -8.095  17.480  66.376  1.00  0.00    -0.309 C  
HETATM    6  O   UNL     1     -10.577  11.006  69.473  1.00  0.00    -0.356 OA 
HETATM    7  C   UNL     1      -9.972  10.581  67.296  1.00  0.00    -0.224 C  
HETATM    8  C   UNL     1      -8.257  11.342  66.800  1.00  0.00    -0.158 C  
HETATM    9  H   UNL     1     -10.279  10.754  70.339  1.00  0.00     0.000 HD 
HETATM   10  C   UNL     1     -10.232  16.477  68.001  1.00  0.00    -0.271 C  
HETATM   11  O   UNL     1      -8.494  19.452  67.694  1.00  0.00    -0.291 OA 
HETATM   12  C   UNL     1     -10.465   9.162  67.092  1.00  0.00    -0.325 C  
HETATM   13  C   UNL     1      -8.076  12.969  67.504  1.00  0.00    -0.179 C  
HETATM   14  C   UNL     1     -11.533  15.915  68.517  1.00  0.00    -0.377 C  
HETATM   15  O   UNL     1      -7.615  12.738  68.847  1.00  0.00    -0.274 OA 
HETATM   16  C   UNL     1      -8.866  18.349  67.315  1.00  0.00    -0.259 C  
HETATM   17  C   UNL     1      -9.353  14.066  67.544  1.00  0.00    -0.209 C  
HETATM   18  C   UNL     1      -8.418  15.654  69.419  1.00  0.00    -0.244 C  
HETATM   19  C   UNL     1     -10.167  17.796  67.727  1.00  0.00    -0.362 C  
HETATM   20  H   UNL     1      -7.519  13.606  69.222  1.00  0.00     0.000 HD 
HETATM   21  C   UNL     1     -10.771  13.501  68.189  1.00  0.00    -0.265 C  
HETATM   22  C   UNL     1     -11.877  14.547  67.945  1.00  0.00    -0.370 C  
HETATM   23  C   UNL     1      -8.981  15.563  67.987  1.00  0.00    -0.174 C  
HETATM   24  C   UNL     1      -7.869  16.102  66.993  1.00  0.00    -0.258 C  
ENDROOT
BRANCH   4  25
HETATM   25  C   UNL     1      -8.542  10.031  68.990  1.00  0.00    -0.153 C  
HETATM   26  O   UNL     1      -7.339   9.883  68.698  1.00  0.00    -0.072 OA 
BRANCH  25  27
HETATM   27  C   UNL     1      -9.123   8.942  69.923  1.00  0.00    -0.161 C  
BRANCH  27  28
HETATM   28  O   UNL     1      -8.975   9.340  71.317  1.00  0.00    -0.285 OA 
BRANCH  28  29
HETATM   29  C   UNL     1      -9.760   8.695  72.223  1.00  0.00    -0.286 C  
HETATM   30  O   UNL     1      -9.345   8.158  73.240  1.00  0.00    -0.271 OA 
BRANCH  29  31
HETATM   31  C   UNL     1     -11.211   8.655  71.800  1.00  0.00    -0.396 C  
BRANCH  31  32
HETATM   32  C   UNL     1     -11.860   7.293  71.993  1.00  0.00    -0.332 C  
HETATM   33  C   UNL     1     -11.333   6.220  71.072  1.00  0.00    -0.316 C  
HETATM   34  O   UNL     1     -11.767   6.302  69.803  1.00  0.00    -0.403 OA 
HETATM   35  O   UNL     1     -10.604   5.308  71.459  1.00  0.00    -0.225 OA 
ENDBRANCH  31  32
ENDBRANCH  29  31
ENDBRANCH  28  29
ENDBRANCH  27  28
ENDBRANCH  25  27
ENDBRANCH   4  25
TORSDOF 6
ENDMDL
MODEL       26
REMARK 921   NORMALIZED FREE ENERGY PREDICTED BY IDOCK:   -6.11 KCAL/MOL
REMARK 922        TOTAL FREE ENERGY PREDICTED BY IDOCK:   -8.99 KCAL/MOL
REMARK 923 INTER-LIGAND FREE ENERGY PREDICTED BY IDOCK:   -8.72 KCAL/MOL
REMARK 924 INTRA-LIGAND FREE ENERGY PREDICTED BY IDOCK:   -0.27 KCAL/MOL
REMARK 927      BINDING AFFINITY PREDICTED BY RF-SCORE:    0.00 PKD
ROOT
HETATM    1  C   UNL     1      -8.365  12.054  68.374  1.00  0.00    -0.151 C  
HETATM    2  C   UNL     1      -7.518  11.496  67.387  1.00  0.00    -0.127 C  
HETATM    3  C   UNL     1      -8.977  11.342  67.087  1.00  0.00    -0.162 C  
HETATM    4  C   UNL     1     -10.319  12.441  68.206  1.00  0.00    -0.227 C  
HETATM    5  C   UNL     1     -10.460   5.815  69.015  1.00  0.00    -0.336 C  
HETATM    6  O   UNL     1      -9.850  13.380  69.252  1.00  0.00    -0.325 OA 
HETATM    7  C   UNL     1      -9.638  12.705  67.064  1.00  0.00    -0.219 C  
HETATM    8  C   UNL     1     -10.977  11.413  66.512  1.00  0.00    -0.328 C  
HETATM    9  H   UNL     1     -10.468  13.886  69.767  1.00  0.00     0.000 HD 
HETATM   10  C   UNL     1      -9.169   7.888  70.514  1.00  0.00    -0.158 C  
HETATM   11  O   UNL     1     -10.415   4.727  71.159  1.00  0.00    -0.163 OA 
HETATM   12  C   UNL     1      -9.224  13.987  66.367  1.00  0.00    -0.187 C  
HETATM   13  C   UNL     1     -11.270  10.233  67.814  1.00  0.00    -0.190 C  
HETATM   14  C   UNL     1      -8.203   8.912  71.056  1.00  0.00    -0.217 C  
HETATM   15  O   UNL     1     -12.214  10.877  68.688  1.00  0.00    -0.785 OA 
HETATM   16  C   UNL     1     -10.022   5.628  70.431  1.00  0.00    -0.206 C  
HETATM   17  C   UNL     1     -10.012   9.599  68.738  1.00  0.00    -0.184 C  
HETATM   18  C   UNL     1     -11.441   8.752  70.777  1.00  0.00    -0.309 C  
HETATM   19  C   UNL     1      -9.018   6.602  70.891  1.00  0.00    -0.147 C  
HETATM   20  H   UNL     1     -12.370  10.247  69.383  1.00  0.00     0.000 HD 
HETATM   21  C   UNL     1      -8.987  10.708  69.420  1.00  0.00    -0.049 C  
HETATM   22  C   UNL     1      -7.787   9.960  70.034  1.00  0.00    -0.192 C  
HETATM   23  C   UNL     1     -10.396   8.378  69.706  1.00  0.00    -0.216 C  
HETATM   24  C   UNL     1     -11.011   7.223  68.811  1.00  0.00    -0.045 C  
ENDROOT
BRANCH   4  25
HETATM   25  C   UNL     1     -11.635  13.538  67.797  1.00  0.00    -0.339 C  
HETATM   26  O   UNL     1     -12.393  13.443  66.813  1.00  0.00    -0.340 OA 
BRANCH  25  27
HETATM   27  C   UNL     1     -11.869  14.787  68.681  1.00  0.00    -0.300 C  
BRANCH  27  28
HETATM   28  O   UNL     1     -11.400  15.985  67.995  1.00  0.00    -0.340 OA 
BRANCH  28  29
HETATM   29  C   UNL     1     -10.473  16.738  68.648  1.00  0.00    -0.333 C  
HETATM   30  O   UNL     1      -9.701  16.306  69.492  1.00  0.00    -0.224 OA 
BRANCH  29  31
HETATM   31  C   UNL     1     -10.546  18.198  68.264  1.00  0.00    -0.267 C  
BRANCH  31  32
HETATM   32  C   UNL     1      -9.696  18.549  67.052  1.00  0.00    -0.321 C  
HETATM   33  C   UNL     1     -10.488  19.023  65.858  1.00  0.00    -0.399 C  
HETATM   34  O   UNL     1     -11.133  18.054  65.186  1.00  0.00    -0.543 OA 
HETATM   35  O   UNL     1     -10.503  20.197  65.492  1.00  0.00    -0.387 OA 
ENDBRANCH  31  32
ENDBRANCH  29  31
ENDBRANCH  28  29
ENDBRANCH  27  28
ENDBRANCH  25  27
ENDBRANCH   4  25
TORSDOF 6
ENDMDL
MODEL       27
REMARK 921   NORMALIZED FREE ENERGY PREDICTED BY IDOCK:   -6.08 KCAL/MOL
REMARK 922        TOTAL FREE ENERGY PREDICTED BY IDOCK:   -8.94 KCAL/MOL
REMARK 923 INTER-LIGAND FREE ENERGY PREDICTED BY IDOCK:   -8.78 KCAL/MOL
REMARK 924 INTRA-LIGAND FREE ENERGY PREDICTED BY IDOCK:   -0.17 KCAL/MOL
REMARK 927      BINDING AFFINITY PREDICTED BY RF-SCORE:    0.00 PKD
ROOT
HETATM    1  C   UNL     1      -8.046   9.664  66.287  1.00  0.00    -0.112 C  
HETATM    2  C   UNL     1      -6.972  10.165  65.514  1.00  0.00    -0.131 C  
HETATM    3  C   UNL     1      -7.240  10.955  66.757  1.00  0.00    -0.134 C  
HETATM    4  C   UNL     1      -8.491  10.134  68.179  1.00  0.00    -0.118 C  
HETATM    5  C   UNL     1     -10.711  15.583  65.022  1.00  0.00    -0.463 C  
HETATM    6  O   UNL     1      -9.078   8.787  67.991  1.00  0.00    -0.139 OA 
HETATM    7  C   UNL     1      -7.155  10.047  67.967  1.00  0.00    -0.081 C  
HETATM    8  C   UNL     1      -7.398  11.855  68.628  1.00  0.00    -0.115 C  
HETATM    9  H   UNL     1      -9.654   8.409  68.646  1.00  0.00     0.000 HD 
HETATM   10  C   UNL     1     -11.180  12.794  64.562  1.00  0.00    -0.373 C  
HETATM   11  O   UNL     1     -12.887  15.750  64.010  1.00  0.00    -0.548 OA 
HETATM   12  C   UNL     1      -6.098   9.035  68.363  1.00  0.00    -0.046 C  
HETATM   13  C   UNL     1      -8.943  12.525  68.045  1.00  0.00    -0.192 C  
HETATM   14  C   UNL     1     -11.116  11.360  64.097  1.00  0.00    -0.382 C  
HETATM   15  O   UNL     1      -9.930  12.027  68.966  1.00  0.00    -0.411 OA 
HETATM   16  C   UNL     1     -11.890  15.083  64.253  1.00  0.00    -0.275 C  
HETATM   17  C   UNL     1      -9.484  12.267  66.470  1.00  0.00    -0.238 C  
HETATM   18  C   UNL     1     -12.025  12.825  66.856  1.00  0.00    -0.380 C  
HETATM   19  C   UNL     1     -11.749  13.706  63.749  1.00  0.00    -0.292 C  
HETATM   20  H   UNL     1     -10.754  12.383  68.654  1.00  0.00     0.000 HD 
HETATM   21  C   UNL     1      -9.509  10.690  65.964  1.00  0.00    -0.233 C  
HETATM   22  C   UNL     1      -9.811  10.660  64.453  1.00  0.00    -0.395 C  
HETATM   23  C   UNL     1     -10.765  13.121  66.018  1.00  0.00    -0.288 C  
HETATM   24  C   UNL     1     -10.413  14.657  66.198  1.00  0.00    -0.308 C  
ENDROOT
BRANCH   4  25
HETATM   25  C   UNL     1      -8.340   9.837  69.909  1.00  0.00    -0.184 C  
HETATM   26  O   UNL     1      -7.385  10.179  70.633  1.00  0.00    -0.306 OA 
BRANCH  25  27
HETATM   27  C   UNL     1      -9.443   9.024  70.627  1.00  0.00    -0.236 C  
BRANCH  27  28
HETATM   28  O   UNL     1     -10.760   9.441  70.161  1.00  0.00    -0.215 OA 
BRANCH  28  29
HETATM   29  C   UNL     1     -11.667   9.776  71.120  1.00  0.00    -0.385 C  
HETATM   30  O   UNL     1     -12.292  10.827  71.142  1.00  0.00    -0.356 OA 
BRANCH  29  31
HETATM   31  C   UNL     1     -11.774   8.727  72.202  1.00  0.00    -0.433 C  
BRANCH  31  32
HETATM   32  C   UNL     1     -12.604   7.520  71.797  1.00  0.00    -0.363 C  
HETATM   33  C   UNL     1     -11.890   6.199  71.948  1.00  0.00    -0.257 C  
HETATM   34  O   UNL     1     -10.969   5.943  71.003  1.00  0.00    -0.277 OA 
HETATM   35  O   UNL     1     -12.162   5.391  72.835  1.00  0.00    -0.112 OA 
ENDBRANCH  31  32
ENDBRANCH  29  31
ENDBRANCH  28  29
ENDBRANCH  27  28
ENDBRANCH  25  27
ENDBRANCH   4  25
TORSDOF 6
ENDMDL
MODEL       28
REMARK 921   NORMALIZED FREE ENERGY PREDICTED BY IDOCK:   -6.03 KCAL/MOL
REMARK 922        TOTAL FREE ENERGY PREDICTED BY IDOCK:   -8.88 KCAL/MOL
REMARK 923 INTER-LIGAND FREE ENERGY PREDICTED BY IDOCK:   -8.69 KCAL/MOL
REMARK 924 INTRA-LIGAND FREE ENERGY PREDICTED BY IDOCK:   -0.19 KCAL/MOL
REMARK 927      BINDING AFFINITY PREDICTED BY RF-SCORE:    0.00 PKD
ROOT
HETATM    1  C   UNL     1     -10.251  13.387  68.691  1.00  0.00    -0.187 C  
HETATM    2  C   UNL     1     -11.318  13.800  69.523  1.00  0.00    -0.283 C  
HETATM    3  C   UNL     1     -11.571  14.021  68.064  1.00  0.00    -0.372 C  
HETATM    4  C   UNL     1     -10.302  13.115  66.711  1.00  0.00    -0.252 C  
HETATM    5  C   UNL     1     -10.095  19.782  67.014  1.00  0.00    -0.551 C  
HETATM    6  O   UNL     1      -9.195  12.244  67.170  1.00  0.00    -0.184 OA 
HETATM    7  C   UNL     1     -11.442  12.707  67.320  1.00  0.00    -0.402 C  
HETATM    8  C   UNL     1     -12.053  14.030  66.038  1.00  0.00    -0.461 C  
HETATM    9  H   UNL     1      -8.611  11.827  66.548  1.00  0.00     0.000 HD 
HETATM   10  C   UNL     1      -8.468  17.770  68.245  1.00  0.00    -0.277 C  
HETATM   11  O   UNL     1      -8.062  21.050  67.227  1.00  0.00    -0.228 OA 
HETATM   12  C   UNL     1     -12.036  11.345  67.621  1.00  0.00     0.002 C  
HETATM   13  C   UNL     1     -10.853  15.338  65.879  1.00  0.00    -0.342 C  
HETATM   14  C   UNL     1      -7.875  16.737  69.171  1.00  0.00    -0.145 C  
HETATM   15  O   UNL     1      -9.885  14.836  64.940  1.00  0.00    -0.401 OA 
HETATM   16  C   UNL     1      -8.721  20.064  67.529  1.00  0.00    -0.344 C  
HETATM   17  C   UNL     1     -10.044  15.967  67.216  1.00  0.00    -0.266 C  
HETATM   18  C   UNL     1      -8.033  17.082  65.939  1.00  0.00     0.022 C  
HETATM   19  C   UNL     1      -8.216  19.071  68.492  1.00  0.00    -0.390 C  
HETATM   20  H   UNL     1      -9.245  15.533  64.856  1.00  0.00     0.000 HD 
HETATM   21  C   UNL     1      -9.307  14.859  68.202  1.00  0.00    -0.193 C  
HETATM   22  C   UNL     1      -8.815  15.578  69.474  1.00  0.00    -0.229 C  
HETATM   23  C   UNL     1      -9.176  17.291  66.953  1.00  0.00    -0.265 C  
HETATM   24  C   UNL     1     -10.146  18.400  66.369  1.00  0.00    -0.420 C  
ENDROOT
BRANCH   4  25
HETATM   25  C   UNL     1     -10.554  12.074  65.313  1.00  0.00    -0.287 C  
HETATM   26  O   UNL     1     -11.545  12.084  64.558  1.00  0.00    -0.339 OA 
BRANCH  25  27
HETATM   27  C   UNL     1      -9.500  10.988  64.989  1.00  0.00    -0.233 C  
BRANCH  27  28
HETATM   28  O   UNL     1     -10.019   9.668  65.325  1.00  0.00    -0.295 OA 
BRANCH  28  29
HETATM   29  C   UNL     1      -9.500   9.072  66.434  1.00  0.00    -0.226 C  
HETATM   30  O   UNL     1      -8.413   9.349  66.922  1.00  0.00    -0.125 OA 
BRANCH  29  31
HETATM   31  C   UNL     1     -10.390   7.973  66.966  1.00  0.00    -0.414 C  
BRANCH  31  32
HETATM   32  C   UNL     1      -9.628   6.728  67.391  1.00  0.00    -0.158 C  
HETATM   33  C   UNL     1      -9.280   5.797  66.255  1.00  0.00    -0.158 C  
HETATM   34  O   UNL     1     -10.308   5.068  65.788  1.00  0.00    -0.183 OA 
HETATM   35  O   UNL     1      -8.136   5.673  65.821  1.00  0.00    -0.105 OA 
ENDBRANCH  31  32
ENDBRANCH  29  31
ENDBRANCH  28  29
ENDBRANCH  27  28
ENDBRANCH  25  27
ENDBRANCH   4  25
TORSDOF 6
ENDMDL
MODEL       29
REMARK 921   NORMALIZED FREE ENERGY PREDICTED BY IDOCK:   -6.03 KCAL/MOL
REMARK 922        TOTAL FREE ENERGY PREDICTED BY IDOCK:   -8.87 KCAL/MOL
REMARK 923 INTER-LIGAND FREE ENERGY PREDICTED BY IDOCK:   -8.99 KCAL/MOL
REMARK 924 INTRA-LIGAND FREE ENERGY PREDICTED BY IDOCK:    0.11 KCAL/MOL
REMARK 927      BINDING AFFINITY PREDICTED BY RF-SCORE:    0.00 PKD
ROOT
HETATM    1  C   UNL     1     -10.137   9.851  69.327  1.00  0.00    -0.214 C  
HETATM    2  C   UNL     1      -9.001   9.916  70.168  1.00  0.00    -0.159 C  
HETATM    3  C   UNL     1      -8.668   9.785  68.714  1.00  0.00    -0.128 C  
HETATM    4  C   UNL     1     -10.182  10.082  67.342  1.00  0.00    -0.219 C  
HETATM    5  C   UNL     1      -7.709   3.896  67.787  1.00  0.00    -0.071 C  
HETATM    6  O   UNL     1     -11.549  10.447  67.782  1.00  0.00    -0.654 OA 
HETATM    7  C   UNL     1      -9.306  10.923  67.942  1.00  0.00    -0.159 C  
HETATM    8  C   UNL     1      -8.205   9.931  66.689  1.00  0.00    -0.121 C  
HETATM    9  H   UNL     1     -12.246  10.583  67.151  1.00  0.00     0.000 HD 
HETATM   10  C   UNL     1     -10.015   5.113  68.974  1.00  0.00    -0.265 C  
HETATM   11  O   UNL     1      -9.067   1.925  68.026  1.00  0.00    -0.127 OA 
HETATM   12  C   UNL     1      -9.308  12.415  68.215  1.00  0.00    -0.199 C  
HETATM   13  C   UNL     1      -8.781   8.250  66.558  1.00  0.00    -0.141 C  
HETATM   14  C   UNL     1     -10.980   5.841  69.878  1.00  0.00    -0.389 C  
HETATM   15  O   UNL     1      -9.860   8.304  65.608  1.00  0.00    -0.391 OA 
HETATM   16  C   UNL     1      -8.860   3.098  68.307  1.00  0.00    -0.121 C  
HETATM   17  C   UNL     1      -9.283   7.375  67.907  1.00  0.00    -0.132 C  
HETATM   18  C   UNL     1     -10.669   5.525  66.654  1.00  0.00    -0.332 C  
HETATM   19  C   UNL     1      -9.728   3.825  69.249  1.00  0.00    -0.120 C  
HETATM   20  H   UNL     1     -10.168   7.408  65.538  1.00  0.00     0.000 HD 
HETATM   21  C   UNL     1     -10.410   8.115  68.870  1.00  0.00    -0.225 C  
HETATM   22  C   UNL     1     -10.585   7.284  70.156  1.00  0.00    -0.245 C  
HETATM   23  C   UNL     1      -9.547   5.810  67.673  1.00  0.00    -0.119 C  
HETATM   24  C   UNL     1      -8.209   5.170  67.112  1.00  0.00    -0.107 C  
ENDROOT
BRANCH   4  25
HETATM   25  C   UNL     1     -10.355  11.109  65.922  1.00  0.00    -0.259 C  
HETATM   26  O   UNL     1      -9.554  11.191  64.971  1.00  0.00    -0.222 OA 
BRANCH  25  27
HETATM   27  C   UNL     1     -11.570  12.064  65.833  1.00  0.00    -0.300 C  
BRANCH  27  28
HETATM   28  O   UNL     1     -11.640  12.667  64.507  1.00  0.00    -0.316 OA 
BRANCH  28  29
HETATM   29  C   UNL     1     -11.717  14.026  64.459  1.00  0.00    -0.413 C  
HETATM   30  O   UNL     1     -12.659  14.648  63.990  1.00  0.00    -0.819 OA 
BRANCH  29  31
HETATM   31  C   UNL     1     -10.470  14.691  64.993  1.00  0.00    -0.447 C  
BRANCH  31  32
HETATM   32  C   UNL     1     -10.751  15.746  66.052  1.00  0.00    -0.311 C  
HETATM   33  C   UNL     1      -9.997  17.038  65.854  1.00  0.00    -0.217 C  
HETATM   34  O   UNL     1      -8.695  16.987  66.180  1.00  0.00    -0.406 OA 
HETATM   35  O   UNL     1     -10.539  18.074  65.473  1.00  0.00    -0.639 OA 
ENDBRANCH  31  32
ENDBRANCH  29  31
ENDBRANCH  28  29
ENDBRANCH  27  28
ENDBRANCH  25  27
ENDBRANCH   4  25
TORSDOF 6
ENDMDL
MODEL       30
REMARK 921   NORMALIZED FREE ENERGY PREDICTED BY IDOCK:   -5.99 KCAL/MOL
REMARK 922        TOTAL FREE ENERGY PREDICTED BY IDOCK:   -8.82 KCAL/MOL
REMARK 923 INTER-LIGAND FREE ENERGY PREDICTED BY IDOCK:   -8.63 KCAL/MOL
REMARK 924 INTRA-LIGAND FREE ENERGY PREDICTED BY IDOCK:   -0.19 KCAL/MOL
REMARK 927      BINDING AFFINITY PREDICTED BY RF-SCORE:    0.00 PKD
ROOT
HETATM    1  C   UNL     1      -9.715   9.246  66.397  1.00  0.00    -0.325 C  
HETATM    2  C   UNL     1      -8.507   9.292  65.662  1.00  0.00    -0.149 C  
HETATM    3  C   UNL     1      -8.446  10.022  66.967  1.00  0.00    -0.125 C  
HETATM    4  C   UNL     1      -9.971   9.712  68.324  1.00  0.00    -0.155 C  
HETATM    5  C   UNL     1      -9.532  15.814  65.646  1.00  0.00    -0.252 C  
HETATM    6  O   UNL     1     -11.075   8.770  68.028  1.00  0.00    -0.477 OA 
HETATM    7  C   UNL     1      -8.798   9.074  68.097  1.00  0.00    -0.133 C  
HETATM    8  C   UNL     1      -8.258  10.753  68.908  1.00  0.00    -0.149 C  
HETATM    9  H   UNL     1     -11.777   8.628  68.652  1.00  0.00     0.000 HD 
HETATM   10  C   UNL     1     -11.142  13.545  64.959  1.00  0.00    -0.338 C  
HETATM   11  O   UNL     1     -11.392  16.982  64.665  1.00  0.00    -0.889 OA 
HETATM   12  C   UNL     1      -8.292   7.678  68.401  1.00  0.00    -0.125 C  
HETATM   13  C   UNL     1      -9.346  12.066  68.392  1.00  0.00    -0.175 C  
HETATM   14  C   UNL     1     -11.687  12.265  64.375  1.00  0.00    -0.437 C  
HETATM   15  O   UNL     1     -10.479  11.973  69.275  1.00  0.00    -0.427 OA 
HETATM   16  C   UNL     1     -10.788  15.932  64.846  1.00  0.00    -0.400 C  
HETATM   17  C   UNL     1      -9.897  12.192  66.805  1.00  0.00    -0.218 C  
HETATM   18  C   UNL     1     -11.960  13.759  67.252  1.00  0.00    -0.436 C  
HETATM   19  C   UNL     1     -11.238  14.674  64.228  1.00  0.00    -0.057 C  
HETATM   20  H   UNL     1     -11.059  12.674  68.999  1.00  0.00     0.000 HD 
HETATM   21  C   UNL     1     -10.583  10.824  66.169  1.00  0.00    -0.241 C  
HETATM   22  C   UNL     1     -10.823  11.045  64.663  1.00  0.00    -0.248 C  
HETATM   23  C   UNL     1     -10.671  13.547  66.434  1.00  0.00    -0.287 C  
HETATM   24  C   UNL     1      -9.698  14.761  66.739  1.00  0.00    -0.264 C  
ENDROOT
BRANCH   4  25
HETATM   25  C   UNL     1     -10.015   9.246  70.022  1.00  0.00    -0.209 C  
HETATM   26  O   UNL     1      -9.089   9.375  70.845  1.00  0.00    -0.236 OA 
BRANCH  25  27
HETATM   27  C   UNL     1     -11.282   8.547  70.573  1.00  0.00    -0.242 C  
BRANCH  27  28
HETATM   28  O   UNL     1     -11.116   7.100  70.534  1.00  0.00    -0.253 OA 
BRANCH  28  29
HETATM   29  C   UNL     1     -11.341   6.428  71.697  1.00  0.00    -0.289 C  
HETATM   30  O   UNL     1     -12.449   6.202  72.161  1.00  0.00    -0.262 OA 
BRANCH  29  31
HETATM   31  C   UNL     1     -10.057   6.046  72.397  1.00  0.00    -0.199 C  
BRANCH  31  32
HETATM   32  C   UNL     1      -9.041   5.383  71.480  1.00  0.00    -0.158 C  
HETATM   33  C   UNL     1      -9.489   4.055  70.918  1.00  0.00    -0.166 C  
HETATM   34  O   UNL     1      -9.447   3.031  71.787  1.00  0.00    -0.115 OA 
HETATM   35  O   UNL     1      -9.818   3.906  69.743  1.00  0.00    -0.195 OA 
ENDBRANCH  31  32
ENDBRANCH  29  31
ENDBRANCH  28  29
ENDBRANCH  27  28
ENDBRANCH  25  27
ENDBRANCH   4  25
TORSDOF 6
ENDMDL
MODEL       31
REMARK 921   NORMALIZED FREE ENERGY PREDICTED BY IDOCK:   -5.91 KCAL/MOL
REMARK 922        TOTAL FREE ENERGY PREDICTED BY IDOCK:   -8.72 KCAL/MOL
REMARK 923 INTER-LIGAND FREE ENERGY PREDICTED BY IDOCK:   -8.72 KCAL/MOL
REMARK 924 INTRA-LIGAND FREE ENERGY PREDICTED BY IDOCK:   -0.00 KCAL/MOL
REMARK 927      BINDING AFFINITY PREDICTED BY RF-SCORE:    0.00 PKD
ROOT
HETATM    1  C   UNL     1      -9.230  11.213  65.611  1.00  0.00    -0.238 C  
HETATM    2  C   UNL     1     -10.189  10.598  64.772  1.00  0.00    -0.401 C  
HETATM    3  C   UNL     1     -10.783  11.314  65.945  1.00  0.00    -0.291 C  
HETATM    4  C   UNL     1      -9.567  12.585  67.025  1.00  0.00    -0.216 C  
HETATM    5  C   UNL     1     -11.675   7.076  70.154  1.00  0.00    -0.238 C  
HETATM    6  O   UNL     1      -8.157  12.809  66.630  1.00  0.00    -0.403 OA 
HETATM    7  C   UNL     1     -10.347  12.765  65.931  1.00  0.00    -0.298 C  
HETATM    8  C   UNL     1     -11.625  12.569  67.379  1.00  0.00    -0.434 C  
HETATM    9  H   UNL     1      -7.597  13.394  67.127  1.00  0.00     0.000 HD 
HETATM   10  C   UNL     1      -9.235   7.664  68.772  1.00  0.00    -0.142 C  
HETATM   11  O   UNL     1     -10.222   5.574  71.345  1.00  0.00    -0.199 OA 
HETATM   12  C   UNL     1     -10.350  13.781  64.805  1.00  0.00    -0.422 C  
HETATM   13  C   UNL     1     -11.020  11.403  68.583  1.00  0.00    -0.220 C  
HETATM   14  C   UNL     1      -8.146   7.840  67.743  1.00  0.00    -0.125 C  
HETATM   15  O   UNL     1     -10.142  12.168  69.427  1.00  0.00    -0.314 OA 
HETATM   16  C   UNL     1     -10.418   6.303  70.381  1.00  0.00    -0.222 C  
HETATM   17  C   UNL     1     -10.241   9.980  68.128  1.00  0.00    -0.205 C  
HETATM   18  C   UNL     1      -9.046   9.466  70.413  1.00  0.00    -0.302 C  
HETATM   19  C   UNL     1      -9.416   6.441  69.311  1.00  0.00    -0.140 C  
HETATM   20  H   UNL     1      -9.819  11.546  70.069  1.00  0.00     0.000 HD 
HETATM   21  C   UNL     1      -8.982  10.155  67.065  1.00  0.00    -0.148 C  
HETATM   22  C   UNL     1      -8.536   8.757  66.592  1.00  0.00    -0.120 C  
HETATM   23  C   UNL     1      -9.966   8.922  69.302  1.00  0.00    -0.192 C  
HETATM   24  C   UNL     1     -11.360   8.557  69.964  1.00  0.00    -0.009 C  
ENDROOT
BRANCH   4  25
HETATM   25  C   UNL     1      -9.704  14.268  67.526  1.00  0.00    -0.223 C  
HETATM   26  O   UNL     1     -10.764  14.893  67.725  1.00  0.00    -0.261 OA 
BRANCH  25  27
HETATM   27  C   UNL     1      -8.414  15.107  67.687  1.00  0.00    -0.160 C  
BRANCH  27  28
HETATM   28  O   UNL     1      -8.104  15.799  66.442  1.00  0.00    -0.245 OA 
BRANCH  28  29
HETATM   29  C   UNL     1      -8.493  17.101  66.355  1.00  0.00    -0.272 C  
HETATM   30  O   UNL     1      -9.469  17.490  65.730  1.00  0.00    -0.519 OA 
BRANCH  29  31
HETATM   31  C   UNL     1      -7.539  18.034  67.065  1.00  0.00    -0.237 C  
BRANCH  31  32
HETATM   32  C   UNL     1      -8.231  19.000  68.014  1.00  0.00    -0.334 C  
HETATM   33  C   UNL     1      -8.549  20.345  67.405  1.00  0.00    -0.319 C  
HETATM   34  O   UNL     1      -7.492  21.163  67.263  1.00  0.00    -0.412 OA 
HETATM   35  O   UNL     1      -9.691  20.689  67.108  1.00  0.00    -0.454 OA 
ENDBRANCH  31  32
ENDBRANCH  29  31
ENDBRANCH  28  29
ENDBRANCH  27  28
ENDBRANCH  25  27
ENDBRANCH   4  25
TORSDOF 6
ENDMDL
MODEL       32
REMARK 921   NORMALIZED FREE ENERGY PREDICTED BY IDOCK:   -5.91 KCAL/MOL
REMARK 922        TOTAL FREE ENERGY PREDICTED BY IDOCK:   -8.71 KCAL/MOL
REMARK 923 INTER-LIGAND FREE ENERGY PREDICTED BY IDOCK:   -8.99 KCAL/MOL
REMARK 924 INTRA-LIGAND FREE ENERGY PREDICTED BY IDOCK:    0.28 KCAL/MOL
REMARK 927      BINDING AFFINITY PREDICTED BY RF-SCORE:    0.00 PKD
ROOT
HETATM    1  C   UNL     1     -11.530  15.079  66.122  1.00  0.00    -0.222 C  
HETATM    2  C   UNL     1     -11.261  15.153  64.736  1.00  0.00    -0.396 C  
HETATM    3  C   UNL     1     -10.306  14.281  65.489  1.00  0.00    -0.374 C  
HETATM    4  C   UNL     1     -10.795  13.750  67.423  1.00  0.00    -0.277 C  
HETATM    5  C   UNL     1      -5.505  17.753  66.658  1.00  0.00    -0.200 C  
HETATM    6  O   UNL     1     -12.069  14.192  68.035  1.00  0.00    -0.485 OA 
HETATM    7  C   UNL     1     -11.074  13.197  66.218  1.00  0.00    -0.308 C  
HETATM    8  C   UNL     1      -9.186  12.824  66.468  1.00  0.00    -0.190 C  
HETATM    9  H   UNL     1     -12.295  13.948  68.926  1.00  0.00     0.000 HD 
HETATM   10  C   UNL     1      -8.247  18.318  67.269  1.00  0.00    -0.239 C  
HETATM   11  O   UNL     1      -5.181  19.793  67.890  1.00  0.00    -0.175 OA 
HETATM   12  C   UNL     1     -12.160  12.260  65.724  1.00  0.00    -0.287 C  
HETATM   13  C   UNL     1      -8.398  14.174  67.324  1.00  0.00    -0.196 C  
HETATM   14  C   UNL     1      -9.721  18.634  67.209  1.00  0.00    -0.326 C  
HETATM   15  O   UNL     1      -8.658  13.928  68.717  1.00  0.00    -0.314 OA 
HETATM   16  C   UNL     1      -5.937  19.027  67.307  1.00  0.00    -0.164 C  
HETATM   17  C   UNL     1      -8.762  15.781  66.973  1.00  0.00    -0.251 C  
HETATM   18  C   UNL     1      -7.847  16.860  69.190  1.00  0.00    -0.116 C  
HETATM   19  C   UNL     1      -7.369  19.335  67.153  1.00  0.00    -0.226 C  
HETATM   20  H   UNL     1      -8.238  14.649  69.173  1.00  0.00     0.000 HD 
HETATM   21  C   UNL     1     -10.372  16.176  66.988  1.00  0.00    -0.290 C  
HETATM   22  C   UNL     1     -10.535  17.606  66.436  1.00  0.00    -0.286 C  
HETATM   23  C   UNL     1      -7.811  16.882  67.648  1.00  0.00    -0.186 C  
HETATM   24  C   UNL     1      -6.321  16.580  67.195  1.00  0.00    -0.220 C  
ENDROOT
BRANCH   4  25
HETATM   25  C   UNL     1     -10.910  12.211  68.272  1.00  0.00    -0.223 C  
HETATM   26  O   UNL     1     -10.008  11.357  68.371  1.00  0.00    -0.190 OA 
BRANCH  25  27
HETATM   27  C   UNL     1     -12.258  11.812  68.918  1.00  0.00    -0.030 C  
BRANCH  27  28
HETATM   28  O   UNL     1     -12.040  10.824  69.968  1.00  0.00    -0.302 OA 
BRANCH  28  29
HETATM   29  C   UNL     1     -12.625  11.074  71.172  1.00  0.00    -0.418 C  
HETATM   30  O   UNL     1     -12.939  12.187  71.570  1.00  0.00    -0.391 OA 
BRANCH  29  31
HETATM   31  C   UNL     1     -12.786   9.822  72.003  1.00  0.00    -0.491 C  
BRANCH  31  32
HETATM   32  C   UNL     1     -12.046   8.620  71.438  1.00  0.00    -0.351 C  
HETATM   33  C   UNL     1     -11.005   8.042  72.366  1.00  0.00    -0.338 C  
HETATM   34  O   UNL     1      -9.872   8.758  72.459  1.00  0.00    -0.249 OA 
HETATM   35  O   UNL     1     -11.156   6.973  72.954  1.00  0.00    -0.282 OA 
ENDBRANCH  31  32
ENDBRANCH  29  31
ENDBRANCH  28  29
ENDBRANCH  27  28
ENDBRANCH  25  27
ENDBRANCH   4  25
TORSDOF 6
ENDMDL
MODEL       33
REMARK 921   NORMALIZED FREE ENERGY PREDICTED BY IDOCK:   -5.83 KCAL/MOL
REMARK 922        TOTAL FREE ENERGY PREDICTED BY IDOCK:   -8.61 KCAL/MOL
REMARK 923 INTER-LIGAND FREE ENERGY PREDICTED BY IDOCK:   -8.24 KCAL/MOL
REMARK 924 INTRA-LIGAND FREE ENERGY PREDICTED BY IDOCK:   -0.37 KCAL/MOL
REMARK 927      BINDING AFFINITY PREDICTED BY RF-SCORE:    0.00 PKD
ROOT
HETATM    1  C   UNL     1     -10.157  13.467  68.544  1.00  0.00    -0.215 C  
HETATM    2  C   UNL     1     -11.173  13.850  69.451  1.00  0.00    -0.273 C  
HETATM    3  C   UNL     1     -11.504  14.136  68.019  1.00  0.00    -0.342 C  
HETATM    4  C   UNL     1     -10.319  13.281  66.561  1.00  0.00    -0.285 C  
HETATM    5  C   UNL     1     -10.040  19.928  67.135  1.00  0.00    -0.573 C  
HETATM    6  O   UNL     1      -9.196  12.384  66.920  1.00  0.00    -0.197 OA 
HETATM    7  C   UNL     1     -11.427  12.854  67.214  1.00  0.00    -0.388 C  
HETATM    8  C   UNL     1     -12.098  14.234  66.025  1.00  0.00    -0.423 C  
HETATM    9  H   UNL     1      -8.650  11.991  66.248  1.00  0.00     0.000 HD 
HETATM   10  C   UNL     1      -8.365  17.854  68.187  1.00  0.00    -0.267 C  
HETATM   11  O   UNL     1      -7.988  21.173  67.288  1.00  0.00    -0.255 OA 
HETATM   12  C   UNL     1     -12.015  11.484  67.490  1.00  0.00     0.006 C  
HETATM   13  C   UNL     1     -10.897  15.540  65.856  1.00  0.00    -0.313 C  
HETATM   14  C   UNL     1      -7.730  16.779  69.033  1.00  0.00    -0.213 C  
HETATM   15  O   UNL     1      -9.987  15.074  64.844  1.00  0.00    -0.296 OA 
HETATM   16  C   UNL     1      -8.638  20.179  67.584  1.00  0.00    -0.303 C  
HETATM   17  C   UNL     1     -10.010  16.107  67.171  1.00  0.00    -0.251 C  
HETATM   18  C   UNL     1      -8.064  17.264  65.833  1.00  0.00    -0.036 C  
HETATM   19  C   UNL     1      -8.088  19.142  68.475  1.00  0.00    -0.394 C  
HETATM   20  H   UNL     1      -9.347  15.771  64.754  1.00  0.00     0.000 HD 
HETATM   21  C   UNL     1      -9.229  14.953  68.067  1.00  0.00    -0.185 C  
HETATM   22  C   UNL     1      -8.661  15.613  69.338  1.00  0.00    -0.248 C  
HETATM   23  C   UNL     1      -9.147  17.436  66.917  1.00  0.00    -0.258 C  
HETATM   24  C   UNL     1     -10.139  18.575  66.435  1.00  0.00    -0.430 C  
ENDROOT
BRANCH   4  25
HETATM   25  C   UNL     1     -10.657  12.303  65.135  1.00  0.00    -0.285 C  
HETATM   26  O   UNL     1     -11.676  12.370  64.421  1.00  0.00    -0.331 OA 
BRANCH  25  27
HETATM   27  C   UNL     1      -9.650  11.200  64.729  1.00  0.00    -0.240 C  
BRANCH  27  28
HETATM   28  O   UNL     1     -10.153   9.889  65.120  1.00  0.00    -0.309 OA 
BRANCH  28  29
HETATM   29  C   UNL     1      -9.340   9.135  65.911  1.00  0.00    -0.243 C  
HETATM   30  O   UNL     1      -9.339   9.170  67.133  1.00  0.00    -0.137 OA 
BRANCH  29  31
HETATM   31  C   UNL     1      -8.381   8.289  65.106  1.00  0.00    -0.167 C  
BRANCH  31  32
HETATM   32  C   UNL     1      -6.922   8.509  65.476  1.00  0.00    -0.074 C  
HETATM   33  C   UNL     1      -6.304   9.738  64.854  1.00  0.00    -0.098 C  
HETATM   34  O   UNL     1      -6.007   9.621  63.549  1.00  0.00    -0.093 OA 
HETATM   35  O   UNL     1      -6.044  10.752  65.499  1.00  0.00    -0.124 OA 
ENDBRANCH  31  32
ENDBRANCH  29  31
ENDBRANCH  28  29
ENDBRANCH  27  28
ENDBRANCH  25  27
ENDBRANCH   4  25
TORSDOF 6
ENDMDL
MODEL       34
REMARK 921   NORMALIZED FREE ENERGY PREDICTED BY IDOCK:   -5.83 KCAL/MOL
REMARK 922        TOTAL FREE ENERGY PREDICTED BY IDOCK:   -8.61 KCAL/MOL
REMARK 923 INTER-LIGAND FREE ENERGY PREDICTED BY IDOCK:   -8.31 KCAL/MOL
REMARK 924 INTRA-LIGAND FREE ENERGY PREDICTED BY IDOCK:   -0.30 KCAL/MOL
REMARK 927      BINDING AFFINITY PREDICTED BY RF-SCORE:    0.00 PKD
ROOT
HETATM    1  C   UNL     1      -9.620   9.830  69.128  1.00  0.00    -0.192 C  
HETATM    2  C   UNL     1     -10.434   8.795  68.611  1.00  0.00    -0.213 C  
HETATM    3  C   UNL     1      -9.294   9.168  67.716  1.00  0.00    -0.152 C  
HETATM    4  C   UNL     1      -7.799  10.360  68.495  1.00  0.00    -0.107 C  
HETATM    5  C   UNL     1     -11.584  13.047  63.694  1.00  0.00    -0.507 C  
HETATM    6  O   UNL     1      -7.838  10.805  69.907  1.00  0.00    -0.362 OA 
HETATM    7  C   UNL     1      -7.986   9.018  68.469  1.00  0.00    -0.103 C  
HETATM    8  C   UNL     1      -7.539   9.456  66.631  1.00  0.00    -0.094 C  
HETATM    9  H   UNL     1      -7.149  11.355  70.266  1.00  0.00     0.000 HD 
HETATM   10  C   UNL     1     -11.724  13.223  66.551  1.00  0.00    -0.423 C  
HETATM   11  O   UNL     1     -12.630  15.205  63.865  1.00  0.00    -0.794 OA 
HETATM   12  C   UNL     1      -7.466   7.874  69.316  1.00  0.00    -0.092 C  
HETATM   13  C   UNL     1      -8.211  11.047  66.194  1.00  0.00    -0.155 C  
HETATM   14  C   UNL     1     -12.021  13.005  68.014  1.00  0.00    -0.335 C  
HETATM   15  O   UNL     1      -7.250  11.999  66.682  1.00  0.00    -0.369 OA 
HETATM   16  C   UNL     1     -12.302  14.152  64.396  1.00  0.00    -0.381 C  
HETATM   17  C   UNL     1      -9.752  11.525  66.682  1.00  0.00    -0.221 C  
HETATM   18  C   UNL     1      -9.458  14.117  66.346  1.00  0.00    -0.289 C  
HETATM   19  C   UNL     1     -12.643  13.863  65.799  1.00  0.00    -0.533 C  
HETATM   20  H   UNL     1      -7.608  12.848  66.449  1.00  0.00     0.000 HD 
HETATM   21  C   UNL     1     -10.074  11.380  68.300  1.00  0.00    -0.204 C  
HETATM   22  C   UNL     1     -11.575  11.645  68.532  1.00  0.00    -0.379 C  
HETATM   23  C   UNL     1     -10.312  12.875  66.019  1.00  0.00    -0.294 C  
HETATM   24  C   UNL     1     -10.306  12.683  64.445  1.00  0.00    -0.386 C  
ENDROOT
BRANCH   4  25
HETATM   25  C   UNL     1      -6.045  10.218  68.577  1.00  0.00    -0.043 C  
HETATM   26  O   UNL     1      -5.345   9.390  67.963  1.00  0.00    -0.037 OA 
BRANCH  25  27
HETATM   27  C   UNL     1      -5.264  11.146  69.537  1.00  0.00    -0.044 C  
BRANCH  27  28
HETATM   28  O   UNL     1      -5.804  12.499  69.481  1.00  0.00    -0.087 OA 
BRANCH  28  29
HETATM   29  C   UNL     1      -5.673  13.256  70.605  1.00  0.00    -0.176 C  
HETATM   30  O   UNL     1      -5.617  12.804  71.740  1.00  0.00    -0.396 OA 
BRANCH  29  31
HETATM   31  C   UNL     1      -5.672  14.737  70.304  1.00  0.00    -0.139 C  
BRANCH  31  32
HETATM   32  C   UNL     1      -6.425  15.097  69.033  1.00  0.00    -0.106 C  
HETATM   33  C   UNL     1      -7.617  15.997  69.253  1.00  0.00    -0.230 C  
HETATM   34  O   UNL     1      -8.694  15.389  69.778  1.00  0.00    -0.220 OA 
HETATM   35  O   UNL     1      -7.624  17.184  68.932  1.00  0.00    -0.247 OA 
ENDBRANCH  31  32
ENDBRANCH  29  31
ENDBRANCH  28  29
ENDBRANCH  27  28
ENDBRANCH  25  27
ENDBRANCH   4  25
TORSDOF 6
ENDMDL
MODEL       35
REMARK 921   NORMALIZED FREE ENERGY PREDICTED BY IDOCK:   -5.79 KCAL/MOL
REMARK 922        TOTAL FREE ENERGY PREDICTED BY IDOCK:   -8.55 KCAL/MOL
REMARK 923 INTER-LIGAND FREE ENERGY PREDICTED BY IDOCK:   -8.67 KCAL/MOL
REMARK 924 INTRA-LIGAND FREE ENERGY PREDICTED BY IDOCK:    0.12 KCAL/MOL
REMARK 927      BINDING AFFINITY PREDICTED BY RF-SCORE:    0.00 PKD
ROOT
HETATM    1  C   UNL     1     -11.102   9.564  69.480  1.00  0.00    -0.168 C  
HETATM    2  C   UNL     1     -10.714   9.948  70.784  1.00  0.00    -0.350 C  
HETATM    3  C   UNL     1      -9.606  10.020  69.780  1.00  0.00    -0.249 C  
HETATM    4  C   UNL     1     -10.099   9.885  67.780  1.00  0.00    -0.180 C  
HETATM    5  C   UNL     1      -6.561   4.835  70.345  1.00  0.00    -0.035 C  
HETATM    6  O   UNL     1     -11.510   9.754  67.350  1.00  0.00    -0.340 OA 
HETATM    7  C   UNL     1     -10.012  10.930  68.638  1.00  0.00    -0.196 C  
HETATM    8  C   UNL     1      -8.161  10.428  68.337  1.00  0.00    -0.114 C  
HETATM    9  H   UNL     1     -11.737   9.692  66.429  1.00  0.00     0.000 HD 
HETATM   10  C   UNL     1      -9.374   5.158  69.905  1.00  0.00    -0.196 C  
HETATM   11  O   UNL     1      -7.145   2.518  70.074  1.00  0.00    -0.033 OA 
HETATM   12  C   UNL     1     -10.619  12.319  68.658  1.00  0.00    -0.249 C  
HETATM   13  C   UNL     1      -8.023   8.662  68.146  1.00  0.00    -0.107 C  
HETATM   14  C   UNL     1     -10.844   5.474  70.027  1.00  0.00    -0.301 C  
HETATM   15  O   UNL     1      -8.342   8.416  66.765  1.00  0.00    -0.107 OA 
HETATM   16  C   UNL     1      -7.498   3.676  70.259  1.00  0.00    -0.041 C  
HETATM   17  C   UNL     1      -8.898   7.593  69.110  1.00  0.00    -0.139 C  
HETATM   18  C   UNL     1      -8.708   5.468  67.573  1.00  0.00    -0.107 C  
HETATM   19  C   UNL     1      -8.915   4.020  70.466  1.00  0.00    -0.159 C  
HETATM   20  H   UNL     1      -8.269   7.474  66.664  1.00  0.00     0.000 HD 
HETATM   21  C   UNL     1     -10.531   7.865  69.191  1.00  0.00    -0.218 C  
HETATM   22  C   UNL     1     -11.132   6.949  70.274  1.00  0.00    -0.342 C  
HETATM   23  C   UNL     1      -8.497   6.045  68.987  1.00  0.00    -0.117 C  
HETATM   24  C   UNL     1      -6.956   5.913  69.340  1.00  0.00    -0.064 C  
ENDROOT
BRANCH   4  25
HETATM   25  C   UNL     1      -9.750  10.880  66.370  1.00  0.00    -0.201 C  
HETATM   26  O   UNL     1      -8.865  11.753  66.285  1.00  0.00    -0.195 OA 
BRANCH  25  27
HETATM   27  C   UNL     1     -10.644  10.737  65.114  1.00  0.00    -0.169 C  
BRANCH  27  28
HETATM   28  O   UNL     1     -10.939  12.050  64.554  1.00  0.00    -0.292 OA 
BRANCH  28  29
HETATM   29  C   UNL     1     -12.073  12.660  64.996  1.00  0.00    -0.444 C  
HETATM   30  O   UNL     1     -13.204  12.228  64.823  1.00  0.00    -0.697 OA 
BRANCH  29  31
HETATM   31  C   UNL     1     -11.788  13.980  65.674  1.00  0.00    -0.384 C  
BRANCH  31  32
HETATM   32  C   UNL     1     -10.631  14.745  65.049  1.00  0.00    -0.452 C  
HETATM   33  C   UNL     1     -10.892  16.220  64.864  1.00  0.00    -0.296 C  
HETATM   34  O   UNL     1     -11.710  16.525  63.842  1.00  0.00    -1.148 OA 
HETATM   35  O   UNL     1     -10.361  17.084  65.559  1.00  0.00    -0.585 OA 
ENDBRANCH  31  32
ENDBRANCH  29  31
ENDBRANCH  28  29
ENDBRANCH  27  28
ENDBRANCH  25  27
ENDBRANCH   4  25
TORSDOF 6
ENDMDL
MODEL       36
REMARK 921   NORMALIZED FREE ENERGY PREDICTED BY IDOCK:   -5.76 KCAL/MOL
REMARK 922        TOTAL FREE ENERGY PREDICTED BY IDOCK:   -8.51 KCAL/MOL
REMARK 923 INTER-LIGAND FREE ENERGY PREDICTED BY IDOCK:   -9.45 KCAL/MOL
REMARK 924 INTRA-LIGAND FREE ENERGY PREDICTED BY IDOCK:    0.94 KCAL/MOL
REMARK 927      BINDING AFFINITY PREDICTED BY RF-SCORE:    0.00 PKD
ROOT
HETATM    1  C   UNL     1     -11.983  14.569  69.351  1.00  0.00    -0.362 C  
HETATM    2  C   UNL     1     -11.524  14.970  70.627  1.00  0.00    -0.338 C  
HETATM    3  C   UNL     1     -10.426  14.746  69.634  1.00  0.00    -0.130 C  
HETATM    4  C   UNL     1     -10.942  14.554  67.645  1.00  0.00    -0.288 C  
HETATM    5  C   UNL     1      -8.452   9.127  70.634  1.00  0.00    -0.246 C  
HETATM    6  O   UNL     1     -12.352  14.669  67.208  1.00  0.00    -0.554 OA 
HETATM    7  C   UNL     1     -10.650  15.626  68.421  1.00  0.00    -0.252 C  
HETATM    8  C   UNL     1      -8.934  14.751  68.182  1.00  0.00    -0.179 C  
HETATM    9  H   UNL     1     -12.590  14.580  66.292  1.00  0.00     0.000 HD 
HETATM   10  C   UNL     1     -11.149   9.956  70.135  1.00  0.00    -0.353 C  
HETATM   11  O   UNL     1      -9.478   6.954  70.534  1.00  0.00    -0.168 OA 
HETATM   12  C   UNL     1     -10.973  17.104  68.326  1.00  0.00    -0.229 C  
HETATM   13  C   UNL     1      -9.144  12.982  68.129  1.00  0.00    -0.204 C  
HETATM   14  C   UNL     1     -12.528  10.562  70.214  1.00  0.00    -0.345 C  
HETATM   15  O   UNL     1      -9.509  12.697  66.767  1.00  0.00    -0.224 OA 
HETATM   16  C   UNL     1      -9.598   8.169  70.625  1.00  0.00    -0.166 C  
HETATM   17  C   UNL     1     -10.209  12.183  69.161  1.00  0.00     0.151 C  
HETATM   18  C   UNL     1     -10.441   9.949  67.794  1.00  0.00    -0.292 C  
HETATM   19  C   UNL     1     -10.919   8.799  70.787  1.00  0.00    -0.294 C  
HETATM   20  H   UNL     1      -9.621  11.753  66.739  1.00  0.00     0.000 HD 
HETATM   21  C   UNL     1     -11.756  12.774  69.200  1.00  0.00    -0.375 C  
HETATM   22  C   UNL     1     -12.522  12.079  70.344  1.00  0.00    -0.235 C  
HETATM   23  C   UNL     1     -10.117  10.582  69.163  1.00  0.00    -0.240 C  
HETATM   24  C   UNL     1      -8.632  10.180  69.543  1.00  0.00    -0.177 C  
ENDROOT
BRANCH   4  25
HETATM   25  C   UNL     1     -10.410  15.350  66.166  1.00  0.00    -0.313 C  
HETATM   26  O   UNL     1     -11.094  15.531  65.140  1.00  0.00    -0.376 OA 
BRANCH  25  27
HETATM   27  C   UNL     1      -8.942  15.830  66.062  1.00  0.00    -0.287 C  
BRANCH  27  28
HETATM   28  O   UNL     1      -8.899  17.253  65.746  1.00  0.00    -0.530 OA 
BRANCH  28  29
HETATM   29  C   UNL     1      -7.762  17.919  66.086  1.00  0.00    -0.237 C  
HETATM   30  O   UNL     1      -6.946  18.349  65.283  1.00  0.00    -0.534 OA 
BRANCH  29  31
HETATM   31  C   UNL     1      -7.577  18.012  67.583  1.00  0.00    -0.219 C  
BRANCH  31  32
HETATM   32  C   UNL     1      -8.022  19.345  68.166  1.00  0.00    -0.352 C  
HETATM   33  C   UNL     1      -6.966  20.422  68.123  1.00  0.00    -0.251 C  
HETATM   34  O   UNL     1      -5.989  20.293  69.037  1.00  0.00    -0.281 OA 
HETATM   35  O   UNL     1      -7.018  21.376  67.349  1.00  0.00    -0.572 OA 
ENDBRANCH  31  32
ENDBRANCH  29  31
ENDBRANCH  28  29
ENDBRANCH  27  28
ENDBRANCH  25  27
ENDBRANCH   4  25
TORSDOF 6
ENDMDL
MODEL       37
REMARK 921   NORMALIZED FREE ENERGY PREDICTED BY IDOCK:   -5.73 KCAL/MOL
REMARK 922        TOTAL FREE ENERGY PREDICTED BY IDOCK:   -8.48 KCAL/MOL
REMARK 923 INTER-LIGAND FREE ENERGY PREDICTED BY IDOCK:   -8.29 KCAL/MOL
REMARK 924 INTRA-LIGAND FREE ENERGY PREDICTED BY IDOCK:   -0.18 KCAL/MOL
REMARK 927      BINDING AFFINITY PREDICTED BY RF-SCORE:    0.00 PKD
ROOT
HETATM    1  C   UNL     1     -11.957  13.315  68.739  1.00  0.00    -0.335 C  
HETATM    2  C   UNL     1     -11.456  14.167  69.752  1.00  0.00    -0.309 C  
HETATM    3  C   UNL     1     -10.393  13.587  68.871  1.00  0.00    -0.109 C  
HETATM    4  C   UNL     1     -10.980  12.661  67.122  1.00  0.00    -0.261 C  
HETATM    5  C   UNL     1      -8.290   8.758  71.826  1.00  0.00    -0.161 C  
HETATM    6  O   UNL     1     -12.408  12.601  66.733  1.00  0.00    -0.450 OA 
HETATM    7  C   UNL     1     -10.677  13.946  67.427  1.00  0.00    -0.275 C  
HETATM    8  C   UNL     1      -8.957  13.048  67.463  1.00  0.00    -0.193 C  
HETATM    9  H   UNL     1     -12.678  12.175  65.928  1.00  0.00     0.000 HD 
HETATM   10  C   UNL     1     -11.017   9.336  71.163  1.00  0.00    -0.409 C  
HETATM   11  O   UNL     1      -9.284   6.707  72.592  1.00  0.00    -0.141 OA 
HETATM   12  C   UNL     1     -11.028  15.280  66.797  1.00  0.00    -0.306 C  
HETATM   13  C   UNL     1      -9.139  11.389  68.087  1.00  0.00    -0.174 C  
HETATM   14  C   UNL     1     -12.402   9.926  71.066  1.00  0.00    -0.451 C  
HETATM   15  O   UNL     1      -9.551  10.611  66.949  1.00  0.00    -0.166 OA 
HETATM   16  C   UNL     1      -9.420   7.866  72.225  1.00  0.00    -0.189 C  
HETATM   17  C   UNL     1     -10.151  11.035  69.387  1.00  0.00    -0.060 C  
HETATM   18  C   UNL     1     -10.398   8.450  68.970  1.00  0.00    -0.231 C  
HETATM   19  C   UNL     1     -10.744   8.509  72.193  1.00  0.00    -0.426 C  
HETATM   20  H   UNL     1      -9.649   9.726  67.282  1.00  0.00     0.000 HD 
HETATM   21  C   UNL     1     -11.706  11.595  69.265  1.00  0.00    -0.396 C  
HETATM   22  C   UNL     1     -12.417  11.380  70.616  1.00  0.00    -0.419 C  
HETATM   23  C   UNL     1     -10.034   9.552  69.986  1.00  0.00    -0.274 C  
HETATM   24  C   UNL     1      -8.528   9.324  70.429  1.00  0.00    -0.234 C  
ENDROOT
BRANCH   4  25
HETATM   25  C   UNL     1     -10.517  12.843  65.433  1.00  0.00    -0.292 C  
HETATM   26  O   UNL     1      -9.734  13.696  64.972  1.00  0.00    -0.107 OA 
BRANCH  25  27
HETATM   27  C   UNL     1     -11.167  11.919  64.376  1.00  0.00    -0.336 C  
BRANCH  27  28
HETATM   28  O   UNL     1     -10.434  10.662  64.286  1.00  0.00    -0.349 OA 
BRANCH  28  29
HETATM   29  C   UNL     1      -9.430  10.605  63.368  1.00  0.00    -0.319 C  
HETATM   30  O   UNL     1      -9.264  11.423  62.475  1.00  0.00    -0.335 OA 
BRANCH  29  31
HETATM   31  C   UNL     1      -8.571   9.372  63.531  1.00  0.00    -0.215 C  
BRANCH  31  32
HETATM   32  C   UNL     1      -7.079   9.666  63.514  1.00  0.00    -0.108 C  
HETATM   33  C   UNL     1      -6.426   9.631  64.874  1.00  0.00    -0.092 C  
HETATM   34  O   UNL     1      -6.677  10.700  65.649  1.00  0.00    -0.124 OA 
HETATM   35  O   UNL     1      -5.679   8.722  65.232  1.00  0.00    -0.046 OA 
ENDBRANCH  31  32
ENDBRANCH  29  31
ENDBRANCH  28  29
ENDBRANCH  27  28
ENDBRANCH  25  27
ENDBRANCH   4  25
TORSDOF 6
ENDMDL
MODEL       38
REMARK 921   NORMALIZED FREE ENERGY PREDICTED BY IDOCK:   -5.72 KCAL/MOL
REMARK 922        TOTAL FREE ENERGY PREDICTED BY IDOCK:   -8.46 KCAL/MOL
REMARK 923 INTER-LIGAND FREE ENERGY PREDICTED BY IDOCK:   -8.61 KCAL/MOL
REMARK 924 INTRA-LIGAND FREE ENERGY PREDICTED BY IDOCK:    0.14 KCAL/MOL
REMARK 927      BINDING AFFINITY PREDICTED BY RF-SCORE:    0.00 PKD
ROOT
HETATM    1  C   UNL     1      -7.834  10.087  68.959  1.00  0.00    -0.101 C  
HETATM    2  C   UNL     1      -7.082   9.118  68.253  1.00  0.00    -0.077 C  
HETATM    3  C   UNL     1      -8.561   8.997  68.052  1.00  0.00    -0.129 C  
HETATM    4  C   UNL     1      -9.755  10.560  68.678  1.00  0.00    -0.173 C  
HETATM    5  C   UNL     1     -10.397   4.789  71.976  1.00  0.00    -0.247 C  
HETATM    6  O   UNL     1      -9.164  11.779  69.277  1.00  0.00    -0.306 OA 
HETATM    7  C   UNL     1      -9.110  10.304  67.515  1.00  0.00    -0.146 C  
HETATM    8  C   UNL     1     -10.573   9.029  67.518  1.00  0.00    -0.306 C  
HETATM    9  H   UNL     1      -9.714  12.499  69.565  1.00  0.00     0.000 HD 
HETATM   10  C   UNL     1      -8.873   7.148  72.546  1.00  0.00    -0.141 C  
HETATM   11  O   UNL     1     -10.340   4.604  74.373  1.00  0.00    -0.228 OA 
HETATM   12  C   UNL     1      -8.626  11.177  66.374  1.00  0.00    -0.172 C  
HETATM   13  C   UNL     1     -10.901   8.468  69.178  1.00  0.00    -0.029 C  
HETATM   14  C   UNL     1      -7.803   8.207  72.641  1.00  0.00    -0.190 C  
HETATM   15  O   UNL     1     -11.747   9.482  69.748  1.00  0.00    -0.447 OA 
HETATM   16  C   UNL     1      -9.910   5.118  73.349  1.00  0.00    -0.154 C  
HETATM   17  C   UNL     1      -9.657   8.121  70.259  1.00  0.00    -0.171 C  
HETATM   18  C   UNL     1     -11.053   8.255  72.484  1.00  0.00    -0.439 C  
HETATM   19  C   UNL     1      -8.809   6.096  73.387  1.00  0.00    -0.125 C  
HETATM   20  H   UNL     1     -11.921   9.183  70.633  1.00  0.00     0.000 HD 
HETATM   21  C   UNL     1      -8.514   9.306  70.450  1.00  0.00    -0.234 C  
HETATM   22  C   UNL     1      -7.351   8.742  71.289  1.00  0.00    -0.112 C  
HETATM   23  C   UNL     1     -10.093   7.405  71.626  1.00  0.00    -0.200 C  
HETATM   24  C   UNL     1     -10.841   6.058  71.252  1.00  0.00    -0.331 C  
ENDROOT
BRANCH   4  25
HETATM   25  C   UNL     1     -10.996  11.535  67.895  1.00  0.00    -0.233 C  
HETATM   26  O   UNL     1     -11.855  11.125  67.090  1.00  0.00    -0.466 OA 
BRANCH  25  27
HETATM   27  C   UNL     1     -11.020  13.061  68.150  1.00  0.00    -0.244 C  
BRANCH  27  28
HETATM   28  O   UNL     1      -9.944  13.712  67.413  1.00  0.00    -0.229 OA 
BRANCH  28  29
HETATM   29  C   UNL     1     -10.084  15.047  67.182  1.00  0.00    -0.239 C  
HETATM   30  O   UNL     1      -9.620  15.924  67.896  1.00  0.00    -0.213 OA 
BRANCH  29  31
HETATM   31  C   UNL     1     -10.941  15.333  65.971  1.00  0.00    -0.317 C  
BRANCH  31  32
HETATM   32  C   UNL     1     -10.932  14.213  64.943  1.00  0.00    -0.405 C  
HETATM   33  C   UNL     1     -12.285  13.907  64.349  1.00  0.00    -0.413 C  
HETATM   34  O   UNL     1     -13.115  13.225  65.157  1.00  0.00    -0.705 OA 
HETATM   35  O   UNL     1     -12.592  14.209  63.198  1.00  0.00    -0.686 OA 
ENDBRANCH  31  32
ENDBRANCH  29  31
ENDBRANCH  28  29
ENDBRANCH  27  28
ENDBRANCH  25  27
ENDBRANCH   4  25
TORSDOF 6
ENDMDL
MODEL       39
REMARK 921   NORMALIZED FREE ENERGY PREDICTED BY IDOCK:   -5.65 KCAL/MOL
REMARK 922        TOTAL FREE ENERGY PREDICTED BY IDOCK:   -8.37 KCAL/MOL
REMARK 923 INTER-LIGAND FREE ENERGY PREDICTED BY IDOCK:   -9.58 KCAL/MOL
REMARK 924 INTRA-LIGAND FREE ENERGY PREDICTED BY IDOCK:    1.21 KCAL/MOL
REMARK 927      BINDING AFFINITY PREDICTED BY RF-SCORE:    0.00 PKD
ROOT
HETATM    1  C   UNL     1     -11.236  14.462  65.959  1.00  0.00    -0.333 C  
HETATM    2  C   UNL     1     -10.293  14.082  64.976  1.00  0.00    -0.432 C  
HETATM    3  C   UNL     1      -9.840  13.821  66.378  1.00  0.00    -0.305 C  
HETATM    4  C   UNL     1     -11.241  13.940  67.889  1.00  0.00    -0.278 C  
HETATM    5  C   UNL     1      -6.426  18.567  67.894  1.00  0.00    -0.208 C  
HETATM    6  O   UNL     1     -12.660  14.242  67.590  1.00  0.00    -0.499 OA 
HETATM    7  C   UNL     1     -10.844  12.929  67.080  1.00  0.00    -0.278 C  
HETATM    8  C   UNL     1      -9.346  13.164  68.291  1.00  0.00    -0.201 C  
HETATM    9  H   UNL     1     -13.306  14.297  68.286  1.00  0.00     0.000 HD 
HETATM   10  C   UNL     1      -9.105  18.609  66.877  1.00  0.00    -0.295 C  
HETATM   11  O   UNL     1      -6.839  20.929  68.081  1.00  0.00    -0.246 OA 
HETATM   12  C   UNL     1     -11.493  11.636  66.627  1.00  0.00    -0.280 C  
HETATM   13  C   UNL     1      -9.149  14.886  68.704  1.00  0.00    -0.185 C  
HETATM   14  C   UNL     1     -10.344  18.499  66.025  1.00  0.00    -0.423 C  
HETATM   15  O   UNL     1     -10.083  15.117  69.773  1.00  0.00    -0.366 OA 
HETATM   16  C   UNL     1      -7.165  19.838  67.632  1.00  0.00    -0.260 C  
HETATM   17  C   UNL     1      -9.324  16.101  67.551  1.00  0.00    -0.217 C  
HETATM   18  C   UNL     1      -9.713  18.117  69.194  1.00  0.00    -0.113 C  
HETATM   19  C   UNL     1      -8.320  19.696  66.729  1.00  0.00    -0.338 C  
HETATM   20  H   UNL     1      -9.978  16.035  69.993  1.00  0.00     0.000 HD 
HETATM   21  C   UNL     1     -10.721  16.055  66.660  1.00  0.00    -0.247 C  
HETATM   22  C   UNL     1     -10.615  17.088  65.521  1.00  0.00    -0.184 C  
HETATM   23  C   UNL     1      -8.887  17.575  68.010  1.00  0.00    -0.258 C  
HETATM   24  C   UNL     1      -7.370  17.512  68.465  1.00  0.00    -0.243 C  
ENDROOT
BRANCH   4  25
HETATM   25  C   UNL     1     -11.735  12.851  69.182  1.00  0.00    -0.324 C  
HETATM   26  O   UNL     1     -12.276  13.180  70.255  1.00  0.00    -0.338 OA 
BRANCH  25  27
HETATM   27  C   UNL     1     -11.431  11.340  69.043  1.00  0.00    -0.302 C  
BRANCH  27  28
HETATM   28  O   UNL     1     -11.152  10.760  70.351  1.00  0.00    -0.266 OA 
BRANCH  28  29
HETATM   29  C   UNL     1     -10.343   9.665  70.373  1.00  0.00    -0.291 C  
HETATM   30  O   UNL     1      -9.124   9.705  70.286  1.00  0.00    -0.235 OA 
BRANCH  29  31
HETATM   31  C   UNL     1     -11.125   8.374  70.451  1.00  0.00    -0.240 C  
BRANCH  31  32
HETATM   32  C   UNL     1     -11.895   8.209  71.752  1.00  0.00    -0.346 C  
HETATM   33  C   UNL     1     -13.394   8.304  71.601  1.00  0.00    -0.330 C  
HETATM   34  O   UNL     1     -13.865   9.550  71.423  1.00  0.00    -0.310 OA 
HETATM   35  O   UNL     1     -14.136   7.327  71.685  1.00  0.00    -0.412 OA 
ENDBRANCH  31  32
ENDBRANCH  29  31
ENDBRANCH  28  29
ENDBRANCH  27  28
ENDBRANCH  25  27
ENDBRANCH   4  25
TORSDOF 6
ENDMDL
MODEL       40
REMARK 921   NORMALIZED FREE ENERGY PREDICTED BY IDOCK:   -5.64 KCAL/MOL
REMARK 922        TOTAL FREE ENERGY PREDICTED BY IDOCK:   -8.35 KCAL/MOL
REMARK 923 INTER-LIGAND FREE ENERGY PREDICTED BY IDOCK:   -8.40 KCAL/MOL
REMARK 924 INTRA-LIGAND FREE ENERGY PREDICTED BY IDOCK:    0.04 KCAL/MOL
REMARK 927      BINDING AFFINITY PREDICTED BY RF-SCORE:    0.00 PKD
ROOT
HETATM    1  C   UNL     1      -9.061   9.604  66.929  1.00  0.00    -0.160 C  
HETATM    2  C   UNL     1      -9.770   8.713  66.089  1.00  0.00    -0.292 C  
HETATM    3  C   UNL     1     -10.654   9.586  66.924  1.00  0.00    -0.241 C  
HETATM    4  C   UNL     1      -9.795  11.196  67.890  1.00  0.00    -0.174 C  
HETATM    5  C   UNL     1     -12.118   6.271  71.755  1.00  0.00    -0.274 C  
HETATM    6  O   UNL     1      -8.353  11.497  67.734  1.00  0.00    -0.127 OA 
HETATM    7  C   UNL     1     -10.332  11.043  66.655  1.00  0.00    -0.288 C  
HETATM    8  C   UNL     1     -11.873  11.009  67.834  1.00  0.00    -0.085 C  
HETATM    9  H   UNL     1      -7.957  12.239  68.178  1.00  0.00     0.000 HD 
HETATM   10  C   UNL     1      -9.487   6.839  70.771  1.00  0.00    -0.167 C  
HETATM   11  O   UNL     1     -10.850   5.244  73.521  1.00  0.00    -0.266 OA 
HETATM   12  C   UNL     1     -10.166  11.786  65.344  1.00  0.00    -0.301 C  
HETATM   13  C   UNL     1     -11.459  10.208  69.371  1.00  0.00    -0.142 C  
HETATM   14  C   UNL     1      -8.219   6.920  69.960  1.00  0.00    -0.134 C  
HETATM   15  O   UNL     1     -10.841  11.236  70.165  1.00  0.00    -0.440 OA 
HETATM   16  C   UNL     1     -10.886   5.721  72.395  1.00  0.00    -0.247 C  
HETATM   17  C   UNL     1     -10.498   8.825  69.421  1.00  0.00    -0.228 C  
HETATM   18  C   UNL     1      -9.788   8.960  71.949  1.00  0.00    -0.364 C  
HETATM   19  C   UNL     1      -9.690   5.746  71.535  1.00  0.00    -0.193 C  
HETATM   20  H   UNL     1     -10.619  10.809  70.985  1.00  0.00     0.000 HD 
HETATM   21  C   UNL     1      -9.055   8.919  68.611  1.00  0.00    -0.137 C  
HETATM   22  C   UNL     1      -8.418   7.516  68.573  1.00  0.00    -0.129 C  
HETATM   23  C   UNL     1     -10.406   8.084  70.840  1.00  0.00    -0.221 C  
HETATM   24  C   UNL     1     -11.879   7.704  71.287  1.00  0.00    -0.316 C  
ENDROOT
BRANCH   4  25
HETATM   25  C   UNL     1     -10.159  12.918  67.947  1.00  0.00    -0.232 C  
HETATM   26  O   UNL     1     -11.286  13.437  67.826  1.00  0.00    -0.259 OA 
BRANCH  25  27
HETATM   27  C   UNL     1      -8.993  13.925  68.098  1.00  0.00    -0.185 C  
BRANCH  27  28
HETATM   28  O   UNL     1      -8.688  14.539  66.812  1.00  0.00    -0.234 OA 
BRANCH  28  29
HETATM   29  C   UNL     1      -9.048  15.843  66.658  1.00  0.00    -0.260 C  
HETATM   30  O   UNL     1      -9.317  16.363  65.584  1.00  0.00    -0.476 OA 
BRANCH  29  31
HETATM   31  C   UNL     1      -9.015  16.606  67.962  1.00  0.00    -0.211 C  
BRANCH  31  32
HETATM   32  C   UNL     1     -10.309  17.346  68.264  1.00  0.00    -0.374 C  
HETATM   33  C   UNL     1     -10.226  18.840  68.068  1.00  0.00    -0.386 C  
HETATM   34  O   UNL     1      -9.565  19.501  69.034  1.00  0.00    -0.403 OA 
HETATM   35  O   UNL     1     -10.765  19.420  67.127  1.00  0.00    -0.455 OA 
ENDBRANCH  31  32
ENDBRANCH  29  31
ENDBRANCH  28  29
ENDBRANCH  27  28
ENDBRANCH  25  27
ENDBRANCH   4  25
TORSDOF 6
ENDMDL
MODEL       41
REMARK 921   NORMALIZED FREE ENERGY PREDICTED BY IDOCK:   -5.61 KCAL/MOL
REMARK 922        TOTAL FREE ENERGY PREDICTED BY IDOCK:   -8.32 KCAL/MOL
REMARK 923 INTER-LIGAND FREE ENERGY PREDICTED BY IDOCK:   -8.30 KCAL/MOL
REMARK 924 INTRA-LIGAND FREE ENERGY PREDICTED BY IDOCK:   -0.02 KCAL/MOL
REMARK 927      BINDING AFFINITY PREDICTED BY RF-SCORE:    0.00 PKD
ROOT
HETATM    1  C   UNL     1      -8.383   9.586  70.658  1.00  0.00    -0.159 C  
HETATM    2  C   UNL     1      -7.055   9.101  70.638  1.00  0.00    -0.099 C  
HETATM    3  C   UNL     1      -7.947   8.457  69.624  1.00  0.00    -0.106 C  
HETATM    4  C   UNL     1      -9.782   9.326  69.254  1.00  0.00    -0.169 C  
HETATM    5  C   UNL     1      -9.843   3.313  72.156  1.00  0.00    -0.237 C  
HETATM    6  O   UNL     1     -10.190  10.569  69.948  1.00  0.00    -0.405 OA 
HETATM    7  C   UNL     1      -8.549   9.520  68.727  1.00  0.00    -0.123 C  
HETATM    8  C   UNL     1      -9.089   7.799  68.011  1.00  0.00    -0.128 C  
HETATM    9  H   UNL     1     -11.035  10.970  69.778  1.00  0.00     0.000 HD 
HETATM   10  C   UNL     1     -10.023   5.955  73.249  1.00  0.00    -0.190 C  
HETATM   11  O   UNL     1     -11.110   2.793  74.134  1.00  0.00    -0.157 OA 
HETATM   12  C   UNL     1      -7.894  10.678  67.999  1.00  0.00    -0.105 C  
HETATM   13  C   UNL     1     -10.055   6.905  69.212  1.00  0.00    -0.170 C  
HETATM   14  C   UNL     1      -9.735   7.314  73.837  1.00  0.00    -0.323 C  
HETATM   15  O   UNL     1     -11.392   7.417  69.063  1.00  0.00    -0.433 OA 
HETATM   16  C   UNL     1     -10.417   3.585  73.508  1.00  0.00    -0.178 C  
HETATM   17  C   UNL     1      -9.652   6.897  70.848  1.00  0.00    -0.166 C  
HETATM   18  C   UNL     1     -11.983   6.139  71.800  1.00  0.00    -0.226 C  
HETATM   19  C   UNL     1     -10.043   4.891  74.077  1.00  0.00    -0.231 C  
HETATM   20  H   UNL     1     -11.907   6.940  69.704  1.00  0.00     0.000 HD 
HETATM   21  C   UNL     1      -9.418   8.384  71.541  1.00  0.00    -0.267 C  
HETATM   22  C   UNL     1      -8.846   8.184  72.959  1.00  0.00    -0.316 C  
HETATM   23  C   UNL     1     -10.466   5.865  71.768  1.00  0.00    -0.276 C  
HETATM   24  C   UNL     1     -10.248   4.410  71.177  1.00  0.00    -0.127 C  
ENDROOT
BRANCH   4  25
HETATM   25  C   UNL     1     -10.605   9.861  67.791  1.00  0.00    -0.261 C  
HETATM   26  O   UNL     1     -10.436   9.406  66.643  1.00  0.00    -0.233 OA 
BRANCH  25  27
HETATM   27  C   UNL     1     -11.593  11.048  67.881  1.00  0.00    -0.226 C  
BRANCH  27  28
HETATM   28  O   UNL     1     -10.961  12.268  67.393  1.00  0.00    -0.233 OA 
BRANCH  28  29
HETATM   29  C   UNL     1     -11.506  13.445  67.807  1.00  0.00    -0.316 C  
HETATM   30  O   UNL     1     -12.243  14.143  67.125  1.00  0.00    -0.421 OA 
BRANCH  29  31
HETATM   31  C   UNL     1     -11.045  13.835  69.192  1.00  0.00    -0.282 C  
BRANCH  31  32
HETATM   32  C   UNL     1     -12.139  13.738  70.245  1.00  0.00    -0.425 C  
HETATM   33  C   UNL     1     -12.307  14.984  71.079  1.00  0.00    -0.332 C  
HETATM   34  O   UNL     1     -11.358  15.172  72.012  1.00  0.00    -0.418 OA 
HETATM   35  O   UNL     1     -13.264  15.746  70.955  1.00  0.00    -0.560 OA 
ENDBRANCH  31  32
ENDBRANCH  29  31
ENDBRANCH  28  29
ENDBRANCH  27  28
ENDBRANCH  25  27
ENDBRANCH   4  25
TORSDOF 6
ENDMDL
MODEL       42
REMARK 921   NORMALIZED FREE ENERGY PREDICTED BY IDOCK:   -5.58 KCAL/MOL
REMARK 922        TOTAL FREE ENERGY PREDICTED BY IDOCK:   -8.27 KCAL/MOL
REMARK 923 INTER-LIGAND FREE ENERGY PREDICTED BY IDOCK:   -8.63 KCAL/MOL
REMARK 924 INTRA-LIGAND FREE ENERGY PREDICTED BY IDOCK:    0.36 KCAL/MOL
REMARK 927      BINDING AFFINITY PREDICTED BY RF-SCORE:    0.00 PKD
ROOT
HETATM    1  C   UNL     1     -10.766   5.396  69.815  1.00  0.00    -0.280 C  
HETATM    2  C   UNL     1      -9.693   4.525  70.117  1.00  0.00    -0.287 C  
HETATM    3  C   UNL     1      -9.474   5.934  70.573  1.00  0.00    -0.196 C  
HETATM    4  C   UNL     1     -11.091   7.218  70.570  1.00  0.00    -0.267 C  
HETATM    5  C   UNL     1      -6.192   8.555  66.234  1.00  0.00    -0.053 C  
HETATM    6  O   UNL     1     -12.435   6.749  70.161  1.00  0.00    -0.572 OA 
HETATM    7  C   UNL     1     -10.603   6.353  71.493  1.00  0.00    -0.273 C  
HETATM    8  C   UNL     1      -9.307   7.798  71.488  1.00  0.00    -0.165 C  
HETATM    9  H   UNL     1     -13.179   7.340  70.160  1.00  0.00     0.000 HD 
HETATM   10  C   UNL     1      -8.675   7.159  65.929  1.00  0.00    -0.146 C  
HETATM   11  O   UNL     1      -6.554   8.984  63.895  1.00  0.00    -0.087 OA 
HETATM   12  C   UNL     1     -11.214   5.643  72.685  1.00  0.00    -0.350 C  
HETATM   13  C   UNL     1      -9.123   8.457  69.842  1.00  0.00    -0.146 C  
HETATM   14  C   UNL     1      -9.769   6.122  65.869  1.00  0.00     0.133 C  
HETATM   15  O   UNL     1     -10.206   9.393  69.698  1.00  0.00    -0.191 OA 
HETATM   16  C   UNL     1      -6.840   8.352  64.904  1.00  0.00    -0.071 C  
HETATM   17  C   UNL     1      -9.077   7.459  68.486  1.00  0.00    -0.136 C  
HETATM   18  C   UNL     1      -9.654   9.272  66.672  1.00  0.00    -0.263 C  
HETATM   19  C   UNL     1      -7.843   7.274  64.873  1.00  0.00    -0.126 C  
HETATM   20  H   UNL     1     -10.108   9.744  68.820  1.00  0.00     0.000 HD 
HETATM   21  C   UNL     1     -10.317   6.368  68.349  1.00  0.00    -0.228 C  
HETATM   22  C   UNL     1     -10.001   5.402  67.190  1.00  0.00    -0.199 C  
HETATM   23  C   UNL     1      -8.671   8.166  67.105  1.00  0.00    -0.130 C  
HETATM   24  C   UNL     1      -7.246   8.835  67.301  1.00  0.00    -0.080 C  
ENDROOT
BRANCH   4  25
HETATM   25  C   UNL     1     -11.815   8.268  71.785  1.00  0.00    -0.306 C  
HETATM   26  O   UNL     1     -11.384   8.466  72.937  1.00  0.00    -0.278 OA 
BRANCH  25  27
HETATM   27  C   UNL     1     -13.148   8.982  71.457  1.00  0.00    -0.335 C  
BRANCH  27  28
HETATM   28  O   UNL     1     -13.246  10.232  72.201  1.00  0.00    -0.452 OA 
BRANCH  28  29
HETATM   29  C   UNL     1     -12.908  11.368  71.531  1.00  0.00    -0.403 C  
HETATM   30  O   UNL     1     -12.111  11.414  70.605  1.00  0.00    -0.361 OA 
BRANCH  29  31
HETATM   31  C   UNL     1     -13.582  12.594  72.104  1.00  0.00    -0.510 C  
BRANCH  31  32
HETATM   32  C   UNL     1     -12.771  13.869  71.928  1.00  0.00    -0.364 C  
HETATM   33  C   UNL     1     -13.549  15.137  72.184  1.00  0.00    -0.455 C  
HETATM   34  O   UNL     1     -14.399  15.485  71.203  1.00  0.00    -0.516 OA 
HETATM   35  O   UNL     1     -13.384  15.830  73.186  1.00  0.00    -0.533 OA 
ENDBRANCH  31  32
ENDBRANCH  29  31
ENDBRANCH  28  29
ENDBRANCH  27  28
ENDBRANCH  25  27
ENDBRANCH   4  25
TORSDOF 6
ENDMDL
MODEL       43
REMARK 921   NORMALIZED FREE ENERGY PREDICTED BY IDOCK:   -5.57 KCAL/MOL
REMARK 922        TOTAL FREE ENERGY PREDICTED BY IDOCK:   -8.26 KCAL/MOL
REMARK 923 INTER-LIGAND FREE ENERGY PREDICTED BY IDOCK:   -7.92 KCAL/MOL
REMARK 924 INTRA-LIGAND FREE ENERGY PREDICTED BY IDOCK:   -0.34 KCAL/MOL
REMARK 927      BINDING AFFINITY PREDICTED BY RF-SCORE:    0.00 PKD
ROOT
HETATM    1  C   UNL     1      -9.446   9.719  64.974  1.00  0.00    -0.337 C  
HETATM    2  C   UNL     1      -8.552  10.434  64.143  1.00  0.00    -0.186 C  
HETATM    3  C   UNL     1      -8.082  10.298  65.558  1.00  0.00    -0.156 C  
HETATM    4  C   UNL     1      -9.062   8.954  66.781  1.00  0.00    -0.143 C  
HETATM    5  C   UNL     1      -9.700  15.422  68.312  1.00  0.00    -0.209 C  
HETATM    6  O   UNL     1     -10.176   8.126  66.264  1.00  0.00    -0.475 OA 
HETATM    7  C   UNL     1      -8.013   8.831  65.932  1.00  0.00    -0.104 C  
HETATM    8  C   UNL     1      -7.281   9.833  67.423  1.00  0.00    -0.086 C  
HETATM    9  H   UNL     1     -10.628   7.507  66.827  1.00  0.00     0.000 HD 
HETATM   10  C   UNL     1     -11.384  13.643  66.826  1.00  0.00    -0.346 C  
HETATM   11  O   UNL     1     -11.810  16.496  68.734  1.00  0.00    -0.104 OA 
HETATM   12  C   UNL     1      -7.398   7.657  65.195  1.00  0.00    -0.076 C  
HETATM   13  C   UNL     1      -8.513  10.932  68.094  1.00  0.00    -0.131 C  
HETATM   14  C   UNL     1     -12.058  12.829  65.749  1.00  0.00    -0.505 C  
HETATM   15  O   UNL     1      -9.287  10.114  68.989  1.00  0.00    -0.167 OA 
HETATM   16  C   UNL     1     -11.152  15.690  68.089  1.00  0.00    -0.330 C  
HETATM   17  C   UNL     1      -9.562  11.801  67.102  1.00  0.00    -0.189 C  
HETATM   18  C   UNL     1     -11.402  12.348  68.899  1.00  0.00    -0.342 C  
HETATM   19  C   UNL     1     -11.748  14.933  66.975  1.00  0.00    -0.274 C  
HETATM   20  H   UNL     1      -9.944  10.700  69.346  1.00  0.00     0.000 HD 
HETATM   21  C   UNL     1     -10.383  10.916  65.967  1.00  0.00    -0.304 C  
HETATM   22  C   UNL     1     -11.114  11.885  65.017  1.00  0.00    -0.360 C  
HETATM   23  C   UNL     1     -10.451  12.921  67.829  1.00  0.00    -0.225 C  
HETATM   24  C   UNL     1      -9.466  13.933  68.549  1.00  0.00    -0.174 C  
ENDROOT
BRANCH   4  25
HETATM   25  C   UNL     1      -8.529   7.619  67.799  1.00  0.00    -0.122 C  
HETATM   26  O   UNL     1      -7.348   7.274  68.001  1.00  0.00    -0.091 OA 
BRANCH  25  27
HETATM   27  C   UNL     1      -9.593   6.725  68.477  1.00  0.00    -0.130 C  
BRANCH  27  28
HETATM   28  O   UNL     1     -10.535   7.544  69.229  1.00  0.00    -0.210 OA 
BRANCH  28  29
HETATM   29  C   UNL     1     -11.056   6.993  70.360  1.00  0.00    -0.287 C  
HETATM   30  O   UNL     1     -10.852   5.844  70.726  1.00  0.00    -0.267 OA 
BRANCH  29  31
HETATM   31  C   UNL     1     -11.978   7.943  71.090  1.00  0.00    -0.304 C  
BRANCH  31  32
HETATM   32  C   UNL     1     -11.242   9.002  71.896  1.00  0.00    -0.438 C  
HETATM   33  C   UNL     1      -9.807   8.655  72.210  1.00  0.00    -0.289 C  
HETATM   34  O   UNL     1      -9.648   7.737  73.179  1.00  0.00    -0.223 OA 
HETATM   35  O   UNL     1      -8.853   9.204  71.662  1.00  0.00    -0.339 OA 
ENDBRANCH  31  32
ENDBRANCH  29  31
ENDBRANCH  28  29
ENDBRANCH  27  28
ENDBRANCH  25  27
ENDBRANCH   4  25
TORSDOF 6
ENDMDL
MODEL       44
REMARK 921   NORMALIZED FREE ENERGY PREDICTED BY IDOCK:   -5.54 KCAL/MOL
REMARK 922        TOTAL FREE ENERGY PREDICTED BY IDOCK:   -8.21 KCAL/MOL
REMARK 923 INTER-LIGAND FREE ENERGY PREDICTED BY IDOCK:   -8.17 KCAL/MOL
REMARK 924 INTRA-LIGAND FREE ENERGY PREDICTED BY IDOCK:   -0.04 KCAL/MOL
REMARK 927      BINDING AFFINITY PREDICTED BY RF-SCORE:    0.00 PKD
ROOT
HETATM    1  C   UNL     1     -11.356   9.664  69.607  1.00  0.00    -0.113 C  
HETATM    2  C   UNL     1     -11.305  10.538  70.719  1.00  0.00    -0.295 C  
HETATM    3  C   UNL     1      -9.963  10.035  70.286  1.00  0.00    -0.184 C  
HETATM    4  C   UNL     1      -9.826   9.089  68.456  1.00  0.00    -0.169 C  
HETATM    5  C   UNL     1      -8.756   5.324  73.866  1.00  0.00    -0.118 C  
HETATM    6  O   UNL     1     -11.014   8.942  67.583  1.00  0.00    -0.493 OA 
HETATM    7  C   UNL     1      -9.733  10.388  68.830  1.00  0.00    -0.184 C  
HETATM    8  C   UNL     1      -8.087   9.601  69.492  1.00  0.00    -0.129 C  
HETATM    9  H   UNL     1     -10.951   8.506  66.741  1.00  0.00     0.000 HD 
HETATM   10  C   UNL     1     -11.097   5.733  72.264  1.00  0.00    -0.330 C  
HETATM   11  O   UNL     1      -9.827   3.206  74.256  1.00  0.00    -0.099 OA 
HETATM   12  C   UNL     1      -9.919  11.702  68.097  1.00  0.00    -0.198 C  
HETATM   13  C   UNL     1      -8.376   7.928  70.033  1.00  0.00    -0.121 C  
HETATM   14  C   UNL     1     -12.389   6.233  71.670  1.00  0.00    -0.084 C  
HETATM   15  O   UNL     1      -8.303   7.137  68.834  1.00  0.00    -0.124 OA 
HETATM   16  C   UNL     1      -9.895   4.358  73.847  1.00  0.00    -0.138 C  
HETATM   17  C   UNL     1      -9.761   7.499  70.890  1.00  0.00    -0.173 C  
HETATM   18  C   UNL     1      -9.680   4.908  70.450  1.00  0.00    -0.284 C  
HETATM   19  C   UNL     1     -11.158   4.915  73.335  1.00  0.00    -0.415 C  
HETATM   20  H   UNL     1      -8.458   6.244  69.123  1.00  0.00     0.000 HD 
HETATM   21  C   UNL     1     -11.201   7.960  70.213  1.00  0.00    -0.206 C  
HETATM   22  C   UNL     1     -12.333   7.688  71.223  1.00  0.00    -0.334 C  
HETATM   23  C   UNL     1      -9.773   6.021  71.513  1.00  0.00    -0.186 C  
HETATM   24  C   UNL     1      -8.514   5.885  72.468  1.00  0.00    -0.116 C  
ENDROOT
BRANCH   4  25
HETATM   25  C   UNL     1      -8.802   9.316  67.041  1.00  0.00    -0.123 C  
HETATM   26  O   UNL     1      -7.576   9.542  67.048  1.00  0.00    -0.091 OA 
BRANCH  25  27
HETATM   27  C   UNL     1      -9.453   9.303  65.637  1.00  0.00    -0.256 C  
BRANCH  27  28
HETATM   28  O   UNL     1      -8.804  10.282  64.773  1.00  0.00    -0.171 OA 
BRANCH  28  29
HETATM   29  C   UNL     1      -9.607  10.950  63.899  1.00  0.00    -0.284 C  
HETATM   30  O   UNL     1      -9.885  10.555  62.776  1.00  0.00    -0.294 OA 
BRANCH  29  31
HETATM   31  C   UNL     1     -10.068  12.281  64.446  1.00  0.00    -0.296 C  
BRANCH  31  32
HETATM   32  C   UNL     1     -11.531  12.291  64.861  1.00  0.00    -0.382 C  
HETATM   33  C   UNL     1     -12.483  12.699  63.762  1.00  0.00    -0.420 C  
HETATM   34  O   UNL     1     -12.500  14.015  63.490  1.00  0.00    -0.826 OA 
HETATM   35  O   UNL     1     -13.225  11.901  63.193  1.00  0.00    -0.539 OA 
ENDBRANCH  31  32
ENDBRANCH  29  31
ENDBRANCH  28  29
ENDBRANCH  27  28
ENDBRANCH  25  27
ENDBRANCH   4  25
TORSDOF 6
ENDMDL
MODEL       45
REMARK 921   NORMALIZED FREE ENERGY PREDICTED BY IDOCK:   -5.53 KCAL/MOL
REMARK 922        TOTAL FREE ENERGY PREDICTED BY IDOCK:   -8.20 KCAL/MOL
REMARK 923 INTER-LIGAND FREE ENERGY PREDICTED BY IDOCK:   -7.66 KCAL/MOL
REMARK 924 INTRA-LIGAND FREE ENERGY PREDICTED BY IDOCK:   -0.53 KCAL/MOL
REMARK 927      BINDING AFFINITY PREDICTED BY RF-SCORE:    0.00 PKD
ROOT
HETATM    1  C   UNL     1     -10.894  10.185  70.461  1.00  0.00    -0.340 C  
HETATM    2  C   UNL     1     -12.219   9.691  70.498  1.00  0.00    -0.153 C  
HETATM    3  C   UNL     1     -11.389   9.108  69.397  1.00  0.00     0.177 C  
HETATM    4  C   UNL     1      -9.349   9.414  69.454  1.00  0.00    -0.169 C  
HETATM    5  C   UNL     1     -12.687  12.367  64.481  1.00  0.00    -0.404 C  
HETATM    6  O   UNL     1      -8.721  10.160  70.568  1.00  0.00    -0.325 OA 
HETATM    7  C   UNL     1     -10.151   8.459  69.982  1.00  0.00    -0.192 C  
HETATM    8  C   UNL     1     -10.157   8.064  68.082  1.00  0.00    -0.234 C  
HETATM    9  H   UNL     1      -7.781  10.301  70.595  1.00  0.00     0.000 HD 
HETATM   10  C   UNL     1     -11.815  13.342  67.030  1.00  0.00    -0.443 C  
HETATM   11  O   UNL     1     -12.460  14.693  63.912  1.00  0.00    -0.813 OA 
HETATM   12  C   UNL     1     -10.003   7.494  71.143  1.00  0.00    -0.187 C  
HETATM   13  C   UNL     1     -10.087   9.573  67.137  1.00  0.00    -0.229 C  
HETATM   14  C   UNL     1     -11.699  13.726  68.484  1.00  0.00    -0.391 C  
HETATM   15  O   UNL     1      -8.689   9.912  67.089  1.00  0.00    -0.131 OA 
HETATM   16  C   UNL     1     -12.526  13.823  64.771  1.00  0.00    -0.349 C  
HETATM   17  C   UNL     1     -10.967  10.940  67.580  1.00  0.00    -0.352 C  
HETATM   18  C   UNL     1      -9.595  12.721  66.215  1.00  0.00    -0.242 C  
HETATM   19  C   UNL     1     -12.499  14.160  66.205  1.00  0.00    -0.426 C  
HETATM   20  H   UNL     1      -8.652  10.717  66.585  1.00  0.00     0.000 HD 
HETATM   21  C   UNL     1     -10.788  11.437  69.150  1.00  0.00    -0.260 C  
HETATM   22  C   UNL     1     -11.818  12.546  69.439  1.00  0.00    -0.368 C  
HETATM   23  C   UNL     1     -10.991  12.137  66.512  1.00  0.00    -0.325 C  
HETATM   24  C   UNL     1     -11.576  11.565  65.154  1.00  0.00    -0.019 C  
ENDROOT
BRANCH   4  25
HETATM   25  C   UNL     1      -7.953   8.343  69.371  1.00  0.00    -0.112 C  
HETATM   26  O   UNL     1      -7.958   7.156  68.992  1.00  0.00    -0.116 OA 
BRANCH  25  27
HETATM   27  C   UNL     1      -6.582   8.862  69.866  1.00  0.00    -0.042 C  
BRANCH  27  28
HETATM   28  O   UNL     1      -6.186  10.042  69.107  1.00  0.00    -0.040 OA 
BRANCH  28  29
HETATM   29  C   UNL     1      -5.749  11.112  69.826  1.00  0.00    -0.073 C  
HETATM   30  O   UNL     1      -5.858  11.220  71.039  1.00  0.00    -0.347 OA 
BRANCH  29  31
HETATM   31  C   UNL     1      -5.168  12.196  68.948  1.00  0.00    -0.054 C  
BRANCH  31  32
HETATM   32  C   UNL     1      -6.092  12.620  67.817  1.00  0.00    -0.127 C  
HETATM   33  C   UNL     1      -6.673  14.004  67.979  1.00  0.00    -0.144 C  
HETATM   34  O   UNL     1      -7.659  14.100  68.887  1.00  0.00    -0.124 OA 
HETATM   35  O   UNL     1      -6.311  14.962  67.299  1.00  0.00    -0.310 OA 
ENDBRANCH  31  32
ENDBRANCH  29  31
ENDBRANCH  28  29
ENDBRANCH  27  28
ENDBRANCH  25  27
ENDBRANCH   4  25
TORSDOF 6
ENDMDL
MODEL       46
REMARK 921   NORMALIZED FREE ENERGY PREDICTED BY IDOCK:   -5.49 KCAL/MOL
REMARK 922        TOTAL FREE ENERGY PREDICTED BY IDOCK:   -8.15 KCAL/MOL
REMARK 923 INTER-LIGAND FREE ENERGY PREDICTED BY IDOCK:   -8.01 KCAL/MOL
REMARK 924 INTRA-LIGAND FREE ENERGY PREDICTED BY IDOCK:   -0.15 KCAL/MOL
REMARK 927      BINDING AFFINITY PREDICTED BY RF-SCORE:    0.00 PKD
ROOT
HETATM    1  C   UNL     1      -7.881  13.408  67.463  1.00  0.00    -0.181 C  
HETATM    2  C   UNL     1      -7.400  13.489  68.790  1.00  0.00    -0.086 C  
HETATM    3  C   UNL     1      -8.890  13.584  68.682  1.00  0.00    -0.003 C  
HETATM    4  C   UNL     1      -9.766  13.083  66.882  1.00  0.00    -0.238 C  
HETATM    5  C   UNL     1     -10.152  19.489  68.725  1.00  0.00    -0.519 C  
HETATM    6  O   UNL     1      -8.947  12.612  65.741  1.00  0.00    -0.410 OA 
HETATM    7  C   UNL     1      -9.428  12.357  67.974  1.00  0.00    -0.208 C  
HETATM    8  C   UNL     1     -10.960  13.390  68.566  1.00  0.00    -0.292 C  
HETATM    9  H   UNL     1      -9.351  12.381  64.912  1.00  0.00     0.000 HD 
HETATM   10  C   UNL     1      -8.334  18.115  66.988  1.00  0.00    -0.250 C  
HETATM   11  O   UNL     1      -9.568  21.332  67.293  1.00  0.00    -0.240 OA 
HETATM   12  C   UNL     1      -9.141  10.886  68.203  1.00  0.00    -0.155 C  
HETATM   13  C   UNL     1     -10.950  15.002  67.806  1.00  0.00    -0.298 C  
HETATM   14  C   UNL     1      -7.181  17.342  66.399  1.00  0.00    -0.327 C  
HETATM   15  O   UNL     1     -11.550  14.802  66.514  1.00  0.00    -0.355 OA 
HETATM   16  C   UNL     1      -9.338  20.197  67.692  1.00  0.00    -0.365 C  
HETATM   17  C   UNL     1      -9.528  15.886  67.619  1.00  0.00    -0.219 C  
HETATM   18  C   UNL     1     -10.363  17.538  65.751  1.00  0.00    -0.217 C  
HETATM   19  C   UNL     1      -8.175  19.436  67.206  1.00  0.00    -0.311 C  
HETATM   20  H   UNL     1     -11.544  15.662  66.108  1.00  0.00     0.000 HD 
HETATM   21  C   UNL     1      -8.271  15.087  66.893  1.00  0.00    -0.206 C  
HETATM   22  C   UNL     1      -7.002  15.956  67.004  1.00  0.00    -0.173 C  
HETATM   23  C   UNL     1      -9.703  17.407  67.139  1.00  0.00    -0.267 C  
HETATM   24  C   UNL     1     -10.634  18.144  68.190  1.00  0.00    -0.320 C  
ENDROOT
BRANCH   4  25
HETATM   25  C   UNL     1     -11.060  11.980  66.421  1.00  0.00    -0.318 C  
HETATM   26  O   UNL     1     -12.052  11.680  67.114  1.00  0.00    -0.575 OA 
BRANCH  25  27
HETATM   27  C   UNL     1     -10.967  11.244  65.064  1.00  0.00    -0.156 C  
BRANCH  27  28
HETATM   28  O   UNL     1     -10.346   9.937  65.241  1.00  0.00    -0.186 OA 
BRANCH  28  29
HETATM   29  C   UNL     1      -9.224   9.690  64.510  1.00  0.00    -0.218 C  
HETATM   30  O   UNL     1      -9.103   9.947  63.321  1.00  0.00    -0.247 OA 
BRANCH  29  31
HETATM   31  C   UNL     1      -8.153   8.996  65.319  1.00  0.00    -0.126 C  
BRANCH  31  32
HETATM   32  C   UNL     1      -8.536   7.589  65.752  1.00  0.00    -0.158 C  
HETATM   33  C   UNL     1      -8.847   7.458  67.223  1.00  0.00    -0.124 C  
HETATM   34  O   UNL     1      -7.771   7.465  68.030  1.00  0.00    -0.111 OA 
HETATM   35  O   UNL     1      -9.988   7.303  67.653  1.00  0.00    -0.145 OA 
ENDBRANCH  31  32
ENDBRANCH  29  31
ENDBRANCH  28  29
ENDBRANCH  27  28
ENDBRANCH  25  27
ENDBRANCH   4  25
TORSDOF 6
ENDMDL
MODEL       47
REMARK 921   NORMALIZED FREE ENERGY PREDICTED BY IDOCK:   -5.46 KCAL/MOL
REMARK 922        TOTAL FREE ENERGY PREDICTED BY IDOCK:   -8.11 KCAL/MOL
REMARK 923 INTER-LIGAND FREE ENERGY PREDICTED BY IDOCK:   -8.19 KCAL/MOL
REMARK 924 INTRA-LIGAND FREE ENERGY PREDICTED BY IDOCK:    0.08 KCAL/MOL
REMARK 927      BINDING AFFINITY PREDICTED BY RF-SCORE:    0.00 PKD
ROOT
HETATM    1  C   UNL     1     -11.012   8.292  69.013  1.00  0.00     0.095 C  
HETATM    2  C   UNL     1     -10.617   7.621  70.194  1.00  0.00    -0.239 C  
HETATM    3  C   UNL     1      -9.664   8.692  69.762  1.00  0.00    -0.176 C  
HETATM    4  C   UNL     1     -10.289  10.018  68.309  1.00  0.00    -0.193 C  
HETATM    5  C   UNL     1      -5.337   5.858  66.645  1.00  0.00    -0.009 C  
HETATM    6  O   UNL     1     -11.652   9.933  67.734  1.00  0.00    -0.542 OA 
HETATM    7  C   UNL     1     -10.397  10.014  69.659  1.00  0.00    -0.274 C  
HETATM    8  C   UNL     1      -8.517  10.380  69.351  1.00  0.00    -0.145 C  
HETATM    9  H   UNL     1     -11.939  10.543  67.065  1.00  0.00     0.000 HD 
HETATM   10  C   UNL     1      -8.166   5.722  66.206  1.00  0.00    -0.109 C  
HETATM   11  O   UNL     1      -5.322   4.529  64.640  1.00  0.00    -0.012 OA 
HETATM   12  C   UNL     1     -11.340  10.693  70.634  1.00  0.00    -0.288 C  
HETATM   13  C   UNL     1      -7.942   9.494  67.916  1.00  0.00    -0.098 C  
HETATM   14  C   UNL     1      -9.649   5.471  66.315  1.00  0.00    -0.173 C  
HETATM   15  O   UNL     1      -8.314  10.322  66.800  1.00  0.00    -0.122 OA 
HETATM   16  C   UNL     1      -5.945   5.003  65.581  1.00  0.00    -0.022 C  
HETATM   17  C   UNL     1      -8.416   7.908  67.602  1.00  0.00    -0.127 C  
HETATM   18  C   UNL     1      -7.823   7.844  65.041  1.00  0.00    -0.120 C  
HETATM   19  C   UNL     1      -7.377   4.718  65.773  1.00  0.00    -0.077 C  
HETATM   20  H   UNL     1      -8.007   9.849  66.034  1.00  0.00     0.000 HD 
HETATM   21  C   UNL     1     -10.048   7.624  67.627  1.00  0.00    -0.249 C  
HETATM   22  C   UNL     1     -10.287   6.103  67.544  1.00  0.00    -0.259 C  
HETATM   23  C   UNL     1      -7.639   7.163  66.413  1.00  0.00    -0.092 C  
HETATM   24  C   UNL     1      -6.091   7.180  66.758  1.00  0.00    -0.038 C  
ENDROOT
BRANCH   4  25
HETATM   25  C   UNL     1     -10.344  11.775  68.206  1.00  0.00    -0.206 C  
HETATM   26  O   UNL     1      -9.411  12.558  68.471  1.00  0.00    -0.187 OA 
BRANCH  25  27
HETATM   27  C   UNL     1     -11.676  12.460  67.814  1.00  0.00    -0.350 C  
BRANCH  27  28
HETATM   28  O   UNL     1     -12.000  12.171  66.422  1.00  0.00    -0.611 OA 
BRANCH  28  29
HETATM   29  C   UNL     1     -12.206  13.243  65.608  1.00  0.00    -0.462 C  
HETATM   30  O   UNL     1     -12.773  13.190  64.526  1.00  0.00    -0.647 OA 
BRANCH  29  31
HETATM   31  C   UNL     1     -11.593  14.509  66.161  1.00  0.00    -0.366 C  
BRANCH  31  32
HETATM   32  C   UNL     1     -10.530  15.112  65.256  1.00  0.00    -0.434 C  
HETATM   33  C   UNL     1     -10.862  16.494  64.748  1.00  0.00    -0.127 C  
HETATM   34  O   UNL     1     -11.783  16.530  63.770  1.00  0.00    -1.086 OA 
HETATM   35  O   UNL     1     -10.298  17.508  65.156  1.00  0.00    -0.443 OA 
ENDBRANCH  31  32
ENDBRANCH  29  31
ENDBRANCH  28  29
ENDBRANCH  27  28
ENDBRANCH  25  27
ENDBRANCH   4  25
TORSDOF 6
ENDMDL
MODEL       48
REMARK 921   NORMALIZED FREE ENERGY PREDICTED BY IDOCK:   -5.45 KCAL/MOL
REMARK 922        TOTAL FREE ENERGY PREDICTED BY IDOCK:   -8.10 KCAL/MOL
REMARK 923 INTER-LIGAND FREE ENERGY PREDICTED BY IDOCK:   -7.85 KCAL/MOL
REMARK 924 INTRA-LIGAND FREE ENERGY PREDICTED BY IDOCK:   -0.25 KCAL/MOL
REMARK 927      BINDING AFFINITY PREDICTED BY RF-SCORE:    0.00 PKD
ROOT
HETATM    1  C   UNL     1     -11.285   8.110  69.028  1.00  0.00     0.380 C  
HETATM    2  C   UNL     1     -11.023   7.284  70.146  1.00  0.00    -0.280 C  
HETATM    3  C   UNL     1      -9.913   8.237  69.826  1.00  0.00    -0.191 C  
HETATM    4  C   UNL     1     -10.300   9.766  68.495  1.00  0.00    -0.202 C  
HETATM    5  C   UNL     1      -5.971   5.085  66.509  1.00  0.00    -0.023 C  
HETATM    6  O   UNL     1     -11.645   9.936  67.900  1.00  0.00    -0.583 OA 
HETATM    7  C   UNL     1     -10.441   9.657  69.838  1.00  0.00    -0.285 C  
HETATM    8  C   UNL     1      -8.520   9.766  69.587  1.00  0.00    -0.194 C  
HETATM    9  H   UNL     1     -11.823  10.641  67.287  1.00  0.00     0.000 HD 
HETATM   10  C   UNL     1      -8.777   5.410  66.027  1.00  0.00    -0.137 C  
HETATM   11  O   UNL     1      -6.101   3.956  64.390  1.00  0.00    -0.021 OA 
HETATM   12  C   UNL     1     -11.298  10.378  70.861  1.00  0.00    -0.307 C  
HETATM   13  C   UNL     1      -8.046   8.938  68.082  1.00  0.00    -0.106 C  
HETATM   14  C   UNL     1     -10.284   5.374  66.095  1.00  0.00    -0.181 C  
HETATM   15  O   UNL     1      -8.264   9.909  67.044  1.00  0.00    -0.116 OA 
HETATM   16  C   UNL     1      -6.671   4.430  65.364  1.00  0.00    -0.052 C  
HETATM   17  C   UNL     1      -8.739   7.474  67.617  1.00  0.00    -0.122 C  
HETATM   18  C   UNL     1      -8.098   7.554  65.068  1.00  0.00    -0.127 C  
HETATM   19  C   UNL     1      -8.133   4.343  65.511  1.00  0.00    -0.105 C  
HETATM   20  H   UNL     1      -8.011   9.467  66.241  1.00  0.00     0.000 HD 
HETATM   21  C   UNL     1     -10.395   7.434  67.597  1.00  0.00    -0.297 C  
HETATM   22  C   UNL     1     -10.852   5.980  67.371  1.00  0.00    -0.394 C  
HETATM   23  C   UNL     1      -8.050   6.733  66.373  1.00  0.00    -0.110 C  
HETATM   24  C   UNL     1      -6.526   6.489  66.736  1.00  0.00    -0.043 C  
ENDROOT
BRANCH   4  25
HETATM   25  C   UNL     1     -10.094  11.515  68.555  1.00  0.00    -0.207 C  
HETATM   26  O   UNL     1      -9.031  12.123  68.787  1.00  0.00    -0.043 OA 
BRANCH  25  27
HETATM   27  C   UNL     1     -11.335  12.420  68.371  1.00  0.00    -0.285 C  
BRANCH  27  28
HETATM   28  O   UNL     1     -11.726  12.459  66.967  1.00  0.00    -0.381 OA 
BRANCH  28  29
HETATM   29  C   UNL     1     -10.784  12.890  66.083  1.00  0.00    -0.272 C  
HETATM   30  O   UNL     1     -10.278  14.003  66.101  1.00  0.00    -0.284 OA 
BRANCH  29  31
HETATM   31  C   UNL     1     -10.476  11.857  65.024  1.00  0.00    -0.333 C  
BRANCH  31  32
HETATM   32  C   UNL     1     -10.851  12.300  63.619  1.00  0.00    -0.522 C  
HETATM   33  C   UNL     1     -12.263  12.817  63.489  1.00  0.00    -0.525 C  
HETATM   34  O   UNL     1     -13.215  11.869  63.498  1.00  0.00    -0.676 OA 
HETATM   35  O   UNL     1     -12.525  14.009  63.335  1.00  0.00    -0.826 OA 
ENDBRANCH  31  32
ENDBRANCH  29  31
ENDBRANCH  28  29
ENDBRANCH  27  28
ENDBRANCH  25  27
ENDBRANCH   4  25
TORSDOF 6
ENDMDL
MODEL       49
REMARK 921   NORMALIZED FREE ENERGY PREDICTED BY IDOCK:   -5.44 KCAL/MOL
REMARK 922        TOTAL FREE ENERGY PREDICTED BY IDOCK:   -8.08 KCAL/MOL
REMARK 923 INTER-LIGAND FREE ENERGY PREDICTED BY IDOCK:   -8.04 KCAL/MOL
REMARK 924 INTRA-LIGAND FREE ENERGY PREDICTED BY IDOCK:   -0.04 KCAL/MOL
REMARK 927      BINDING AFFINITY PREDICTED BY RF-SCORE:    0.00 PKD
ROOT
HETATM    1  C   UNL     1      -9.011  11.081  64.605  1.00  0.00    -0.085 C  
HETATM    2  C   UNL     1      -9.987  10.838  63.611  1.00  0.00    -0.405 C  
HETATM    3  C   UNL     1     -10.542  10.892  65.000  1.00  0.00    -0.287 C  
HETATM    4  C   UNL     1      -9.332  11.631  66.500  1.00  0.00    -0.206 C  
HETATM    5  C   UNL     1     -10.900   5.148  66.833  1.00  0.00     0.004 C  
HETATM    6  O   UNL     1      -7.967  12.124  66.204  1.00  0.00    -0.304 OA 
HETATM    7  C   UNL     1     -10.192  12.222  65.637  1.00  0.00    -0.287 C  
HETATM    8  C   UNL     1     -11.356  11.286  66.876  1.00  0.00    -0.231 C  
HETATM    9  H   UNL     1      -7.409  12.464  66.895  1.00  0.00     0.000 HD 
HETATM   10  C   UNL     1      -8.597   6.498  65.791  1.00  0.00    -0.149 C  
HETATM   11  O   UNL     1      -9.285   3.395  67.156  1.00  0.00    -0.165 OA 
HETATM   12  C   UNL     1     -10.330  13.633  65.101  1.00  0.00    -0.381 C  
HETATM   13  C   UNL     1     -10.605   9.755  67.393  1.00  0.00    -0.267 C  
HETATM   14  C   UNL     1      -7.592   7.211  64.921  1.00  0.00    -0.103 C  
HETATM   15  O   UNL     1      -9.717  10.124  68.463  1.00  0.00    -0.147 OA 
HETATM   16  C   UNL     1      -9.587   4.463  66.639  1.00  0.00    -0.198 C  
HETATM   17  C   UNL     1      -9.777   8.763  66.312  1.00  0.00    -0.342 C  
HETATM   18  C   UNL     1      -8.402   7.369  68.068  1.00  0.00    -0.124 C  
HETATM   19  C   UNL     1      -8.670   5.154  65.717  1.00  0.00    -0.139 C  
HETATM   20  H   UNL     1      -9.317   9.307  68.739  1.00  0.00     0.000 HD 
HETATM   21  C   UNL     1      -8.604   9.503  65.405  1.00  0.00    -0.173 C  
HETATM   22  C   UNL     1      -8.112   8.514  64.330  1.00  0.00    -0.163 C  
HETATM   23  C   UNL     1      -9.363   7.314  66.863  1.00  0.00    -0.192 C  
HETATM   24  C   UNL     1     -10.686   6.575  67.330  1.00  0.00    -0.412 C  
ENDROOT
BRANCH   4  25
HETATM   25  C   UNL     1      -9.531  12.885  67.720  1.00  0.00    -0.202 C  
HETATM   26  O   UNL     1     -10.568  13.121  68.370  1.00  0.00    -0.239 OA 
BRANCH  25  27
HETATM   27  C   UNL     1      -8.355  13.850  68.000  1.00  0.00    -0.166 C  
BRANCH  27  28
HETATM   28  O   UNL     1      -8.816  15.232  67.961  1.00  0.00    -0.166 OA 
BRANCH  28  29
HETATM   29  C   UNL     1      -8.077  16.102  67.219  1.00  0.00    -0.175 C  
HETATM   30  O   UNL     1      -6.912  15.917  66.896  1.00  0.00    -0.206 OA 
BRANCH  29  31
HETATM   31  C   UNL     1      -8.836  17.366  66.888  1.00  0.00    -0.259 C  
BRANCH  31  32
HETATM   32  C   UNL     1     -10.326  17.141  66.684  1.00  0.00    -0.310 C  
HETATM   33  C   UNL     1     -10.854  17.655  65.366  1.00  0.00     0.104 C  
HETATM   34  O   UNL     1     -10.996  18.990  65.297  1.00  0.00    -0.511 OA 
HETATM   35  O   UNL     1     -11.180  16.912  64.443  1.00  0.00    -1.159 OA 
ENDBRANCH  31  32
ENDBRANCH  29  31
ENDBRANCH  28  29
ENDBRANCH  27  28
ENDBRANCH  25  27
ENDBRANCH   4  25
TORSDOF 6
ENDMDL
MODEL       50
REMARK 921   NORMALIZED FREE ENERGY PREDICTED BY IDOCK:   -5.41 KCAL/MOL
REMARK 922        TOTAL FREE ENERGY PREDICTED BY IDOCK:   -8.04 KCAL/MOL
REMARK 923 INTER-LIGAND FREE ENERGY PREDICTED BY IDOCK:   -7.34 KCAL/MOL
REMARK 924 INTRA-LIGAND FREE ENERGY PREDICTED BY IDOCK:   -0.70 KCAL/MOL
REMARK 927      BINDING AFFINITY PREDICTED BY RF-SCORE:    0.00 PKD
ROOT
HETATM    1  C   UNL     1     -11.253   8.963  68.801  1.00  0.00     0.325 C  
HETATM    2  C   UNL     1     -10.924   8.326  70.021  1.00  0.00    -0.197 C  
HETATM    3  C   UNL     1      -9.901   9.319  69.564  1.00  0.00    -0.188 C  
HETATM    4  C   UNL     1     -10.415  10.610  68.037  1.00  0.00    -0.196 C  
HETATM    5  C   UNL     1      -5.683   6.098  66.682  1.00  0.00    -0.016 C  
HETATM    6  O   UNL     1     -11.768  10.577  67.435  1.00  0.00    -0.476 OA 
HETATM    7  C   UNL     1     -10.552  10.675  69.384  1.00  0.00    -0.270 C  
HETATM    8  C   UNL     1      -8.647  10.917  69.104  1.00  0.00    -0.060 C  
HETATM    9  H   UNL     1     -12.005  11.172  66.732  1.00  0.00     0.000 HD 
HETATM   10  C   UNL     1      -8.505   6.105  66.182  1.00  0.00    -0.137 C  
HETATM   11  O   UNL     1      -5.703   4.679  64.740  1.00  0.00    -0.013 OA 
HETATM   12  C   UNL     1     -11.474  11.452  70.304  1.00  0.00    -0.244 C  
HETATM   13  C   UNL     1      -8.095   9.933  67.724  1.00  0.00    -0.109 C  
HETATM   14  C   UNL     1     -10.002   5.946  66.267  1.00  0.00    -0.107 C  
HETATM   15  O   UNL     1      -8.394  10.729  66.563  1.00  0.00    -0.135 OA 
HETATM   16  C   UNL     1      -6.317   5.231  65.644  1.00  0.00    -0.035 C  
HETATM   17  C   UNL     1      -8.655   8.365  67.472  1.00  0.00    -0.129 C  
HETATM   18  C   UNL     1      -8.013   8.147  64.931  1.00  0.00    -0.145 C  
HETATM   19  C   UNL     1      -7.767   5.038  65.814  1.00  0.00    -0.091 C  
HETATM   20  H   UNL     1      -8.100  10.204  65.828  1.00  0.00     0.000 HD 
HETATM   21  C   UNL     1     -10.301   8.177  67.471  1.00  0.00    -0.330 C  
HETATM   22  C   UNL     1     -10.627   6.670  67.451  1.00  0.00    -0.370 C  
HETATM   23  C   UNL     1      -7.898   7.522  66.336  1.00  0.00    -0.098 C  
HETATM   24  C   UNL     1      -6.360   7.465  66.717  1.00  0.00    -0.045 C  
ENDROOT
BRANCH   4  25
HETATM   25  C   UNL     1     -10.365  12.361  67.854  1.00  0.00    -0.210 C  
HETATM   26  O   UNL     1      -9.374  13.093  68.045  1.00  0.00    -0.205 OA 
BRANCH  25  27
HETATM   27  C   UNL     1     -11.666  13.111  67.481  1.00  0.00    -0.366 C  
BRANCH  27  28
HETATM   28  O   UNL     1     -11.416  14.037  66.383  1.00  0.00    -0.329 OA 
BRANCH  28  29
HETATM   29  C   UNL     1     -12.313  14.024  65.359  1.00  0.00    -0.478 C  
HETATM   30  O   UNL     1     -13.514  14.212  65.489  1.00  0.00    -0.643 OA 
BRANCH  29  31
HETATM   31  C   UNL     1     -11.668  13.681  64.036  1.00  0.00    -0.405 C  
BRANCH  31  32
HETATM   32  C   UNL     1     -11.880  12.235  63.615  1.00  0.00    -0.610 C  
HETATM   33  C   UNL     1     -10.678  11.347  63.826  1.00  0.00    -0.403 C  
HETATM   34  O   UNL     1      -9.688  11.514  62.932  1.00  0.00    -0.372 OA 
HETATM   35  O   UNL     1     -10.624  10.499  64.714  1.00  0.00    -0.253 OA 
ENDBRANCH  31  32
ENDBRANCH  29  31
ENDBRANCH  28  29
ENDBRANCH  27  28
ENDBRANCH  25  27
ENDBRANCH   4  25
TORSDOF 6
ENDMDL
MODEL       51
REMARK 921   NORMALIZED FREE ENERGY PREDICTED BY IDOCK:   -5.40 KCAL/MOL
REMARK 922        TOTAL FREE ENERGY PREDICTED BY IDOCK:   -8.03 KCAL/MOL
REMARK 923 INTER-LIGAND FREE ENERGY PREDICTED BY IDOCK:   -7.97 KCAL/MOL
REMARK 924 INTRA-LIGAND FREE ENERGY PREDICTED BY IDOCK:   -0.07 KCAL/MOL
REMARK 927      BINDING AFFINITY PREDICTED BY RF-SCORE:    0.00 PKD
ROOT
HETATM    1  C   UNL     1     -11.001  13.008  65.587  1.00  0.00    -0.296 C  
HETATM    2  C   UNL     1     -12.025  12.275  66.230  1.00  0.00    -0.307 C  
HETATM    3  C   UNL     1     -10.888  12.639  67.132  1.00  0.00    -0.282 C  
HETATM    4  C   UNL     1      -9.525  14.037  66.460  1.00  0.00    -0.279 C  
HETATM    5  C   UNL     1      -7.282   7.796  67.240  1.00  0.00    -0.090 C  
HETATM    6  O   UNL     1      -9.687  14.685  65.138  1.00  0.00    -0.482 OA 
HETATM    7  C   UNL     1     -10.698  14.142  67.131  1.00  0.00    -0.280 C  
HETATM    8  C   UNL     1      -9.477  13.416  68.453  1.00  0.00    -0.176 C  
HETATM    9  H   UNL     1      -9.060  15.328  64.829  1.00  0.00     0.000 HD 
HETATM   10  C   UNL     1      -8.231   9.202  64.931  1.00  0.00    -0.154 C  
HETATM   11  O   UNL     1      -6.043   6.599  65.561  1.00  0.00    -0.035 OA 
HETATM   12  C   UNL     1     -11.709  15.260  67.298  1.00  0.00    -0.088 C  
HETATM   13  C   UNL     1      -8.316  12.307  67.679  1.00  0.00    -0.166 C  
HETATM   14  C   UNL     1      -9.069   9.802  63.830  1.00  0.00    -0.270 C  
HETATM   15  O   UNL     1      -7.284  13.163  67.157  1.00  0.00    -0.348 OA 
HETATM   16  C   UNL     1      -6.950   7.370  65.847  1.00  0.00    -0.061 C  
HETATM   17  C   UNL     1      -8.788  11.223  66.479  1.00  0.00    -0.180 C  
HETATM   18  C   UNL     1      -6.414  10.753  65.451  1.00  0.00     0.027 C  
HETATM   19  C   UNL     1      -7.846   7.916  64.813  1.00  0.00    -0.125 C  
HETATM   20  H   UNL     1      -6.665  12.571  66.744  1.00  0.00     0.000 HD 
HETATM   21  C   UNL     1      -9.635  11.873  65.211  1.00  0.00    -0.156 C  
HETATM   22  C   UNL     1     -10.171  10.724  64.334  1.00  0.00    -0.432 C  
HETATM   23  C   UNL     1      -7.694  10.133  66.047  1.00  0.00    -0.120 C  
HETATM   24  C   UNL     1      -7.281   9.318  67.343  1.00  0.00    -0.080 C  
ENDROOT
BRANCH   4  25
HETATM   25  C   UNL     1      -8.889  15.537  67.128  1.00  0.00    -0.212 C  
HETATM   26  O   UNL     1      -8.700  15.783  68.336  1.00  0.00    -0.168 OA 
BRANCH  25  27
HETATM   27  C   UNL     1      -8.580  16.711  66.169  1.00  0.00    -0.289 C  
BRANCH  27  28
HETATM   28  O   UNL     1      -9.782  17.502  65.937  1.00  0.00    -0.513 OA 
BRANCH  28  29
HETATM   29  C   UNL     1      -9.754  18.794  66.364  1.00  0.00    -0.353 C  
HETATM   30  O   UNL     1     -10.698  19.567  66.291  1.00  0.00    -0.453 OA 
BRANCH  29  31
HETATM   31  C   UNL     1      -8.394  19.198  66.884  1.00  0.00    -0.300 C  
BRANCH  31  32
HETATM   32  C   UNL     1      -8.398  19.587  68.355  1.00  0.00    -0.384 C  
HETATM   33  C   UNL     1      -7.049  19.486  69.025  1.00  0.00    -0.364 C  
HETATM   34  O   UNL     1      -6.650  18.234  69.307  1.00  0.00    -0.256 OA 
HETATM   35  O   UNL     1      -6.385  20.472  69.338  1.00  0.00    -0.295 OA 
ENDBRANCH  31  32
ENDBRANCH  29  31
ENDBRANCH  28  29
ENDBRANCH  27  28
ENDBRANCH  25  27
ENDBRANCH   4  25
TORSDOF 6
ENDMDL
MODEL       52
REMARK 921   NORMALIZED FREE ENERGY PREDICTED BY IDOCK:   -5.38 KCAL/MOL
REMARK 922        TOTAL FREE ENERGY PREDICTED BY IDOCK:   -8.00 KCAL/MOL
REMARK 923 INTER-LIGAND FREE ENERGY PREDICTED BY IDOCK:   -7.56 KCAL/MOL
REMARK 924 INTRA-LIGAND FREE ENERGY PREDICTED BY IDOCK:   -0.43 KCAL/MOL
REMARK 927      BINDING AFFINITY PREDICTED BY RF-SCORE:    0.00 PKD
ROOT
HETATM    1  C   UNL     1     -12.179   7.768  72.258  1.00  0.00    -0.298 C  
HETATM    2  C   UNL     1     -13.370   7.321  71.639  1.00  0.00    -0.421 C  
HETATM    3  C   UNL     1     -12.124   6.782  71.009  1.00  0.00    -0.426 C  
HETATM    4  C   UNL     1     -10.344   7.010  72.029  1.00  0.00    -0.198 C  
HETATM    5  C   UNL     1     -10.978  10.399  66.311  1.00  0.00     0.076 C  
HETATM    6  O   UNL     1     -10.306   7.658  73.360  1.00  0.00    -0.341 OA 
HETATM    7  C   UNL     1     -11.301   6.051  72.052  1.00  0.00    -0.345 C  
HETATM    8  C   UNL     1     -10.423   5.782  70.342  1.00  0.00    -0.342 C  
HETATM    9  H   UNL     1      -9.486   7.763  73.830  1.00  0.00     0.000 HD 
HETATM   10  C   UNL     1     -11.392  11.174  69.039  1.00  0.00    -0.343 C  
HETATM   11  O   UNL     1     -10.509  12.748  66.088  1.00  0.00    -0.259 OA 
HETATM   12  C   UNL     1     -11.712   5.008  73.073  1.00  0.00    -0.229 C  
HETATM   13  C   UNL     1      -9.918   7.346  69.654  1.00  0.00    -0.182 C  
HETATM   14  C   UNL     1     -11.966  11.458  70.404  1.00  0.00    -0.465 C  
HETATM   15  O   UNL     1      -8.658   7.637  70.286  1.00  0.00    -0.139 OA 
HETATM   16  C   UNL     1     -10.968  11.827  66.751  1.00  0.00    -0.288 C  
HETATM   17  C   UNL     1     -10.901   8.712  69.738  1.00  0.00    -0.185 C  
HETATM   18  C   UNL     1      -9.049  10.528  69.304  1.00  0.00    -0.161 C  
HETATM   19  C   UNL     1     -11.612  12.068  68.053  1.00  0.00    -0.407 C  
HETATM   20  H   UNL     1      -8.390   8.471  69.919  1.00  0.00     0.000 HD 
HETATM   21  C   UNL     1     -11.473   9.098  71.244  1.00  0.00    -0.405 C  
HETATM   22  C   UNL     1     -12.518  10.223  71.103  1.00  0.00    -0.495 C  
HETATM   23  C   UNL     1     -10.423   9.976  68.874  1.00  0.00    -0.229 C  
HETATM   24  C   UNL     1     -10.309   9.516  67.361  1.00  0.00    -0.319 C  
ENDROOT
BRANCH   4  25
HETATM   25  C   UNL     1      -9.072   5.896  72.525  1.00  0.00    -0.135 C  
HETATM   26  O   UNL     1      -8.367   5.201  71.768  1.00  0.00    -0.114 OA 
BRANCH  25  27
HETATM   27  C   UNL     1      -8.812   5.682  74.035  1.00  0.00    -0.119 C  
BRANCH  27  28
HETATM   28  O   UNL     1      -7.703   6.517  74.479  1.00  0.00    -0.098 OA 
BRANCH  28  29
HETATM   29  C   UNL     1      -6.458   5.973  74.392  1.00  0.00    -0.075 C  
HETATM   30  O   UNL     1      -6.225   4.773  74.400  1.00  0.00    -0.048 OA 
BRANCH  29  31
HETATM   31  C   UNL     1      -5.374   7.026  74.350  1.00  0.00    -0.050 C  
BRANCH  31  32
HETATM   32  C   UNL     1      -5.911   8.444  74.237  1.00  0.00    -0.117 C  
HETATM   33  C   UNL     1      -6.354   8.830  72.847  1.00  0.00    -0.005 C  
HETATM   34  O   UNL     1      -5.355   9.087  71.986  1.00  0.00    -0.047 OA 
HETATM   35  O   UNL     1      -7.537   8.951  72.534  1.00  0.00    -0.356 OA 
ENDBRANCH  31  32
ENDBRANCH  29  31
ENDBRANCH  28  29
ENDBRANCH  27  28
ENDBRANCH  25  27
ENDBRANCH   4  25
TORSDOF 6
ENDMDL
MODEL       53
REMARK 921   NORMALIZED FREE ENERGY PREDICTED BY IDOCK:   -5.37 KCAL/MOL
REMARK 922        TOTAL FREE ENERGY PREDICTED BY IDOCK:   -7.98 KCAL/MOL
REMARK 923 INTER-LIGAND FREE ENERGY PREDICTED BY IDOCK:   -8.50 KCAL/MOL
REMARK 924 INTRA-LIGAND FREE ENERGY PREDICTED BY IDOCK:    0.52 KCAL/MOL
REMARK 927      BINDING AFFINITY PREDICTED BY RF-SCORE:    0.00 PKD
ROOT
HETATM    1  C   UNL     1     -10.744  11.872  65.645  1.00  0.00    -0.325 C  
HETATM    2  C   UNL     1      -9.677  11.645  64.744  1.00  0.00    -0.217 C  
HETATM    3  C   UNL     1      -9.249  11.731  66.176  1.00  0.00    -0.218 C  
HETATM    4  C   UNL     1     -10.709  11.654  67.632  1.00  0.00    -0.207 C  
HETATM    5  C   UNL     1      -7.419  17.429  66.985  1.00  0.00    -0.229 C  
HETATM    6  O   UNL     1     -12.136  11.485  67.272  1.00  0.00    -0.548 OA 
HETATM    7  C   UNL     1      -9.995  10.696  66.994  1.00  0.00    -0.243 C  
HETATM    8  C   UNL     1      -8.697  11.527  68.173  1.00  0.00    -0.157 C  
HETATM    9  H   UNL     1     -12.809  11.450  67.943  1.00  0.00     0.000 HD 
HETATM   10  C   UNL     1      -9.937  16.546  65.940  1.00  0.00    -0.342 C  
HETATM   11  O   UNL     1      -8.498  19.571  66.800  1.00  0.00    -0.281 OA 
HETATM   12  C   UNL     1     -10.223   9.219  66.738  1.00  0.00    -0.325 C  
HETATM   13  C   UNL     1      -9.022  13.273  68.318  1.00  0.00    -0.176 C  
HETATM   14  C   UNL     1     -11.043  15.959  65.100  1.00  0.00    -0.319 C  
HETATM   15  O   UNL     1     -10.043  13.374  69.327  1.00  0.00    -0.405 OA 
HETATM   16  C   UNL     1      -8.474  18.379  66.521  1.00  0.00    -0.270 C  
HETATM   17  C   UNL     1      -9.471  14.206  66.989  1.00  0.00    -0.256 C  
HETATM   18  C   UNL     1     -10.510  16.237  68.297  1.00  0.00    -0.284 C  
HETATM   19  C   UNL     1      -9.487  17.780  65.636  1.00  0.00     0.460 C  
HETATM   20  H   UNL     1     -10.217  14.305  69.404  1.00  0.00     0.000 HD 
HETATM   21  C   UNL     1     -10.744  13.629  66.099  1.00  0.00    -0.286 C  
HETATM   22  C   UNL     1     -10.872  14.473  64.815  1.00  0.00    -0.410 C  
HETATM   23  C   UNL     1      -9.498  15.793  67.221  1.00  0.00    -0.217 C  
HETATM   24  C   UNL     1      -8.054  16.240  67.700  1.00  0.00    -0.161 C  
ENDROOT
BRANCH   4  25
HETATM   25  C   UNL     1     -10.945  10.666  69.071  1.00  0.00    -0.248 C  
HETATM   26  O   UNL     1     -10.160   9.801  69.506  1.00  0.00    -0.190 OA 
BRANCH  25  27
HETATM   27  C   UNL     1     -12.264  10.806  69.867  1.00  0.00    -0.313 C  
BRANCH  27  28
HETATM   28  O   UNL     1     -12.106  10.255  71.207  1.00  0.00    -0.355 OA 
BRANCH  28  29
HETATM   29  C   UNL     1     -12.923   9.219  71.542  1.00  0.00    -0.359 C  
HETATM   30  O   UNL     1     -14.027   9.024  71.052  1.00  0.00    -0.171 OA 
BRANCH  29  31
HETATM   31  C   UNL     1     -12.344   8.363  72.644  1.00  0.00    -0.278 C  
BRANCH  31  32
HETATM   32  C   UNL     1     -11.021   7.712  72.274  1.00  0.00    -0.328 C  
HETATM   33  C   UNL     1     -11.117   6.232  71.994  1.00  0.00    -0.268 C  
HETATM   34  O   UNL     1     -11.249   5.458  73.084  1.00  0.00    -0.296 OA 
HETATM   35  O   UNL     1     -11.030   5.761  70.861  1.00  0.00    -0.276 OA 
ENDBRANCH  31  32
ENDBRANCH  29  31
ENDBRANCH  28  29
ENDBRANCH  27  28
ENDBRANCH  25  27
ENDBRANCH   4  25
TORSDOF 6
ENDMDL
MODEL       54
REMARK 921   NORMALIZED FREE ENERGY PREDICTED BY IDOCK:   -5.34 KCAL/MOL
REMARK 922        TOTAL FREE ENERGY PREDICTED BY IDOCK:   -7.95 KCAL/MOL
REMARK 923 INTER-LIGAND FREE ENERGY PREDICTED BY IDOCK:   -7.51 KCAL/MOL
REMARK 924 INTRA-LIGAND FREE ENERGY PREDICTED BY IDOCK:   -0.44 KCAL/MOL
REMARK 927      BINDING AFFINITY PREDICTED BY RF-SCORE:    0.00 PKD
ROOT
HETATM    1  C   UNL     1     -10.525   5.090  69.979  1.00  0.00    -0.226 C  
HETATM    2  C   UNL     1      -9.633   4.045  70.317  1.00  0.00    -0.271 C  
HETATM    3  C   UNL     1      -9.084   5.414  70.575  1.00  0.00    -0.171 C  
HETATM    4  C   UNL     1     -10.392   7.010  70.517  1.00  0.00    -0.201 C  
HETATM    5  C   UNL     1      -5.745   6.767  65.728  1.00  0.00    -0.030 C  
HETATM    6  O   UNL     1     -11.836   6.803  70.262  1.00  0.00    -0.514 OA 
HETATM    7  C   UNL     1     -10.012   6.167  71.507  1.00  0.00    -0.211 C  
HETATM    8  C   UNL     1      -8.450   7.285  71.232  1.00  0.00    -0.115 C  
HETATM    9  H   UNL     1     -12.438   7.538  70.235  1.00  0.00     0.000 HD 
HETATM   10  C   UNL     1      -8.482   5.919  65.769  1.00  0.00    -0.148 C  
HETATM   11  O   UNL     1      -6.225   7.005  63.384  1.00  0.00    -0.042 OA 
HETATM   12  C   UNL     1     -10.645   5.741  72.818  1.00  0.00    -0.262 C  
HETATM   13  C   UNL     1      -8.285   7.704  69.508  1.00  0.00    -0.129 C  
HETATM   14  C   UNL     1      -9.768   5.144  65.915  1.00  0.00    -0.159 C  
HETATM   15  O   UNL     1      -9.159   8.831  69.319  1.00  0.00    -0.143 OA 
HETATM   16  C   UNL     1      -6.541   6.565  64.481  1.00  0.00    -0.038 C  
HETATM   17  C   UNL     1      -8.574   6.577  68.289  1.00  0.00    -0.115 C  
HETATM   18  C   UNL     1      -8.927   8.263  66.302  1.00  0.00    -0.221 C  
HETATM   19  C   UNL     1      -7.745   5.734  64.655  1.00  0.00    -0.098 C  
HETATM   20  H   UNL     1      -9.072   9.054  68.399  1.00  0.00     0.000 HD 
HETATM   21  C   UNL     1     -10.021   5.775  68.375  1.00  0.00    -0.193 C  
HETATM   22  C   UNL     1     -10.021   4.642  67.329  1.00  0.00    -0.203 C  
HETATM   23  C   UNL     1      -8.159   7.024  66.805  1.00  0.00    -0.109 C  
HETATM   24  C   UNL     1      -6.615   7.384  66.820  1.00  0.00    -0.057 C  
ENDROOT
BRANCH   4  25
HETATM   25  C   UNL     1     -10.767   8.319  71.635  1.00  0.00    -0.256 C  
HETATM   26  O   UNL     1      -9.947   8.956  72.324  1.00  0.00    -0.292 OA 
BRANCH  25  27
HETATM   27  C   UNL     1     -12.247   8.707  71.862  1.00  0.00    -0.355 C  
BRANCH  27  28
HETATM   28  O   UNL     1     -12.701   9.604  70.807  1.00  0.00    -0.237 OA 
BRANCH  28  29
HETATM   29  C   UNL     1     -12.616  10.938  71.062  1.00  0.00    -0.417 C  
HETATM   30  O   UNL     1     -13.054  11.479  72.067  1.00  0.00    -0.486 OA 
BRANCH  29  31
HETATM   31  C   UNL     1     -11.975  11.701  69.925  1.00  0.00    -0.414 C  
BRANCH  31  32
HETATM   32  C   UNL     1     -11.786  10.868  68.667  1.00  0.00    -0.334 C  
HETATM   33  C   UNL     1     -11.246  11.641  67.488  1.00  0.00    -0.293 C  
HETATM   34  O   UNL     1     -12.139  12.442  66.883  1.00  0.00    -0.564 OA 
HETATM   35  O   UNL     1     -10.095  11.512  67.077  1.00  0.00    -0.204 OA 
ENDBRANCH  31  32
ENDBRANCH  29  31
ENDBRANCH  28  29
ENDBRANCH  27  28
ENDBRANCH  25  27
ENDBRANCH   4  25
TORSDOF 6
ENDMDL
MODEL       55
REMARK 921   NORMALIZED FREE ENERGY PREDICTED BY IDOCK:   -5.31 KCAL/MOL
REMARK 922        TOTAL FREE ENERGY PREDICTED BY IDOCK:   -7.90 KCAL/MOL
REMARK 923 INTER-LIGAND FREE ENERGY PREDICTED BY IDOCK:   -8.51 KCAL/MOL
REMARK 924 INTRA-LIGAND FREE ENERGY PREDICTED BY IDOCK:    0.60 KCAL/MOL
REMARK 927      BINDING AFFINITY PREDICTED BY RF-SCORE:    0.00 PKD
ROOT
HETATM    1  C   UNL     1      -7.703  10.118  68.859  1.00  0.00    -0.093 C  
HETATM    2  C   UNL     1      -6.999   9.077  68.208  1.00  0.00    -0.076 C  
HETATM    3  C   UNL     1      -8.474   9.064  67.948  1.00  0.00    -0.121 C  
HETATM    4  C   UNL     1      -9.569  10.728  68.485  1.00  0.00    -0.183 C  
HETATM    5  C   UNL     1     -10.785   5.111  71.885  1.00  0.00    -0.219 C  
HETATM    6  O   UNL     1      -8.911  11.914  69.080  1.00  0.00    -0.353 OA 
HETATM    7  C   UNL     1      -8.898  10.393  67.357  1.00  0.00    -0.133 C  
HETATM    8  C   UNL     1     -10.454   9.234  67.327  1.00  0.00    -0.334 C  
HETATM    9  H   UNL     1      -9.416  12.681  69.328  1.00  0.00     0.000 HD 
HETATM   10  C   UNL     1      -9.110   7.363  72.466  1.00  0.00    -0.175 C  
HETATM   11  O   UNL     1     -10.841   4.986  74.286  1.00  0.00    -0.320 OA 
HETATM   12  C   UNL     1      -8.303  11.197  66.218  1.00  0.00    -0.163 C  
HETATM   13  C   UNL     1     -10.891   8.743  68.984  1.00  0.00    -0.027 C  
HETATM   14  C   UNL     1      -7.967   8.340  72.582  1.00  0.00    -0.193 C  
HETATM   15  O   UNL     1     -11.680   9.833  69.493  1.00  0.00    -0.453 OA 
HETATM   16  C   UNL     1     -10.331   5.439  73.270  1.00  0.00    -0.206 C  
HETATM   17  C   UNL     1      -9.723   8.332  70.125  1.00  0.00    -0.176 C  
HETATM   18  C   UNL     1     -11.194   8.628  72.284  1.00  0.00    -0.399 C  
HETATM   19  C   UNL     1      -9.161   6.331  73.333  1.00  0.00    -0.136 C  
HETATM   20  H   UNL     1     -11.913   9.571  70.377  1.00  0.00     0.000 HD 
HETATM   21  C   UNL     1      -8.501   9.431  70.337  1.00  0.00    -0.247 C  
HETATM   22  C   UNL     1      -7.420   8.803  71.238  1.00  0.00    -0.127 C  
HETATM   23  C   UNL     1     -10.268   7.686  71.489  1.00  0.00    -0.212 C  
HETATM   24  C   UNL     1     -11.101   6.390  71.114  1.00  0.00    -0.344 C  
ENDROOT
BRANCH   4  25
HETATM   25  C   UNL     1     -10.699  11.773  67.627  1.00  0.00    -0.214 C  
HETATM   26  O   UNL     1     -11.872  11.491  67.318  1.00  0.00    -0.609 OA 
BRANCH  25  27
HETATM   27  C   UNL     1     -10.211  13.157  67.136  1.00  0.00    -0.244 C  
BRANCH  27  28
HETATM   28  O   UNL     1     -11.322  14.101  67.106  1.00  0.00    -0.305 OA 
BRANCH  28  29
HETATM   29  C   UNL     1     -11.190  15.222  67.868  1.00  0.00    -0.331 C  
HETATM   30  O   UNL     1     -11.901  15.496  68.824  1.00  0.00    -0.356 OA 
BRANCH  29  31
HETATM   31  C   UNL     1     -10.099  16.137  67.359  1.00  0.00    -0.257 C  
BRANCH  31  32
HETATM   32  C   UNL     1     -10.561  17.075  66.256  1.00  0.00    -0.185 C  
HETATM   33  C   UNL     1     -10.221  18.526  66.495  1.00  0.00    -0.410 C  
HETATM   34  O   UNL     1     -10.989  19.143  67.408  1.00  0.00    -0.475 OA 
HETATM   35  O   UNL     1      -9.343  19.117  65.868  1.00  0.00    -0.433 OA 
ENDBRANCH  31  32
ENDBRANCH  29  31
ENDBRANCH  28  29
ENDBRANCH  27  28
ENDBRANCH  25  27
ENDBRANCH   4  25
TORSDOF 6
ENDMDL
MODEL       56
REMARK 921   NORMALIZED FREE ENERGY PREDICTED BY IDOCK:   -5.23 KCAL/MOL
REMARK 922        TOTAL FREE ENERGY PREDICTED BY IDOCK:   -7.80 KCAL/MOL
REMARK 923 INTER-LIGAND FREE ENERGY PREDICTED BY IDOCK:   -7.18 KCAL/MOL
REMARK 924 INTRA-LIGAND FREE ENERGY PREDICTED BY IDOCK:   -0.62 KCAL/MOL
REMARK 927      BINDING AFFINITY PREDICTED BY RF-SCORE:    0.00 PKD
ROOT
HETATM    1  C   UNL     1     -12.582   8.273  72.191  1.00  0.00    -0.379 C  
HETATM    2  C   UNL     1     -13.828   7.957  71.601  1.00  0.00    -0.453 C  
HETATM    3  C   UNL     1     -12.649   7.459  70.824  1.00  0.00    -0.097 C  
HETATM    4  C   UNL     1     -10.800   7.484  71.743  1.00  0.00    -0.227 C  
HETATM    5  C   UNL     1     -11.634  11.619  66.566  1.00  0.00    -0.166 C  
HETATM    6  O   UNL     1     -10.651   7.950  73.141  1.00  0.00    -0.359 OA 
HETATM    7  C   UNL     1     -11.798   6.568  71.706  1.00  0.00    -0.384 C  
HETATM    8  C   UNL     1     -11.040   6.494  69.921  1.00  0.00    -0.430 C  
HETATM    9  H   UNL     1      -9.799   7.961  73.564  1.00  0.00     0.000 HD 
HETATM   10  C   UNL     1     -11.841  12.042  69.393  1.00  0.00    -0.384 C  
HETATM   11  O   UNL     1     -11.073  13.958  66.617  1.00  0.00    -0.299 OA 
HETATM   12  C   UNL     1     -12.191   5.415  72.609  1.00  0.00     0.129 C  
HETATM   13  C   UNL     1     -10.508   8.115  69.407  1.00  0.00    -0.220 C  
HETATM   14  C   UNL     1     -12.316  12.165  70.819  1.00  0.00    -0.391 C  
HETATM   15  O   UNL     1      -9.200   8.273  69.985  1.00  0.00    -0.150 OA 
HETATM   16  C   UNL     1     -11.532  12.975  67.185  1.00  0.00    -0.331 C  
HETATM   17  C   UNL     1     -11.420   9.494  69.733  1.00  0.00    -0.048 C  
HETATM   18  C   UNL     1      -9.518  11.280  69.413  1.00  0.00     0.327 C  
HETATM   19  C   UNL     1     -12.082  13.066  68.548  1.00  0.00    -0.185 C  
HETATM   20  H   UNL     1      -8.917   9.138  69.711  1.00  0.00     0.000 HD 
HETATM   21  C   UNL     1     -11.880   9.698  71.312  1.00  0.00    -0.460 C  
HETATM   22  C   UNL     1     -12.879  10.870  71.389  1.00  0.00    -0.554 C  
HETATM   23  C   UNL     1     -10.941  10.842  69.009  1.00  0.00    -0.285 C  
HETATM   24  C   UNL     1     -10.942  10.581  67.445  1.00  0.00    -0.352 C  
ENDROOT
BRANCH   4  25
HETATM   25  C   UNL     1      -9.552   6.269  72.003  1.00  0.00    -0.151 C  
HETATM   26  O   UNL     1      -9.552   5.106  71.554  1.00  0.00    -0.147 OA 
BRANCH  25  27
HETATM   27  C   UNL     1      -8.355   6.611  72.921  1.00  0.00    -0.118 C  
BRANCH  27  28
HETATM   28  O   UNL     1      -7.981   8.011  72.760  1.00  0.00    -0.125 OA 
BRANCH  28  29
HETATM   29  C   UNL     1      -6.679   8.326  73.005  1.00  0.00    -0.099 C  
HETATM   30  O   UNL     1      -6.294   8.974  73.967  1.00  0.00    -0.304 OA 
BRANCH  29  31
HETATM   31  C   UNL     1      -5.755   7.842  71.911  1.00  0.00    -0.035 C  
BRANCH  31  32
HETATM   32  C   UNL     1      -5.127   8.968  71.105  1.00  0.00    -0.029 C  
HETATM   33  C   UNL     1      -6.122   9.830  70.367  1.00  0.00    -0.075 C  
HETATM   34  O   UNL     1      -6.648   9.269  69.265  1.00  0.00    -0.047 OA 
HETATM   35  O   UNL     1      -6.396  10.978  70.713  1.00  0.00    -0.349 OA 
ENDBRANCH  31  32
ENDBRANCH  29  31
ENDBRANCH  28  29
ENDBRANCH  27  28
ENDBRANCH  25  27
ENDBRANCH   4  25
TORSDOF 6
ENDMDL
MODEL       57
REMARK 921   NORMALIZED FREE ENERGY PREDICTED BY IDOCK:   -5.21 KCAL/MOL
REMARK 922        TOTAL FREE ENERGY PREDICTED BY IDOCK:   -7.77 KCAL/MOL
REMARK 923 INTER-LIGAND FREE ENERGY PREDICTED BY IDOCK:   -8.67 KCAL/MOL
REMARK 924 INTRA-LIGAND FREE ENERGY PREDICTED BY IDOCK:    0.89 KCAL/MOL
REMARK 927      BINDING AFFINITY PREDICTED BY RF-SCORE:    0.00 PKD
ROOT
HETATM    1  C   UNL     1     -11.772  12.089  68.144  1.00  0.00    -0.398 C  
HETATM    2  C   UNL     1     -11.224  12.175  69.445  1.00  0.00    -0.248 C  
HETATM    3  C   UNL     1     -10.366  12.797  68.388  1.00  0.00    -0.248 C  
HETATM    4  C   UNL     1     -11.197  13.111  66.525  1.00  0.00    -0.310 C  
HETATM    5  C   UNL     1      -6.304   8.583  66.903  1.00  0.00    -0.056 C  
HETATM    6  O   UNL     1     -12.610  12.762  66.251  1.00  0.00    -0.375 OA 
HETATM    7  C   UNL     1     -11.156  13.861  67.652  1.00  0.00    -0.295 C  
HETATM    8  C   UNL     1      -9.336  13.938  66.984  1.00  0.00    -0.255 C  
HETATM    9  H   UNL     1     -12.992  12.907  65.393  1.00  0.00     0.000 HD 
HETATM   10  C   UNL     1      -9.156   8.310  66.935  1.00  0.00    -0.181 C  
HETATM   11  O   UNL     1      -6.458   6.365  65.984  1.00  0.00    -0.040 OA 
HETATM   12  C   UNL     1     -12.011  14.994  68.185  1.00  0.00    -0.195 C  
HETATM   13  C   UNL     1      -8.889  12.388  66.227  1.00  0.00     0.027 C  
HETATM   14  C   UNL     1     -10.608   8.206  67.330  1.00  0.00    -0.344 C  
HETATM   15  O   UNL     1      -9.412  12.468  64.889  1.00  0.00    -0.456 OA 
HETATM   16  C   UNL     1      -6.991   7.300  66.568  1.00  0.00    -0.073 C  
HETATM   17  C   UNL     1      -9.334  10.910  66.901  1.00  0.00    -0.186 C  
HETATM   18  C   UNL     1      -9.024   9.417  64.759  1.00  0.00    -0.241 C  
HETATM   19  C   UNL     1      -8.382   7.211  67.045  1.00  0.00    -0.118 C  
HETATM   20  H   UNL     1      -9.174  11.641  64.486  1.00  0.00     0.000 HD 
HETATM   21  C   UNL     1     -10.941  10.736  67.263  1.00  0.00    -0.359 C  
HETATM   22  C   UNL     1     -11.130   9.433  68.065  1.00  0.00    -0.004 C  
HETATM   23  C   UNL     1      -8.664   9.607  66.246  1.00  0.00    -0.156 C  
HETATM   24  C   UNL     1      -7.090   9.767  66.347  1.00  0.00    -0.094 C  
ENDROOT
BRANCH   4  25
HETATM   25  C   UNL     1     -11.330  14.516  65.471  1.00  0.00    -0.335 C  
HETATM   26  O   UNL     1     -12.241  14.737  64.650  1.00  0.00    -0.442 OA 
BRANCH  25  27
HETATM   27  C   UNL     1     -10.199  15.573  65.487  1.00  0.00    -0.386 C  
BRANCH  27  28
HETATM   28  O   UNL     1     -10.732  16.886  65.145  1.00  0.00    -0.663 OA 
BRANCH  28  29
HETATM   29  C   UNL     1     -10.165  17.956  65.767  1.00  0.00    -0.129 C  
HETATM   30  O   UNL     1     -10.449  19.122  65.534  1.00  0.00    -0.521 OA 
BRANCH  29  31
HETATM   31  C   UNL     1      -9.085  17.547  66.742  1.00  0.00    -0.276 C  
BRANCH  31  32
HETATM   32  C   UNL     1      -9.520  17.623  68.197  1.00  0.00    -0.286 C  
HETATM   33  C   UNL     1      -9.359  18.989  68.820  1.00  0.00    -0.357 C  
HETATM   34  O   UNL     1      -8.095  19.322  69.130  1.00  0.00    -0.295 OA 
HETATM   35  O   UNL     1     -10.313  19.722  69.074  1.00  0.00    -0.368 OA 
ENDBRANCH  31  32
ENDBRANCH  29  31
ENDBRANCH  28  29
ENDBRANCH  27  28
ENDBRANCH  25  27
ENDBRANCH   4  25
TORSDOF 6
ENDMDL
MODEL       58
REMARK 921   NORMALIZED FREE ENERGY PREDICTED BY IDOCK:   -5.18 KCAL/MOL
REMARK 922        TOTAL FREE ENERGY PREDICTED BY IDOCK:   -7.73 KCAL/MOL
REMARK 923 INTER-LIGAND FREE ENERGY PREDICTED BY IDOCK:   -8.69 KCAL/MOL
REMARK 924 INTRA-LIGAND FREE ENERGY PREDICTED BY IDOCK:    0.96 KCAL/MOL
REMARK 927      BINDING AFFINITY PREDICTED BY RF-SCORE:    0.00 PKD
ROOT
HETATM    1  C   UNL     1      -8.606   8.422  66.981  1.00  0.00    -0.124 C  
HETATM    2  C   UNL     1      -9.496   7.624  66.225  1.00  0.00    -0.176 C  
HETATM    3  C   UNL     1     -10.168   8.734  66.972  1.00  0.00    -0.351 C  
HETATM    4  C   UNL     1      -8.980  10.214  67.785  1.00  0.00    -0.128 C  
HETATM    5  C   UNL     1     -12.206   6.256  72.088  1.00  0.00    -0.255 C  
HETATM    6  O   UNL     1      -7.510  10.195  67.606  1.00  0.00    -0.089 OA 
HETATM    7  C   UNL     1      -9.557  10.061  66.569  1.00  0.00    -0.237 C  
HETATM    8  C   UNL     1     -11.053  10.456  67.740  1.00  0.00    -0.365 C  
HETATM    9  H   UNL     1      -6.963  10.876  67.980  1.00  0.00     0.000 HD 
HETATM   10  C   UNL     1      -9.531   6.173  71.064  1.00  0.00    -0.187 C  
HETATM   11  O   UNL     1     -11.148   5.157  73.948  1.00  0.00    -0.265 OA 
HETATM   12  C   UNL     1      -9.263  10.630  65.194  1.00  0.00    -0.241 C  
HETATM   13  C   UNL     1     -10.787   9.733  69.347  1.00  0.00    -0.232 C  
HETATM   14  C   UNL     1      -8.286   5.915  70.253  1.00  0.00    -0.114 C  
HETATM   15  O   UNL     1      -9.958  10.680  70.043  1.00  0.00    -0.411 OA 
HETATM   16  C   UNL     1     -11.103   5.525  72.781  1.00  0.00    -0.291 C  
HETATM   17  C   UNL     1     -10.131   8.192  69.530  1.00  0.00    -0.193 C  
HETATM   18  C   UNL     1      -9.369   8.411  72.037  1.00  0.00    -0.332 C  
HETATM   19  C   UNL     1      -9.942   5.222  71.927  1.00  0.00    -0.240 C  
HETATM   20  H   UNL     1      -9.816  10.295  70.900  1.00  0.00     0.000 HD 
HETATM   21  C   UNL     1      -8.714   7.910  68.719  1.00  0.00    -0.128 C  
HETATM   22  C   UNL     1      -8.380   6.408  68.816  1.00  0.00    -0.121 C  
HETATM   23  C   UNL     1     -10.171   7.583  71.013  1.00  0.00    -0.194 C  
HETATM   24  C   UNL     1     -11.684   7.559  71.489  1.00  0.00    -0.309 C  
ENDROOT
BRANCH   4  25
HETATM   25  C   UNL     1      -8.980  11.972  67.679  1.00  0.00    -0.172 C  
HETATM   26  O   UNL     1      -7.977  12.711  67.703  1.00  0.00    -0.144 OA 
BRANCH  25  27
HETATM   27  C   UNL     1     -10.335  12.717  67.613  1.00  0.00    -0.221 C  
BRANCH  27  28
HETATM   28  O   UNL     1     -10.128  14.153  67.759  1.00  0.00    -0.233 OA 
BRANCH  28  29
HETATM   29  C   UNL     1     -10.805  14.958  66.895  1.00  0.00    -0.319 C  
HETATM   30  O   UNL     1     -11.598  15.824  67.235  1.00  0.00    -0.067 OA 
BRANCH  29  31
HETATM   31  C   UNL     1     -10.520  14.618  65.450  1.00  0.00    -0.400 C  
BRANCH  31  32
HETATM   32  C   UNL     1     -11.768  14.565  64.583  1.00  0.00    -0.438 C  
HETATM   33  C   UNL     1     -12.255  13.168  64.286  1.00  0.00    -0.396 C  
HETATM   34  O   UNL     1     -11.531  12.500  63.371  1.00  0.00    -0.472 OA 
HETATM   35  O   UNL     1     -13.266  12.691  64.798  1.00  0.00    -0.846 OA 
ENDBRANCH  31  32
ENDBRANCH  29  31
ENDBRANCH  28  29
ENDBRANCH  27  28
ENDBRANCH  25  27
ENDBRANCH   4  25
TORSDOF 6
ENDMDL
MODEL       59
REMARK 921   NORMALIZED FREE ENERGY PREDICTED BY IDOCK:   -5.16 KCAL/MOL
REMARK 922        TOTAL FREE ENERGY PREDICTED BY IDOCK:   -7.70 KCAL/MOL
REMARK 923 INTER-LIGAND FREE ENERGY PREDICTED BY IDOCK:   -8.89 KCAL/MOL
REMARK 924 INTRA-LIGAND FREE ENERGY PREDICTED BY IDOCK:    1.19 KCAL/MOL
REMARK 927      BINDING AFFINITY PREDICTED BY RF-SCORE:    0.00 PKD
ROOT
HETATM    1  C   UNL     1      -7.942  13.410  67.410  1.00  0.00    -0.170 C  
HETATM    2  C   UNL     1      -7.174  13.576  68.587  1.00  0.00    -0.107 C  
HETATM    3  C   UNL     1      -8.651  13.673  68.812  1.00  0.00     0.063 C  
HETATM    4  C   UNL     1      -9.906  13.059  67.292  1.00  0.00    -0.227 C  
HETATM    5  C   UNL     1      -9.923  19.576  68.748  1.00  0.00    -0.547 C  
HETATM    6  O   UNL     1      -9.362  12.508  66.030  1.00  0.00    -0.378 OA 
HETATM    7  C   UNL     1      -9.324  12.405  68.326  1.00  0.00    -0.199 C  
HETATM    8  C   UNL     1     -10.692  13.485  69.179  1.00  0.00    -0.118 C  
HETATM    9  H   UNL     1      -9.940  12.225  65.330  1.00  0.00     0.000 HD 
HETATM   10  C   UNL     1      -8.532  18.078  66.740  1.00  0.00    -0.274 C  
HETATM   11  O   UNL     1      -9.693  21.315  67.102  1.00  0.00    -0.158 OA 
HETATM   12  C   UNL     1      -8.980  10.950  68.581  1.00  0.00    -0.162 C  
HETATM   13  C   UNL     1     -10.868  15.042  68.331  1.00  0.00    -0.256 C  
HETATM   14  C   UNL     1      -7.534  17.260  65.959  1.00  0.00    -0.232 C  
HETATM   15  O   UNL     1     -11.742  14.761  67.224  1.00  0.00    -0.379 OA 
HETATM   16  C   UNL     1      -9.369  20.209  67.513  1.00  0.00    -0.382 C  
HETATM   17  C   UNL     1      -9.533  15.903  67.770  1.00  0.00    -0.216 C  
HETATM   18  C   UNL     1     -10.782  17.433  66.034  1.00  0.00    -0.122 C  
HETATM   19  C   UNL     1      -8.339  19.409  66.828  1.00  0.00    -0.315 C  
HETATM   20  H   UNL     1     -11.835  15.592  66.771  1.00  0.00     0.000 HD 
HETATM   21  C   UNL     1      -8.465  15.050  66.833  1.00  0.00    -0.269 C  
HETATM   22  C   UNL     1      -7.212  15.916  66.598  1.00  0.00     0.072 C  
HETATM   23  C   UNL     1      -9.825  17.390  67.242  1.00  0.00    -0.278 C  
HETATM   24  C   UNL     1     -10.502  18.201  68.425  1.00  0.00    -0.308 C  
ENDROOT
BRANCH   4  25
HETATM   25  C   UNL     1     -11.261  11.936  67.210  1.00  0.00    -0.317 C  
HETATM   26  O   UNL     1     -12.273  12.056  66.492  1.00  0.00    -0.548 OA 
BRANCH  25  27
HETATM   27  C   UNL     1     -11.269  10.704  68.145  1.00  0.00    -0.302 C  
BRANCH  27  28
HETATM   28  O   UNL     1     -12.492  10.682  68.939  1.00  0.00    -0.297 OA 
BRANCH  28  29
HETATM   29  C   UNL     1     -12.342  10.564  70.287  1.00  0.00    -0.298 C  
HETATM   30  O   UNL     1     -12.798  11.351  71.105  1.00  0.00    -0.380 OA 
BRANCH  29  31
HETATM   31  C   UNL     1     -11.484   9.379  70.668  1.00  0.00    -0.344 C  
BRANCH  31  32
HETATM   32  C   UNL     1     -11.964   8.661  71.920  1.00  0.00    -0.424 C  
HETATM   33  C   UNL     1     -12.566   7.301  71.660  1.00  0.00    -0.368 C  
HETATM   34  O   UNL     1     -13.804   7.323  71.138  1.00  0.00    -0.319 OA 
HETATM   35  O   UNL     1     -11.994   6.252  71.950  1.00  0.00    -0.328 OA 
ENDBRANCH  31  32
ENDBRANCH  29  31
ENDBRANCH  28  29
ENDBRANCH  27  28
ENDBRANCH  25  27
ENDBRANCH   4  25
TORSDOF 6
ENDMDL
MODEL       60
REMARK 921   NORMALIZED FREE ENERGY PREDICTED BY IDOCK:   -5.07 KCAL/MOL
REMARK 922        TOTAL FREE ENERGY PREDICTED BY IDOCK:   -7.58 KCAL/MOL
REMARK 923 INTER-LIGAND FREE ENERGY PREDICTED BY IDOCK:   -6.45 KCAL/MOL
REMARK 924 INTRA-LIGAND FREE ENERGY PREDICTED BY IDOCK:   -1.13 KCAL/MOL
REMARK 927      BINDING AFFINITY PREDICTED BY RF-SCORE:    0.00 PKD
ROOT
HETATM    1  C   UNL     1      -7.409   8.209  71.095  1.00  0.00    -0.065 C  
HETATM    2  C   UNL     1      -7.147   9.038  72.211  1.00  0.00     0.213 C  
HETATM    3  C   UNL     1      -8.561   8.550  72.141  1.00  0.00    -0.242 C  
HETATM    4  C   UNL     1      -8.996   7.025  70.819  1.00  0.00    -0.150 C  
HETATM    5  C   UNL     1     -11.688  12.994  69.507  1.00  0.00    -0.381 C  
HETATM    6  O   UNL     1      -7.935   6.411  69.988  1.00  0.00    -0.108 OA 
HETATM    7  C   UNL     1      -8.575   7.035  72.106  1.00  0.00    -0.117 C  
HETATM    8  C   UNL     1     -10.422   7.619  72.224  1.00  0.00    -0.289 C  
HETATM    9  H   UNL     1      -8.135   5.709  69.380  1.00  0.00     0.000 HD 
HETATM   10  C   UNL     1      -9.321  11.715  68.520  1.00  0.00    -0.169 C  
HETATM   11  O   UNL     1     -11.571  14.072  67.360  1.00  0.00    -0.327 OA 
HETATM   12  C   UNL     1      -7.850   6.026  72.976  1.00  0.00    -0.105 C  
HETATM   13  C   UNL     1     -10.848   8.609  70.805  1.00  0.00    -0.230 C  
HETATM   14  C   UNL     1      -7.915  11.215  68.303  1.00  0.00    -0.127 C  
HETATM   15  O   UNL     1     -11.186   7.657  69.781  1.00  0.00    -0.426 OA 
HETATM   16  C   UNL     1     -11.032  13.397  68.227  1.00  0.00    -0.259 C  
HETATM   17  C   UNL     1      -9.784   9.747  70.164  1.00  0.00    -0.299 C  
HETATM   18  C   UNL     1     -10.880   9.980  67.786  1.00  0.00    -0.337 C  
HETATM   19  C   UNL     1      -9.633  12.956  68.095  1.00  0.00    -0.223 C  
HETATM   20  H   UNL     1     -11.413   8.185  69.024  1.00  0.00     0.000 HD 
HETATM   21  C   UNL     1      -8.256   9.201  69.833  1.00  0.00    -0.137 C  
HETATM   22  C   UNL     1      -7.367  10.407  69.471  1.00  0.00    -0.144 C  
HETATM   23  C   UNL     1     -10.389  10.724  69.045  1.00  0.00    -0.235 C  
HETATM   24  C   UNL     1     -11.632  11.478  69.677  1.00  0.00    -0.403 C  
ENDROOT
BRANCH   4  25
HETATM   25  C   UNL     1      -9.789   5.461  70.981  1.00  0.00    -0.187 C  
HETATM   26  O   UNL     1     -10.865   5.239  71.570  1.00  0.00    -0.194 OA 
BRANCH  25  27
HETATM   27  C   UNL     1      -9.090   4.205  70.408  1.00  0.00    -0.110 C  
BRANCH  27  28
HETATM   28  O   UNL     1      -9.678   3.844  69.124  1.00  0.00    -0.176 OA 
BRANCH  28  29
HETATM   29  C   UNL     1      -8.842   3.843  68.049  1.00  0.00    -0.111 C  
HETATM   30  O   UNL     1      -7.624   3.924  68.121  1.00  0.00    -0.065 OA 
BRANCH  29  31
HETATM   31  C   UNL     1      -9.592   3.800  66.738  1.00  0.00    -0.205 C  
BRANCH  31  32
HETATM   32  C   UNL     1      -9.568   5.119  65.981  1.00  0.00    -0.176 C  
HETATM   33  C   UNL     1      -9.826   6.331  66.842  1.00  0.00    -0.156 C  
HETATM   34  O   UNL     1     -11.110   6.505  67.202  1.00  0.00    -0.390 OA 
HETATM   35  O   UNL     1      -8.944   7.130  67.151  1.00  0.00    -0.122 OA 
ENDBRANCH  31  32
ENDBRANCH  29  31
ENDBRANCH  28  29
ENDBRANCH  27  28
ENDBRANCH  25  27
ENDBRANCH   4  25
TORSDOF 6
ENDMDL
MODEL       61
REMARK 921   NORMALIZED FREE ENERGY PREDICTED BY IDOCK:   -5.04 KCAL/MOL
REMARK 922        TOTAL FREE ENERGY PREDICTED BY IDOCK:   -7.54 KCAL/MOL
REMARK 923 INTER-LIGAND FREE ENERGY PREDICTED BY IDOCK:   -7.08 KCAL/MOL
REMARK 924 INTRA-LIGAND FREE ENERGY PREDICTED BY IDOCK:   -0.47 KCAL/MOL
REMARK 927      BINDING AFFINITY PREDICTED BY RF-SCORE:    0.00 PKD
ROOT
HETATM    1  C   UNL     1      -8.893  11.667  67.655  1.00  0.00    -0.159 C  
HETATM    2  C   UNL     1      -9.666  11.494  68.826  1.00  0.00    -0.137 C  
HETATM    3  C   UNL     1     -10.437  12.058  67.673  1.00  0.00    -0.226 C  
HETATM    4  C   UNL     1      -9.568  11.993  65.801  1.00  0.00    -0.213 C  
HETATM    5  C   UNL     1     -10.446  18.041  68.492  1.00  0.00    -0.291 C  
HETATM    6  O   UNL     1      -8.236  11.376  65.600  1.00  0.00    -0.369 OA 
HETATM    7  C   UNL     1     -10.341  11.117  66.488  1.00  0.00    -0.290 C  
HETATM    8  C   UNL     1     -11.576  12.530  65.995  1.00  0.00    -0.456 C  
HETATM    9  H   UNL     1      -7.836  11.346  64.739  1.00  0.00     0.000 HD 
HETATM   10  C   UNL     1      -8.170  16.302  68.421  1.00  0.00    -0.185 C  
HETATM   11  O   UNL     1      -8.720  19.710  68.625  1.00  0.00    -0.343 OA 
HETATM   12  C   UNL     1     -10.546   9.617  66.406  1.00  0.00    -0.097 C  
HETATM   13  C   UNL     1     -10.752  14.110  66.027  1.00  0.00    -0.299 C  
HETATM   14  C   UNL     1      -7.124  15.253  68.709  1.00  0.00    -0.117 C  
HETATM   15  O   UNL     1     -10.091  14.206  64.753  1.00  0.00    -0.554 OA 
HETATM   16  C   UNL     1      -9.052  18.534  68.699  1.00  0.00    -0.298 C  
HETATM   17  C   UNL     1      -9.659  14.517  67.243  1.00  0.00    -0.226 C  
HETATM   18  C   UNL     1      -8.435  16.483  65.997  1.00  0.00    -0.206 C  
HETATM   19  C   UNL     1      -8.081  17.486  69.059  1.00  0.00    -0.077 C  
HETATM   20  H   UNL     1      -9.652  15.049  64.770  1.00  0.00     0.000 HD 
HETATM   21  C   UNL     1      -8.447  13.422  67.520  1.00  0.00    -0.192 C  
HETATM   22  C   UNL     1      -7.684  13.840  68.793  1.00  0.00    -0.080 C  
HETATM   23  C   UNL     1      -9.180  16.048  67.275  1.00  0.00    -0.215 C  
HETATM   24  C   UNL     1     -10.471  16.958  67.417  1.00  0.00    -0.310 C  
ENDROOT
BRANCH   4  25
HETATM   25  C   UNL     1     -10.095  11.388  64.233  1.00  0.00    -0.297 C  
HETATM   26  O   UNL     1     -11.269  11.349  63.817  1.00  0.00    -0.399 OA 
BRANCH  25  27
HETATM   27  C   UNL     1      -9.044  10.779  63.274  1.00  0.00    -0.252 C  
BRANCH  27  28
HETATM   28  O   UNL     1      -9.038   9.326  63.390  1.00  0.00    -0.142 OA 
BRANCH  28  29
HETATM   29  C   UNL     1      -7.823   8.731  63.540  1.00  0.00    -0.149 C  
HETATM   30  O   UNL     1      -6.788   9.135  63.030  1.00  0.00    -0.094 OA 
BRANCH  29  31
HETATM   31  C   UNL     1      -7.901   7.465  64.361  1.00  0.00    -0.127 C  
BRANCH  31  32
HETATM   32  C   UNL     1      -6.698   7.254  65.267  1.00  0.00    -0.048 C  
HETATM   33  C   UNL     1      -6.937   7.624  66.710  1.00  0.00    -0.079 C  
HETATM   34  O   UNL     1      -6.954   8.945  66.959  1.00  0.00    -0.073 OA 
HETATM   35  O   UNL     1      -7.056   6.787  67.603  1.00  0.00    -0.079 OA 
ENDBRANCH  31  32
ENDBRANCH  29  31
ENDBRANCH  28  29
ENDBRANCH  27  28
ENDBRANCH  25  27
ENDBRANCH   4  25
TORSDOF 6
ENDMDL
MODEL       62
REMARK 921   NORMALIZED FREE ENERGY PREDICTED BY IDOCK:   -5.04 KCAL/MOL
REMARK 922        TOTAL FREE ENERGY PREDICTED BY IDOCK:   -7.54 KCAL/MOL
REMARK 923 INTER-LIGAND FREE ENERGY PREDICTED BY IDOCK:   -8.36 KCAL/MOL
REMARK 924 INTRA-LIGAND FREE ENERGY PREDICTED BY IDOCK:    0.83 KCAL/MOL
REMARK 927      BINDING AFFINITY PREDICTED BY RF-SCORE:    0.00 PKD
ROOT
HETATM    1  C   UNL     1     -11.492  15.077  65.787  1.00  0.00    -0.236 C  
HETATM    2  C   UNL     1     -11.067  14.814  64.464  1.00  0.00    -0.260 C  
HETATM    3  C   UNL     1     -10.180  14.216  65.512  1.00  0.00    -0.371 C  
HETATM    4  C   UNL     1     -10.874  14.166  67.456  1.00  0.00    -0.275 C  
HETATM    5  C   UNL     1      -5.649  18.142  66.238  1.00  0.00    -0.205 C  
HETATM    6  O   UNL     1     -12.222  14.675  67.797  1.00  0.00    -0.595 OA 
HETATM    7  C   UNL     1     -10.995  13.310  66.413  1.00  0.00    -0.301 C  
HETATM    8  C   UNL     1      -9.139  13.122  66.946  1.00  0.00    -0.231 C  
HETATM    9  H   UNL     1     -12.541  14.652  68.692  1.00  0.00     0.000 HD 
HETATM   10  C   UNL     1      -8.458  18.685  66.394  1.00  0.00    -0.286 C  
HETATM   11  O   UNL     1      -5.528  20.443  66.930  1.00  0.00    -0.167 OA 
HETATM   12  C   UNL     1     -11.989  12.219  66.067  1.00  0.00    -0.342 C  
HETATM   13  C   UNL     1      -8.494  14.688  67.501  1.00  0.00    -0.188 C  
HETATM   14  C   UNL     1      -9.924  18.890  66.101  1.00  0.00    -0.395 C  
HETATM   15  O   UNL     1      -8.906  14.789  68.876  1.00  0.00    -0.180 OA 
HETATM   16  C   UNL     1      -6.189  19.512  66.489  1.00  0.00    -0.168 C  
HETATM   17  C   UNL     1      -8.862  16.130  66.712  1.00  0.00    -0.275 C  
HETATM   18  C   UNL     1      -8.241  17.786  68.657  1.00  0.00    -0.272 C  
HETATM   19  C   UNL     1      -7.602  19.688  66.111  1.00  0.00    -0.326 C  
HETATM   20  H   UNL     1      -8.563  15.624  69.171  1.00  0.00     0.000 HD 
HETATM   21  C   UNL     1     -10.473  16.423  66.457  1.00  0.00    -0.282 C  
HETATM   22  C   UNL     1     -10.613  17.654  65.540  1.00  0.00    -0.072 C  
HETATM   23  C   UNL     1      -8.027  17.419  67.175  1.00  0.00    -0.226 C  
HETATM   24  C   UNL     1      -6.487  17.099  66.972  1.00  0.00    -0.225 C  
ENDROOT
BRANCH   4  25
HETATM   25  C   UNL     1     -11.041  12.889  68.657  1.00  0.00    -0.269 C  
HETATM   26  O   UNL     1     -11.795  12.905  69.649  1.00  0.00    -0.311 OA 
BRANCH  25  27
HETATM   27  C   UNL     1     -10.140  11.636  68.546  1.00  0.00    -0.206 C  
BRANCH  27  28
HETATM   28  O   UNL     1     -10.956  10.428  68.537  1.00  0.00    -0.223 OA 
BRANCH  28  29
HETATM   29  C   UNL     1     -10.289   9.241  68.552  1.00  0.00    -0.209 C  
HETATM   30  O   UNL     1      -9.546   8.877  69.453  1.00  0.00    -0.159 OA 
BRANCH  29  31
HETATM   31  C   UNL     1     -10.514   8.439  67.291  1.00  0.00    -0.373 C  
BRANCH  31  32
HETATM   32  C   UNL     1      -9.245   8.205  66.487  1.00  0.00    -0.237 C  
HETATM   33  C   UNL     1      -8.670   9.453  65.862  1.00  0.00    -0.154 C  
HETATM   34  O   UNL     1      -9.332   9.899  64.780  1.00  0.00    -0.244 OA 
HETATM   35  O   UNL     1      -7.646   9.994  66.274  1.00  0.00    -0.100 OA 
ENDBRANCH  31  32
ENDBRANCH  29  31
ENDBRANCH  28  29
ENDBRANCH  27  28
ENDBRANCH  25  27
ENDBRANCH   4  25
TORSDOF 6
ENDMDL
MODEL       63
REMARK 921   NORMALIZED FREE ENERGY PREDICTED BY IDOCK:   -5.04 KCAL/MOL
REMARK 922        TOTAL FREE ENERGY PREDICTED BY IDOCK:   -7.53 KCAL/MOL
REMARK 923 INTER-LIGAND FREE ENERGY PREDICTED BY IDOCK:   -8.17 KCAL/MOL
REMARK 924 INTRA-LIGAND FREE ENERGY PREDICTED BY IDOCK:    0.63 KCAL/MOL
REMARK 927      BINDING AFFINITY PREDICTED BY RF-SCORE:    0.00 PKD
ROOT
HETATM    1  C   UNL     1      -8.635   8.424  66.818  1.00  0.00    -0.123 C  
HETATM    2  C   UNL     1      -9.552   7.647  66.072  1.00  0.00     0.019 C  
HETATM    3  C   UNL     1     -10.190   8.767  66.834  1.00  0.00    -0.357 C  
HETATM    4  C   UNL     1      -8.961  10.218  67.636  1.00  0.00    -0.134 C  
HETATM    5  C   UNL     1     -12.199   6.301  71.968  1.00  0.00    -0.270 C  
HETATM    6  O   UNL     1      -7.494  10.172  67.435  1.00  0.00    -0.093 OA 
HETATM    7  C   UNL     1      -9.559  10.083  66.428  1.00  0.00    -0.248 C  
HETATM    8  C   UNL     1     -11.030  10.501  67.624  1.00  0.00    -0.375 C  
HETATM    9  H   UNL     1      -6.929  10.840  67.805  1.00  0.00     0.000 HD 
HETATM   10  C   UNL     1      -9.542   6.172  70.903  1.00  0.00    -0.193 C  
HETATM   11  O   UNL     1     -11.135   5.172  73.806  1.00  0.00    -0.297 OA 
HETATM   12  C   UNL     1      -9.275  10.654  65.052  1.00  0.00    -0.245 C  
HETATM   13  C   UNL     1     -10.754   9.765  69.223  1.00  0.00    -0.224 C  
HETATM   14  C   UNL     1      -8.314   5.893  70.072  1.00  0.00    -0.122 C  
HETATM   15  O   UNL     1      -9.896  10.692  69.911  1.00  0.00    -0.423 OA 
HETATM   16  C   UNL     1     -11.101   5.545  72.640  1.00  0.00    -0.282 C  
HETATM   17  C   UNL     1     -10.126   8.210  69.389  1.00  0.00    -0.194 C  
HETATM   18  C   UNL     1      -9.321   8.401  71.885  1.00  0.00    -0.313 C  
HETATM   19  C   UNL     1      -9.958   5.224  71.768  1.00  0.00    -0.245 C  
HETATM   20  H   UNL     1      -9.749  10.299  70.764  1.00  0.00     0.000 HD 
HETATM   21  C   UNL     1      -8.727   7.905  68.555  1.00  0.00    -0.131 C  
HETATM   22  C   UNL     1      -8.421   6.396  68.639  1.00  0.00    -0.123 C  
HETATM   23  C   UNL     1     -10.155   7.594  70.869  1.00  0.00    -0.194 C  
HETATM   24  C   UNL     1     -11.661   7.597  71.367  1.00  0.00    -0.300 C  
ENDROOT
BRANCH   4  25
HETATM   25  C   UNL     1      -8.928  11.977  67.540  1.00  0.00    -0.174 C  
HETATM   26  O   UNL     1      -8.204  12.737  68.211  1.00  0.00    -0.156 OA 
BRANCH  25  27
HETATM   27  C   UNL     1      -9.920  12.692  66.591  1.00  0.00    -0.242 C  
BRANCH  27  28
HETATM   28  O   UNL     1     -10.091  14.082  66.996  1.00  0.00    -0.249 OA 
BRANCH  28  29
HETATM   29  C   UNL     1     -11.357  14.476  67.305  1.00  0.00    -0.350 C  
HETATM   30  O   UNL     1     -12.365  14.057  66.754  1.00  0.00    -0.439 OA 
BRANCH  29  31
HETATM   31  C   UNL     1     -11.382  15.549  68.369  1.00  0.00    -0.357 C  
BRANCH  31  32
HETATM   32  C   UNL     1     -11.132  15.017  69.771  1.00  0.00    -0.297 C  
HETATM   33  C   UNL     1     -12.209  14.092  70.283  1.00  0.00    -0.361 C  
HETATM   34  O   UNL     1     -13.344  14.703  70.664  1.00  0.00    -0.313 OA 
HETATM   35  O   UNL     1     -12.047  12.878  70.395  1.00  0.00    -0.361 OA 
ENDBRANCH  31  32
ENDBRANCH  29  31
ENDBRANCH  28  29
ENDBRANCH  27  28
ENDBRANCH  25  27
ENDBRANCH   4  25
TORSDOF 6
ENDMDL
MODEL       64
REMARK 921   NORMALIZED FREE ENERGY PREDICTED BY IDOCK:   -4.99 KCAL/MOL
REMARK 922        TOTAL FREE ENERGY PREDICTED BY IDOCK:   -7.48 KCAL/MOL
REMARK 923 INTER-LIGAND FREE ENERGY PREDICTED BY IDOCK:   -7.26 KCAL/MOL
REMARK 924 INTRA-LIGAND FREE ENERGY PREDICTED BY IDOCK:   -0.22 KCAL/MOL
REMARK 927      BINDING AFFINITY PREDICTED BY RF-SCORE:    0.00 PKD
ROOT
HETATM    1  C   UNL     1      -9.079  11.151  66.573  1.00  0.00    -0.193 C  
HETATM    2  C   UNL     1      -9.576  10.379  65.497  1.00  0.00    -0.290 C  
HETATM    3  C   UNL     1     -10.629  10.797  66.476  1.00  0.00    -0.279 C  
HETATM    4  C   UNL     1     -10.143  12.247  67.862  1.00  0.00    -0.200 C  
HETATM    5  C   UNL     1     -11.317   6.112  70.224  1.00  0.00    -0.414 C  
HETATM    6  O   UNL     1      -8.804  12.879  67.867  1.00  0.00    -0.171 OA 
HETATM    7  C   UNL     1     -10.636  12.307  66.602  1.00  0.00    -0.257 C  
HETATM    8  C   UNL     1     -12.130  11.642  67.647  1.00  0.00     0.133 C  
HETATM    9  H   UNL     1      -8.580  13.546  68.506  1.00  0.00     0.000 HD 
HETATM   10  C   UNL     1      -8.878   7.462  69.562  1.00  0.00    -0.137 C  
HETATM   11  O   UNL     1      -9.849   4.958  71.741  1.00  0.00    -0.166 OA 
HETATM   12  C   UNL     1     -10.641  13.382  65.532  1.00  0.00    -0.294 C  
HETATM   13  C   UNL     1     -11.545  10.578  68.952  1.00  0.00    -0.196 C  
HETATM   14  C   UNL     1      -7.660   8.019  68.868  1.00  0.00    -0.099 C  
HETATM   15  O   UNL     1     -11.167  11.474  70.013  1.00  0.00    -0.469 OA 
HETATM   16  C   UNL     1      -9.992   5.691  70.771  1.00  0.00    -0.195 C  
HETATM   17  C   UNL     1     -10.303   9.468  68.704  1.00  0.00    -0.229 C  
HETATM   18  C   UNL     1      -9.635   9.092  71.219  1.00  0.00    -0.361 C  
HETATM   19  C   UNL     1      -8.833   6.192  70.013  1.00  0.00    -0.144 C  
HETATM   20  H   UNL     1     -10.856  10.906  70.709  1.00  0.00     0.000 HD 
HETATM   21  C   UNL     1      -8.919  10.072  68.024  1.00  0.00    -0.128 C  
HETATM   22  C   UNL     1      -7.988   8.897  67.668  1.00  0.00    -0.102 C  
HETATM   23  C   UNL     1     -10.047   8.422  69.893  1.00  0.00    -0.195 C  
HETATM   24  C   UNL     1     -11.400   7.634  70.148  1.00  0.00    -0.147 C  
ENDROOT
BRANCH   4  25
HETATM   25  C   UNL     1     -10.878  13.777  68.334  1.00  0.00    -0.252 C  
HETATM   26  O   UNL     1     -12.099  14.018  68.399  1.00  0.00    -0.354 OA 
BRANCH  25  27
HETATM   27  C   UNL     1      -9.959  14.983  68.643  1.00  0.00    -0.220 C  
BRANCH  27  28
HETATM   28  O   UNL     1     -10.206  16.061  67.692  1.00  0.00    -0.251 OA 
BRANCH  28  29
HETATM   29  C   UNL     1      -9.773  17.301  68.050  1.00  0.00    -0.277 C  
HETATM   30  O   UNL     1     -10.119  17.888  69.066  1.00  0.00    -0.359 OA 
BRANCH  29  31
HETATM   31  C   UNL     1      -8.859  17.912  67.013  1.00  0.00    -0.256 C  
BRANCH  31  32
HETATM   32  C   UNL     1      -8.202  16.885  66.103  1.00  0.00    -0.295 C  
HETATM   33  C   UNL     1      -6.951  16.264  66.674  1.00  0.00    -0.021 C  
HETATM   34  O   UNL     1      -5.864  17.055  66.646  1.00  0.00    -0.181 OA 
HETATM   35  O   UNL     1      -6.909  15.106  67.086  1.00  0.00    -0.259 OA 
ENDBRANCH  31  32
ENDBRANCH  29  31
ENDBRANCH  28  29
ENDBRANCH  27  28
ENDBRANCH  25  27
ENDBRANCH   4  25
TORSDOF 6
ENDMDL
MODEL       65
REMARK 921   NORMALIZED FREE ENERGY PREDICTED BY IDOCK:   -4.99 KCAL/MOL
REMARK 922        TOTAL FREE ENERGY PREDICTED BY IDOCK:   -7.47 KCAL/MOL
REMARK 923 INTER-LIGAND FREE ENERGY PREDICTED BY IDOCK:   -7.31 KCAL/MOL
REMARK 924 INTRA-LIGAND FREE ENERGY PREDICTED BY IDOCK:   -0.17 KCAL/MOL
REMARK 927      BINDING AFFINITY PREDICTED BY RF-SCORE:    0.00 PKD
ROOT
HETATM    1  C   UNL     1     -10.838  11.418  69.152  1.00  0.00    -0.260 C  
HETATM    2  C   UNL     1     -12.220  11.335  68.860  1.00  0.00    -0.160 C  
HETATM    3  C   UNL     1     -11.338  11.127  67.668  1.00  0.00    -0.356 C  
HETATM    4  C   UNL     1      -9.323  10.817  67.993  1.00  0.00    -0.150 C  
HETATM    5  C   UNL     1     -11.027  16.494  64.918  1.00  0.00    -0.223 C  
HETATM    6  O   UNL     1      -8.772  10.769  69.367  1.00  0.00    -0.357 OA 
HETATM    7  C   UNL     1     -10.386   9.978  67.934  1.00  0.00    -0.249 C  
HETATM    8  C   UNL     1     -10.124  10.520  66.088  1.00  0.00    -0.306 C  
HETATM    9  H   UNL     1      -7.844  10.626  69.517  1.00  0.00     0.000 HD 
HETATM   10  C   UNL     1     -10.456  15.915  67.666  1.00  0.00    -0.289 C  
HETATM   11  O   UNL     1     -10.232  18.666  65.580  1.00  0.00    -0.536 OA 
HETATM   12  C   UNL     1     -10.651   8.588  68.477  1.00  0.00    -0.154 C  
HETATM   13  C   UNL     1      -9.577  12.214  66.013  1.00  0.00    -0.231 C  
HETATM   14  C   UNL     1     -10.532  15.541  69.125  1.00  0.00    -0.232 C  
HETATM   15  O   UNL     1      -8.156  12.151  66.224  1.00  0.00    -0.382 OA 
HETATM   16  C   UNL     1     -10.629  17.551  65.895  1.00  0.00    -0.203 C  
HETATM   17  C   UNL     1     -10.228  13.402  67.015  1.00  0.00    -0.249 C  
HETATM   18  C   UNL     1      -8.297  15.173  66.789  1.00  0.00    -0.225 C  
HETATM   19  C   UNL     1     -10.798  17.170  67.308  1.00  0.00    -0.118 C  
HETATM   20  H   UNL     1      -7.864  13.055  66.184  1.00  0.00     0.000 HD 
HETATM   21  C   UNL     1     -10.242  13.053  68.635  1.00  0.00    -0.173 C  
HETATM   22  C   UNL     1     -11.061  14.134  69.367  1.00  0.00    -0.261 C  
HETATM   23  C   UNL     1      -9.813  14.914  66.674  1.00  0.00    -0.272 C  
HETATM   24  C   UNL     1     -10.243  15.210  65.177  1.00  0.00    -0.386 C  
ENDROOT
BRANCH   4  25
HETATM   25  C   UNL     1      -8.183   9.576  67.481  1.00  0.00    -0.121 C  
HETATM   26  O   UNL     1      -8.159   9.012  66.370  1.00  0.00    -0.108 OA 
BRANCH  25  27
HETATM   27  C   UNL     1      -7.134   9.061  68.495  1.00  0.00    -0.072 C  
BRANCH  27  28
HETATM   28  O   UNL     1      -7.139   7.603  68.529  1.00  0.00    -0.076 OA 
BRANCH  28  29
HETATM   29  C   UNL     1      -7.634   7.021  69.656  1.00  0.00    -0.104 C  
HETATM   30  O   UNL     1      -7.812   7.606  70.715  1.00  0.00    -0.093 OA 
BRANCH  29  31
HETATM   31  C   UNL     1      -7.880   5.541  69.477  1.00  0.00    -0.087 C  
BRANCH  31  32
HETATM   32  C   UNL     1      -9.339   5.196  69.221  1.00  0.00    -0.172 C  
HETATM   33  C   UNL     1     -10.173   5.067  70.472  1.00  0.00    -0.246 C  
HETATM   34  O   UNL     1      -9.976   3.935  71.168  1.00  0.00    -0.177 OA 
HETATM   35  O   UNL     1     -11.007   5.907  70.806  1.00  0.00    -0.283 OA 
ENDBRANCH  31  32
ENDBRANCH  29  31
ENDBRANCH  28  29
ENDBRANCH  27  28
ENDBRANCH  25  27
ENDBRANCH   4  25
TORSDOF 6
ENDMDL
MODEL       66
REMARK 921   NORMALIZED FREE ENERGY PREDICTED BY IDOCK:   -4.94 KCAL/MOL
REMARK 922        TOTAL FREE ENERGY PREDICTED BY IDOCK:   -7.40 KCAL/MOL
REMARK 923 INTER-LIGAND FREE ENERGY PREDICTED BY IDOCK:   -8.50 KCAL/MOL
REMARK 924 INTRA-LIGAND FREE ENERGY PREDICTED BY IDOCK:    1.09 KCAL/MOL
REMARK 927      BINDING AFFINITY PREDICTED BY RF-SCORE:    0.00 PKD
ROOT
HETATM    1  C   UNL     1      -9.843   5.479  71.646  1.00  0.00    -0.221 C  
HETATM    2  C   UNL     1      -8.479   5.460  72.020  1.00  0.00    -0.127 C  
HETATM    3  C   UNL     1      -8.885   6.699  71.284  1.00  0.00    -0.133 C  
HETATM    4  C   UNL     1     -10.902   7.059  71.029  1.00  0.00    -0.238 C  
HETATM    5  C   UNL     1      -7.370   5.737  65.518  1.00  0.00    -0.076 C  
HETATM    6  O   UNL     1     -11.917   6.136  71.586  1.00  0.00    -0.268 OA 
HETATM    7  C   UNL     1     -10.028   7.374  72.015  1.00  0.00    -0.196 C  
HETATM    8  C   UNL     1      -9.515   8.546  70.556  1.00  0.00    -0.193 C  
HETATM    9  H   UNL     1     -12.846   6.301  71.469  1.00  0.00     0.000 HD 
HETATM   10  C   UNL     1      -8.984   4.062  67.192  1.00  0.00    -0.146 C  
HETATM   11  O   UNL     1      -8.019   4.109  63.871  1.00  0.00    -0.085 OA 
HETATM   12  C   UNL     1     -10.190   7.715  73.484  1.00  0.00    -0.332 C  
HETATM   13  C   UNL     1      -9.738   7.721  68.993  1.00  0.00    -0.157 C  
HETATM   14  C   UNL     1      -9.501   3.131  68.260  1.00  0.00    -0.215 C  
HETATM   15  O   UNL     1     -11.132   7.897  68.680  1.00  0.00    -0.417 OA 
HETATM   16  C   UNL     1      -7.935   4.437  65.047  1.00  0.00    -0.097 C  
HETATM   17  C   UNL     1      -9.330   6.101  68.777  1.00  0.00    -0.123 C  
HETATM   18  C   UNL     1     -10.758   5.643  66.618  1.00  0.00    -0.339 C  
HETATM   19  C   UNL     1      -8.352   3.527  66.127  1.00  0.00    -0.102 C  
HETATM   20  H   UNL     1     -11.250   7.457  67.846  1.00  0.00     0.000 HD 
HETATM   21  C   UNL     1      -9.959   5.044  69.887  1.00  0.00    -0.322 C  
HETATM   22  C   UNL     1      -9.313   3.660  69.675  1.00  0.00    -0.243 C  
HETATM   23  C   UNL     1      -9.362   5.562  67.267  1.00  0.00    -0.114 C  
HETATM   24  C   UNL     1      -8.376   6.461  66.409  1.00  0.00    -0.119 C  
ENDROOT
BRANCH   4  25
HETATM   25  C   UNL     1     -11.948   8.433  71.374  1.00  0.00    -0.297 C  
HETATM   26  O   UNL     1     -13.097   8.381  71.853  1.00  0.00    -0.333 OA 
BRANCH  25  27
HETATM   27  C   UNL     1     -11.460   9.855  71.006  1.00  0.00    -0.388 C  
BRANCH  27  28
HETATM   28  O   UNL     1     -12.398  10.486  70.085  1.00  0.00    -0.300 OA 
BRANCH  28  29
HETATM   29  C   UNL     1     -12.001  11.660  69.521  1.00  0.00    -0.317 C  
HETATM   30  O   UNL     1     -11.952  12.729  70.112  1.00  0.00    -0.342 OA 
BRANCH  29  31
HETATM   31  C   UNL     1     -11.688  11.514  68.049  1.00  0.00    -0.343 C  
BRANCH  31  32
HETATM   32  C   UNL     1     -11.873  12.800  67.259  1.00  0.00    -0.414 C  
HETATM   33  C   UNL     1     -11.966  12.601  65.766  1.00  0.00    -0.446 C  
HETATM   34  O   UNL     1     -10.798  12.337  65.157  1.00  0.00    -0.283 OA 
HETATM   35  O   UNL     1     -13.019  12.721  65.142  1.00  0.00    -0.768 OA 
ENDBRANCH  31  32
ENDBRANCH  29  31
ENDBRANCH  28  29
ENDBRANCH  27  28
ENDBRANCH  25  27
ENDBRANCH   4  25
TORSDOF 6
ENDMDL
MODEL       67
REMARK 921   NORMALIZED FREE ENERGY PREDICTED BY IDOCK:   -4.93 KCAL/MOL
REMARK 922        TOTAL FREE ENERGY PREDICTED BY IDOCK:   -7.40 KCAL/MOL
REMARK 923 INTER-LIGAND FREE ENERGY PREDICTED BY IDOCK:   -7.47 KCAL/MOL
REMARK 924 INTRA-LIGAND FREE ENERGY PREDICTED BY IDOCK:    0.08 KCAL/MOL
REMARK 927      BINDING AFFINITY PREDICTED BY RF-SCORE:    0.00 PKD
ROOT
HETATM    1  C   UNL     1      -9.161  11.177  64.823  1.00  0.00    -0.157 C  
HETATM    2  C   UNL     1     -10.180  10.878  63.888  1.00  0.00    -0.418 C  
HETATM    3  C   UNL     1     -10.653  10.902  65.308  1.00  0.00    -0.259 C  
HETATM    4  C   UNL     1      -9.399  11.710  66.735  1.00  0.00    -0.186 C  
HETATM    5  C   UNL     1     -10.580   5.151  67.148  1.00  0.00    -0.169 C  
HETATM    6  O   UNL     1      -8.084  12.279  66.359  1.00  0.00    -0.392 OA 
HETATM    7  C   UNL     1     -10.341  12.251  65.925  1.00  0.00    -0.280 C  
HETATM    8  C   UNL     1     -11.375  11.253  67.230  1.00  0.00    -0.329 C  
HETATM    9  H   UNL     1      -7.506  12.651  67.016  1.00  0.00     0.000 HD 
HETATM   10  C   UNL     1      -8.422   6.626  65.974  1.00  0.00    -0.142 C  
HETATM   11  O   UNL     1      -8.853   3.491  67.370  1.00  0.00    -0.110 OA 
HETATM   12  C   UNL     1     -10.589  13.652  65.402  1.00  0.00    -0.322 C  
HETATM   13  C   UNL     1     -10.510   9.767  67.698  1.00  0.00    -0.251 C  
HETATM   14  C   UNL     1      -7.512   7.392  65.046  1.00  0.00    -0.085 C  
HETATM   15  O   UNL     1      -9.582  10.187  68.715  1.00  0.00    -0.156 OA 
HETATM   16  C   UNL     1      -9.244   4.540  66.874  1.00  0.00    -0.133 C  
HETATM   17  C   UNL     1      -9.693   8.821  66.568  1.00  0.00    -0.328 C  
HETATM   18  C   UNL     1      -8.140   7.509  68.236  1.00  0.00    -0.124 C  
HETATM   19  C   UNL     1      -8.423   5.279  65.900  1.00  0.00    -0.124 C  
HETATM   20  H   UNL     1      -9.120   9.394  68.964  1.00  0.00     0.000 HD 
HETATM   21  C   UNL     1      -8.620   9.625  65.594  1.00  0.00    -0.149 C  
HETATM   22  C   UNL     1      -8.138   8.664  64.490  1.00  0.00    -0.162 C  
HETATM   23  C   UNL     1      -9.167   7.399  67.090  1.00  0.00    -0.159 C  
HETATM   24  C   UNL     1     -10.416   6.588  67.634  1.00  0.00    -0.284 C  
ENDROOT
BRANCH   4  25
HETATM   25  C   UNL     1      -9.595  12.953  67.967  1.00  0.00    -0.221 C  
HETATM   26  O   UNL     1     -10.659  13.261  68.538  1.00  0.00    -0.247 OA 
BRANCH  25  27
HETATM   27  C   UNL     1      -8.371  13.812  68.365  1.00  0.00    -0.152 C  
BRANCH  27  28
HETATM   28  O   UNL     1      -8.225  14.936  67.448  1.00  0.00    -0.168 OA 
BRANCH  28  29
HETATM   29  C   UNL     1      -7.271  15.857  67.759  1.00  0.00    -0.147 C  
HETATM   30  O   UNL     1      -6.090  15.756  67.460  1.00  0.00    -0.148 OA 
BRANCH  29  31
HETATM   31  C   UNL     1      -7.822  17.000  68.580  1.00  0.00    -0.257 C  
BRANCH  31  32
HETATM   32  C   UNL     1      -8.400  18.127  67.740  1.00  0.00    -0.253 C  
HETATM   33  C   UNL     1      -9.779  18.571  68.165  1.00  0.00    -0.339 C  
HETATM   34  O   UNL     1     -10.773  17.737  67.817  1.00  0.00    -0.390 OA 
HETATM   35  O   UNL     1      -9.988  19.639  68.738  1.00  0.00    -0.433 OA 
ENDBRANCH  31  32
ENDBRANCH  29  31
ENDBRANCH  28  29
ENDBRANCH  27  28
ENDBRANCH  25  27
ENDBRANCH   4  25
TORSDOF 6
ENDMDL
MODEL       68
REMARK 921   NORMALIZED FREE ENERGY PREDICTED BY IDOCK:   -4.92 KCAL/MOL
REMARK 922        TOTAL FREE ENERGY PREDICTED BY IDOCK:   -7.38 KCAL/MOL
REMARK 923 INTER-LIGAND FREE ENERGY PREDICTED BY IDOCK:   -7.15 KCAL/MOL
REMARK 924 INTRA-LIGAND FREE ENERGY PREDICTED BY IDOCK:   -0.23 KCAL/MOL
REMARK 927      BINDING AFFINITY PREDICTED BY RF-SCORE:    0.00 PKD
ROOT
HETATM    1  C   UNL     1     -11.272   9.973  70.719  1.00  0.00    -0.428 C  
HETATM    2  C   UNL     1     -12.632   9.599  70.618  1.00  0.00    -0.125 C  
HETATM    3  C   UNL     1     -11.753   8.961  69.587  1.00  0.00     0.535 C  
HETATM    4  C   UNL     1      -9.709   9.083  69.846  1.00  0.00    -0.183 C  
HETATM    5  C   UNL     1     -12.277  12.396  64.648  1.00  0.00    -0.499 C  
HETATM    6  O   UNL     1      -9.129   9.753  71.033  1.00  0.00    -0.341 OA 
HETATM    7  C   UNL     1     -10.639   8.195  70.272  1.00  0.00    -0.228 C  
HETATM    8  C   UNL     1     -10.495   7.831  68.372  1.00  0.00    -0.207 C  
HETATM    9  H   UNL     1      -8.188   9.809  71.152  1.00  0.00     0.000 HD 
HETATM   10  C   UNL     1     -11.575  13.251  67.292  1.00  0.00    -0.404 C  
HETATM   11  O   UNL     1     -11.794  14.701  64.159  1.00  0.00    -0.354 OA 
HETATM   12  C   UNL     1     -10.689   7.203  71.419  1.00  0.00    -0.245 C  
HETATM   13  C   UNL     1     -10.201   9.342  67.474  1.00  0.00    -0.231 C  
HETATM   14  C   UNL     1     -11.568  13.601  68.759  1.00  0.00    -0.359 C  
HETATM   15  O   UNL     1      -8.782   9.555  67.568  1.00  0.00    -0.125 OA 
HETATM   16  C   UNL     1     -12.018  13.828  64.987  1.00  0.00    -0.383 C  
HETATM   17  C   UNL     1     -10.997  10.775  67.862  1.00  0.00    -0.344 C  
HETATM   18  C   UNL     1      -9.349  12.447  66.678  1.00  0.00    -0.227 C  
HETATM   19  C   UNL     1     -12.102  14.139  66.424  1.00  0.00    -0.475 C  
HETATM   20  H   UNL     1      -8.625  10.361  67.089  1.00  0.00     0.000 HD 
HETATM   21  C   UNL     1     -10.929  11.230  69.454  1.00  0.00    -0.282 C  
HETATM   22  C   UNL     1     -11.882  12.422  69.669  1.00  0.00    -0.380 C  
HETATM   23  C   UNL     1     -10.813  11.986  66.826  1.00  0.00    -0.307 C  
HETATM   24  C   UNL     1     -11.311  11.489  65.405  1.00  0.00    -0.147 C  
ENDROOT
BRANCH   4  25
HETATM   25  C   UNL     1      -8.411   7.892  69.872  1.00  0.00    -0.122 C  
HETATM   26  O   UNL     1      -8.388   6.815  69.245  1.00  0.00    -0.123 OA 
BRANCH  25  27
HETATM   27  C   UNL     1      -7.192   8.135  70.794  1.00  0.00    -0.050 C  
BRANCH  27  28
HETATM   28  O   UNL     1      -7.269   7.272  71.967  1.00  0.00    -0.070 OA 
BRANCH  28  29
HETATM   29  C   UNL     1      -7.509   7.883  73.159  1.00  0.00    -0.118 C  
HETATM   30  O   UNL     1      -7.093   8.992  73.464  1.00  0.00    -0.342 OA 
BRANCH  29  31
HETATM   31  C   UNL     1      -8.300   7.008  74.104  1.00  0.00    -0.171 C  
BRANCH  31  32
HETATM   32  C   UNL     1      -7.783   5.579  74.182  1.00  0.00    -0.099 C  
HETATM   33  C   UNL     1      -8.762   4.540  73.691  1.00  0.00    -0.106 C  
HETATM   34  O   UNL     1      -9.772   4.273  74.536  1.00  0.00    -0.115 OA 
HETATM   35  O   UNL     1      -8.622   3.943  72.626  1.00  0.00    -0.096 OA 
ENDBRANCH  31  32
ENDBRANCH  29  31
ENDBRANCH  28  29
ENDBRANCH  27  28
ENDBRANCH  25  27
ENDBRANCH   4  25
TORSDOF 6
ENDMDL
MODEL       69
REMARK 921   NORMALIZED FREE ENERGY PREDICTED BY IDOCK:   -4.89 KCAL/MOL
REMARK 922        TOTAL FREE ENERGY PREDICTED BY IDOCK:   -7.34 KCAL/MOL
REMARK 923 INTER-LIGAND FREE ENERGY PREDICTED BY IDOCK:   -7.65 KCAL/MOL
REMARK 924 INTRA-LIGAND FREE ENERGY PREDICTED BY IDOCK:    0.30 KCAL/MOL
REMARK 927      BINDING AFFINITY PREDICTED BY RF-SCORE:    0.00 PKD
ROOT
HETATM    1  C   UNL     1      -7.857   9.626  69.816  1.00  0.00    -0.144 C  
HETATM    2  C   UNL     1      -6.661   9.432  70.547  1.00  0.00    -0.087 C  
HETATM    3  C   UNL     1      -6.898   8.397  69.491  1.00  0.00    -0.041 C  
HETATM    4  C   UNL     1      -8.368   8.760  68.088  1.00  0.00    -0.122 C  
HETATM    5  C   UNL     1      -9.455   3.725  72.337  1.00  0.00    -0.183 C  
HETATM    6  O   UNL     1      -9.143  10.022  68.105  1.00  0.00    -0.121 OA 
HETATM    7  C   UNL     1      -7.050   9.071  68.142  1.00  0.00    -0.078 C  
HETATM    8  C   UNL     1      -7.057   7.157  67.826  1.00  0.00    -0.085 C  
HETATM    9  H   UNL     1      -9.820  10.190  67.459  1.00  0.00     0.000 HD 
HETATM   10  C   UNL     1     -10.318   6.458  72.363  1.00  0.00    -0.210 C  
HETATM   11  O   UNL     1     -11.493   3.442  73.584  1.00  0.00    -0.199 OA 
HETATM   12  C   UNL     1      -6.198  10.132  67.473  1.00  0.00    -0.058 C  
HETATM   13  C   UNL     1      -8.428   6.395  68.672  1.00  0.00    -0.123 C  
HETATM   14  C   UNL     1     -10.444   7.947  72.569  1.00  0.00    -0.363 C  
HETATM   15  O   UNL     1      -9.549   6.572  67.788  1.00  0.00    -0.123 OA 
HETATM   16  C   UNL     1     -10.635   4.188  73.128  1.00  0.00    -0.184 C  
HETATM   17  C   UNL     1      -8.879   6.858  70.228  1.00  0.00    -0.148 C  
HETATM   18  C   UNL     1     -11.323   5.888  70.209  1.00  0.00    -0.232 C  
HETATM   19  C   UNL     1     -10.673   5.639  73.375  1.00  0.00    -0.313 C  
HETATM   20  H   UNL     1     -10.280   6.167  68.240  1.00  0.00     0.000 HD 
HETATM   21  C   UNL     1      -9.111   8.482  70.459  1.00  0.00    -0.174 C  
HETATM   22  C   UNL     1      -9.297   8.746  71.967  1.00  0.00    -0.322 C  
HETATM   23  C   UNL     1      -9.971   5.930  70.949  1.00  0.00    -0.238 C  
HETATM   24  C   UNL     1      -9.398   4.453  70.997  1.00  0.00    -0.216 C  
ENDROOT
BRANCH   4  25
HETATM   25  C   UNL     1      -8.400   8.753  66.327  1.00  0.00    -0.118 C  
HETATM   26  O   UNL     1      -7.724   8.018  65.582  1.00  0.00    -0.086 OA 
BRANCH  25  27
HETATM   27  C   UNL     1      -9.289   9.783  65.591  1.00  0.00    -0.227 C  
BRANCH  27  28
HETATM   28  O   UNL     1      -8.592  10.307  64.423  1.00  0.00    -0.171 OA 
BRANCH  28  29
HETATM   29  C   UNL     1      -9.319  11.092  63.580  1.00  0.00    -0.260 C  
HETATM   30  O   UNL     1      -9.099  11.208  62.383  1.00  0.00    -0.324 OA 
BRANCH  29  31
HETATM   31  C   UNL     1     -10.398  11.865  64.302  1.00  0.00    -0.362 C  
BRANCH  31  32
HETATM   32  C   UNL     1     -11.538  12.305  63.396  1.00  0.00    -0.530 C  
HETATM   33  C   UNL     1     -12.486  13.293  64.031  1.00  0.00    -0.257 C  
HETATM   34  O   UNL     1     -13.337  12.763  64.926  1.00  0.00    -0.736 OA 
HETATM   35  O   UNL     1     -12.518  14.482  63.719  1.00  0.00    -0.809 OA 
ENDBRANCH  31  32
ENDBRANCH  29  31
ENDBRANCH  28  29
ENDBRANCH  27  28
ENDBRANCH  25  27
ENDBRANCH   4  25
TORSDOF 6
ENDMDL
MODEL       70
REMARK 921   NORMALIZED FREE ENERGY PREDICTED BY IDOCK:   -4.88 KCAL/MOL
REMARK 922        TOTAL FREE ENERGY PREDICTED BY IDOCK:   -7.33 KCAL/MOL
REMARK 923 INTER-LIGAND FREE ENERGY PREDICTED BY IDOCK:   -7.30 KCAL/MOL
REMARK 924 INTRA-LIGAND FREE ENERGY PREDICTED BY IDOCK:   -0.03 KCAL/MOL
REMARK 927      BINDING AFFINITY PREDICTED BY RF-SCORE:    0.00 PKD
ROOT
HETATM    1  C   UNL     1      -7.854  12.701  67.812  1.00  0.00    -0.154 C  
HETATM    2  C   UNL     1      -7.292  13.238  68.994  1.00  0.00     0.036 C  
HETATM    3  C   UNL     1      -7.040  11.773  68.819  1.00  0.00    -0.111 C  
HETATM    4  C   UNL     1      -7.438  10.933  66.975  1.00  0.00    -0.122 C  
HETATM    5  C   UNL     1     -11.313   8.991  72.055  1.00  0.00    -0.395 C  
HETATM    6  O   UNL     1      -7.926  11.763  65.850  1.00  0.00    -0.343 OA 
HETATM    7  C   UNL     1      -6.339  11.531  67.497  1.00  0.00    -0.076 C  
HETATM    8  C   UNL     1      -6.417   9.826  68.421  1.00  0.00    -0.055 C  
HETATM    9  H   UNL     1      -8.109  11.376  65.001  1.00  0.00     0.000 HD 
HETATM   10  C   UNL     1     -11.690  10.978  70.025  1.00  0.00    -0.437 C  
HETATM   11  O   UNL     1     -13.717   8.958  71.968  1.00  0.00    -0.402 OA 
HETATM   12  C   UNL     1      -5.132  12.215  66.885  1.00  0.00     0.022 C  
HETATM   13  C   UNL     1      -8.111   9.352  68.703  1.00  0.00    -0.104 C  
HETATM   14  C   UNL     1     -11.717  12.250  69.214  1.00  0.00    -0.388 C  
HETATM   15  O   UNL     1      -8.529   8.734  67.473  1.00  0.00    -0.119 OA 
HETATM   16  C   UNL     1     -12.663   9.510  71.680  1.00  0.00    -0.388 C  
HETATM   17  C   UNL     1      -9.279  10.470  69.179  1.00  0.00    -0.183 C  
HETATM   18  C   UNL     1     -11.411   9.092  68.494  1.00  0.00     0.515 C  
HETATM   19  C   UNL     1     -12.643  10.796  70.961  1.00  0.00    -0.520 C  
HETATM   20  H   UNL     1      -9.433   8.482  67.623  1.00  0.00     0.000 HD 
HETATM   21  C   UNL     1      -9.389  11.838  68.251  1.00  0.00    -0.193 C  
HETATM   22  C   UNL     1     -10.336  12.834  68.949  1.00  0.00    -0.055 C  
HETATM   23  C   UNL     1     -10.695   9.862  69.623  1.00  0.00    -0.277 C  
HETATM   24  C   UNL     1     -10.437   8.847  70.814  1.00  0.00    -0.283 C  
ENDROOT
BRANCH   4  25
HETATM   25  C   UNL     1      -6.499   9.949  65.856  1.00  0.00    -0.087 C  
HETATM   26  O   UNL     1      -5.346   9.516  66.047  1.00  0.00    -0.038 OA 
BRANCH  25  27
HETATM   27  C   UNL     1      -7.096   9.620  64.468  1.00  0.00    -0.121 C  
BRANCH  27  28
HETATM   28  O   UNL     1      -8.504   9.264  64.596  1.00  0.00    -0.158 OA 
BRANCH  28  29
HETATM   29  C   UNL     1      -9.363   9.845  63.715  1.00  0.00    -0.197 C  
HETATM   30  O   UNL     1      -9.285   9.736  62.500  1.00  0.00    -0.283 OA 
BRANCH  29  31
HETATM   31  C   UNL     1     -10.398  10.705  64.404  1.00  0.00    -0.347 C  
BRANCH  31  32
HETATM   32  C   UNL     1     -10.919  11.839  63.535  1.00  0.00    -0.499 C  
HETATM   33  C   UNL     1     -11.914  12.740  64.226  1.00  0.00    -0.405 C  
HETATM   34  O   UNL     1     -13.144  12.218  64.369  1.00  0.00    -0.780 OA 
HETATM   35  O   UNL     1     -11.640  13.883  64.585  1.00  0.00    -0.354 OA 
ENDBRANCH  31  32
ENDBRANCH  29  31
ENDBRANCH  28  29
ENDBRANCH  27  28
ENDBRANCH  25  27
ENDBRANCH   4  25
TORSDOF 6
ENDMDL
MODEL       71
REMARK 921   NORMALIZED FREE ENERGY PREDICTED BY IDOCK:   -4.86 KCAL/MOL
REMARK 922        TOTAL FREE ENERGY PREDICTED BY IDOCK:   -7.30 KCAL/MOL
REMARK 923 INTER-LIGAND FREE ENERGY PREDICTED BY IDOCK:   -7.98 KCAL/MOL
REMARK 924 INTRA-LIGAND FREE ENERGY PREDICTED BY IDOCK:    0.68 KCAL/MOL
REMARK 927      BINDING AFFINITY PREDICTED BY RF-SCORE:    0.00 PKD
ROOT
HETATM    1  C   UNL     1     -11.543  12.853  67.984  1.00  0.00    -0.385 C  
HETATM    2  C   UNL     1     -10.807  13.762  68.779  1.00  0.00    -0.281 C  
HETATM    3  C   UNL     1      -9.954  12.768  68.054  1.00  0.00    -0.225 C  
HETATM    4  C   UNL     1     -10.830  11.647  66.558  1.00  0.00    -0.284 C  
HETATM    5  C   UNL     1      -8.879   8.348  72.026  1.00  0.00    -0.277 C  
HETATM    6  O   UNL     1     -12.251  11.845  66.190  1.00  0.00    -0.459 OA 
HETATM    7  C   UNL     1     -10.221  12.858  66.565  1.00  0.00    -0.264 C  
HETATM    8  C   UNL     1      -8.757  11.607  66.807  1.00  0.00    -0.189 C  
HETATM    9  H   UNL     1     -12.654  11.329  65.501  1.00  0.00     0.000 HD 
HETATM   10  C   UNL     1     -11.428   9.398  71.245  1.00  0.00    -0.433 C  
HETATM   11  O   UNL     1     -10.282   6.811  73.234  1.00  0.00    -0.201 OA 
HETATM   12  C   UNL     1     -10.285  14.065  65.650  1.00  0.00    -0.351 C  
HETATM   13  C   UNL     1      -9.287  10.217  67.789  1.00  0.00    -0.144 C  
HETATM   14  C   UNL     1     -12.642  10.264  71.015  1.00  0.00    -0.487 C  
HETATM   15  O   UNL     1      -9.927   9.330  66.854  1.00  0.00    -0.197 OA 
HETATM   16  C   UNL     1     -10.163   7.860  72.614  1.00  0.00    -0.296 C  
HETATM   17  C   UNL     1     -10.285  10.409  69.133  1.00  0.00    -0.239 C  
HETATM   18  C   UNL     1     -11.147   7.931  69.310  1.00  0.00     0.114 C  
HETATM   19  C   UNL     1     -11.302   8.776  72.435  1.00  0.00    -0.272 C  
HETATM   20  H   UNL     1     -10.210   8.589  67.378  1.00  0.00     0.000 HD 
HETATM   21  C   UNL     1     -11.671  11.282  68.885  1.00  0.00    -0.409 C  
HETATM   22  C   UNL     1     -12.341  11.544  70.248  1.00  0.00    -0.355 C  
HETATM   23  C   UNL     1     -10.484   9.109  70.052  1.00  0.00    -0.244 C  
HETATM   24  C   UNL     1      -9.052   8.632  70.537  1.00  0.00    -0.188 C  
ENDROOT
BRANCH   4  25
HETATM   25  C   UNL     1     -10.425  11.338  64.872  1.00  0.00    -0.314 C  
HETATM   26  O   UNL     1     -11.214  11.374  63.908  1.00  0.00    -0.386 OA 
BRANCH  25  27
HETATM   27  C   UNL     1      -8.980  10.917  64.515  1.00  0.00    -0.116 C  
BRANCH  27  28
HETATM   28  O   UNL     1      -8.915   9.477  64.294  1.00  0.00    -0.228 OA 
BRANCH  28  29
HETATM   29  C   UNL     1      -7.681   8.951  64.060  1.00  0.00    -0.128 C  
HETATM   30  O   UNL     1      -6.652   9.608  63.988  1.00  0.00    -0.101 OA 
BRANCH  29  31
HETATM   31  C   UNL     1      -7.728   7.458  63.830  1.00  0.00    -0.125 C  
BRANCH  31  32
HETATM   32  C   UNL     1      -7.318   6.644  65.047  1.00  0.00    -0.082 C  
HETATM   33  C   UNL     1      -8.445   5.862  65.677  1.00  0.00    -0.153 C  
HETATM   34  O   UNL     1      -9.308   6.598  66.398  1.00  0.00    -0.162 OA 
HETATM   35  O   UNL     1      -8.543   4.640  65.584  1.00  0.00    -0.119 OA 
ENDBRANCH  31  32
ENDBRANCH  29  31
ENDBRANCH  28  29
ENDBRANCH  27  28
ENDBRANCH  25  27
ENDBRANCH   4  25
TORSDOF 6
ENDMDL
MODEL       72
REMARK 921   NORMALIZED FREE ENERGY PREDICTED BY IDOCK:   -4.81 KCAL/MOL
REMARK 922        TOTAL FREE ENERGY PREDICTED BY IDOCK:   -7.24 KCAL/MOL
REMARK 923 INTER-LIGAND FREE ENERGY PREDICTED BY IDOCK:   -6.77 KCAL/MOL
REMARK 924 INTRA-LIGAND FREE ENERGY PREDICTED BY IDOCK:   -0.46 KCAL/MOL
REMARK 927      BINDING AFFINITY PREDICTED BY RF-SCORE:    0.00 PKD
ROOT
HETATM    1  C   UNL     1      -7.264   8.802  69.567  1.00  0.00    -0.059 C  
HETATM    2  C   UNL     1      -6.564   9.651  70.457  1.00  0.00    -0.107 C  
HETATM    3  C   UNL     1      -7.985   9.398  70.855  1.00  0.00    -0.096 C  
HETATM    4  C   UNL     1      -9.006   7.881  69.898  1.00  0.00    -0.146 C  
HETATM    5  C   UNL     1     -11.125  14.109  68.753  1.00  0.00    -0.283 C  
HETATM    6  O   UNL     1      -8.342   7.045  68.872  1.00  0.00    -0.124 OA 
HETATM    7  C   UNL     1      -8.217   7.908  70.999  1.00  0.00    -0.100 C  
HETATM    8  C   UNL     1      -9.842   8.795  71.579  1.00  0.00    -0.371 C  
HETATM    9  H   UNL     1      -8.813   6.346  68.431  1.00  0.00     0.000 HD 
HETATM   10  C   UNL     1      -9.369  12.394  67.274  1.00  0.00    -0.184 C  
HETATM   11  O   UNL     1     -11.519  15.006  66.556  1.00  0.00    -0.330 OA 
HETATM   12  C   UNL     1      -7.408   6.854  71.730  1.00  0.00    -0.084 C  
HETATM   13  C   UNL     1     -10.540   9.743  70.242  1.00  0.00    -0.292 C  
HETATM   14  C   UNL     1      -8.177  11.656  66.717  1.00  0.00    -0.161 C  
HETATM   15  O   UNL     1     -11.300   8.793  69.475  1.00  0.00    -0.440 OA 
HETATM   16  C   UNL     1     -10.840  14.311  67.300  1.00  0.00    -0.284 C  
HETATM   17  C   UNL     1      -9.575  10.645  69.195  1.00  0.00    -0.193 C  
HETATM   18  C   UNL     1     -11.299  10.894  67.226  1.00  0.00    -0.230 C  
HETATM   19  C   UNL     1      -9.621  13.638  66.819  1.00  0.00    -0.277 C  
HETATM   20  H   UNL     1     -11.672   9.299  68.761  1.00  0.00     0.000 HD 
HETATM   21  C   UNL     1      -8.310   9.833  68.499  1.00  0.00    -0.110 C  
HETATM   22  C   UNL     1      -7.416  10.849  67.760  1.00  0.00    -0.094 C  
HETATM   23  C   UNL     1     -10.352  11.630  68.195  1.00  0.00    -0.208 C  
HETATM   24  C   UNL     1     -11.228  12.620  69.071  1.00  0.00    -0.322 C  
ENDROOT
BRANCH   4  25
HETATM   25  C   UNL     1      -9.919   6.483  70.460  1.00  0.00    -0.184 C  
HETATM   26  O   UNL     1     -10.305   6.277  71.628  1.00  0.00    -0.205 OA 
BRANCH  25  27
HETATM   27  C   UNL     1     -10.242   5.349  69.459  1.00  0.00    -0.266 C  
BRANCH  27  28
HETATM   28  O   UNL     1     -11.281   5.777  68.531  1.00  0.00    -0.122 OA 
BRANCH  28  29
HETATM   29  C   UNL     1     -10.869   6.184  67.299  1.00  0.00    -0.352 C  
HETATM   30  O   UNL     1     -10.749   7.354  66.962  1.00  0.00    -0.340 OA 
BRANCH  29  31
HETATM   31  C   UNL     1     -10.636   5.025  66.358  1.00  0.00    -0.317 C  
BRANCH  31  32
HETATM   32  C   UNL     1      -9.171   4.805  66.017  1.00  0.00    -0.148 C  
HETATM   33  C   UNL     1      -8.810   5.147  64.591  1.00  0.00    -0.080 C  
HETATM   34  O   UNL     1      -9.208   4.246  63.677  1.00  0.00    -0.140 OA 
HETATM   35  O   UNL     1      -8.157   6.144  64.289  1.00  0.00    -0.124 OA 
ENDBRANCH  31  32
ENDBRANCH  29  31
ENDBRANCH  28  29
ENDBRANCH  27  28
ENDBRANCH  25  27
ENDBRANCH   4  25
TORSDOF 6
ENDMDL
MODEL       73
REMARK 921   NORMALIZED FREE ENERGY PREDICTED BY IDOCK:   -4.81 KCAL/MOL
REMARK 922        TOTAL FREE ENERGY PREDICTED BY IDOCK:   -7.23 KCAL/MOL
REMARK 923 INTER-LIGAND FREE ENERGY PREDICTED BY IDOCK:   -8.47 KCAL/MOL
REMARK 924 INTRA-LIGAND FREE ENERGY PREDICTED BY IDOCK:    1.24 KCAL/MOL
REMARK 927      BINDING AFFINITY PREDICTED BY RF-SCORE:    0.00 PKD
ROOT
HETATM    1  C   UNL     1      -9.600   5.616  71.527  1.00  0.00    -0.184 C  
HETATM    2  C   UNL     1      -8.208   5.652  71.778  1.00  0.00    -0.119 C  
HETATM    3  C   UNL     1      -8.742   6.908  71.165  1.00  0.00    -0.135 C  
HETATM    4  C   UNL     1     -10.789   7.168  71.112  1.00  0.00    -0.239 C  
HETATM    5  C   UNL     1      -7.712   6.390  65.237  1.00  0.00    -0.098 C  
HETATM    6  O   UNL     1     -11.701   6.156  71.694  1.00  0.00    -0.296 OA 
HETATM    7  C   UNL     1      -9.846   7.471  72.037  1.00  0.00    -0.200 C  
HETATM    8  C   UNL     1      -9.529   8.758  70.619  1.00  0.00    -0.237 C  
HETATM    9  H   UNL     1     -12.644   6.276  71.670  1.00  0.00     0.000 HD 
HETATM   10  C   UNL     1      -9.079   4.527  66.931  1.00  0.00    -0.130 C  
HETATM   11  O   UNL     1      -8.425   4.832  63.548  1.00  0.00    -0.117 OA 
HETATM   12  C   UNL     1      -9.890   7.712  73.533  1.00  0.00    -0.357 C  
HETATM   13  C   UNL     1      -9.851   8.019  69.030  1.00  0.00    -0.178 C  
HETATM   14  C   UNL     1      -9.449   3.504  67.976  1.00  0.00    -0.217 C  
HETATM   15  O   UNL     1     -11.274   8.135  68.853  1.00  0.00    -0.386 OA 
HETATM   16  C   UNL     1      -8.251   5.092  64.732  1.00  0.00    -0.130 C  
HETATM   17  C   UNL     1      -9.382   6.441  68.673  1.00  0.00    -0.124 C  
HETATM   18  C   UNL     1     -10.976   6.037  66.621  1.00  0.00    -0.229 C  
HETATM   19  C   UNL     1      -8.521   4.095  65.782  1.00  0.00    -0.109 C  
HETATM   20  H   UNL     1     -11.446   7.741  68.006  1.00  0.00     0.000 HD 
HETATM   21  C   UNL     1      -9.853   5.284  69.761  1.00  0.00    -0.282 C  
HETATM   22  C   UNL     1      -9.159   3.955  69.401  1.00  0.00    -0.196 C  
HETATM   23  C   UNL     1      -9.524   5.995  67.138  1.00  0.00    -0.125 C  
HETATM   24  C   UNL     1      -8.668   6.999  66.259  1.00  0.00    -0.154 C  
ENDROOT
BRANCH   4  25
HETATM   25  C   UNL     1     -11.868   8.457  71.638  1.00  0.00    -0.304 C  
HETATM   26  O   UNL     1     -12.981   8.310  72.179  1.00  0.00    -0.326 OA 
BRANCH  25  27
HETATM   27  C   UNL     1     -11.465   9.926  71.367  1.00  0.00    -0.321 C  
BRANCH  27  28
HETATM   28  O   UNL     1     -12.510  10.604  70.609  1.00  0.00    -0.318 OA 
BRANCH  28  29
HETATM   29  C   UNL     1     -12.627  11.947  70.797  1.00  0.00    -0.234 C  
HETATM   30  O   UNL     1     -12.283  12.792  69.983  1.00  0.00    -0.284 OA 
BRANCH  29  31
HETATM   31  C   UNL     1     -13.173  12.290  72.164  1.00  0.00    -0.466 C  
BRANCH  31  32
HETATM   32  C   UNL     1     -13.898  13.626  72.210  1.00  0.00    -0.689 C  
HETATM   33  C   UNL     1     -13.012  14.799  72.552  1.00  0.00    -0.392 C  
HETATM   34  O   UNL     1     -12.666  14.887  73.848  1.00  0.00    -0.496 OA 
HETATM   35  O   UNL     1     -12.673  15.642  71.723  1.00  0.00    -0.394 OA 
ENDBRANCH  31  32
ENDBRANCH  29  31
ENDBRANCH  28  29
ENDBRANCH  27  28
ENDBRANCH  25  27
ENDBRANCH   4  25
TORSDOF 6
ENDMDL
MODEL       74
REMARK 921   NORMALIZED FREE ENERGY PREDICTED BY IDOCK:   -4.80 KCAL/MOL
REMARK 922        TOTAL FREE ENERGY PREDICTED BY IDOCK:   -7.22 KCAL/MOL
REMARK 923 INTER-LIGAND FREE ENERGY PREDICTED BY IDOCK:   -8.20 KCAL/MOL
REMARK 924 INTRA-LIGAND FREE ENERGY PREDICTED BY IDOCK:    0.99 KCAL/MOL
REMARK 927      BINDING AFFINITY PREDICTED BY RF-SCORE:    0.00 PKD
ROOT
HETATM    1  C   UNL     1     -11.696  13.482  68.227  1.00  0.00    -0.394 C  
HETATM    2  C   UNL     1     -11.811  13.599  69.632  1.00  0.00    -0.396 C  
HETATM    3  C   UNL     1     -10.475  14.013  69.100  1.00  0.00    -0.103 C  
HETATM    4  C   UNL     1     -10.283  14.283  67.063  1.00  0.00    -0.260 C  
HETATM    5  C   UNL     1      -6.902   9.186  69.745  1.00  0.00    -0.051 C  
HETATM    6  O   UNL     1     -11.441  14.105  66.158  1.00  0.00    -0.329 OA 
HETATM    7  C   UNL     1     -10.654  15.109  68.070  1.00  0.00    -0.258 C  
HETATM    8  C   UNL     1      -8.745  14.888  68.339  1.00  0.00    -0.172 C  
HETATM    9  H   UNL     1     -11.353  14.229  65.220  1.00  0.00     0.000 HD 
HETATM   10  C   UNL     1      -9.445   9.301  68.429  1.00  0.00    -0.145 C  
HETATM   11  O   UNL     1      -6.957   6.942  68.881  1.00  0.00    -0.076 OA 
HETATM   12  C   UNL     1     -11.470  16.386  68.126  1.00  0.00    -0.108 C  
HETATM   13  C   UNL     1      -8.246  13.235  67.896  1.00  0.00    -0.163 C  
HETATM   14  C   UNL     1     -10.911   9.425  68.092  1.00  0.00    -0.174 C  
HETATM   15  O   UNL     1      -8.067  13.276  66.469  1.00  0.00    -0.306 OA 
HETATM   16  C   UNL     1      -7.547   7.984  69.136  1.00  0.00    -0.097 C  
HETATM   17  C   UNL     1      -9.179  11.889  68.293  1.00  0.00    -0.187 C  
HETATM   18  C   UNL     1      -8.146  10.200  66.563  1.00  0.00    -0.121 C  
HETATM   19  C   UNL     1      -8.994   8.121  68.901  1.00  0.00    -0.141 C  
HETATM   20  H   UNL     1      -7.802  12.394  66.233  1.00  0.00     0.000 HD 
HETATM   21  C   UNL     1     -10.775  11.962  67.855  1.00  0.00    -0.239 C  
HETATM   22  C   UNL     1     -11.516  10.766  68.483  1.00  0.00    -0.362 C  
HETATM   23  C   UNL     1      -8.494  10.461  68.042  1.00  0.00    -0.119 C  
HETATM   24  C   UNL     1      -7.144  10.416  68.873  1.00  0.00    -0.074 C  
ENDROOT
BRANCH   4  25
HETATM   25  C   UNL     1      -9.689  15.603  66.059  1.00  0.00    -0.346 C  
HETATM   26  O   UNL     1     -10.165  15.969  64.967  1.00  0.00    -0.513 OA 
BRANCH  25  27
HETATM   27  C   UNL     1      -8.420  16.368  66.504  1.00  0.00    -0.301 C  
BRANCH  27  28
HETATM   28  O   UNL     1      -8.164  17.486  65.604  1.00  0.00    -0.505 OA 
BRANCH  28  29
HETATM   29  C   UNL     1      -7.287  18.431  66.039  1.00  0.00    -0.238 C  
HETATM   30  O   UNL     1      -6.300  18.798  65.417  1.00  0.00    -0.252 OA 
BRANCH  29  31
HETATM   31  C   UNL     1      -7.628  18.939  67.421  1.00  0.00    -0.245 C  
BRANCH  31  32
HETATM   32  C   UNL     1      -8.522  20.169  67.412  1.00  0.00    -0.398 C  
HETATM   33  C   UNL     1      -9.988  19.871  67.612  1.00  0.00    -0.419 C  
HETATM   34  O   UNL     1     -10.609  19.351  66.540  1.00  0.00    -0.429 OA 
HETATM   35  O   UNL     1     -10.584  20.130  68.655  1.00  0.00    -0.283 OA 
ENDBRANCH  31  32
ENDBRANCH  29  31
ENDBRANCH  28  29
ENDBRANCH  27  28
ENDBRANCH  25  27
ENDBRANCH   4  25
TORSDOF 6
ENDMDL
MODEL       75
REMARK 921   NORMALIZED FREE ENERGY PREDICTED BY IDOCK:   -4.76 KCAL/MOL
REMARK 922        TOTAL FREE ENERGY PREDICTED BY IDOCK:   -7.16 KCAL/MOL
REMARK 923 INTER-LIGAND FREE ENERGY PREDICTED BY IDOCK:   -7.37 KCAL/MOL
REMARK 924 INTRA-LIGAND FREE ENERGY PREDICTED BY IDOCK:    0.21 KCAL/MOL
REMARK 927      BINDING AFFINITY PREDICTED BY RF-SCORE:    0.00 PKD
ROOT
HETATM    1  C   UNL     1      -7.991  11.315  67.307  1.00  0.00    -0.141 C  
HETATM    2  C   UNL     1      -7.398  10.542  66.282  1.00  0.00    -0.133 C  
HETATM    3  C   UNL     1      -8.841  10.224  66.517  1.00  0.00    -0.150 C  
HETATM    4  C   UNL     1      -9.944  11.524  67.681  1.00  0.00    -0.184 C  
HETATM    5  C   UNL     1      -8.873   5.426  70.185  1.00  0.00    -0.142 C  
HETATM    6  O   UNL     1      -9.333  12.752  68.240  1.00  0.00    -0.209 OA 
HETATM    7  C   UNL     1      -9.673  11.481  66.355  1.00  0.00    -0.231 C  
HETATM    8  C   UNL     1     -10.910  10.009  66.618  1.00  0.00    -0.058 C  
HETATM    9  H   UNL     1      -9.841  13.350  68.776  1.00  0.00     0.000 HD 
HETATM   10  C   UNL     1      -7.518   7.918  70.596  1.00  0.00    -0.069 C  
HETATM   11  O   UNL     1      -8.045   5.018  72.406  1.00  0.00    -0.106 OA 
HETATM   12  C   UNL     1      -9.672  12.524  65.254  1.00  0.00    -0.074 C  
HETATM   13  C   UNL     1     -10.635   9.246  68.204  1.00  0.00    -0.198 C  
HETATM   14  C   UNL     1      -6.597   9.109  70.514  1.00  0.00    -0.061 C  
HETATM   15  O   UNL     1     -11.366  10.063  69.136  1.00  0.00    -0.385 OA 
HETATM   16  C   UNL     1      -8.019   5.688  71.382  1.00  0.00    -0.113 C  
HETATM   17  C   UNL     1      -9.084   8.983  68.806  1.00  0.00    -0.137 C  
HETATM   18  C   UNL     1      -9.715   8.689  71.342  1.00  0.00    -0.314 C  
HETATM   19  C   UNL     1      -7.077   6.809  71.225  1.00  0.00    -0.075 C  
HETATM   20  H   UNL     1     -11.219   9.656  69.983  1.00  0.00     0.000 HD 
HETATM   21  C   UNL     1      -8.078  10.300  68.810  1.00  0.00    -0.120 C  
HETATM   22  C   UNL     1      -6.655   9.834  69.176  1.00  0.00    -0.052 C  
HETATM   23  C   UNL     1      -8.986   8.079  70.128  1.00  0.00    -0.150 C  
HETATM   24  C   UNL     1      -9.659   6.679  69.810  1.00  0.00    -0.155 C  
ENDROOT
BRANCH   4  25
HETATM   25  C   UNL     1     -11.468  12.376  67.447  1.00  0.00    -0.352 C  
HETATM   26  O   UNL     1     -12.260  12.219  66.498  1.00  0.00    -0.588 OA 
BRANCH  25  27
HETATM   27  C   UNL     1     -11.872  13.476  68.457  1.00  0.00    -0.362 C  
BRANCH  27  28
HETATM   28  O   UNL     1     -11.807  14.788  67.825  1.00  0.00    -0.351 OA 
BRANCH  28  29
HETATM   29  C   UNL     1     -11.000  15.711  68.416  1.00  0.00    -0.308 C  
HETATM   30  O   UNL     1     -10.532  16.687  67.846  1.00  0.00    -0.298 OA 
BRANCH  29  31
HETATM   31  C   UNL     1     -10.684  15.363  69.852  1.00  0.00    -0.315 C  
BRANCH  31  32
HETATM   32  C   UNL     1     -11.494  16.161  70.862  1.00  0.00    -0.421 C  
HETATM   33  C   UNL     1     -12.201  15.318  71.895  1.00  0.00    -0.361 C  
HETATM   34  O   UNL     1     -13.296  14.679  71.449  1.00  0.00    -0.339 OA 
HETATM   35  O   UNL     1     -11.838  15.256  73.068  1.00  0.00    -0.421 OA 
ENDBRANCH  31  32
ENDBRANCH  29  31
ENDBRANCH  28  29
ENDBRANCH  27  28
ENDBRANCH  25  27
ENDBRANCH   4  25
TORSDOF 6
ENDMDL
MODEL       76
REMARK 921   NORMALIZED FREE ENERGY PREDICTED BY IDOCK:   -4.74 KCAL/MOL
REMARK 922        TOTAL FREE ENERGY PREDICTED BY IDOCK:   -7.14 KCAL/MOL
REMARK 923 INTER-LIGAND FREE ENERGY PREDICTED BY IDOCK:   -8.36 KCAL/MOL
REMARK 924 INTRA-LIGAND FREE ENERGY PREDICTED BY IDOCK:    1.22 KCAL/MOL
REMARK 927      BINDING AFFINITY PREDICTED BY RF-SCORE:    0.00 PKD
ROOT
HETATM    1  C   UNL     1     -12.447  13.018  69.456  1.00  0.00     0.103 C  
HETATM    2  C   UNL     1     -12.186  13.733  70.648  1.00  0.00    -0.434 C  
HETATM    3  C   UNL     1     -10.954  13.380  69.875  1.00  0.00     0.300 C  
HETATM    4  C   UNL     1     -11.185  12.703  67.939  1.00  0.00    -0.266 C  
HETATM    5  C   UNL     1      -8.847   8.312  72.394  1.00  0.00    -0.286 C  
HETATM    6  O   UNL     1     -12.528  12.601  67.322  1.00  0.00    -0.203 OA 
HETATM    7  C   UNL     1     -11.056  13.942  68.471  1.00  0.00    -0.289 C  
HETATM    8  C   UNL     1      -9.281  13.179  68.651  1.00  0.00     0.026 C  
HETATM    9  H   UNL     1     -12.634  12.289  66.431  1.00  0.00     0.000 HD 
HETATM   10  C   UNL     1     -11.491   8.786  71.395  1.00  0.00    -0.366 C  
HETATM   11  O   UNL     1      -9.738   6.097  72.685  1.00  0.00    -0.157 OA 
HETATM   12  C   UNL     1     -11.439  15.329  67.993  1.00  0.00    -0.351 C  
HETATM   13  C   UNL     1      -9.391  11.432  68.990  1.00  0.00     0.053 C  
HETATM   14  C   UNL     1     -12.897   9.280  71.165  1.00  0.00    -0.285 C  
HETATM   15  O   UNL     1      -9.553  10.817  67.699  1.00  0.00    -0.157 OA 
HETATM   16  C   UNL     1      -9.931   7.288  72.473  1.00  0.00    -0.177 C  
HETATM   17  C   UNL     1     -10.543  10.803  70.046  1.00  0.00    -0.053 C  
HETATM   18  C   UNL     1     -10.474   8.307  69.224  1.00  0.00    -0.218 C  
HETATM   19  C   UNL     1     -11.293   7.828  72.324  1.00  0.00    -0.374 C  
HETATM   20  H   UNL     1      -9.612   9.886  67.880  1.00  0.00     0.000 HD 
HETATM   21  C   UNL     1     -12.110  11.260  69.760  1.00  0.00    -0.394 C  
HETATM   22  C   UNL     1     -12.987  10.782  70.934  1.00  0.00    -0.385 C  
HETATM   23  C   UNL     1     -10.371   9.257  70.434  1.00  0.00    -0.291 C  
HETATM   24  C   UNL     1      -8.932   9.073  71.073  1.00  0.00    -0.304 C  
ENDROOT
BRANCH   4  25
HETATM   25  C   UNL     1     -10.499  13.184  66.389  1.00  0.00    -0.282 C  
HETATM   26  O   UNL     1      -9.337  12.963  65.999  1.00  0.00    -0.161 OA 
BRANCH  25  27
HETATM   27  C   UNL     1     -11.366  14.017  65.414  1.00  0.00    -0.315 C  
BRANCH  27  28
HETATM   28  O   UNL     1     -10.524  14.919  64.637  1.00  0.00    -0.337 OA 
BRANCH  28  29
HETATM   29  C   UNL     1     -10.821  16.245  64.713  1.00  0.00    -0.224 C  
HETATM   30  O   UNL     1     -11.417  16.871  63.848  1.00  0.00    -0.987 OA 
BRANCH  29  31
HETATM   31  C   UNL     1     -10.268  16.887  65.965  1.00  0.00    -0.350 C  
BRANCH  31  32
HETATM   32  C   UNL     1     -10.151  18.400  65.869  1.00  0.00    -0.175 C  
HETATM   33  C   UNL     1      -8.838  18.952  66.369  1.00  0.00    -0.306 C  
HETATM   34  O   UNL     1      -8.709  18.977  67.706  1.00  0.00    -0.288 OA 
HETATM   35  O   UNL     1      -7.971  19.394  65.617  1.00  0.00    -0.427 OA 
ENDBRANCH  31  32
ENDBRANCH  29  31
ENDBRANCH  28  29
ENDBRANCH  27  28
ENDBRANCH  25  27
ENDBRANCH   4  25
TORSDOF 6
ENDMDL
MODEL       77
REMARK 921   NORMALIZED FREE ENERGY PREDICTED BY IDOCK:   -4.74 KCAL/MOL
REMARK 922        TOTAL FREE ENERGY PREDICTED BY IDOCK:   -7.14 KCAL/MOL
REMARK 923 INTER-LIGAND FREE ENERGY PREDICTED BY IDOCK:   -7.13 KCAL/MOL
REMARK 924 INTRA-LIGAND FREE ENERGY PREDICTED BY IDOCK:   -0.00 KCAL/MOL
REMARK 927      BINDING AFFINITY PREDICTED BY RF-SCORE:    0.00 PKD
ROOT
HETATM    1  C   UNL     1     -10.316  10.289  65.808  1.00  0.00    -0.236 C  
HETATM    2  C   UNL     1      -9.789  10.508  64.514  1.00  0.00    -0.401 C  
HETATM    3  C   UNL     1      -8.796  10.723  65.614  1.00  0.00    -0.202 C  
HETATM    4  C   UNL     1      -9.287  10.061  67.507  1.00  0.00    -0.144 C  
HETATM    5  C   UNL     1      -8.803  16.668  66.673  1.00  0.00    -0.280 C  
HETATM    6  O   UNL     1     -10.568   9.364  67.762  1.00  0.00    -0.252 OA 
HETATM    7  C   UNL     1      -8.683   9.464  66.451  1.00  0.00    -0.149 C  
HETATM    8  C   UNL     1      -7.342  10.705  67.105  1.00  0.00    -0.098 C  
HETATM    9  H   UNL     1     -10.794   9.059  68.633  1.00  0.00     0.000 HD 
HETATM   10  C   UNL     1     -11.063  14.907  66.646  1.00  0.00    -0.329 C  
HETATM   11  O   UNL     1     -10.482  18.234  67.390  1.00  0.00    -0.381 OA 
HETATM   12  C   UNL     1      -8.501   8.019  66.031  1.00  0.00    -0.144 C  
HETATM   13  C   UNL     1      -8.118  12.189  67.715  1.00  0.00    -0.152 C  
HETATM   14  C   UNL     1     -12.169  13.958  66.258  1.00  0.00    -0.498 C  
HETATM   15  O   UNL     1      -8.517  11.869  69.060  1.00  0.00    -0.366 OA 
HETATM   16  C   UNL     1     -10.199  17.150  66.898  1.00  0.00    -0.315 C  
HETATM   17  C   UNL     1      -9.417  12.905  66.915  1.00  0.00    -0.237 C  
HETATM   18  C   UNL     1     -10.328  14.353  68.911  1.00  0.00    -0.233 C  
HETATM   19  C   UNL     1     -11.245  16.225  66.429  1.00  0.00     0.280 C  
HETATM   20  H   UNL     1      -8.931  12.660  69.384  1.00  0.00     0.000 HD 
HETATM   21  C   UNL     1     -10.685  11.902  66.555  1.00  0.00    -0.293 C  
HETATM   22  C   UNL     1     -11.670  12.658  65.641  1.00  0.00    -0.458 C  
HETATM   23  C   UNL     1      -9.856  14.354  67.443  1.00  0.00    -0.224 C  
HETATM   24  C   UNL     1      -8.596  15.312  67.341  1.00  0.00    -0.197 C  
ENDROOT
BRANCH   4  25
HETATM   25  C   UNL     1      -8.480   9.028  68.684  1.00  0.00    -0.128 C  
HETATM   26  O   UNL     1      -7.251   8.836  68.774  1.00  0.00    -0.072 OA 
BRANCH  25  27
HETATM   27  C   UNL     1      -9.340   8.214  69.679  1.00  0.00    -0.159 C  
BRANCH  27  28
HETATM   28  O   UNL     1      -9.191   6.787  69.424  1.00  0.00    -0.143 OA 
BRANCH  28  29
HETATM   29  C   UNL     1     -10.332   6.044  69.433  1.00  0.00    -0.236 C  
HETATM   30  O   UNL     1     -11.430   6.459  69.092  1.00  0.00    -0.364 OA 
BRANCH  29  31
HETATM   31  C   UNL     1     -10.107   4.652  69.978  1.00  0.00    -0.267 C  
BRANCH  31  32
HETATM   32  C   UNL     1      -8.871   3.972  69.411  1.00  0.00    -0.143 C  
HETATM   33  C   UNL     1      -9.015   3.520  67.978  1.00  0.00    -0.135 C  
HETATM   34  O   UNL     1      -9.761   2.415  67.807  1.00  0.00    -0.075 OA 
HETATM   35  O   UNL     1      -8.453   4.084  67.041  1.00  0.00    -0.100 OA 
ENDBRANCH  31  32
ENDBRANCH  29  31
ENDBRANCH  28  29
ENDBRANCH  27  28
ENDBRANCH  25  27
ENDBRANCH   4  25
TORSDOF 6
ENDMDL
MODEL       78
REMARK 921   NORMALIZED FREE ENERGY PREDICTED BY IDOCK:   -4.73 KCAL/MOL
REMARK 922        TOTAL FREE ENERGY PREDICTED BY IDOCK:   -7.12 KCAL/MOL
REMARK 923 INTER-LIGAND FREE ENERGY PREDICTED BY IDOCK:   -7.73 KCAL/MOL
REMARK 924 INTRA-LIGAND FREE ENERGY PREDICTED BY IDOCK:    0.61 KCAL/MOL
REMARK 927      BINDING AFFINITY PREDICTED BY RF-SCORE:    0.00 PKD
ROOT
HETATM    1  C   UNL     1     -10.932  10.152  70.569  1.00  0.00    -0.380 C  
HETATM    2  C   UNL     1     -12.286   9.748  70.634  1.00  0.00    -0.283 C  
HETATM    3  C   UNL     1     -11.526   9.130  69.501  1.00  0.00     0.240 C  
HETATM    4  C   UNL     1      -9.468   9.298  69.508  1.00  0.00    -0.173 C  
HETATM    5  C   UNL     1     -12.727  12.558  64.677  1.00  0.00    -0.434 C  
HETATM    6  O   UNL     1      -8.763   9.980  70.618  1.00  0.00    -0.345 OA 
HETATM    7  C   UNL     1     -10.320   8.389  70.042  1.00  0.00    -0.211 C  
HETATM    8  C   UNL     1     -10.401   8.031  68.137  1.00  0.00    -0.250 C  
HETATM    9  H   UNL     1      -7.816  10.057  70.621  1.00  0.00     0.000 HD 
HETATM   10  C   UNL     1     -11.726  13.426  67.217  1.00  0.00    -0.424 C  
HETATM   11  O   UNL     1     -12.359  14.874  64.141  1.00  0.00    -0.668 OA 
HETATM   12  C   UNL     1     -10.207   7.396  71.182  1.00  0.00    -0.199 C  
HETATM   13  C   UNL     1     -10.254   9.549  67.215  1.00  0.00    -0.234 C  
HETATM   14  C   UNL     1     -11.547  13.775  68.674  1.00  0.00    -0.369 C  
HETATM   15  O   UNL     1      -8.838   9.794  67.135  1.00  0.00    -0.131 OA 
HETATM   16  C   UNL     1     -12.461  13.995  64.986  1.00  0.00    -0.425 C  
HETATM   17  C   UNL     1     -11.028  10.963  67.704  1.00  0.00    -0.350 C  
HETATM   18  C   UNL     1      -9.575  12.673  66.333  1.00  0.00    -0.248 C  
HETATM   19  C   UNL     1     -12.375  14.303  66.424  1.00  0.00    -0.378 C  
HETATM   20  H   UNL     1      -8.760  10.604  66.644  1.00  0.00     0.000 HD 
HETATM   21  C   UNL     1     -10.775  11.418  69.277  1.00  0.00    -0.195 C  
HETATM   22  C   UNL     1     -11.721  12.588  69.612  1.00  0.00    -0.372 C  
HETATM   23  C   UNL     1     -10.999  12.178  66.657  1.00  0.00    -0.325 C  
HETATM   24  C   UNL     1     -11.656  11.672  65.306  1.00  0.00    -0.105 C  
ENDROOT
BRANCH   4  25
HETATM   25  C   UNL     1      -8.151   8.138  69.371  1.00  0.00    -0.116 C  
HETATM   26  O   UNL     1      -7.017   8.249  69.875  1.00  0.00    -0.043 OA 
BRANCH  25  27
HETATM   27  C   UNL     1      -8.354   6.876  68.499  1.00  0.00    -0.121 C  
BRANCH  27  28
HETATM   28  O   UNL     1      -7.217   6.693  67.604  1.00  0.00    -0.085 OA 
BRANCH  28  29
HETATM   29  C   UNL     1      -7.502   6.531  66.282  1.00  0.00    -0.081 C  
HETATM   30  O   UNL     1      -7.922   7.417  65.552  1.00  0.00    -0.107 OA 
BRANCH  29  31
HETATM   31  C   UNL     1      -7.304   5.105  65.823  1.00  0.00    -0.077 C  
BRANCH  31  32
HETATM   32  C   UNL     1      -8.597   4.410  65.428  1.00  0.00    -0.122 C  
HETATM   33  C   UNL     1      -9.666   4.440  66.494  1.00  0.00    -0.215 C  
HETATM   34  O   UNL     1      -9.466   3.592  67.518  1.00  0.00    -0.191 OA 
HETATM   35  O   UNL     1     -10.670   5.145  66.412  1.00  0.00    -0.308 OA 
ENDBRANCH  31  32
ENDBRANCH  29  31
ENDBRANCH  28  29
ENDBRANCH  27  28
ENDBRANCH  25  27
ENDBRANCH   4  25
TORSDOF 6
ENDMDL
MODEL       79
REMARK 921   NORMALIZED FREE ENERGY PREDICTED BY IDOCK:   -4.72 KCAL/MOL
REMARK 922        TOTAL FREE ENERGY PREDICTED BY IDOCK:   -7.10 KCAL/MOL
REMARK 923 INTER-LIGAND FREE ENERGY PREDICTED BY IDOCK:   -6.47 KCAL/MOL
REMARK 924 INTRA-LIGAND FREE ENERGY PREDICTED BY IDOCK:   -0.63 KCAL/MOL
REMARK 927      BINDING AFFINITY PREDICTED BY RF-SCORE:    0.00 PKD
ROOT
HETATM    1  C   UNL     1      -8.488   4.655  71.405  1.00  0.00    -0.113 C  
HETATM    2  C   UNL     1      -7.108   4.359  71.314  1.00  0.00    -0.043 C  
HETATM    3  C   UNL     1      -7.453   5.758  70.907  1.00  0.00    -0.090 C  
HETATM    4  C   UNL     1      -9.338   6.464  71.362  1.00  0.00    -0.152 C  
HETATM    5  C   UNL     1      -7.929   5.629  64.888  1.00  0.00    -0.117 C  
HETATM    6  O   UNL     1     -10.310   5.623  72.099  1.00  0.00    -0.196 OA 
HETATM    7  C   UNL     1      -8.168   6.458  72.045  1.00  0.00    -0.109 C  
HETATM    8  C   UNL     1      -7.880   7.780  70.654  1.00  0.00    -0.096 C  
HETATM    9  H   UNL     1     -11.178   5.948  72.308  1.00  0.00     0.000 HD 
HETATM   10  C   UNL     1      -9.283   3.949  66.773  1.00  0.00    -0.186 C  
HETATM   11  O   UNL     1      -9.350   4.444  63.351  1.00  0.00    -0.147 OA 
HETATM   12  C   UNL     1      -7.818   6.549  73.517  1.00  0.00    -0.091 C  
HETATM   13  C   UNL     1      -8.716   7.295  69.157  1.00  0.00    -0.136 C  
HETATM   14  C   UNL     1      -9.641   2.932  67.828  1.00  0.00    -0.077 C  
HETATM   15  O   UNL     1     -10.074   7.738  69.334  1.00  0.00    -0.185 OA 
HETATM   16  C   UNL     1      -8.859   4.538  64.468  1.00  0.00    -0.151 C  
HETATM   17  C   UNL     1      -8.726   5.697  68.624  1.00  0.00    -0.106 C  
HETATM   18  C   UNL     1     -10.789   5.861  67.001  1.00  0.00    -0.379 C  
HETATM   19  C   UNL     1      -9.115   3.523  65.505  1.00  0.00    -0.147 C  
HETATM   20  H   UNL     1     -10.519   7.478  68.536  1.00  0.00     0.000 HD 
HETATM   21  C   UNL     1      -9.202   4.567  69.738  1.00  0.00    -0.191 C  
HETATM   22  C   UNL     1      -8.941   3.162  69.161  1.00  0.00    -0.181 C  
HETATM   23  C   UNL     1      -9.310   5.451  67.150  1.00  0.00    -0.117 C  
HETATM   24  C   UNL     1      -8.459   6.326  66.138  1.00  0.00    -0.138 C  
ENDROOT
BRANCH   4  25
HETATM   25  C   UNL     1      -9.935   7.898  72.192  1.00  0.00    -0.207 C  
HETATM   26  O   UNL     1      -9.246   8.857  72.592  1.00  0.00    -0.301 OA 
BRANCH  25  27
HETATM   27  C   UNL     1     -11.441   7.992  72.534  1.00  0.00    -0.409 C  
BRANCH  27  28
HETATM   28  O   UNL     1     -12.232   8.060  71.311  1.00  0.00    -0.304 OA 
BRANCH  28  29
HETATM   29  C   UNL     1     -13.191   9.025  71.258  1.00  0.00    -0.210 C  
HETATM   30  O   UNL     1     -14.299   8.872  70.764  1.00  0.00     0.038 OA 
BRANCH  29  31
HETATM   31  C   UNL     1     -12.711  10.344  71.820  1.00  0.00    -0.525 C  
BRANCH  31  32
HETATM   32  C   UNL     1     -12.434  11.392  70.754  1.00  0.00    -0.460 C  
HETATM   33  C   UNL     1     -11.633  10.885  69.580  1.00  0.00    -0.322 C  
HETATM   34  O   UNL     1     -10.322  10.714  69.823  1.00  0.00    -0.205 OA 
HETATM   35  O   UNL     1     -12.126  10.690  68.471  1.00  0.00    -0.420 OA 
ENDBRANCH  31  32
ENDBRANCH  29  31
ENDBRANCH  28  29
ENDBRANCH  27  28
ENDBRANCH  25  27
ENDBRANCH   4  25
TORSDOF 6
ENDMDL
MODEL       80
REMARK 921   NORMALIZED FREE ENERGY PREDICTED BY IDOCK:   -4.71 KCAL/MOL
REMARK 922        TOTAL FREE ENERGY PREDICTED BY IDOCK:   -7.10 KCAL/MOL
REMARK 923 INTER-LIGAND FREE ENERGY PREDICTED BY IDOCK:   -7.31 KCAL/MOL
REMARK 924 INTRA-LIGAND FREE ENERGY PREDICTED BY IDOCK:    0.21 KCAL/MOL
REMARK 927      BINDING AFFINITY PREDICTED BY RF-SCORE:    0.00 PKD
ROOT
HETATM    1  C   UNL     1     -12.049   8.745  71.889  1.00  0.00    -0.433 C  
HETATM    2  C   UNL     1     -13.348   8.415  71.438  1.00  0.00    -0.244 C  
HETATM    3  C   UNL     1     -12.256   7.929  70.537  1.00  0.00     0.184 C  
HETATM    4  C   UNL     1     -10.319   7.974  71.250  1.00  0.00    -0.193 C  
HETATM    5  C   UNL     1     -11.752  12.095  66.194  1.00  0.00    -0.384 C  
HETATM    6  O   UNL     1     -10.023   8.442  72.623  1.00  0.00    -0.288 OA 
HETATM    7  C   UNL     1     -11.304   7.047  71.321  1.00  0.00    -0.309 C  
HETATM    8  C   UNL     1     -10.744   6.979  69.464  1.00  0.00    -0.263 C  
HETATM    9  H   UNL     1      -9.131   8.463  72.951  1.00  0.00     0.000 HD 
HETATM   10  C   UNL     1     -11.656  12.519  69.027  1.00  0.00    -0.365 C  
HETATM   11  O   UNL     1     -11.213  14.439  66.184  1.00  0.00    -0.324 OA 
HETATM   12  C   UNL     1     -11.586   5.891  72.261  1.00  0.00    -0.338 C  
HETATM   13  C   UNL     1     -10.288   8.605  68.896  1.00  0.00    -0.211 C  
HETATM   14  C   UNL     1     -11.974  12.638  70.496  1.00  0.00    -0.279 C  
HETATM   15  O   UNL     1      -8.927   8.777  69.328  1.00  0.00    -0.141 OA 
HETATM   16  C   UNL     1     -11.597  13.452  66.798  1.00  0.00    -0.365 C  
HETATM   17  C   UNL     1     -11.174   9.975  69.319  1.00  0.00    -0.213 C  
HETATM   18  C   UNL     1      -9.336  11.780  68.795  1.00  0.00    -0.019 C  
HETATM   19  C   UNL     1     -11.997  13.539  68.213  1.00  0.00    -0.377 C  
HETATM   20  H   UNL     1      -8.684   9.644  69.026  1.00  0.00     0.000 HD 
HETATM   21  C   UNL     1     -11.461  10.176  70.939  1.00  0.00    -0.444 C  
HETATM   22  C   UNL     1     -12.458  11.338  71.123  1.00  0.00    -0.479 C  
HETATM   23  C   UNL     1     -10.790  11.327  68.548  1.00  0.00    -0.245 C  
HETATM   24  C   UNL     1     -10.958  11.065  66.993  1.00  0.00    -0.333 C  
ENDROOT
BRANCH   4  25
HETATM   25  C   UNL     1      -9.037   6.772  71.373  1.00  0.00    -0.142 C  
HETATM   26  O   UNL     1      -8.580   6.085  70.438  1.00  0.00    -0.129 OA 
BRANCH  25  27
HETATM   27  C   UNL     1      -8.436   6.460  72.764  1.00  0.00    -0.121 C  
BRANCH  27  28
HETATM   28  O   UNL     1      -7.288   5.572  72.628  1.00  0.00    -0.091 OA 
BRANCH  28  29
HETATM   29  C   UNL     1      -7.514   4.246  72.836  1.00  0.00    -0.079 C  
HETATM   30  O   UNL     1      -7.101   3.352  72.111  1.00  0.00    -0.039 OA 
BRANCH  29  31
HETATM   31  C   UNL     1      -8.398   3.995  74.036  1.00  0.00    -0.091 C  
BRANCH  31  32
HETATM   32  C   UNL     1      -8.959   2.582  74.091  1.00  0.00    -0.080 C  
HETATM   33  C   UNL     1     -10.151   2.355  73.192  1.00  0.00    -0.119 C  
HETATM   34  O   UNL     1     -11.303   2.883  73.638  1.00  0.00    -0.228 OA 
HETATM   35  O   UNL     1     -10.089   1.694  72.157  1.00  0.00    -0.130 OA 
ENDBRANCH  31  32
ENDBRANCH  29  31
ENDBRANCH  28  29
ENDBRANCH  27  28
ENDBRANCH  25  27
ENDBRANCH   4  25
TORSDOF 6
ENDMDL
MODEL       81
REMARK 921   NORMALIZED FREE ENERGY PREDICTED BY IDOCK:   -4.70 KCAL/MOL
REMARK 922        TOTAL FREE ENERGY PREDICTED BY IDOCK:   -7.08 KCAL/MOL
REMARK 923 INTER-LIGAND FREE ENERGY PREDICTED BY IDOCK:   -6.93 KCAL/MOL
REMARK 924 INTRA-LIGAND FREE ENERGY PREDICTED BY IDOCK:   -0.15 KCAL/MOL
REMARK 927      BINDING AFFINITY PREDICTED BY RF-SCORE:    0.00 PKD
ROOT
HETATM    1  C   UNL     1     -12.061  11.390  69.115  1.00  0.00    -0.331 C  
HETATM    2  C   UNL     1     -12.071  12.441  70.061  1.00  0.00    -0.335 C  
HETATM    3  C   UNL     1     -10.702  12.085  69.571  1.00  0.00     0.132 C  
HETATM    4  C   UNL     1     -10.553  10.866  67.911  1.00  0.00    -0.207 C  
HETATM    5  C   UNL     1      -8.424   8.317  73.705  1.00  0.00    -0.266 C  
HETATM    6  O   UNL     1     -11.764  10.387  67.207  1.00  0.00    -0.326 OA 
HETATM    7  C   UNL     1     -10.654  12.209  68.062  1.00  0.00    -0.232 C  
HETATM    8  C   UNL     1      -8.850  11.815  68.658  1.00  0.00    -0.062 C  
HETATM    9  H   UNL     1     -11.695   9.825  66.443  1.00  0.00     0.000 HD 
HETATM   10  C   UNL     1     -10.921   8.072  72.320  1.00  0.00    -0.377 C  
HETATM   11  O   UNL     1      -9.082   6.160  74.540  1.00  0.00    -0.136 OA 
HETATM   12  C   UNL     1     -11.120  13.330  67.153  1.00  0.00    -0.308 C  
HETATM   13  C   UNL     1      -8.804  10.238  69.487  1.00  0.00    -0.148 C  
HETATM   14  C   UNL     1     -12.324   8.254  71.797  1.00  0.00    -0.366 C  
HETATM   15  O   UNL     1      -8.694   9.270  68.429  1.00  0.00    -0.127 OA 
HETATM   16  C   UNL     1      -9.379   7.198  73.963  1.00  0.00    -0.252 C  
HETATM   17  C   UNL     1     -10.022   9.755  70.547  1.00  0.00    -0.258 C  
HETATM   18  C   UNL     1      -9.535   7.172  70.518  1.00  0.00    -0.162 C  
HETATM   19  C   UNL     1     -10.756   7.454  73.508  1.00  0.00    -0.347 C  
HETATM   20  H   UNL     1      -8.669   8.429  68.871  1.00  0.00     0.000 HD 
HETATM   21  C   UNL     1     -11.569   9.862  69.964  1.00  0.00    -0.235 C  
HETATM   22  C   UNL     1     -12.553   9.599  71.121  1.00  0.00    -0.411 C  
HETATM   23  C   UNL     1      -9.731   8.426  71.395  1.00  0.00    -0.260 C  
HETATM   24  C   UNL     1      -8.394   8.656  72.217  1.00  0.00    -0.128 C  
ENDROOT
BRANCH   4  25
HETATM   25  C   UNL     1      -9.700  10.998  66.376  1.00  0.00    -0.201 C  
HETATM   26  O   UNL     1      -8.965  11.940  66.021  1.00  0.00    -0.171 OA 
BRANCH  25  27
HETATM   27  C   UNL     1      -9.901   9.893  65.312  1.00  0.00    -0.303 C  
BRANCH  27  28
HETATM   28  O   UNL     1      -9.687   8.578  65.903  1.00  0.00    -0.182 OA 
BRANCH  28  29
HETATM   29  C   UNL     1      -8.682   7.828  65.375  1.00  0.00    -0.020 C  
HETATM   30  O   UNL     1      -8.131   8.063  64.309  1.00  0.00    -0.151 OA 
BRANCH  29  31
HETATM   31  C   UNL     1      -8.359   6.619  66.223  1.00  0.00    -0.125 C  
BRANCH  31  32
HETATM   32  C   UNL     1      -9.576   5.767  66.551  1.00  0.00    -0.175 C  
HETATM   33  C   UNL     1      -9.293   4.286  66.619  1.00  0.00    -0.169 C  
HETATM   34  O   UNL     1      -9.134   3.687  65.426  1.00  0.00    -0.134 OA 
HETATM   35  O   UNL     1      -9.262   3.661  67.677  1.00  0.00    -0.153 OA 
ENDBRANCH  31  32
ENDBRANCH  29  31
ENDBRANCH  28  29
ENDBRANCH  27  28
ENDBRANCH  25  27
ENDBRANCH   4  25
TORSDOF 6
ENDMDL
MODEL       82
REMARK 921   NORMALIZED FREE ENERGY PREDICTED BY IDOCK:   -4.69 KCAL/MOL
REMARK 922        TOTAL FREE ENERGY PREDICTED BY IDOCK:   -7.07 KCAL/MOL
REMARK 923 INTER-LIGAND FREE ENERGY PREDICTED BY IDOCK:   -6.93 KCAL/MOL
REMARK 924 INTRA-LIGAND FREE ENERGY PREDICTED BY IDOCK:   -0.14 KCAL/MOL
REMARK 927      BINDING AFFINITY PREDICTED BY RF-SCORE:    0.00 PKD
ROOT
HETATM    1  C   UNL     1      -7.920   9.363  68.966  1.00  0.00    -0.091 C  
HETATM    2  C   UNL     1      -7.362   9.736  70.212  1.00  0.00    -0.165 C  
HETATM    3  C   UNL     1      -8.834   9.468  70.266  1.00  0.00    -0.281 C  
HETATM    4  C   UNL     1      -9.711   8.535  68.647  1.00  0.00    -0.164 C  
HETATM    5  C   UNL     1     -11.489  14.870  69.780  1.00  0.00    -0.328 C  
HETATM    6  O   UNL     1      -8.902   8.112  67.481  1.00  0.00    -0.133 OA 
HETATM    7  C   UNL     1      -9.115   8.064  69.769  1.00  0.00    -0.149 C  
HETATM    8  C   UNL     1     -10.797   8.788  70.412  1.00  0.00    -0.256 C  
HETATM    9  H   UNL     1      -9.305   7.682  66.735  1.00  0.00     0.000 HD 
HETATM   10  C   UNL     1      -9.545  13.726  68.014  1.00  0.00    -0.214 C  
HETATM   11  O   UNL     1     -11.495  16.582  68.090  1.00  0.00    -0.251 OA 
HETATM   12  C   UNL     1      -8.459   6.745  70.130  1.00  0.00    -0.139 C  
HETATM   13  C   UNL     1     -11.244  10.237  69.477  1.00  0.00    -0.261 C  
HETATM   14  C   UNL     1      -8.292  13.167  67.388  1.00  0.00    -0.188 C  
HETATM   15  O   UNL     1     -11.884   9.728  68.294  1.00  0.00    -0.281 OA 
HETATM   16  C   UNL     1     -10.962  15.598  68.587  1.00  0.00    -0.294 C  
HETATM   17  C   UNL     1     -10.102  11.391  69.028  1.00  0.00    -0.110 C  
HETATM   18  C   UNL     1     -11.469  12.531  67.093  1.00  0.00    -0.414 C  
HETATM   19  C   UNL     1      -9.694  15.066  68.060  1.00  0.00    -0.213 C  
HETATM   20  H   UNL     1     -12.122  10.501  67.795  1.00  0.00     0.000 HD 
HETATM   21  C   UNL     1      -8.754  10.812  68.258  1.00  0.00    -0.136 C  
HETATM   22  C   UNL     1      -7.730  11.957  68.122  1.00  0.00    -0.126 C  
HETATM   23  C   UNL     1     -10.682  12.749  68.401  1.00  0.00    -0.269 C  
HETATM   24  C   UNL     1     -11.672  13.389  69.461  1.00  0.00    -0.385 C  
ENDROOT
BRANCH   4  25
HETATM   25  C   UNL     1     -10.732   7.110  68.468  1.00  0.00    -0.152 C  
HETATM   26  O   UNL     1     -11.313   6.501  69.386  1.00  0.00    -0.354 OA 
BRANCH  25  27
HETATM   27  C   UNL     1     -10.901   6.484  67.063  1.00  0.00    -0.395 C  
BRANCH  27  28
HETATM   28  O   UNL     1     -10.194   5.211  66.991  1.00  0.00    -0.196 OA 
BRANCH  28  29
HETATM   29  C   UNL     1     -10.099   4.635  65.760  1.00  0.00    -0.244 C  
HETATM   30  O   UNL     1     -11.056   4.303  65.077  1.00  0.00    -0.226 OA 
BRANCH  29  31
HETATM   31  C   UNL     1      -8.665   4.386  65.353  1.00  0.00    -0.125 C  
BRANCH  31  32
HETATM   32  C   UNL     1      -8.241   5.170  64.120  1.00  0.00    -0.131 C  
HETATM   33  C   UNL     1      -7.483   6.439  64.424  1.00  0.00    -0.090 C  
HETATM   34  O   UNL     1      -8.241   7.456  64.870  1.00  0.00    -0.131 OA 
HETATM   35  O   UNL     1      -6.274   6.557  64.232  1.00  0.00    -0.035 OA 
ENDBRANCH  31  32
ENDBRANCH  29  31
ENDBRANCH  28  29
ENDBRANCH  27  28
ENDBRANCH  25  27
ENDBRANCH   4  25
TORSDOF 6
ENDMDL
MODEL       83
REMARK 921   NORMALIZED FREE ENERGY PREDICTED BY IDOCK:   -4.68 KCAL/MOL
REMARK 922        TOTAL FREE ENERGY PREDICTED BY IDOCK:   -7.06 KCAL/MOL
REMARK 923 INTER-LIGAND FREE ENERGY PREDICTED BY IDOCK:   -7.20 KCAL/MOL
REMARK 924 INTRA-LIGAND FREE ENERGY PREDICTED BY IDOCK:    0.14 KCAL/MOL
REMARK 927      BINDING AFFINITY PREDICTED BY RF-SCORE:    0.00 PKD
ROOT
HETATM    1  C   UNL     1      -9.075  11.068  65.236  1.00  0.00    -0.207 C  
HETATM    2  C   UNL     1      -9.632   9.909  64.647  1.00  0.00    -0.320 C  
HETATM    3  C   UNL     1     -10.253  10.275  65.959  1.00  0.00    -0.298 C  
HETATM    4  C   UNL     1      -9.840  12.141  66.740  1.00  0.00    -0.206 C  
HETATM    5  C   UNL     1      -7.443   6.886  70.093  1.00  0.00    -0.090 C  
HETATM    6  O   UNL     1      -8.981  13.100  66.008  1.00  0.00    -0.436 OA 
HETATM    7  C   UNL     1     -10.792  11.690  65.889  1.00  0.00    -0.339 C  
HETATM    8  C   UNL     1     -11.328  10.960  67.605  1.00  0.00    -0.345 C  
HETATM    9  H   UNL     1      -8.790  13.959  66.368  1.00  0.00     0.000 HD 
HETATM   10  C   UNL     1      -6.236   8.621  68.158  1.00  0.00    -0.051 C  
HETATM   11  O   UNL     1      -5.158   6.689  70.817  1.00  0.00    -0.017 OA 
HETATM   12  C   UNL     1     -11.658  12.360  64.840  1.00  0.00    -0.392 C  
HETATM   13  C   UNL     1      -9.893  10.534  68.571  1.00  0.00    -0.168 C  
HETATM   14  C   UNL     1      -5.738   9.275  66.893  1.00  0.00    -0.048 C  
HETATM   15  O   UNL     1      -9.488  11.767  69.192  1.00  0.00    -0.400 OA 
HETATM   16  C   UNL     1      -5.963   7.037  69.963  1.00  0.00    -0.024 C  
HETATM   17  C   UNL     1      -8.543   9.800  67.880  1.00  0.00    -0.125 C  
HETATM   18  C   UNL     1      -6.802  10.376  69.764  1.00  0.00    -0.130 C  
HETATM   19  C   UNL     1      -5.519   7.604  68.678  1.00  0.00    -0.026 C  
HETATM   20  H   UNL     1      -8.722  11.539  69.706  1.00  0.00     0.000 HD 
HETATM   21  C   UNL     1      -7.922  10.549  66.539  1.00  0.00    -0.132 C  
HETATM   22  C   UNL     1      -6.848   9.636  65.915  1.00  0.00    -0.089 C  
HETATM   23  C   UNL     1      -7.433   9.262  68.904  1.00  0.00    -0.075 C  
HETATM   24  C   UNL     1      -8.134   8.231  69.885  1.00  0.00    -0.117 C  
ENDROOT
BRANCH   4  25
HETATM   25  C   UNL     1     -10.842  13.467  67.323  1.00  0.00    -0.269 C  
HETATM   26  O   UNL     1     -11.808  13.370  68.105  1.00  0.00    -0.339 OA 
BRANCH  25  27
HETATM   27  C   UNL     1     -10.574  14.896  66.793  1.00  0.00    -0.305 C  
BRANCH  27  28
HETATM   28  O   UNL     1      -9.627  15.585  67.661  1.00  0.00    -0.209 OA 
BRANCH  28  29
HETATM   29  C   UNL     1      -9.809  16.925  67.820  1.00  0.00    -0.252 C  
HETATM   30  O   UNL     1     -10.786  17.542  67.420  1.00  0.00    -0.296 OA 
BRANCH  29  31
HETATM   31  C   UNL     1      -8.630  17.590  68.491  1.00  0.00    -0.276 C  
BRANCH  31  32
HETATM   32  C   UNL     1      -8.717  19.108  68.506  1.00  0.00    -0.401 C  
HETATM   33  C   UNL     1      -8.324  19.763  67.204  1.00  0.00    -0.315 C  
HETATM   34  O   UNL     1      -7.002  19.793  66.963  1.00  0.00    -0.206 OA 
HETATM   35  O   UNL     1      -9.141  20.278  66.444  1.00  0.00    -0.293 OA 
ENDBRANCH  31  32
ENDBRANCH  29  31
ENDBRANCH  28  29
ENDBRANCH  27  28
ENDBRANCH  25  27
ENDBRANCH   4  25
TORSDOF 6
ENDMDL
MODEL       84
REMARK 921   NORMALIZED FREE ENERGY PREDICTED BY IDOCK:   -4.67 KCAL/MOL
REMARK 922        TOTAL FREE ENERGY PREDICTED BY IDOCK:   -7.05 KCAL/MOL
REMARK 923 INTER-LIGAND FREE ENERGY PREDICTED BY IDOCK:   -7.56 KCAL/MOL
REMARK 924 INTRA-LIGAND FREE ENERGY PREDICTED BY IDOCK:    0.51 KCAL/MOL
REMARK 927      BINDING AFFINITY PREDICTED BY RF-SCORE:    0.00 PKD
ROOT
HETATM    1  C   UNL     1     -12.257   8.816  71.944  1.00  0.00    -0.429 C  
HETATM    2  C   UNL     1     -13.557   8.509  71.479  1.00  0.00    -0.340 C  
HETATM    3  C   UNL     1     -12.464   7.968  70.611  1.00  0.00     0.224 C  
HETATM    4  C   UNL     1     -10.539   7.979  71.356  1.00  0.00    -0.216 C  
HETATM    5  C   UNL     1     -11.771  11.997  66.167  1.00  0.00    -0.313 C  
HETATM    6  O   UNL     1     -10.252   8.477  72.721  1.00  0.00    -0.256 OA 
HETATM    7  C   UNL     1     -11.551   7.082  71.435  1.00  0.00    -0.329 C  
HETATM    8  C   UNL     1     -10.963   6.948  69.591  1.00  0.00    -0.298 C  
HETATM    9  H   UNL     1      -9.366   8.482  73.064  1.00  0.00     0.000 HD 
HETATM   10  C   UNL     1     -11.709  12.496  68.988  1.00  0.00    -0.368 C  
HETATM   11  O   UNL     1     -11.166  14.324  66.102  1.00  0.00    -0.319 OA 
HETATM   12  C   UNL     1     -11.881   5.961  72.402  1.00  0.00    -0.263 C  
HETATM   13  C   UNL     1     -10.451   8.544  68.987  1.00  0.00    -0.200 C  
HETATM   14  C   UNL     1     -12.048  12.665  70.448  1.00  0.00    -0.381 C  
HETATM   15  O   UNL     1      -9.093   8.690  69.438  1.00  0.00    -0.147 OA 
HETATM   16  C   UNL     1     -11.588  13.366  66.736  1.00  0.00    -0.365 C  
HETATM   17  C   UNL     1     -11.305   9.949  69.358  1.00  0.00    -0.143 C  
HETATM   18  C   UNL     1      -9.408  11.688  68.816  1.00  0.00    -0.056 C  
HETATM   19  C   UNL     1     -12.008  13.503  68.141  1.00  0.00    -0.376 C  
HETATM   20  H   UNL     1      -8.821   9.542  69.116  1.00  0.00     0.000 HD 
HETATM   21  C   UNL     1     -11.613  10.203  70.966  1.00  0.00    -0.462 C  
HETATM   22  C   UNL     1     -12.580  11.396  71.101  1.00  0.00    -0.490 C  
HETATM   23  C   UNL     1     -10.870  11.269  68.556  1.00  0.00    -0.245 C  
HETATM   24  C   UNL     1     -11.020  10.968  67.007  1.00  0.00    -0.333 C  
ENDROOT
BRANCH   4  25
HETATM   25  C   UNL     1      -9.294   6.746  71.534  1.00  0.00    -0.153 C  
HETATM   26  O   UNL     1      -8.262   6.836  72.226  1.00  0.00    -0.106 OA 
BRANCH  25  27
HETATM   27  C   UNL     1      -9.420   5.434  70.723  1.00  0.00    -0.167 C  
BRANCH  27  28
HETATM   28  O   UNL     1      -8.114   5.023  70.224  1.00  0.00    -0.082 OA 
BRANCH  28  29
HETATM   29  C   UNL     1      -7.791   5.419  68.962  1.00  0.00    -0.090 C  
HETATM   30  O   UNL     1      -7.456   6.555  68.659  1.00  0.00    -0.085 OA 
BRANCH  29  31
HETATM   31  C   UNL     1      -7.957   4.308  67.950  1.00  0.00    -0.087 C  
BRANCH  31  32
HETATM   32  C   UNL     1      -9.371   4.195  67.402  1.00  0.00    -0.204 C  
HETATM   33  C   UNL     1      -9.591   4.929  66.101  1.00  0.00    -0.175 C  
HETATM   34  O   UNL     1      -9.690   6.264  66.216  1.00  0.00    -0.136 OA 
HETATM   35  O   UNL     1      -9.721   4.351  65.024  1.00  0.00    -0.169 OA 
ENDBRANCH  31  32
ENDBRANCH  29  31
ENDBRANCH  28  29
ENDBRANCH  27  28
ENDBRANCH  25  27
ENDBRANCH   4  25
TORSDOF 6
ENDMDL
MODEL       85
REMARK 921   NORMALIZED FREE ENERGY PREDICTED BY IDOCK:   -4.63 KCAL/MOL
REMARK 922        TOTAL FREE ENERGY PREDICTED BY IDOCK:   -6.99 KCAL/MOL
REMARK 923 INTER-LIGAND FREE ENERGY PREDICTED BY IDOCK:   -7.03 KCAL/MOL
REMARK 924 INTRA-LIGAND FREE ENERGY PREDICTED BY IDOCK:    0.04 KCAL/MOL
REMARK 927      BINDING AFFINITY PREDICTED BY RF-SCORE:    0.00 PKD
ROOT
HETATM    1  C   UNL     1     -10.181  12.943  66.663  1.00  0.00    -0.251 C  
HETATM    2  C   UNL     1     -11.037  12.161  67.473  1.00  0.00    -0.328 C  
HETATM    3  C   UNL     1      -9.620  12.200  67.955  1.00  0.00    -0.204 C  
HETATM    4  C   UNL     1      -8.352  13.603  67.128  1.00  0.00    -0.137 C  
HETATM    5  C   UNL     1      -7.026   7.199  65.780  1.00  0.00    -0.061 C  
HETATM    6  O   UNL     1      -8.839  14.565  66.113  1.00  0.00    -0.480 OA 
HETATM    7  C   UNL     1      -9.200  13.637  68.185  1.00  0.00    -0.204 C  
HETATM    8  C   UNL     1      -7.743  12.513  68.801  1.00  0.00     0.003 C  
HETATM    9  H   UNL     1      -8.255  15.211  65.732  1.00  0.00     0.000 HD 
HETATM   10  C   UNL     1      -8.450   9.199  64.303  1.00  0.00    -0.200 C  
HETATM   11  O   UNL     1      -6.632   6.351  63.564  1.00  0.00    -0.035 OA 
HETATM   12  C   UNL     1      -9.900  14.759  68.926  1.00  0.00    -0.222 C  
HETATM   13  C   UNL     1      -7.104  11.536  67.454  1.00  0.00    -0.119 C  
HETATM   14  C   UNL     1      -9.498  10.117  63.724  1.00  0.00    -0.330 C  
HETATM   15  O   UNL     1      -6.181  12.405  66.776  1.00  0.00    -0.484 OA 
HETATM   16  C   UNL     1      -7.253   7.100  64.307  1.00  0.00    -0.072 C  
HETATM   17  C   UNL     1      -8.120  10.820  66.317  1.00  0.00    -0.159 C  
HETATM   18  C   UNL     1      -6.336  10.422  64.427  1.00  0.00    -0.045 C  
HETATM   19  C   UNL     1      -8.341   7.953  63.799  1.00  0.00     0.083 C  
HETATM   20  H   UNL     1      -5.841  11.884  66.057  1.00  0.00     0.000 HD 
HETATM   21  C   UNL     1      -9.224  11.826  65.600  1.00  0.00    -0.109 C  
HETATM   22  C   UNL     1     -10.202  10.974  64.767  1.00  0.00    -0.381 C  
HETATM   23  C   UNL     1      -7.427   9.782  65.309  1.00  0.00    -0.120 C  
HETATM   24  C   UNL     1      -6.742   8.645  66.177  1.00  0.00    -0.069 C  
ENDROOT
BRANCH   4  25
HETATM   25  C   UNL     1      -7.293  14.837  67.805  1.00  0.00    -0.170 C  
HETATM   26  O   UNL     1      -6.752  14.808  68.927  1.00  0.00    -0.089 OA 
BRANCH  25  27
HETATM   27  C   UNL     1      -7.033  16.127  66.991  1.00  0.00    -0.199 C  
BRANCH  27  28
HETATM   28  O   UNL     1      -6.521  17.178  67.862  1.00  0.00    -0.142 OA 
BRANCH  28  29
HETATM   29  C   UNL     1      -6.796  18.461  67.497  1.00  0.00    -0.202 C  
HETATM   30  O   UNL     1      -6.455  19.448  68.133  1.00  0.00    -0.224 OA 
BRANCH  29  31
HETATM   31  C   UNL     1      -7.634  18.534  66.242  1.00  0.00    -0.286 C  
BRANCH  31  32
HETATM   32  C   UNL     1      -8.990  19.189  66.456  1.00  0.00    -0.359 C  
HETATM   33  C   UNL     1     -10.139  18.216  66.550  1.00  0.00    -0.386 C  
HETATM   34  O   UNL     1     -10.526  17.684  65.377  1.00  0.00    -0.648 OA 
HETATM   35  O   UNL     1     -10.715  17.964  67.606  1.00  0.00    -0.399 OA 
ENDBRANCH  31  32
ENDBRANCH  29  31
ENDBRANCH  28  29
ENDBRANCH  27  28
ENDBRANCH  25  27
ENDBRANCH   4  25
TORSDOF 6
ENDMDL
MODEL       86
REMARK 921   NORMALIZED FREE ENERGY PREDICTED BY IDOCK:   -4.58 KCAL/MOL
REMARK 922        TOTAL FREE ENERGY PREDICTED BY IDOCK:   -6.93 KCAL/MOL
REMARK 923 INTER-LIGAND FREE ENERGY PREDICTED BY IDOCK:   -6.04 KCAL/MOL
REMARK 924 INTRA-LIGAND FREE ENERGY PREDICTED BY IDOCK:   -0.89 KCAL/MOL
REMARK 927      BINDING AFFINITY PREDICTED BY RF-SCORE:    0.00 PKD
ROOT
HETATM    1  C   UNL     1      -7.631   9.015  69.390  1.00  0.00    -0.078 C  
HETATM    2  C   UNL     1      -8.022   9.542  70.643  1.00  0.00    -0.152 C  
HETATM    3  C   UNL     1      -9.152   8.952  69.858  1.00  0.00    -0.166 C  
HETATM    4  C   UNL     1      -8.689   7.795  68.212  1.00  0.00    -0.127 C  
HETATM    5  C   UNL     1     -11.772  13.599  67.028  1.00  0.00    -0.419 C  
HETATM    6  O   UNL     1      -7.281   7.530  67.838  1.00  0.00    -0.085 OA 
HETATM    7  C   UNL     1      -8.840   7.506  69.527  1.00  0.00    -0.137 C  
HETATM    8  C   UNL     1     -10.652   7.851  68.922  1.00  0.00    -0.165 C  
HETATM    9  H   UNL     1      -7.068   6.997  67.080  1.00  0.00     0.000 HD 
HETATM   10  C   UNL     1      -9.002  12.868  66.969  1.00  0.00    -0.225 C  
HETATM   11  O   UNL     1     -11.014  15.212  65.413  1.00  0.00    -0.336 OA 
HETATM   12  C   UNL     1      -8.343   6.380  70.414  1.00  0.00    -0.126 C  
HETATM   13  C   UNL     1     -10.656   9.133  67.684  1.00  0.00    -0.242 C  
HETATM   14  C   UNL     1      -7.559  12.586  67.307  1.00  0.00    -0.131 C  
HETATM   15  O   UNL     1     -10.346   8.456  66.453  1.00  0.00    -0.408 OA 
HETATM   16  C   UNL     1     -10.749  14.389  66.279  1.00  0.00    -0.307 C  
HETATM   17  C   UNL     1      -9.681  10.500  67.819  1.00  0.00    -0.180 C  
HETATM   18  C   UNL     1      -9.736  11.243  65.297  1.00  0.00    -0.280 C  
HETATM   19  C   UNL     1      -9.360  14.140  66.700  1.00  0.00    -0.299 C  
HETATM   20  H   UNL     1     -10.348   9.140  65.794  1.00  0.00     0.000 HD 
HETATM   21  C   UNL     1      -8.074  10.216  68.102  1.00  0.00    -0.105 C  
HETATM   22  C   UNL     1      -7.381  11.557  68.415  1.00  0.00    -0.097 C  
HETATM   23  C   UNL     1      -9.963  11.672  66.760  1.00  0.00    -0.229 C  
HETATM   24  C   UNL     1     -11.482  12.105  66.908  1.00  0.00    -0.414 C  
ENDROOT
BRANCH   4  25
HETATM   25  C   UNL     1      -9.141   6.172  67.697  1.00  0.00    -0.109 C  
HETATM   26  O   UNL     1     -10.296   5.703  67.672  1.00  0.00    -0.182 OA 
BRANCH  25  27
HETATM   27  C   UNL     1      -8.027   5.180  67.288  1.00  0.00    -0.100 C  
BRANCH  27  28
HETATM   28  O   UNL     1      -7.583   5.454  65.927  1.00  0.00    -0.081 OA 
BRANCH  28  29
HETATM   29  C   UNL     1      -8.294   4.868  64.924  1.00  0.00    -0.138 C  
HETATM   30  O   UNL     1      -8.951   3.844  65.049  1.00  0.00    -0.121 OA 
BRANCH  29  31
HETATM   31  C   UNL     1      -8.128   5.588  63.606  1.00  0.00    -0.121 C  
BRANCH  31  32
HETATM   32  C   UNL     1      -7.121   6.726  63.660  1.00  0.00    -0.060 C  
HETATM   33  C   UNL     1      -7.731   8.080  63.933  1.00  0.00    -0.138 C  
HETATM   34  O   UNL     1      -8.372   8.631  62.888  1.00  0.00    -0.187 OA 
HETATM   35  O   UNL     1      -7.610   8.661  65.010  1.00  0.00    -0.091 OA 
ENDBRANCH  31  32
ENDBRANCH  29  31
ENDBRANCH  28  29
ENDBRANCH  27  28
ENDBRANCH  25  27
ENDBRANCH   4  25
TORSDOF 6
ENDMDL
MODEL       87
REMARK 921   NORMALIZED FREE ENERGY PREDICTED BY IDOCK:   -4.51 KCAL/MOL
REMARK 922        TOTAL FREE ENERGY PREDICTED BY IDOCK:   -6.82 KCAL/MOL
REMARK 923 INTER-LIGAND FREE ENERGY PREDICTED BY IDOCK:   -7.16 KCAL/MOL
REMARK 924 INTRA-LIGAND FREE ENERGY PREDICTED BY IDOCK:    0.34 KCAL/MOL
REMARK 927      BINDING AFFINITY PREDICTED BY RF-SCORE:    0.00 PKD
ROOT
HETATM    1  C   UNL     1     -10.733   7.355  68.786  1.00  0.00    -0.145 C  
HETATM    2  C   UNL     1     -10.341   6.520  69.858  1.00  0.00    -0.231 C  
HETATM    3  C   UNL     1      -9.287   7.497  69.439  1.00  0.00    -0.152 C  
HETATM    4  C   UNL     1      -9.839   9.036  68.178  1.00  0.00    -0.166 C  
HETATM    5  C   UNL     1      -5.659   4.465  65.682  1.00  0.00    -0.017 C  
HETATM    6  O   UNL     1     -11.242   9.188  67.729  1.00  0.00    -0.474 OA 
HETATM    7  C   UNL     1      -9.837   8.907  69.526  1.00  0.00    -0.180 C  
HETATM    8  C   UNL     1      -7.955   9.056  69.077  1.00  0.00    -0.102 C  
HETATM    9  H   UNL     1     -11.496   9.896  67.148  1.00  0.00     0.000 HD 
HETATM   10  C   UNL     1      -8.505   4.742  65.501  1.00  0.00    -0.127 C  
HETATM   11  O   UNL     1      -5.989   3.360  63.572  1.00  0.00    -0.013 OA 
HETATM   12  C   UNL     1     -10.595   9.598  70.643  1.00  0.00    -0.386 C  
HETATM   13  C   UNL     1      -7.626   8.256  67.519  1.00  0.00    -0.098 C  
HETATM   14  C   UNL     1      -9.995   4.675  65.725  1.00  0.00    -0.246 C  
HETATM   15  O   UNL     1      -7.969   9.237  66.523  1.00  0.00    -0.103 OA 
HETATM   16  C   UNL     1      -6.462   3.810  64.607  1.00  0.00    -0.038 C  
HETATM   17  C   UNL     1      -8.338   6.786  67.108  1.00  0.00    -0.121 C  
HETATM   18  C   UNL     1      -7.969   6.910  64.508  1.00  0.00    -0.106 C  
HETATM   19  C   UNL     1      -7.900   3.694  64.905  1.00  0.00    -0.085 C  
HETATM   20  H   UNL     1      -7.793   8.810  65.692  1.00  0.00     0.000 HD 
HETATM   21  C   UNL     1      -9.986   6.714  67.261  1.00  0.00    -0.199 C  
HETATM   22  C   UNL     1     -10.438   5.254  67.062  1.00  0.00    -0.290 C  
HETATM   23  C   UNL     1      -7.769   6.074  65.788  1.00  0.00    -0.097 C  
HETATM   24  C   UNL     1      -6.212   5.855  65.986  1.00  0.00    -0.037 C  
ENDROOT
BRANCH   4  25
HETATM   25  C   UNL     1      -9.659  10.787  68.241  1.00  0.00    -0.166 C  
HETATM   26  O   UNL     1      -8.612  11.410  68.500  1.00  0.00    -0.151 OA 
BRANCH  25  27
HETATM   27  C   UNL     1     -10.907  11.675  68.023  1.00  0.00    -0.215 C  
BRANCH  27  28
HETATM   28  O   UNL     1     -10.530  13.083  68.023  1.00  0.00    -0.216 OA 
BRANCH  28  29
HETATM   29  C   UNL     1     -11.531  13.983  67.817  1.00  0.00    -0.322 C  
HETATM   30  O   UNL     1     -12.224  14.027  66.810  1.00  0.00    -0.439 OA 
BRANCH  29  31
HETATM   31  C   UNL     1     -11.653  14.976  68.949  1.00  0.00    -0.349 C  
BRANCH  31  32
HETATM   32  C   UNL     1     -12.329  14.405  70.186  1.00  0.00    -0.406 C  
HETATM   33  C   UNL     1     -12.818  15.449  71.161  1.00  0.00    -0.455 C  
HETATM   34  O   UNL     1     -11.855  16.031  71.895  1.00  0.00    -0.456 OA 
HETATM   35  O   UNL     1     -14.010  15.713  71.312  1.00  0.00    -0.570 OA 
ENDBRANCH  31  32
ENDBRANCH  29  31
ENDBRANCH  28  29
ENDBRANCH  27  28
ENDBRANCH  25  27
ENDBRANCH   4  25
TORSDOF 6
ENDMDL
MODEL       88
REMARK 921   NORMALIZED FREE ENERGY PREDICTED BY IDOCK:   -4.49 KCAL/MOL
REMARK 922        TOTAL FREE ENERGY PREDICTED BY IDOCK:   -6.79 KCAL/MOL
REMARK 923 INTER-LIGAND FREE ENERGY PREDICTED BY IDOCK:   -7.71 KCAL/MOL
REMARK 924 INTRA-LIGAND FREE ENERGY PREDICTED BY IDOCK:    0.92 KCAL/MOL
REMARK 927      BINDING AFFINITY PREDICTED BY RF-SCORE:    0.00 PKD
ROOT
HETATM    1  C   UNL     1      -7.308  12.006  67.673  1.00  0.00    -0.121 C  
HETATM    2  C   UNL     1      -6.662  11.942  68.930  1.00  0.00    -0.095 C  
HETATM    3  C   UNL     1      -7.807  10.987  68.791  1.00  0.00    -0.138 C  
HETATM    4  C   UNL     1      -8.585  10.674  66.905  1.00  0.00    -0.126 C  
HETATM    5  C   UNL     1     -12.548  13.750  71.312  1.00  0.00    -0.444 C  
HETATM    6  O   UNL     1      -8.006  11.348  65.720  1.00  0.00    -0.371 OA 
HETATM    7  C   UNL     1      -7.576  10.087  67.593  1.00  0.00    -0.091 C  
HETATM    8  C   UNL     1      -9.175   9.446  68.487  1.00  0.00    -0.131 C  
HETATM    9  H   UNL     1      -8.365  11.204  64.852  1.00  0.00     0.000 HD 
HETATM   10  C   UNL     1     -10.833  14.773  69.256  1.00  0.00    -0.275 C  
HETATM   11  O   UNL     1     -13.726  15.796  70.852  1.00  0.00    -0.496 OA 
HETATM   12  C   UNL     1      -6.350   9.298  67.180  1.00  0.00    -0.062 C  
HETATM   13  C   UNL     1     -10.426  10.715  68.500  1.00  0.00    -0.191 C  
HETATM   14  C   UNL     1      -9.672  15.307  68.456  1.00  0.00    -0.211 C  
HETATM   15  O   UNL     1     -11.069  10.610  67.217  1.00  0.00    -0.302 OA 
HETATM   16  C   UNL     1     -12.714  15.118  70.733  1.00  0.00    -0.405 C  
HETATM   17  C   UNL     1     -10.050  12.331  68.793  1.00  0.00    -0.082 C  
HETATM   18  C   UNL     1     -12.224  13.407  67.780  1.00  0.00    -0.171 C  
HETATM   19  C   UNL     1     -11.525  15.631  70.032  1.00  0.00    -0.352 C  
HETATM   20  H   UNL     1     -11.736  11.287  67.224  1.00  0.00     0.000 HD 
HETATM   21  C   UNL     1      -8.835  12.969  67.865  1.00  0.00    -0.193 C  
HETATM   22  C   UNL     1      -8.476  14.365  68.411  1.00  0.00    -0.165 C  
HETATM   23  C   UNL     1     -11.298  13.316  69.009  1.00  0.00    -0.334 C  
HETATM   24  C   UNL     1     -12.154  12.758  70.221  1.00  0.00    -0.373 C  
ENDROOT
BRANCH   4  25
HETATM   25  C   UNL     1      -8.903   9.234  65.942  1.00  0.00    -0.166 C  
HETATM   26  O   UNL     1      -9.135   9.204  64.717  1.00  0.00    -0.200 OA 
BRANCH  25  27
HETATM   27  C   UNL     1      -8.974   7.860  66.651  1.00  0.00    -0.151 C  
BRANCH  27  28
HETATM   28  O   UNL     1     -10.257   7.221  66.385  1.00  0.00    -0.113 OA 
BRANCH  28  29
HETATM   29  C   UNL     1     -10.427   5.965  66.881  1.00  0.00    -0.286 C  
HETATM   30  O   UNL     1     -10.719   4.989  66.206  1.00  0.00    -0.312 OA 
BRANCH  29  31
HETATM   31  C   UNL     1     -10.282   5.917  68.385  1.00  0.00    -0.236 C  
BRANCH  31  32
HETATM   32  C   UNL     1     -11.523   6.385  69.129  1.00  0.00    -0.265 C  
HETATM   33  C   UNL     1     -11.268   6.804  70.556  1.00  0.00    -0.320 C  
HETATM   34  O   UNL     1     -11.073   5.791  71.417  1.00  0.00    -0.263 OA 
HETATM   35  O   UNL     1     -11.286   7.979  70.919  1.00  0.00    -0.271 OA 
ENDBRANCH  31  32
ENDBRANCH  29  31
ENDBRANCH  28  29
ENDBRANCH  27  28
ENDBRANCH  25  27
ENDBRANCH   4  25
TORSDOF 6
ENDMDL
MODEL       89
REMARK 921   NORMALIZED FREE ENERGY PREDICTED BY IDOCK:   -4.38 KCAL/MOL
REMARK 922        TOTAL FREE ENERGY PREDICTED BY IDOCK:   -6.64 KCAL/MOL
REMARK 923 INTER-LIGAND FREE ENERGY PREDICTED BY IDOCK:   -6.80 KCAL/MOL
REMARK 924 INTRA-LIGAND FREE ENERGY PREDICTED BY IDOCK:    0.15 KCAL/MOL
REMARK 927      BINDING AFFINITY PREDICTED BY RF-SCORE:    0.00 PKD
ROOT
HETATM    1  C   UNL     1     -12.048   7.737  72.176  1.00  0.00    -0.346 C  
HETATM    2  C   UNL     1     -13.262   7.287  71.609  1.00  0.00    -0.421 C  
HETATM    3  C   UNL     1     -12.043   6.719  70.952  1.00  0.00    -0.421 C  
HETATM    4  C   UNL     1     -10.228   6.955  71.907  1.00  0.00    -0.188 C  
HETATM    5  C   UNL     1     -11.021  10.203  66.127  1.00  0.00     0.244 C  
HETATM    6  O   UNL     1     -10.140   7.637  73.219  1.00  0.00    -0.291 OA 
HETATM    7  C   UNL     1     -11.193   6.007  71.986  1.00  0.00    -0.341 C  
HETATM    8  C   UNL     1     -10.374   5.685  70.256  1.00  0.00    -0.336 C  
HETATM    9  H   UNL     1      -9.304   7.745  73.658  1.00  0.00     0.000 HD 
HETATM   10  C   UNL     1     -11.336  11.051  68.845  1.00  0.00    -0.346 C  
HETATM   11  O   UNL     1     -10.538  12.540  65.827  1.00  0.00    -0.260 OA 
HETATM   12  C   UNL     1     -11.579   4.995  73.046  1.00  0.00    -0.299 C  
HETATM   13  C   UNL     1      -9.878   7.226  69.510  1.00  0.00    -0.163 C  
HETATM   14  C   UNL     1     -11.862  11.376  70.222  1.00  0.00    -0.438 C  
HETATM   15  O   UNL     1      -8.596   7.519  70.093  1.00  0.00    -0.138 OA 
HETATM   16  C   UNL     1     -10.983  11.641  66.528  1.00  0.00    -0.299 C  
HETATM   17  C   UNL     1     -10.845   8.603  69.592  1.00  0.00    -0.163 C  
HETATM   18  C   UNL     1      -8.992  10.388  69.049  1.00  0.00    -0.184 C  
HETATM   19  C   UNL     1     -11.581  11.922  67.845  1.00  0.00    -0.393 C  
HETATM   20  H   UNL     1      -8.332   8.341  69.695  1.00  0.00     0.000 HD 
HETATM   21  C   UNL     1     -11.363   9.034  71.106  1.00  0.00    -0.375 C  
HETATM   22  C   UNL     1     -12.401  10.165  70.970  1.00  0.00    -0.474 C  
HETATM   23  C   UNL     1     -10.385   9.840  68.680  1.00  0.00    -0.224 C  
HETATM   24  C   UNL     1     -10.326   9.340  67.176  1.00  0.00    -0.330 C  
ENDROOT
BRANCH   4  25
HETATM   25  C   UNL     1      -8.951   5.841  72.388  1.00  0.00    -0.141 C  
HETATM   26  O   UNL     1      -9.038   4.599  72.438  1.00  0.00    -0.123 OA 
BRANCH  25  27
HETATM   27  C   UNL     1      -7.595   6.418  72.862  1.00  0.00    -0.095 C  
BRANCH  27  28
HETATM   28  O   UNL     1      -6.633   6.407  71.768  1.00  0.00    -0.055 OA 
BRANCH  28  29
HETATM   29  C   UNL     1      -5.779   5.347  71.718  1.00  0.00    -0.020 C  
HETATM   30  O   UNL     1      -5.379   4.735  72.698  1.00  0.00    -0.007 OA 
BRANCH  29  31
HETATM   31  C   UNL     1      -5.318   5.047  70.310  1.00  0.00    -0.004 C  
BRANCH  31  32
HETATM   32  C   UNL     1      -6.434   5.113  69.280  1.00  0.00    -0.035 C  
HETATM   33  C   UNL     1      -7.078   3.781  68.980  1.00  0.00    -0.046 C  
HETATM   34  O   UNL     1      -6.346   2.962  68.206  1.00  0.00    -0.028 OA 
HETATM   35  O   UNL     1      -8.207   3.484  69.367  1.00  0.00    -0.053 OA 
ENDBRANCH  31  32
ENDBRANCH  29  31
ENDBRANCH  28  29
ENDBRANCH  27  28
ENDBRANCH  25  27
ENDBRANCH   4  25
TORSDOF 6
ENDMDL
MODEL       90
REMARK 921   NORMALIZED FREE ENERGY PREDICTED BY IDOCK:   -4.36 KCAL/MOL
REMARK 922        TOTAL FREE ENERGY PREDICTED BY IDOCK:   -6.62 KCAL/MOL
REMARK 923 INTER-LIGAND FREE ENERGY PREDICTED BY IDOCK:   -6.45 KCAL/MOL
REMARK 924 INTRA-LIGAND FREE ENERGY PREDICTED BY IDOCK:   -0.17 KCAL/MOL
REMARK 927      BINDING AFFINITY PREDICTED BY RF-SCORE:    0.00 PKD
ROOT
HETATM    1  C   UNL     1      -8.427   9.912  66.299  1.00  0.00    -0.133 C  
HETATM    2  C   UNL     1      -9.294  10.355  65.273  1.00  0.00    -0.263 C  
HETATM    3  C   UNL     1      -9.996   9.655  66.394  1.00  0.00    -0.323 C  
HETATM    4  C   UNL     1      -8.942   9.312  68.135  1.00  0.00    -0.128 C  
HETATM    5  C   UNL     1     -10.676   3.938  64.570  1.00  0.00    -0.172 C  
HETATM    6  O   UNL     1      -7.543   9.774  68.282  1.00  0.00    -0.080 OA 
HETATM    7  C   UNL     1      -9.690  10.355  67.703  1.00  0.00    -0.191 C  
HETATM    8  C   UNL     1     -11.002   8.978  68.087  1.00  0.00     0.015 C  
HETATM    9  H   UNL     1      -7.057   9.616  69.084  1.00  0.00     0.000 HD 
HETATM   10  C   UNL     1      -8.244   5.451  64.672  1.00  0.00    -0.133 C  
HETATM   11  O   UNL     1      -9.144   2.189  63.954  1.00  0.00    -0.095 OA 
HETATM   12  C   UNL     1      -9.738  11.827  68.064  1.00  0.00    -0.185 C  
HETATM   13  C   UNL     1     -10.345   7.370  67.689  1.00  0.00    -0.231 C  
HETATM   14  C   UNL     1      -7.135   6.448  64.448  1.00  0.00    -0.057 C  
HETATM   15  O   UNL     1      -9.572   6.993  68.843  1.00  0.00    -0.141 OA 
HETATM   16  C   UNL     1      -9.365   3.382  64.121  1.00  0.00    -0.133 C  
HETATM   17  C   UNL     1      -9.425   7.105  66.303  1.00  0.00    -0.125 C  
HETATM   18  C   UNL     1      -8.281   4.856  67.044  1.00  0.00    -0.107 C  
HETATM   19  C   UNL     1      -8.337   4.398  63.835  1.00  0.00    -0.108 C  
HETATM   20  H   UNL     1      -9.222   6.136  68.631  1.00  0.00     0.000 HD 
HETATM   21  C   UNL     1      -8.145   8.132  66.079  1.00  0.00    -0.112 C  
HETATM   22  C   UNL     1      -7.559   7.893  64.673  1.00  0.00    -0.109 C  
HETATM   23  C   UNL     1      -9.105   5.572  65.954  1.00  0.00    -0.163 C  
HETATM   24  C   UNL     1     -10.486   4.807  65.810  1.00  0.00    -0.275 C  
ENDROOT
BRANCH   4  25
HETATM   25  C   UNL     1      -9.247   9.663  69.834  1.00  0.00    -0.229 C  
HETATM   26  O   UNL     1     -10.211  10.307  70.290  1.00  0.00    -0.203 OA 
BRANCH  25  27
HETATM   27  C   UNL     1      -8.215   9.201  70.890  1.00  0.00    -0.177 C  
BRANCH  27  28
HETATM   28  O   UNL     1      -8.881   8.914  72.154  1.00  0.00    -0.381 OA 
BRANCH  28  29
HETATM   29  C   UNL     1      -9.418   7.670  72.292  1.00  0.00    -0.160 C  
HETATM   30  O   UNL     1      -8.919   6.648  71.842  1.00  0.00    -0.137 OA 
BRANCH  29  31
HETATM   31  C   UNL     1     -10.746   7.694  73.011  1.00  0.00    -0.449 C  
BRANCH  31  32
HETATM   32  C   UNL     1     -11.882   8.253  72.169  1.00  0.00    -0.431 C  
HETATM   33  C   UNL     1     -12.727   7.200  71.493  1.00  0.00    -0.393 C  
HETATM   34  O   UNL     1     -12.155   6.617  70.425  1.00  0.00    -0.374 OA 
HETATM   35  O   UNL     1     -13.870   6.928  71.855  1.00  0.00    -0.266 OA 
ENDBRANCH  31  32
ENDBRANCH  29  31
ENDBRANCH  28  29
ENDBRANCH  27  28
ENDBRANCH  25  27
ENDBRANCH   4  25
TORSDOF 6
ENDMDL
MODEL       91
REMARK 921   NORMALIZED FREE ENERGY PREDICTED BY IDOCK:   -4.34 KCAL/MOL
REMARK 922        TOTAL FREE ENERGY PREDICTED BY IDOCK:   -6.60 KCAL/MOL
REMARK 923 INTER-LIGAND FREE ENERGY PREDICTED BY IDOCK:   -7.13 KCAL/MOL
REMARK 924 INTRA-LIGAND FREE ENERGY PREDICTED BY IDOCK:    0.53 KCAL/MOL
REMARK 927      BINDING AFFINITY PREDICTED BY RF-SCORE:    0.00 PKD
ROOT
HETATM    1  C   UNL     1     -10.324  14.864  65.338  1.00  0.00    -0.413 C  
HETATM    2  C   UNL     1     -11.696  14.750  65.010  1.00  0.00    -0.364 C  
HETATM    3  C   UNL     1     -11.443  15.038  66.457  1.00  0.00    -0.239 C  
HETATM    4  C   UNL     1      -9.544  15.627  67.012  1.00  0.00    -0.223 C  
HETATM    5  C   UNL     1     -11.611   9.679  69.236  1.00  0.00     0.197 C  
HETATM    6  O   UNL     1      -8.472  15.791  66.004  1.00  0.00    -0.339 OA 
HETATM    7  C   UNL     1     -10.633  16.312  66.589  1.00  0.00    -0.252 C  
HETATM    8  C   UNL     1     -11.112  15.754  68.385  1.00  0.00    -0.341 C  
HETATM    9  H   UNL     1      -7.597  16.062  66.259  1.00  0.00     0.000 HD 
HETATM   10  C   UNL     1     -10.008  10.414  66.978  1.00  0.00    -0.252 C  
HETATM   11  O   UNL     1     -10.325   7.656  69.040  1.00  0.00    -0.207 OA 
HETATM   12  C   UNL     1     -10.826  17.671  65.943  1.00  0.00     0.027 C  
HETATM   13  C   UNL     1     -10.426  14.147  68.736  1.00  0.00    -0.247 C  
HETATM   14  C   UNL     1      -9.505  10.820  65.615  1.00  0.00    -0.250 C  
HETATM   15  O   UNL     1      -9.073  14.408  69.149  1.00  0.00    -0.378 OA 
HETATM   16  C   UNL     1     -10.696   8.716  68.553  1.00  0.00    -0.043 C  
HETATM   17  C   UNL     1     -10.420  12.914  67.588  1.00  0.00    -0.228 C  
HETATM   18  C   UNL     1      -8.550  11.413  68.668  1.00  0.00    -0.126 C  
HETATM   19  C   UNL     1     -10.297   9.115  67.193  1.00  0.00    -0.337 C  
HETATM   20  H   UNL     1      -8.707  13.551  69.336  1.00  0.00     0.000 HD 
HETATM   21  C   UNL     1      -9.790  13.309  66.108  1.00  0.00    -0.286 C  
HETATM   22  C   UNL     1     -10.065  12.150  65.128  1.00  0.00    -0.288 C  
HETATM   23  C   UNL     1      -9.990  11.462  68.118  1.00  0.00    -0.196 C  
HETATM   24  C   UNL     1     -10.973  11.064  69.297  1.00  0.00    -0.305 C  
ENDROOT
BRANCH   4  25
HETATM   25  C   UNL     1      -8.909  16.993  67.924  1.00  0.00    -0.224 C  
HETATM   26  O   UNL     1      -8.789  17.059  69.163  1.00  0.00    -0.180 OA 
BRANCH  25  27
HETATM   27  C   UNL     1      -8.510  18.280  67.163  1.00  0.00    -0.250 C  
BRANCH  27  28
HETATM   28  O   UNL     1      -7.301  18.853  67.742  1.00  0.00    -0.230 OA 
BRANCH  28  29
HETATM   29  C   UNL     1      -6.128  18.565  67.113  1.00  0.00    -0.165 C  
HETATM   30  O   UNL     1      -5.865  17.486  66.602  1.00  0.00    -0.154 OA 
BRANCH  29  31
HETATM   31  C   UNL     1      -5.147  19.713  67.173  1.00  0.00    -0.158 C  
BRANCH  31  32
HETATM   32  C   UNL     1      -5.447  20.819  66.173  1.00  0.00    -0.229 C  
HETATM   33  C   UNL     1      -6.158  20.351  64.927  1.00  0.00    -0.261 C  
HETATM   34  O   UNL     1      -5.382  19.697  64.046  1.00  0.00    -0.181 OA 
HETATM   35  O   UNL     1      -7.343  20.591  64.706  1.00  0.00    -0.011 OA 
ENDBRANCH  31  32
ENDBRANCH  29  31
ENDBRANCH  28  29
ENDBRANCH  27  28
ENDBRANCH  25  27
ENDBRANCH   4  25
TORSDOF 6
ENDMDL
MODEL       92
REMARK 921   NORMALIZED FREE ENERGY PREDICTED BY IDOCK:   -4.34 KCAL/MOL
REMARK 922        TOTAL FREE ENERGY PREDICTED BY IDOCK:   -6.59 KCAL/MOL
REMARK 923 INTER-LIGAND FREE ENERGY PREDICTED BY IDOCK:   -6.66 KCAL/MOL
REMARK 924 INTRA-LIGAND FREE ENERGY PREDICTED BY IDOCK:    0.07 KCAL/MOL
REMARK 927      BINDING AFFINITY PREDICTED BY RF-SCORE:    0.00 PKD
ROOT
HETATM    1  C   UNL     1      -7.226  11.688  67.657  1.00  0.00    -0.107 C  
HETATM    2  C   UNL     1      -6.655  11.537  68.943  1.00  0.00    -0.073 C  
HETATM    3  C   UNL     1      -7.853  10.671  68.710  1.00  0.00    -0.125 C  
HETATM    4  C   UNL     1      -8.548  10.476  66.776  1.00  0.00    -0.126 C  
HETATM    5  C   UNL     1     -12.521  13.682  71.081  1.00  0.00    -0.442 C  
HETATM    6  O   UNL     1      -7.861  11.146  65.648  1.00  0.00    -0.363 OA 
HETATM    7  C   UNL     1      -7.621   9.797  67.494  1.00  0.00    -0.091 C  
HETATM    8  C   UNL     1      -9.307   9.243  68.280  1.00  0.00    -0.141 C  
HETATM    9  H   UNL     1      -8.181  11.056  64.757  1.00  0.00     0.000 HD 
HETATM   10  C   UNL     1     -10.631  14.646  69.154  1.00  0.00    -0.247 C  
HETATM   11  O   UNL     1     -13.528  15.821  70.635  1.00  0.00    -0.453 OA 
HETATM   12  C   UNL     1      -6.432   8.936  67.116  1.00  0.00    -0.061 C  
HETATM   13  C   UNL     1     -10.466  10.596  68.274  1.00  0.00    -0.187 C  
HETATM   14  C   UNL     1      -9.393  15.122  68.436  1.00  0.00    -0.197 C  
HETATM   15  O   UNL     1     -11.044  10.579  66.957  1.00  0.00    -0.236 OA 
HETATM   16  C   UNL     1     -12.561  15.076  70.544  1.00  0.00    -0.369 C  
HETATM   17  C   UNL     1      -9.995  12.171  68.645  1.00  0.00    -0.137 C  
HETATM   18  C   UNL     1     -12.031  13.431  67.560  1.00  0.00    -0.381 C  
HETATM   19  C   UNL     1     -11.303  15.526  69.924  1.00  0.00    -0.323 C  
HETATM   20  H   UNL     1     -11.662  11.301  66.954  1.00  0.00     0.000 HD 
HETATM   21  C   UNL     1      -8.690  12.751  67.804  1.00  0.00    -0.184 C  
HETATM   22  C   UNL     1      -8.265  14.099  68.419  1.00  0.00    -0.149 C  
HETATM   23  C   UNL     1     -11.181  13.234  68.831  1.00  0.00    -0.322 C  
HETATM   24  C   UNL     1     -12.138  12.700  69.977  1.00  0.00    -0.339 C  
ENDROOT
BRANCH   4  25
HETATM   25  C   UNL     1      -8.913   9.094  65.746  1.00  0.00    -0.193 C  
HETATM   26  O   UNL     1      -9.778   8.224  65.962  1.00  0.00    -0.168 OA 
BRANCH  25  27
HETATM   27  C   UNL     1      -8.062   8.864  64.474  1.00  0.00    -0.150 C  
BRANCH  27  28
HETATM   28  O   UNL     1      -8.215   7.492  64.007  1.00  0.00    -0.081 OA 
BRANCH  28  29
HETATM   29  C   UNL     1      -7.192   6.636  64.282  1.00  0.00    -0.070 C  
HETATM   30  O   UNL     1      -6.064   6.738  63.823  1.00  0.00    -0.034 OA 
BRANCH  29  31
HETATM   31  C   UNL     1      -7.622   5.495  65.175  1.00  0.00    -0.080 C  
BRANCH  31  32
HETATM   32  C   UNL     1      -8.953   4.879  64.773  1.00  0.00    -0.125 C  
HETATM   33  C   UNL     1      -9.842   4.513  65.936  1.00  0.00    -0.226 C  
HETATM   34  O   UNL     1      -9.474   3.404  66.601  1.00  0.00    -0.185 OA 
HETATM   35  O   UNL     1     -10.855   5.146  66.226  1.00  0.00    -0.296 OA 
ENDBRANCH  31  32
ENDBRANCH  29  31
ENDBRANCH  28  29
ENDBRANCH  27  28
ENDBRANCH  25  27
ENDBRANCH   4  25
TORSDOF 6
ENDMDL
MODEL       93
REMARK 921   NORMALIZED FREE ENERGY PREDICTED BY IDOCK:   -4.33 KCAL/MOL
REMARK 922        TOTAL FREE ENERGY PREDICTED BY IDOCK:   -6.58 KCAL/MOL
REMARK 923 INTER-LIGAND FREE ENERGY PREDICTED BY IDOCK:   -7.30 KCAL/MOL
REMARK 924 INTRA-LIGAND FREE ENERGY PREDICTED BY IDOCK:    0.72 KCAL/MOL
REMARK 927      BINDING AFFINITY PREDICTED BY RF-SCORE:    0.00 PKD
ROOT
HETATM    1  C   UNL     1      -9.062   9.203  66.367  1.00  0.00    -0.211 C  
HETATM    2  C   UNL     1      -7.883   9.411  65.612  1.00  0.00    -0.099 C  
HETATM    3  C   UNL     1      -7.948  10.226  66.867  1.00  0.00    -0.112 C  
HETATM    4  C   UNL     1      -9.390   9.745  68.263  1.00  0.00    -0.129 C  
HETATM    5  C   UNL     1     -10.041  15.636  65.187  1.00  0.00    -0.216 C  
HETATM    6  O   UNL     1     -10.312   8.606  68.045  1.00  0.00    -0.214 OA 
HETATM    7  C   UNL     1      -8.123   9.309  68.061  1.00  0.00    -0.104 C  
HETATM    8  C   UNL     1      -7.885  11.106  68.753  1.00  0.00    -0.142 C  
HETATM    9  H   UNL     1     -10.976   8.385  68.688  1.00  0.00     0.000 HD 
HETATM   10  C   UNL     1     -11.228  13.079  64.673  1.00  0.00    -0.355 C  
HETATM   11  O   UNL     1     -12.080  16.391  64.159  1.00  0.00    -0.802 OA 
HETATM   12  C   UNL     1      -7.378   8.046  68.447  1.00  0.00    -0.098 C  
HETATM   13  C   UNL     1      -9.189  12.171  68.169  1.00  0.00    -0.197 C  
HETATM   14  C   UNL     1     -11.541  11.687  64.182  1.00  0.00    -0.342 C  
HETATM   15  O   UNL     1     -10.284  11.940  69.072  1.00  0.00    -0.393 OA 
HETATM   16  C   UNL     1     -11.300  15.479  64.399  1.00  0.00    -0.252 C  
HETATM   17  C   UNL     1      -9.758  12.091  66.585  1.00  0.00    -0.221 C  
HETATM   18  C   UNL     1     -12.064  13.299  66.960  1.00  0.00    -0.375 C  
HETATM   19  C   UNL     1     -11.524  14.122  63.871  1.00  0.00     0.093 C  
HETATM   20  H   UNL     1     -10.980  12.508  68.760  1.00  0.00     0.000 HD 
HETATM   21  C   UNL     1     -10.195  10.585  66.050  1.00  0.00    -0.310 C  
HETATM   22  C   UNL     1     -10.474  10.660  64.536  1.00  0.00    -0.266 C  
HETATM   23  C   UNL     1     -10.759  13.262  66.138  1.00  0.00    -0.287 C  
HETATM   24  C   UNL     1     -10.015  14.646  66.348  1.00  0.00    -0.296 C  
ENDROOT
BRANCH   4  25
HETATM   25  C   UNL     1      -9.346   9.392  69.988  1.00  0.00    -0.226 C  
HETATM   26  O   UNL     1      -8.456   9.741  70.788  1.00  0.00    -0.207 OA 
BRANCH  25  27
HETATM   27  C   UNL     1     -10.464   8.516  70.601  1.00  0.00    -0.201 C  
BRANCH  27  28
HETATM   28  O   UNL     1     -10.445   8.620  72.055  1.00  0.00    -0.307 OA 
BRANCH  28  29
HETATM   29  C   UNL     1      -9.786   7.637  72.728  1.00  0.00    -0.205 C  
HETATM   30  O   UNL     1     -10.079   6.451  72.681  1.00  0.00    -0.175 OA 
BRANCH  29  31
HETATM   31  C   UNL     1      -8.681   8.182  73.604  1.00  0.00    -0.309 C  
BRANCH  31  32
HETATM   32  C   UNL     1      -7.291   7.980  73.022  1.00  0.00    -0.141 C  
HETATM   33  C   UNL     1      -6.715   6.605  73.257  1.00  0.00    -0.075 C  
HETATM   34  O   UNL     1      -6.277   6.383  74.508  1.00  0.00    -0.068 OA 
HETATM   35  O   UNL     1      -6.605   5.767  72.364  1.00  0.00    -0.062 OA 
ENDBRANCH  31  32
ENDBRANCH  29  31
ENDBRANCH  28  29
ENDBRANCH  27  28
ENDBRANCH  25  27
ENDBRANCH   4  25
TORSDOF 6
ENDMDL
MODEL       94
REMARK 921   NORMALIZED FREE ENERGY PREDICTED BY IDOCK:   -4.31 KCAL/MOL
REMARK 922        TOTAL FREE ENERGY PREDICTED BY IDOCK:   -6.56 KCAL/MOL
REMARK 923 INTER-LIGAND FREE ENERGY PREDICTED BY IDOCK:   -6.80 KCAL/MOL
REMARK 924 INTRA-LIGAND FREE ENERGY PREDICTED BY IDOCK:    0.24 KCAL/MOL
REMARK 927      BINDING AFFINITY PREDICTED BY RF-SCORE:    0.00 PKD
ROOT
HETATM    1  C   UNL     1      -7.071  10.925  69.821  1.00  0.00    -0.092 C  
HETATM    2  C   UNL     1      -5.825  10.272  69.963  1.00  0.00    -0.057 C  
HETATM    3  C   UNL     1      -6.103  10.745  68.570  1.00  0.00    -0.043 C  
HETATM    4  C   UNL     1      -7.673  12.054  68.285  1.00  0.00    -0.127 C  
HETATM    5  C   UNL     1      -8.333   5.957  65.643  1.00  0.00    -0.143 C  
HETATM    6  O   UNL     1      -8.480  12.537  69.429  1.00  0.00     0.134 OA 
HETATM    7  C   UNL     1      -6.364  12.238  68.582  1.00  0.00    -0.071 C  
HETATM    8  C   UNL     1      -6.339  11.678  66.724  1.00  0.00    -0.114 C  
HETATM    9  H   UNL     1      -9.203  13.140  69.298  1.00  0.00     0.000 HD 
HETATM   10  C   UNL     1      -9.267   7.073  68.112  1.00  0.00    -0.130 C  
HETATM   11  O   UNL     1     -10.274   4.569  65.948  1.00  0.00    -0.244 OA 
HETATM   12  C   UNL     1      -5.589  13.366  69.235  1.00  0.00    -0.079 C  
HETATM   13  C   UNL     1      -7.629  10.487  66.420  1.00  0.00    -0.132 C  
HETATM   14  C   UNL     1      -9.420   7.534  69.539  1.00  0.00    -0.156 C  
HETATM   15  O   UNL     1      -8.811  11.275  66.194  1.00  0.00    -0.186 OA 
HETATM   16  C   UNL     1      -9.469   5.367  66.412  1.00  0.00    -0.154 C  
HETATM   17  C   UNL     1      -7.987   9.265  67.523  1.00  0.00    -0.099 C  
HETATM   18  C   UNL     1     -10.399   8.678  66.655  1.00  0.00    -0.303 C  
HETATM   19  C   UNL     1      -9.531   5.782  67.824  1.00  0.00    -0.116 C  
HETATM   20  H   UNL     1      -9.499  10.639  66.033  1.00  0.00     0.000 HD 
HETATM   21  C   UNL     1      -8.248   9.755  69.084  1.00  0.00    -0.130 C  
HETATM   22  C   UNL     1      -8.339   8.508  69.986  1.00  0.00    -0.123 C  
HETATM   23  C   UNL     1      -9.002   8.132  67.013  1.00  0.00    -0.160 C  
HETATM   24  C   UNL     1      -8.386   7.481  65.705  1.00  0.00    -0.144 C  
ENDROOT
BRANCH   4  25
HETATM   25  C   UNL     1      -7.823  13.625  67.503  1.00  0.00    -0.177 C  
HETATM   26  O   UNL     1      -6.884  14.368  67.158  1.00  0.00    -0.190 OA 
BRANCH  25  27
HETATM   27  C   UNL     1      -9.236  14.206  67.258  1.00  0.00    -0.219 C  
BRANCH  27  28
HETATM   28  O   UNL     1      -9.585  14.103  65.846  1.00  0.00    -0.264 OA 
BRANCH  28  29
HETATM   29  C   UNL     1     -10.585  14.914  65.404  1.00  0.00    -0.373 C  
HETATM   30  O   UNL     1     -10.425  16.066  65.027  1.00  0.00    -0.558 OA 
BRANCH  29  31
HETATM   31  C   UNL     1     -11.942  14.255  65.494  1.00  0.00    -0.386 C  
BRANCH  31  32
HETATM   32  C   UNL     1     -11.880  12.736  65.477  1.00  0.00    -0.466 C  
HETATM   33  C   UNL     1     -12.084  12.123  64.113  1.00  0.00    -0.409 C  
HETATM   34  O   UNL     1     -13.355  12.125  63.677  1.00  0.00    -0.678 OA 
HETATM   35  O   UNL     1     -11.169  11.614  63.467  1.00  0.00    -0.410 OA 
ENDBRANCH  31  32
ENDBRANCH  29  31
ENDBRANCH  28  29
ENDBRANCH  27  28
ENDBRANCH  25  27
ENDBRANCH   4  25
TORSDOF 6
ENDMDL
MODEL       95
REMARK 921   NORMALIZED FREE ENERGY PREDICTED BY IDOCK:   -4.29 KCAL/MOL
REMARK 922        TOTAL FREE ENERGY PREDICTED BY IDOCK:   -6.53 KCAL/MOL
REMARK 923 INTER-LIGAND FREE ENERGY PREDICTED BY IDOCK:   -7.36 KCAL/MOL
REMARK 924 INTRA-LIGAND FREE ENERGY PREDICTED BY IDOCK:    0.83 KCAL/MOL
REMARK 927      BINDING AFFINITY PREDICTED BY RF-SCORE:    0.00 PKD
ROOT
HETATM    1  C   UNL     1      -8.115   8.850  69.062  1.00  0.00    -0.115 C  
HETATM    2  C   UNL     1      -7.149   9.399  69.937  1.00  0.00    -0.075 C  
HETATM    3  C   UNL     1      -8.540   9.414  70.489  1.00  0.00    -0.265 C  
HETATM    4  C   UNL     1      -9.981   8.298  69.521  1.00  0.00    -0.187 C  
HETATM    5  C   UNL     1     -10.693  14.934  69.321  1.00  0.00    -0.253 C  
HETATM    6  O   UNL     1      -9.641   7.479  68.334  1.00  0.00    -0.147 OA 
HETATM    7  C   UNL     1      -9.097   8.005  70.505  1.00  0.00    -0.153 C  
HETATM    8  C   UNL     1     -10.401   9.143  71.383  1.00  0.00    -0.409 C  
HETATM    9  H   UNL     1     -10.305   6.965  67.888  1.00  0.00     0.000 HD 
HETATM   10  C   UNL     1      -9.549  13.086  67.454  1.00  0.00    -0.211 C  
HETATM   11  O   UNL     1     -11.092  16.177  67.301  1.00  0.00    -0.231 OA 
HETATM   12  C   UNL     1      -8.485   6.712  71.010  1.00  0.00    -0.129 C  
HETATM   13  C   UNL     1     -10.993  10.389  70.255  1.00  0.00    -0.284 C  
HETATM   14  C   UNL     1      -8.628  12.184  66.672  1.00  0.00    -0.122 C  
HETATM   15  O   UNL     1     -12.030   9.739  69.500  1.00  0.00    -0.446 OA 
HETATM   16  C   UNL     1     -10.521  15.258  67.873  1.00  0.00    -0.253 C  
HETATM   17  C   UNL     1      -9.958  11.187  69.192  1.00  0.00    -0.104 C  
HETATM   18  C   UNL     1     -11.771  12.066  67.502  1.00  0.00    -0.351 C  
HETATM   19  C   UNL     1      -9.550  14.404  67.169  1.00  0.00    -0.251 C  
HETATM   20  H   UNL     1     -12.345  10.403  68.898  1.00  0.00     0.000 HD 
HETATM   21  C   UNL     1      -8.997  10.216  68.255  1.00  0.00    -0.120 C  
HETATM   22  C   UNL     1      -7.972  11.099  67.516  1.00  0.00    -0.118 C  
HETATM   23  C   UNL     1     -10.583  12.441  68.411  1.00  0.00    -0.251 C  
HETATM   24  C   UNL     1     -11.108  13.475  69.493  1.00  0.00    -0.111 C  
ENDROOT
BRANCH   4  25
HETATM   25  C   UNL     1     -11.132   7.073  70.048  1.00  0.00    -0.278 C  
HETATM   26  O   UNL     1     -11.512   6.087  69.387  1.00  0.00    -0.372 OA 
BRANCH  25  27
HETATM   27  C   UNL     1     -11.808   7.229  71.431  1.00  0.00    -0.305 C  
BRANCH  27  28
HETATM   28  O   UNL     1     -11.851   5.944  72.119  1.00  0.00    -0.285 OA 
BRANCH  28  29
HETATM   29  C   UNL     1     -11.117   5.838  73.260  1.00  0.00    -0.208 C  
HETATM   30  O   UNL     1     -10.674   6.790  73.888  1.00  0.00    -0.310 OA 
BRANCH  29  31
HETATM   31  C   UNL     1     -10.846   4.400  73.638  1.00  0.00    -0.367 C  
BRANCH  31  32
HETATM   32  C   UNL     1      -9.597   3.827  72.986  1.00  0.00    -0.158 C  
HETATM   33  C   UNL     1      -9.867   3.003  71.751  1.00  0.00    -0.160 C  
HETATM   34  O   UNL     1     -10.366   1.778  71.987  1.00  0.00    -0.162 OA 
HETATM   35  O   UNL     1      -9.605   3.397  70.616  1.00  0.00    -0.170 OA 
ENDBRANCH  31  32
ENDBRANCH  29  31
ENDBRANCH  28  29
ENDBRANCH  27  28
ENDBRANCH  25  27
ENDBRANCH   4  25
TORSDOF 6
ENDMDL
MODEL       96
REMARK 921   NORMALIZED FREE ENERGY PREDICTED BY IDOCK:   -4.26 KCAL/MOL
REMARK 922        TOTAL FREE ENERGY PREDICTED BY IDOCK:   -6.49 KCAL/MOL
REMARK 923 INTER-LIGAND FREE ENERGY PREDICTED BY IDOCK:   -6.06 KCAL/MOL
REMARK 924 INTRA-LIGAND FREE ENERGY PREDICTED BY IDOCK:   -0.43 KCAL/MOL
REMARK 927      BINDING AFFINITY PREDICTED BY RF-SCORE:    0.00 PKD
ROOT
HETATM    1  C   UNL     1      -9.569   4.910  69.918  1.00  0.00    -0.252 C  
HETATM    2  C   UNL     1      -8.429   4.128  69.618  1.00  0.00    -0.086 C  
HETATM    3  C   UNL     1      -8.114   5.399  70.343  1.00  0.00    -0.101 C  
HETATM    4  C   UNL     1      -9.677   6.440  71.200  1.00  0.00    -0.175 C  
HETATM    5  C   UNL     1      -6.576   9.375  66.066  1.00  0.00    -0.073 C  
HETATM    6  O   UNL     1     -11.065   5.928  71.128  1.00  0.00    -0.274 OA 
HETATM    7  C   UNL     1      -8.879   5.442  71.651  1.00  0.00    -0.143 C  
HETATM    8  C   UNL     1      -7.708   6.990  71.625  1.00  0.00    -0.093 C  
HETATM    9  H   UNL     1     -11.785   6.407  71.523  1.00  0.00     0.000 HD 
HETATM   10  C   UNL     1      -8.971   7.807  66.198  1.00  0.00    -0.201 C  
HETATM   11  O   UNL     1      -7.721  10.314  64.170  1.00  0.00    -0.148 OA 
HETATM   12  C   UNL     1      -9.029   4.394  72.736  1.00  0.00    -0.125 C  
HETATM   13  C   UNL     1      -8.112   8.047  70.249  1.00  0.00    -0.113 C  
HETATM   14  C   UNL     1      -9.986   6.691  66.210  1.00  0.00     0.021 C  
HETATM   15  O   UNL     1      -9.209   8.852  70.714  1.00  0.00    -0.183 OA 
HETATM   16  C   UNL     1      -7.629   9.426  65.007  1.00  0.00    -0.109 C  
HETATM   17  C   UNL     1      -8.494   7.423  68.731  1.00  0.00    -0.129 C  
HETATM   18  C   UNL     1      -9.709   9.541  67.755  1.00  0.00    -0.176 C  
HETATM   19  C   UNL     1      -8.548   8.275  65.006  1.00  0.00    -0.102 C  
HETATM   20  H   UNL     1      -9.425   9.416  69.979  1.00  0.00     0.000 HD 
HETATM   21  C   UNL     1      -9.672   6.258  68.706  1.00  0.00    -0.141 C  
HETATM   22  C   UNL     1      -9.736   5.649  67.291  1.00  0.00    -0.147 C  
HETATM   23  C   UNL     1      -8.601   8.490  67.538  1.00  0.00    -0.128 C  
HETATM   24  C   UNL     1      -7.216   9.256  67.446  1.00  0.00    -0.080 C  
ENDROOT
BRANCH   4  25
HETATM   25  C   UNL     1      -9.982   7.067  72.818  1.00  0.00    -0.179 C  
HETATM   26  O   UNL     1      -9.161   7.120  73.753  1.00  0.00    -0.164 OA 
BRANCH  25  27
HETATM   27  C   UNL     1     -11.408   7.550  73.176  1.00  0.00    -0.182 C  
BRANCH  27  28
HETATM   28  O   UNL     1     -11.783   8.680  72.335  1.00  0.00    -0.368 OA 
BRANCH  28  29
HETATM   29  C   UNL     1     -13.020   8.634  71.768  1.00  0.00    -0.359 C  
HETATM   30  O   UNL     1     -13.660   7.608  71.587  1.00  0.00    -0.360 OA 
BRANCH  29  31
HETATM   31  C   UNL     1     -13.496   9.996  71.318  1.00  0.00    -0.331 C  
BRANCH  31  32
HETATM   32  C   UNL     1     -12.541  11.123  71.681  1.00  0.00    -0.386 C  
HETATM   33  C   UNL     1     -12.519  12.259  70.688  1.00  0.00    -0.236 C  
HETATM   34  O   UNL     1     -11.856  11.999  69.548  1.00  0.00    -0.304 OA 
HETATM   35  O   UNL     1     -13.021  13.357  70.919  1.00  0.00    -0.230 OA 
ENDBRANCH  31  32
ENDBRANCH  29  31
ENDBRANCH  28  29
ENDBRANCH  27  28
ENDBRANCH  25  27
ENDBRANCH   4  25
TORSDOF 6
ENDMDL
MODEL       97
REMARK 921   NORMALIZED FREE ENERGY PREDICTED BY IDOCK:   -4.24 KCAL/MOL
REMARK 922        TOTAL FREE ENERGY PREDICTED BY IDOCK:   -6.45 KCAL/MOL
REMARK 923 INTER-LIGAND FREE ENERGY PREDICTED BY IDOCK:   -7.08 KCAL/MOL
REMARK 924 INTRA-LIGAND FREE ENERGY PREDICTED BY IDOCK:    0.63 KCAL/MOL
REMARK 927      BINDING AFFINITY PREDICTED BY RF-SCORE:    0.00 PKD
ROOT
HETATM    1  C   UNL     1      -8.861   8.355  67.186  1.00  0.00    -0.139 C  
HETATM    2  C   UNL     1      -7.484   8.680  67.174  1.00  0.00    -0.088 C  
HETATM    3  C   UNL     1      -8.239   9.295  68.311  1.00  0.00    -0.115 C  
HETATM    4  C   UNL     1     -10.145   8.603  68.698  1.00  0.00    -0.190 C  
HETATM    5  C   UNL     1      -9.626  14.888  66.503  1.00  0.00    -0.297 C  
HETATM    6  O   UNL     1     -10.735   7.506  67.896  1.00  0.00    -0.370 OA 
HETATM    7  C   UNL     1      -8.919   8.208  69.118  1.00  0.00    -0.144 C  
HETATM    8  C   UNL     1      -9.210   9.881  70.058  1.00  0.00    -0.224 C  
HETATM    9  H   UNL     1     -11.612   7.187  68.074  1.00  0.00     0.000 HD 
HETATM   10  C   UNL     1     -10.179  12.433  65.133  1.00  0.00    -0.305 C  
HETATM   11  O   UNL     1     -10.920  15.782  64.683  1.00  0.00    -0.446 OA 
HETATM   12  C   UNL     1      -8.372   6.904  69.667  1.00  0.00    -0.133 C  
HETATM   13  C   UNL     1     -10.121  11.017  69.030  1.00  0.00    -0.180 C  
HETATM   14  C   UNL     1     -10.089  11.130  64.378  1.00  0.00    -0.377 C  
HETATM   15  O   UNL     1     -11.500  10.647  69.207  1.00  0.00    -0.252 OA 
HETATM   16  C   UNL     1     -10.298  14.847  65.170  1.00  0.00    -0.401 C  
HETATM   17  C   UNL     1      -9.804  11.175  67.383  1.00  0.00    -0.195 C  
HETATM   18  C   UNL     1     -12.071  12.302  66.676  1.00  0.00    -0.074 C  
HETATM   19  C   UNL     1     -10.113  13.584  64.433  1.00  0.00    -0.050 C  
HETATM   20  H   UNL     1     -11.986  11.252  68.659  1.00  0.00     0.000 HD 
HETATM   21  C   UNL     1      -9.786   9.765  66.513  1.00  0.00    -0.286 C  
HETATM   22  C   UNL     1      -9.267  10.066  65.093  1.00  0.00    -0.273 C  
HETATM   23  C   UNL     1     -10.532  12.395  66.640  1.00  0.00    -0.251 C  
HETATM   24  C   UNL     1     -10.111  13.735  67.377  1.00  0.00    -0.244 C  
ENDROOT
BRANCH   4  25
HETATM   25  C   UNL     1     -10.950   7.994  70.141  1.00  0.00    -0.226 C  
HETATM   26  O   UNL     1     -11.138   8.624  71.200  1.00  0.00    -0.242 OA 
BRANCH  25  27
HETATM   27  C   UNL     1     -11.431   6.523  70.165  1.00  0.00    -0.415 C  
BRANCH  27  28
HETATM   28  O   UNL     1     -10.634   5.748  71.107  1.00  0.00    -0.231 OA 
BRANCH  28  29
HETATM   29  C   UNL     1     -11.084   5.701  72.392  1.00  0.00    -0.271 C  
HETATM   30  O   UNL     1     -12.252   5.534  72.710  1.00  0.00    -0.133 OA 
BRANCH  29  31
HETATM   31  C   UNL     1      -9.981   5.947  73.396  1.00  0.00    -0.182 C  
BRANCH  31  32
HETATM   32  C   UNL     1      -9.409   4.671  73.994  1.00  0.00    -0.121 C  
HETATM   33  C   UNL     1      -7.970   4.405  73.624  1.00  0.00    -0.094 C  
HETATM   34  O   UNL     1      -7.782   3.959  72.370  1.00  0.00    -0.068 OA 
HETATM   35  O   UNL     1      -7.043   4.534  74.421  1.00  0.00    -0.069 OA 
ENDBRANCH  31  32
ENDBRANCH  29  31
ENDBRANCH  28  29
ENDBRANCH  27  28
ENDBRANCH  25  27
ENDBRANCH   4  25
TORSDOF 6
ENDMDL
MODEL       98
REMARK 921   NORMALIZED FREE ENERGY PREDICTED BY IDOCK:   -4.23 KCAL/MOL
REMARK 922        TOTAL FREE ENERGY PREDICTED BY IDOCK:   -6.45 KCAL/MOL
REMARK 923 INTER-LIGAND FREE ENERGY PREDICTED BY IDOCK:   -6.30 KCAL/MOL
REMARK 924 INTRA-LIGAND FREE ENERGY PREDICTED BY IDOCK:   -0.15 KCAL/MOL
REMARK 927      BINDING AFFINITY PREDICTED BY RF-SCORE:    0.00 PKD
ROOT
HETATM    1  C   UNL     1      -7.605   9.056  69.411  1.00  0.00    -0.078 C  
HETATM    2  C   UNL     1      -7.244   9.697  70.620  1.00  0.00    -0.114 C  
HETATM    3  C   UNL     1      -8.713   9.437  70.491  1.00  0.00    -0.276 C  
HETATM    4  C   UNL     1      -9.345   8.165  68.993  1.00  0.00    -0.147 C  
HETATM    5  C   UNL     1     -11.100  14.582  68.419  1.00  0.00    -0.271 C  
HETATM    6  O   UNL     1      -8.372   7.503  68.094  1.00  0.00    -0.123 OA 
HETATM    7  C   UNL     1      -8.950   7.956  70.272  1.00  0.00    -0.151 C  
HETATM    8  C   UNL     1     -10.692   8.791  70.460  1.00  0.00    -0.259 C  
HETATM    9  H   UNL     1      -8.663   6.918  67.404  1.00  0.00     0.000 HD 
HETATM   10  C   UNL     1      -8.931  13.093  67.283  1.00  0.00    -0.216 C  
HETATM   11  O   UNL     1     -10.785  15.882  66.419  1.00  0.00    -0.308 OA 
HETATM   12  C   UNL     1      -8.399   6.753  71.012  1.00  0.00    -0.127 C  
HETATM   13  C   UNL     1     -10.942   9.997  69.173  1.00  0.00    -0.220 C  
HETATM   14  C   UNL     1      -7.610  12.419  67.006  1.00  0.00    -0.046 C  
HETATM   15  O   UNL     1     -11.399   9.236  68.040  1.00  0.00    -0.444 OA 
HETATM   16  C   UNL     1     -10.368  15.034  67.197  1.00  0.00    -0.257 C  
HETATM   17  C   UNL     1      -9.710  11.033  68.675  1.00  0.00    -0.198 C  
HETATM   18  C   UNL     1     -10.716  11.712  66.343  1.00  0.00    -0.316 C  
HETATM   19  C   UNL     1      -9.047  14.409  67.012  1.00  0.00    -0.250 C  
HETATM   20  H   UNL     1     -11.531   9.880  67.354  1.00  0.00     0.000 HD 
HETATM   21  C   UNL     1      -8.273  10.308  68.279  1.00  0.00    -0.115 C  
HETATM   22  C   UNL     1      -7.209  11.403  68.067  1.00  0.00    -0.084 C  
HETATM   23  C   UNL     1     -10.143  12.216  67.683  1.00  0.00    -0.205 C  
HETATM   24  C   UNL     1     -11.272  13.066  68.403  1.00  0.00    -0.304 C  
ENDROOT
BRANCH   4  25
HETATM   25  C   UNL     1     -10.364   6.729  68.964  1.00  0.00    -0.195 C  
HETATM   26  O   UNL     1     -11.328   6.495  69.719  1.00  0.00    -0.362 OA 
BRANCH  25  27
HETATM   27  C   UNL     1     -10.030   5.595  67.965  1.00  0.00    -0.143 C  
BRANCH  27  28
HETATM   28  O   UNL     1      -8.885   4.828  68.438  1.00  0.00    -0.100 OA 
BRANCH  28  29
HETATM   29  C   UNL     1      -8.995   3.472  68.385  1.00  0.00    -0.132 C  
HETATM   30  O   UNL     1      -9.522   2.857  67.469  1.00  0.00    -0.202 OA 
BRANCH  29  31
HETATM   31  C   UNL     1      -8.449   2.802  69.625  1.00  0.00    -0.101 C  
BRANCH  31  32
HETATM   32  C   UNL     1      -9.519   2.458  70.649  1.00  0.00    -0.192 C  
HETATM   33  C   UNL     1      -9.559   3.388  71.838  1.00  0.00    -0.150 C  
HETATM   34  O   UNL     1      -8.573   3.203  72.733  1.00  0.00    -0.082 OA 
HETATM   35  O   UNL     1     -10.450   4.218  72.006  1.00  0.00    -0.137 OA 
ENDBRANCH  31  32
ENDBRANCH  29  31
ENDBRANCH  28  29
ENDBRANCH  27  28
ENDBRANCH  25  27
ENDBRANCH   4  25
TORSDOF 6
ENDMDL
MODEL       99
REMARK 921   NORMALIZED FREE ENERGY PREDICTED BY IDOCK:   -4.19 KCAL/MOL
REMARK 922        TOTAL FREE ENERGY PREDICTED BY IDOCK:   -6.40 KCAL/MOL
REMARK 923 INTER-LIGAND FREE ENERGY PREDICTED BY IDOCK:   -6.66 KCAL/MOL
REMARK 924 INTRA-LIGAND FREE ENERGY PREDICTED BY IDOCK:    0.27 KCAL/MOL
REMARK 927      BINDING AFFINITY PREDICTED BY RF-SCORE:    0.00 PKD
ROOT
HETATM    1  C   UNL     1     -11.201  13.266  69.958  1.00  0.00     0.148 C  
HETATM    2  C   UNL     1     -12.477  13.820  70.217  1.00  0.00    -0.357 C  
HETATM    3  C   UNL     1     -12.286  13.384  68.798  1.00  0.00    -0.150 C  
HETATM    4  C   UNL     1     -10.652  12.202  68.358  1.00  0.00    -0.226 C  
HETATM    5  C   UNL     1     -10.683  18.358  65.771  1.00  0.00    -0.161 C  
HETATM    6  O   UNL     1      -9.715  11.770  69.420  1.00  0.00    -0.284 OA 
HETATM    7  C   UNL     1     -11.913  11.916  68.762  1.00  0.00    -0.307 C  
HETATM    8  C   UNL     1     -12.141  12.491  66.922  1.00  0.00    -0.164 C  
HETATM    9  H   UNL     1      -8.963  11.225  69.218  1.00  0.00     0.000 HD 
HETATM   10  C   UNL     1      -9.457  17.291  68.131  1.00  0.00    -0.278 C  
HETATM   11  O   UNL     1      -8.833  19.887  65.932  1.00  0.00    -0.335 OA 
HETATM   12  C   UNL     1     -12.542  10.725  69.460  1.00  0.00     0.055 C  
HETATM   13  C   UNL     1     -10.975  13.780  66.529  1.00  0.00    -0.299 C  
HETATM   14  C   UNL     1      -9.147  16.829  69.533  1.00  0.00     0.300 C  
HETATM   15  O   UNL     1      -9.761  13.087  66.190  1.00  0.00    -0.274 OA 
HETATM   16  C   UNL     1      -9.532  19.025  66.450  1.00  0.00    -0.347 C  
HETATM   17  C   UNL     1     -10.616  15.014  67.618  1.00  0.00    -0.267 C  
HETATM   18  C   UNL     1      -8.339  15.792  66.557  1.00  0.00    -0.313 C  
HETATM   19  C   UNL     1      -9.318  18.602  67.844  1.00  0.00    -0.323 C  
HETATM   20  H   UNL     1      -9.139  13.775  65.981  1.00  0.00     0.000 HD 
HETATM   21  C   UNL     1     -10.185  14.529  69.143  1.00  0.00    -0.172 C  
HETATM   22  C   UNL     1     -10.110  15.771  70.054  1.00  0.00    -0.174 C  
HETATM   23  C   UNL     1      -9.737  16.226  67.042  1.00  0.00    -0.244 C  
HETATM   24  C   UNL     1     -10.510  16.842  65.802  1.00  0.00    -0.305 C  
ENDROOT
BRANCH   4  25
HETATM   25  C   UNL     1     -10.453  10.655  67.539  1.00  0.00    -0.230 C  
HETATM   26  O   UNL     1     -10.889  10.358  66.410  1.00  0.00    -0.119 OA 
BRANCH  25  27
HETATM   27  C   UNL     1      -9.729   9.505  68.280  1.00  0.00    -0.147 C  
BRANCH  27  28
HETATM   28  O   UNL     1     -10.641   8.388  68.490  1.00  0.00    -0.191 OA 
BRANCH  28  29
HETATM   29  C   UNL     1     -10.316   7.512  69.480  1.00  0.00    -0.216 C  
HETATM   30  O   UNL     1      -9.991   7.839  70.613  1.00  0.00    -0.186 OA 
BRANCH  29  31
HETATM   31  C   UNL     1     -10.333   6.077  69.007  1.00  0.00    -0.283 C  
BRANCH  31  32
HETATM   32  C   UNL     1     -10.967   5.899  67.636  1.00  0.00    -0.247 C  
HETATM   33  C   UNL     1     -10.006   5.441  66.565  1.00  0.00    -0.196 C  
HETATM   34  O   UNL     1      -9.173   6.393  66.111  1.00  0.00    -0.158 OA 
HETATM   35  O   UNL     1     -10.015   4.302  66.104  1.00  0.00    -0.216 OA 
ENDBRANCH  31  32
ENDBRANCH  29  31
ENDBRANCH  28  29
ENDBRANCH  27  28
ENDBRANCH  25  27
ENDBRANCH   4  25
TORSDOF 6
ENDMDL
MODEL      100
REMARK 921   NORMALIZED FREE ENERGY PREDICTED BY IDOCK:   -4.16 KCAL/MOL
REMARK 922        TOTAL FREE ENERGY PREDICTED BY IDOCK:   -6.35 KCAL/MOL
REMARK 923 INTER-LIGAND FREE ENERGY PREDICTED BY IDOCK:   -7.07 KCAL/MOL
REMARK 924 INTRA-LIGAND FREE ENERGY PREDICTED BY IDOCK:    0.72 KCAL/MOL
REMARK 927      BINDING AFFINITY PREDICTED BY RF-SCORE:    0.00 PKD
ROOT
HETATM    1  C   UNL     1     -10.539  10.206  70.256  1.00  0.00    -0.324 C  
HETATM    2  C   UNL     1     -11.843   9.669  70.352  1.00  0.00    -0.219 C  
HETATM    3  C   UNL     1     -11.052   9.127  69.203  1.00  0.00     0.036 C  
HETATM    4  C   UNL     1      -9.022   9.500  69.162  1.00  0.00    -0.148 C  
HETATM    5  C   UNL     1     -12.701  12.405  64.406  1.00  0.00    -0.434 C  
HETATM    6  O   UNL     1      -8.363  10.252  70.254  1.00  0.00    -0.365 OA 
HETATM    7  C   UNL     1      -9.765   8.512  69.715  1.00  0.00    -0.179 C  
HETATM    8  C   UNL     1      -9.855   8.142  67.812  1.00  0.00    -0.209 C  
HETATM    9  H   UNL     1      -7.428  10.423  70.235  1.00  0.00     0.000 HD 
HETATM   10  C   UNL     1     -11.733  13.375  66.922  1.00  0.00    -0.434 C  
HETATM   11  O   UNL     1     -12.578  14.744  63.860  1.00  0.00    -0.834 OA 
HETATM   12  C   UNL     1      -9.528   7.538  70.853  1.00  0.00    -0.165 C  
HETATM   13  C   UNL     1      -9.881   9.664  66.887  1.00  0.00    -0.200 C  
HETATM   14  C   UNL     1     -11.556  13.744  68.374  1.00  0.00    -0.369 C  
HETATM   15  O   UNL     1      -8.499  10.049  66.774  1.00  0.00    -0.125 OA 
HETATM   16  C   UNL     1     -12.572  13.861  64.708  1.00  0.00    -0.295 C  
HETATM   17  C   UNL     1     -10.781  10.996  67.393  1.00  0.00    -0.303 C  
HETATM   18  C   UNL     1      -9.538  12.838  65.988  1.00  0.00    -0.182 C  
HETATM   19  C   UNL     1     -12.484  14.180  66.144  1.00  0.00    -0.426 C  
HETATM   20  H   UNL     1      -8.513  10.862  66.281  1.00  0.00     0.000 HD 
HETATM   21  C   UNL     1     -10.539  11.478  68.960  1.00  0.00    -0.207 C  
HETATM   22  C   UNL     1     -11.589  12.549  69.316  1.00  0.00    -0.378 C  
HETATM   23  C   UNL     1     -10.898  12.205  66.346  1.00  0.00    -0.306 C  
HETATM   24  C   UNL     1     -11.532  11.632  65.010  1.00  0.00    -0.189 C  
ENDROOT
BRANCH   4  25
HETATM   25  C   UNL     1      -7.598   8.476  68.994  1.00  0.00    -0.094 C  
HETATM   26  O   UNL     1      -6.452   8.855  68.684  1.00  0.00    -0.052 OA 
BRANCH  25  27
HETATM   27  C   UNL     1      -7.751   6.947  69.177  1.00  0.00    -0.106 C  
BRANCH  27  28
HETATM   28  O   UNL     1      -6.521   6.379  69.714  1.00  0.00    -0.043 OA 
BRANCH  28  29
HETATM   29  C   UNL     1      -6.657   5.333  70.575  1.00  0.00    -0.038 C  
HETATM   30  O   UNL     1      -6.822   4.171  70.230  1.00  0.00    -0.033 OA 
BRANCH  29  31
HETATM   31  C   UNL     1      -6.648   5.773  72.020  1.00  0.00    -0.058 C  
BRANCH  31  32
HETATM   32  C   UNL     1      -5.526   6.744  72.351  1.00  0.00    -0.037 C  
HETATM   33  C   UNL     1      -5.990   8.035  72.980  1.00  0.00    -0.061 C  
HETATM   34  O   UNL     1      -6.558   8.906  72.129  1.00  0.00    -0.201 OA 
HETATM   35  O   UNL     1      -5.818   8.298  74.169  1.00  0.00    -0.093 OA 
ENDBRANCH  31  32
ENDBRANCH  29  31
ENDBRANCH  28  29
ENDBRANCH  27  28
ENDBRANCH  25  27
ENDBRANCH   4  25
TORSDOF 6
ENDMDL
MODEL      101
REMARK 921   NORMALIZED FREE ENERGY PREDICTED BY IDOCK:   -4.11 KCAL/MOL
REMARK 922        TOTAL FREE ENERGY PREDICTED BY IDOCK:   -6.28 KCAL/MOL
REMARK 923 INTER-LIGAND FREE ENERGY PREDICTED BY IDOCK:   -6.47 KCAL/MOL
REMARK 924 INTRA-LIGAND FREE ENERGY PREDICTED BY IDOCK:    0.19 KCAL/MOL
REMARK 927      BINDING AFFINITY PREDICTED BY RF-SCORE:    0.00 PKD
ROOT
HETATM    1  C   UNL     1      -7.737   9.668  68.798  1.00  0.00    -0.080 C  
HETATM    2  C   UNL     1      -7.205   9.993  70.068  1.00  0.00    -0.158 C  
HETATM    3  C   UNL     1      -8.676   9.717  70.084  1.00  0.00    -0.263 C  
HETATM    4  C   UNL     1      -9.518   8.845  68.413  1.00  0.00    -0.140 C  
HETATM    5  C   UNL     1     -11.349  15.123  69.763  1.00  0.00    -0.307 C  
HETATM    6  O   UNL     1      -8.685   8.473  67.246  1.00  0.00    -0.128 OA 
HETATM    7  C   UNL     1      -8.940   8.333  69.526  1.00  0.00    -0.150 C  
HETATM    8  C   UNL     1     -10.638   9.023  70.166  1.00  0.00    -0.250 C  
HETATM    9  H   UNL     1      -9.073   8.071  66.477  1.00  0.00     0.000 HD 
HETATM   10  C   UNL     1      -9.366  14.058  67.989  1.00  0.00    -0.205 C  
HETATM   11  O   UNL     1     -11.332  16.900  68.143  1.00  0.00    -0.217 OA 
HETATM   12  C   UNL     1      -8.285   7.003  69.847  1.00  0.00    -0.130 C  
HETATM   13  C   UNL     1     -11.075  10.507  69.281  1.00  0.00    -0.246 C  
HETATM   14  C   UNL     1      -8.099  13.529  67.366  1.00  0.00    -0.184 C  
HETATM   15  O   UNL     1     -11.691  10.042  68.066  1.00  0.00    -0.645 OA 
HETATM   16  C   UNL     1     -10.804  15.899  68.610  1.00  0.00    -0.291 C  
HETATM   17  C   UNL     1      -9.930  11.682  68.899  1.00  0.00    -0.083 C  
HETATM   18  C   UNL     1     -11.267  12.893  66.986  1.00  0.00    -0.329 C  
HETATM   19  C   UNL     1      -9.523  15.394  68.086  1.00  0.00    -0.202 C  
HETATM   20  H   UNL     1     -11.923  10.833  67.594  1.00  0.00     0.000 HD 
HETATM   21  C   UNL     1      -8.565  11.140  68.132  1.00  0.00    -0.140 C  
HETATM   22  C   UNL     1      -7.546  12.293  68.062  1.00  0.00    -0.126 C  
HETATM   23  C   UNL     1     -10.506  13.061  68.316  1.00  0.00    -0.258 C  
HETATM   24  C   UNL     1     -11.519  13.655  69.382  1.00  0.00    -0.343 C  
ENDROOT
BRANCH   4  25
HETATM   25  C   UNL     1     -10.528   7.424  68.158  1.00  0.00    -0.193 C  
HETATM   26  O   UNL     1     -11.100   6.760  69.043  1.00  0.00    -0.240 OA 
BRANCH  25  27
HETATM   27  C   UNL     1     -10.698   6.876  66.721  1.00  0.00    -0.226 C  
BRANCH  27  28
HETATM   28  O   UNL     1     -11.079   5.470  66.760  1.00  0.00    -0.137 OA 
BRANCH  28  29
HETATM   29  C   UNL     1     -10.366   4.622  65.969  1.00  0.00    -0.284 C  
HETATM   30  O   UNL     1     -10.753   4.191  64.892  1.00  0.00    -0.250 OA 
BRANCH  29  31
HETATM   31  C   UNL     1      -9.055   4.213  66.600  1.00  0.00    -0.141 C  
BRANCH  31  32
HETATM   32  C   UNL     1      -9.174   2.999  67.509  1.00  0.00    -0.233 C  
HETATM   33  C   UNL     1      -9.136   3.324  68.983  1.00  0.00    -0.145 C  
HETATM   34  O   UNL     1      -7.917   3.626  69.463  1.00  0.00    -0.051 OA 
HETATM   35  O   UNL     1     -10.130   3.268  69.704  1.00  0.00     0.303 OA 
ENDBRANCH  31  32
ENDBRANCH  29  31
ENDBRANCH  28  29
ENDBRANCH  27  28
ENDBRANCH  25  27
ENDBRANCH   4  25
TORSDOF 6
ENDMDL
MODEL      102
REMARK 921   NORMALIZED FREE ENERGY PREDICTED BY IDOCK:   -4.10 KCAL/MOL
REMARK 922        TOTAL FREE ENERGY PREDICTED BY IDOCK:   -6.26 KCAL/MOL
REMARK 923 INTER-LIGAND FREE ENERGY PREDICTED BY IDOCK:   -6.50 KCAL/MOL
REMARK 924 INTRA-LIGAND FREE ENERGY PREDICTED BY IDOCK:    0.24 KCAL/MOL
REMARK 927      BINDING AFFINITY PREDICTED BY RF-SCORE:    0.00 PKD
ROOT
HETATM    1  C   UNL     1     -10.210   7.643  67.966  1.00  0.00    -0.248 C  
HETATM    2  C   UNL     1     -10.250   6.845  69.133  1.00  0.00    -0.196 C  
HETATM    3  C   UNL     1      -8.866   7.238  68.719  1.00  0.00    -0.127 C  
HETATM    4  C   UNL     1      -8.663   8.715  67.292  1.00  0.00    -0.129 C  
HETATM    5  C   UNL     1      -6.733   2.567  65.541  1.00  0.00    -0.039 C  
HETATM    6  O   UNL     1      -9.850   9.390  66.719  1.00  0.00    -0.186 OA 
HETATM    7  C   UNL     1      -8.767   8.748  68.642  1.00  0.00    -0.134 C  
HETATM    8  C   UNL     1      -6.985   8.044  68.337  1.00  0.00    -0.072 C  
HETATM    9  H   UNL     1      -9.756  10.070  66.062  1.00  0.00     0.000 HD 
HETATM   10  C   UNL     1      -9.182   3.989  65.106  1.00  0.00    -0.151 C  
HETATM   11  O   UNL     1      -7.421   1.475  63.512  1.00  0.00    -0.049 OA 
HETATM   12  C   UNL     1      -9.201   9.813  69.631  1.00  0.00    -0.239 C  
HETATM   13  C   UNL     1      -6.968   7.012  66.884  1.00  0.00    -0.070 C  
HETATM   14  C   UNL     1     -10.566   4.579  65.213  1.00  0.00    -0.164 C  
HETATM   15  O   UNL     1      -6.824   7.928  65.784  1.00  0.00    -0.055 OA 
HETATM   16  C   UNL     1      -7.697   2.194  64.463  1.00  0.00    -0.068 C  
HETATM   17  C   UNL     1      -8.222   5.940  66.543  1.00  0.00    -0.110 C  
HETATM   18  C   UNL     1      -7.737   5.608  63.980  1.00  0.00    -0.095 C  
HETATM   19  C   UNL     1      -9.058   2.725  64.652  1.00  0.00    -0.132 C  
HETATM   20  H   UNL     1      -6.816   7.378  65.010  1.00  0.00     0.000 HD 
HETATM   21  C   UNL     1      -9.749   6.583  66.566  1.00  0.00    -0.177 C  
HETATM   22  C   UNL     1     -10.771   5.435  66.455  1.00  0.00    -0.309 C  
HETATM   23  C   UNL     1      -7.961   4.913  65.338  1.00  0.00    -0.100 C  
HETATM   24  C   UNL     1      -6.653   4.085  65.680  1.00  0.00    -0.044 C  
ENDROOT
BRANCH   4  25
HETATM   25  C   UNL     1      -7.758  10.225  67.221  1.00  0.00    -0.095 C  
HETATM   26  O   UNL     1      -6.522  10.338  67.106  1.00  0.00    -0.066 OA 
BRANCH  25  27
HETATM   27  C   UNL     1      -8.522  11.562  67.376  1.00  0.00    -0.147 C  
BRANCH  27  28
HETATM   28  O   UNL     1      -8.958  12.046  66.072  1.00  0.00    -0.145 OA 
BRANCH  28  29
HETATM   29  C   UNL     1     -10.200  12.600  66.011  1.00  0.00    -0.272 C  
HETATM   30  O   UNL     1     -11.238  11.995  66.236  1.00  0.00    -0.313 OA 
BRANCH  29  31
HETATM   31  C   UNL     1     -10.164  14.043  65.564  1.00  0.00    -0.362 C  
BRANCH  31  32
HETATM   32  C   UNL     1     -11.520  14.730  65.624  1.00  0.00    -0.327 C  
HETATM   33  C   UNL     1     -11.939  15.387  64.331  1.00  0.00    -0.228 C  
HETATM   34  O   UNL     1     -11.311  16.543  64.056  1.00  0.00    -1.064 OA 
HETATM   35  O   UNL     1     -12.822  14.932  63.608  1.00  0.00    -0.587 OA 
ENDBRANCH  31  32
ENDBRANCH  29  31
ENDBRANCH  28  29
ENDBRANCH  27  28
ENDBRANCH  25  27
ENDBRANCH   4  25
TORSDOF 6
ENDMDL
MODEL      103
REMARK 921   NORMALIZED FREE ENERGY PREDICTED BY IDOCK:   -4.08 KCAL/MOL
REMARK 922        TOTAL FREE ENERGY PREDICTED BY IDOCK:   -6.24 KCAL/MOL
REMARK 923 INTER-LIGAND FREE ENERGY PREDICTED BY IDOCK:   -7.45 KCAL/MOL
REMARK 924 INTRA-LIGAND FREE ENERGY PREDICTED BY IDOCK:    1.20 KCAL/MOL
REMARK 927      BINDING AFFINITY PREDICTED BY RF-SCORE:    0.00 PKD
ROOT
HETATM    1  C   UNL     1      -6.955  11.817  67.733  1.00  0.00    -0.094 C  
HETATM    2  C   UNL     1      -6.877  11.890  69.143  1.00  0.00    -0.099 C  
HETATM    3  C   UNL     1      -8.242  11.548  68.631  1.00  0.00    -0.124 C  
HETATM    4  C   UNL     1      -8.427  11.012  66.646  1.00  0.00    -0.153 C  
HETATM    5  C   UNL     1     -11.277  16.766  68.479  1.00  0.00    -0.176 C  
HETATM    6  O   UNL     1      -7.240  10.936  65.763  1.00  0.00    -0.302 OA 
HETATM    7  C   UNL     1      -8.165  10.303  67.771  1.00  0.00    -0.110 C  
HETATM    8  C   UNL     1     -10.043  10.760  67.944  1.00  0.00    -0.197 C  
HETATM    9  H   UNL     1      -7.326  10.689  64.849  1.00  0.00     0.000 HD 
HETATM   10  C   UNL     1      -8.740  16.198  67.275  1.00  0.00    -0.202 C  
HETATM   11  O   UNL     1     -10.964  18.846  67.312  1.00  0.00    -0.436 OA 
HETATM   12  C   UNL     1      -7.494   8.968  68.031  1.00  0.00    -0.084 C  
HETATM   13  C   UNL     1     -10.351  12.376  67.259  1.00  0.00    -0.215 C  
HETATM   14  C   UNL     1      -7.291  15.874  67.007  1.00  0.00    -0.243 C  
HETATM   15  O   UNL     1     -10.509  12.152  65.846  1.00  0.00    -0.240 OA 
HETATM   16  C   UNL     1     -10.496  17.795  67.729  1.00  0.00    -0.397 C  
HETATM   17  C   UNL     1      -9.285  13.659  67.494  1.00  0.00    -0.218 C  
HETATM   18  C   UNL     1     -10.098  15.184  65.512  1.00  0.00    -0.402 C  
HETATM   19  C   UNL     1      -9.068  17.474  67.563  1.00  0.00    -0.234 C  
HETATM   20  H   UNL     1     -10.673  13.014  65.481  1.00  0.00     0.000 HD 
HETATM   21  C   UNL     1      -7.698  13.357  67.122  1.00  0.00     0.002 C  
HETATM   22  C   UNL     1      -6.843  14.546  67.601  1.00  0.00    -0.203 C  
HETATM   23  C   UNL     1      -9.805  15.102  67.024  1.00  0.00    -0.233 C  
HETATM   24  C   UNL     1     -11.156  15.406  67.796  1.00  0.00    -0.320 C  
ENDROOT
BRANCH   4  25
HETATM   25  C   UNL     1      -9.144   9.632  65.818  1.00  0.00    -0.185 C  
HETATM   26  O   UNL     1      -9.125   9.420  64.591  1.00  0.00    -0.225 OA 
BRANCH  25  27
HETATM   27  C   UNL     1      -9.936   8.593  66.646  1.00  0.00    -0.287 C  
BRANCH  27  28
HETATM   28  O   UNL     1      -9.450   7.247  66.363  1.00  0.00    -0.175 OA 
BRANCH  28  29
HETATM   29  C   UNL     1     -10.277   6.218  66.696  1.00  0.00    -0.164 C  
HETATM   30  O   UNL     1     -10.264   5.120  66.158  1.00  0.00    -0.211 OA 
BRANCH  29  31
HETATM   31  C   UNL     1     -11.270   6.603  67.768  1.00  0.00    -0.244 C  
BRANCH  31  32
HETATM   32  C   UNL     1     -10.901   6.085  69.149  1.00  0.00    -0.422 C  
HETATM   33  C   UNL     1     -11.472   6.897  70.287  1.00  0.00    -0.323 C  
HETATM   34  O   UNL     1     -10.856   8.071  70.508  1.00  0.00    -0.233 OA 
HETATM   35  O   UNL     1     -12.396   6.497  70.993  1.00  0.00    -0.295 OA 
ENDBRANCH  31  32
ENDBRANCH  29  31
ENDBRANCH  28  29
ENDBRANCH  27  28
ENDBRANCH  25  27
ENDBRANCH   4  25
TORSDOF 6
ENDMDL
MODEL      104
REMARK 921   NORMALIZED FREE ENERGY PREDICTED BY IDOCK:   -4.07 KCAL/MOL
REMARK 922        TOTAL FREE ENERGY PREDICTED BY IDOCK:   -6.23 KCAL/MOL
REMARK 923 INTER-LIGAND FREE ENERGY PREDICTED BY IDOCK:   -5.66 KCAL/MOL
REMARK 924 INTRA-LIGAND FREE ENERGY PREDICTED BY IDOCK:   -0.57 KCAL/MOL
REMARK 927      BINDING AFFINITY PREDICTED BY RF-SCORE:    0.00 PKD
ROOT
HETATM    1  C   UNL     1     -10.457   9.704  70.811  1.00  0.00    -0.375 C  
HETATM    2  C   UNL     1     -11.388  10.250  69.897  1.00  0.00    -0.354 C  
HETATM    3  C   UNL     1     -11.433   8.756  69.984  1.00  0.00     0.047 C  
HETATM    4  C   UNL     1     -10.436   7.844  71.544  1.00  0.00    -0.210 C  
HETATM    5  C   UNL     1      -8.035   6.758  65.409  1.00  0.00    -0.121 C  
HETATM    6  O   UNL     1      -9.725   8.646  72.567  1.00  0.00    -0.276 OA 
HETATM    7  C   UNL     1     -11.692   8.337  71.417  1.00  0.00    -0.327 C  
HETATM    8  C   UNL     1     -11.720   6.724  70.338  1.00  0.00    -0.418 C  
HETATM    9  H   UNL     1      -9.266   8.226  73.285  1.00  0.00     0.000 HD 
HETATM   10  C   UNL     1      -7.281   8.629  67.444  1.00  0.00    -0.080 C  
HETATM   11  O   UNL     1      -5.719   7.017  64.812  1.00  0.00    -0.031 OA 
HETATM   12  C   UNL     1     -12.730   8.822  72.410  1.00  0.00    -0.433 C  
HETATM   13  C   UNL     1     -10.143   6.484  69.544  1.00  0.00    -0.176 C  
HETATM   14  C   UNL     1      -7.144   9.834  68.341  1.00  0.00    -0.073 C  
HETATM   15  O   UNL     1      -9.326   5.838  70.537  1.00  0.00    -0.157 OA 
HETATM   16  C   UNL     1      -6.693   7.412  65.440  1.00  0.00    -0.048 C  
HETATM   17  C   UNL     1      -9.280   7.768  68.877  1.00  0.00    -0.140 C  
HETATM   18  C   UNL     1      -6.916   6.619  68.789  1.00  0.00    -0.080 C  
HETATM   19  C   UNL     1      -6.628   8.632  66.264  1.00  0.00    -0.062 C  
HETATM   20  H   UNL     1      -8.485   5.710  70.113  1.00  0.00     0.000 HD 
HETATM   21  C   UNL     1      -9.039   9.070  69.872  1.00  0.00    -0.176 C  
HETATM   22  C   UNL     1      -8.438  10.223  69.042  1.00  0.00    -0.150 C  
HETATM   23  C   UNL     1      -8.001   7.372  67.993  1.00  0.00    -0.119 C  
HETATM   24  C   UNL     1      -8.494   6.420  66.824  1.00  0.00    -0.112 C  
ENDROOT
BRANCH   4  25
HETATM   25  C   UNL     1     -10.908   6.675  72.775  1.00  0.00    -0.251 C  
HETATM   26  O   UNL     1     -11.754   5.770  72.643  1.00  0.00    -0.293 OA 
BRANCH  25  27
HETATM   27  C   UNL     1     -10.286   6.784  74.187  1.00  0.00    -0.339 C  
BRANCH  27  28
HETATM   28  O   UNL     1      -9.662   5.521  74.562  1.00  0.00    -0.157 OA 
BRANCH  28  29
HETATM   29  C   UNL     1      -8.523   5.183  73.896  1.00  0.00    -0.110 C  
HETATM   30  O   UNL     1      -7.904   5.936  73.158  1.00  0.00    -0.102 OA 
BRANCH  29  31
HETATM   31  C   UNL     1      -8.138   3.738  74.116  1.00  0.00    -0.079 C  
BRANCH  31  32
HETATM   32  C   UNL     1      -8.349   2.861  72.891  1.00  0.00    -0.075 C  
HETATM   33  C   UNL     1      -9.759   2.879  72.353  1.00  0.00    -0.148 C  
HETATM   34  O   UNL     1     -10.646   2.171  73.073  1.00  0.00    -0.136 OA 
HETATM   35  O   UNL     1     -10.068   3.451  71.310  1.00  0.00    -0.101 OA 
ENDBRANCH  31  32
ENDBRANCH  29  31
ENDBRANCH  28  29
ENDBRANCH  27  28
ENDBRANCH  25  27
ENDBRANCH   4  25
TORSDOF 6
ENDMDL
MODEL      105
REMARK 921   NORMALIZED FREE ENERGY PREDICTED BY IDOCK:   -4.07 KCAL/MOL
REMARK 922        TOTAL FREE ENERGY PREDICTED BY IDOCK:   -6.23 KCAL/MOL
REMARK 923 INTER-LIGAND FREE ENERGY PREDICTED BY IDOCK:   -6.97 KCAL/MOL
REMARK 924 INTRA-LIGAND FREE ENERGY PREDICTED BY IDOCK:    0.74 KCAL/MOL
REMARK 927      BINDING AFFINITY PREDICTED BY RF-SCORE:    0.00 PKD
ROOT
HETATM    1  C   UNL     1     -10.254  10.464  66.219  1.00  0.00    -0.286 C  
HETATM    2  C   UNL     1      -9.756  10.470  64.895  1.00  0.00    -0.360 C  
HETATM    3  C   UNL     1      -8.713  10.749  65.933  1.00  0.00    -0.189 C  
HETATM    4  C   UNL     1      -9.187  10.380  67.908  1.00  0.00    -0.139 C  
HETATM    5  C   UNL     1      -8.243  16.764  66.192  1.00  0.00    -0.300 C  
HETATM    6  O   UNL     1     -10.508   9.825  68.284  1.00  0.00    -0.195 OA 
HETATM    7  C   UNL     1      -8.665   9.605  66.927  1.00  0.00    -0.139 C  
HETATM    8  C   UNL     1      -7.215  10.813  67.378  1.00  0.00    -0.093 C  
HETATM    9  H   UNL     1     -10.726   9.655  69.193  1.00  0.00     0.000 HD 
HETATM   10  C   UNL     1     -10.627  15.196  66.453  1.00  0.00    -0.305 C  
HETATM   11  O   UNL     1      -9.776  18.536  66.734  1.00  0.00    -0.304 OA 
HETATM   12  C   UNL     1      -8.605   8.108  66.698  1.00  0.00    -0.140 C  
HETATM   13  C   UNL     1      -7.858  12.420  67.803  1.00  0.00    -0.154 C  
HETATM   14  C   UNL     1     -11.813  14.293  66.221  1.00  0.00    -0.420 C  
HETATM   15  O   UNL     1      -8.233  12.310  69.188  1.00  0.00    -0.328 OA 
HETATM   16  C   UNL     1      -9.591  17.378  66.384  1.00  0.00    -0.276 C  
HETATM   17  C   UNL     1      -9.126  13.124  66.946  1.00  0.00    -0.231 C  
HETATM   18  C   UNL     1      -9.860  14.887  68.753  1.00  0.00    -0.225 C  
HETATM   19  C   UNL     1     -10.719  16.485  66.067  1.00  0.00    -0.180 C  
HETATM   20  H   UNL     1      -8.577  13.167  69.414  1.00  0.00     0.000 HD 
HETATM   21  C   UNL     1     -10.477  12.185  66.753  1.00  0.00    -0.245 C  
HETATM   22  C   UNL     1     -11.433  12.889  65.771  1.00  0.00    -0.376 C  
HETATM   23  C   UNL     1      -9.438  14.660  67.288  1.00  0.00    -0.221 C  
HETATM   24  C   UNL     1      -8.115  15.494  67.029  1.00  0.00    -0.272 C  
ENDROOT
BRANCH   4  25
HETATM   25  C   UNL     1      -8.420   9.450  69.192  1.00  0.00    -0.134 C  
HETATM   26  O   UNL     1      -7.223   9.106  69.236  1.00  0.00    -0.063 OA 
BRANCH  25  27
HETATM   27  C   UNL     1      -9.288   8.938  70.366  1.00  0.00    -0.193 C  
BRANCH  27  28
HETATM   28  O   UNL     1      -8.510   8.924  71.599  1.00  0.00    -0.282 OA 
BRANCH  28  29
HETATM   29  C   UNL     1      -8.704   7.863  72.430  1.00  0.00    -0.152 C  
HETATM   30  O   UNL     1      -9.231   6.811  72.097  1.00  0.00    -0.138 OA 
BRANCH  29  31
HETATM   31  C   UNL     1      -8.255   8.151  73.844  1.00  0.00    -0.311 C  
BRANCH  31  32
HETATM   32  C   UNL     1      -6.950   7.464  74.217  1.00  0.00    -0.107 C  
HETATM   33  C   UNL     1      -6.803   6.070  73.657  1.00  0.00    -0.080 C  
HETATM   34  O   UNL     1      -7.533   5.131  74.282  1.00  0.00    -0.085 OA 
HETATM   35  O   UNL     1      -6.037   5.799  72.735  1.00  0.00    -0.044 OA 
ENDBRANCH  31  32
ENDBRANCH  29  31
ENDBRANCH  28  29
ENDBRANCH  27  28
ENDBRANCH  25  27
ENDBRANCH   4  25
TORSDOF 6
ENDMDL
MODEL      106
REMARK 921   NORMALIZED FREE ENERGY PREDICTED BY IDOCK:   -4.04 KCAL/MOL
REMARK 922        TOTAL FREE ENERGY PREDICTED BY IDOCK:   -6.19 KCAL/MOL
REMARK 923 INTER-LIGAND FREE ENERGY PREDICTED BY IDOCK:   -5.70 KCAL/MOL
REMARK 924 INTRA-LIGAND FREE ENERGY PREDICTED BY IDOCK:   -0.49 KCAL/MOL
REMARK 927      BINDING AFFINITY PREDICTED BY RF-SCORE:    0.00 PKD
ROOT
HETATM    1  C   UNL     1      -9.759   3.802  69.940  1.00  0.00    -0.200 C  
HETATM    2  C   UNL     1      -9.014   2.606  69.815  1.00  0.00    -0.167 C  
HETATM    3  C   UNL     1      -8.242   3.736  70.422  1.00  0.00    -0.073 C  
HETATM    4  C   UNL     1      -9.289   5.405  71.038  1.00  0.00    -0.150 C  
HETATM    5  C   UNL     1      -5.133   6.209  65.873  1.00  0.00    -0.013 C  
HETATM    6  O   UNL     1     -10.764   5.469  70.914  1.00  0.00    -0.252 OA 
HETATM    7  C   UNL     1      -8.965   4.243  71.654  1.00  0.00    -0.158 C  
HETATM    8  C   UNL     1      -7.277   5.195  71.552  1.00  0.00    -0.073 C  
HETATM    9  H   UNL     1     -11.246   6.237  71.197  1.00  0.00     0.000 HD 
HETATM   10  C   UNL     1      -7.956   5.728  65.988  1.00  0.00    -0.103 C  
HETATM   11  O   UNL     1      -5.757   7.265  63.804  1.00  0.00    -0.036 OA 
HETATM   12  C   UNL     1      -9.549   3.486  72.831  1.00  0.00    -0.169 C  
HETATM   13  C   UNL     1      -7.189   6.138  70.043  1.00  0.00    -0.073 C  
HETATM   14  C   UNL     1      -9.330   5.108  66.041  1.00  0.00    -0.165 C  
HETATM   15  O   UNL     1      -7.891   7.360  70.332  1.00  0.00    -0.095 OA 
HETATM   16  C   UNL     1      -6.049   6.528  64.737  1.00  0.00    -0.037 C  
HETATM   17  C   UNL     1      -7.744   5.521  68.577  1.00  0.00    -0.085 C  
HETATM   18  C   UNL     1      -7.991   7.799  67.287  1.00  0.00    -0.118 C  
HETATM   19  C   UNL     1      -7.348   5.836  64.789  1.00  0.00    -0.069 C  
HETATM   20  H   UNL     1      -7.844   7.863  69.527  1.00  0.00     0.000 HD 
HETATM   21  C   UNL     1      -9.285   4.914  68.586  1.00  0.00    -0.159 C  
HETATM   22  C   UNL     1      -9.544   4.200  67.244  1.00  0.00    -0.228 C  
HETATM   23  C   UNL     1      -7.385   6.381  67.271  1.00  0.00    -0.087 C  
HETATM   24  C   UNL     1      -5.808   6.529  67.204  1.00  0.00    -0.017 C  
ENDROOT
BRANCH   4  25
HETATM   25  C   UNL     1      -9.368   6.305  72.550  1.00  0.00    -0.146 C  
HETATM   26  O   UNL     1      -8.398   6.649  73.253  1.00  0.00    -0.118 OA 
BRANCH  25  27
HETATM   27  C   UNL     1     -10.754   6.671  73.131  1.00  0.00    -0.278 C  
BRANCH  27  28
HETATM   28  O   UNL     1     -11.037   8.084  72.910  1.00  0.00    -0.392 OA 
BRANCH  28  29
HETATM   29  C   UNL     1     -12.078   8.376  72.082  1.00  0.00    -0.373 C  
HETATM   30  O   UNL     1     -12.732   7.541  71.474  1.00  0.00    -0.335 OA 
BRANCH  29  31
HETATM   31  C   UNL     1     -12.300   9.864  71.942  1.00  0.00    -0.390 C  
BRANCH  31  32
HETATM   32  C   UNL     1     -11.675  10.454  70.687  1.00  0.00    -0.444 C  
HETATM   33  C   UNL     1     -10.553   9.627  70.107  1.00  0.00    -0.272 C  
HETATM   34  O   UNL     1      -9.391   9.701  70.780  1.00  0.00    -0.207 OA 
HETATM   35  O   UNL     1     -10.671   8.976  69.071  1.00  0.00    -0.215 OA 
ENDBRANCH  31  32
ENDBRANCH  29  31
ENDBRANCH  28  29
ENDBRANCH  27  28
ENDBRANCH  25  27
ENDBRANCH   4  25
TORSDOF 6
ENDMDL
MODEL      107
REMARK 921   NORMALIZED FREE ENERGY PREDICTED BY IDOCK:   -3.98 KCAL/MOL
REMARK 922        TOTAL FREE ENERGY PREDICTED BY IDOCK:   -6.11 KCAL/MOL
REMARK 923 INTER-LIGAND FREE ENERGY PREDICTED BY IDOCK:   -5.41 KCAL/MOL
REMARK 924 INTRA-LIGAND FREE ENERGY PREDICTED BY IDOCK:   -0.70 KCAL/MOL
REMARK 927      BINDING AFFINITY PREDICTED BY RF-SCORE:    0.00 PKD
ROOT
HETATM    1  C   UNL     1      -7.925  12.197  67.545  1.00  0.00    -0.163 C  
HETATM    2  C   UNL     1      -7.462  12.964  68.640  1.00  0.00    -0.092 C  
HETATM    3  C   UNL     1      -7.021  11.534  68.675  1.00  0.00    -0.089 C  
HETATM    4  C   UNL     1      -7.268  10.399  66.969  1.00  0.00    -0.093 C  
HETATM    5  C   UNL     1     -10.969   8.701  72.261  1.00  0.00    -0.392 C  
HETATM    6  O   UNL     1      -7.835  10.992  65.735  1.00  0.00    -0.317 OA 
HETATM    7  C   UNL     1      -6.267  11.202  67.403  1.00  0.00    -0.066 C  
HETATM    8  C   UNL     1      -6.144   9.648  68.560  1.00  0.00    -0.043 C  
HETATM    9  H   UNL     1      -7.949  10.469  64.949  1.00  0.00     0.000 HD 
HETATM   10  C   UNL     1     -11.555  10.318  69.968  1.00  0.00    -0.349 C  
HETATM   11  O   UNL     1     -13.346   8.344  72.173  1.00  0.00    -0.336 OA 
HETATM   12  C   UNL     1      -5.145  11.945  66.704  1.00  0.00     0.020 C  
HETATM   13  C   UNL     1      -7.770   9.002  68.901  1.00  0.00    -0.094 C  
HETATM   14  C   UNL     1     -11.728  11.449  68.986  1.00  0.00    -0.409 C  
HETATM   15  O   UNL     1      -8.079   8.169  67.770  1.00  0.00    -0.124 OA 
HETATM   16  C   UNL     1     -12.366   8.983  71.812  1.00  0.00    -0.367 C  
HETATM   17  C   UNL     1      -9.081  10.014  69.210  1.00  0.00    -0.208 C  
HETATM   18  C   UNL     1     -11.003   8.288  68.722  1.00  0.00     0.142 C  
HETATM   19  C   UNL     1     -12.496  10.146  70.919  1.00  0.00    -0.455 C  
HETATM   20  H   UNL     1      -8.946   7.825  67.952  1.00  0.00     0.000 HD 
HETATM   21  C   UNL     1      -9.346  11.212  68.097  1.00  0.00    -0.176 C  
HETATM   22  C   UNL     1     -10.428  12.165  68.644  1.00  0.00    -0.237 C  
HETATM   23  C   UNL     1     -10.416   9.295  69.732  1.00  0.00    -0.235 C  
HETATM   24  C   UNL     1     -10.056   8.500  71.055  1.00  0.00    -0.257 C  
ENDROOT
BRANCH   4  25
HETATM   25  C   UNL     1      -6.187   9.399  66.003  1.00  0.00    -0.067 C  
HETATM   26  O   UNL     1      -5.438   8.500  66.432  1.00  0.00    -0.031 OA 
BRANCH  25  27
HETATM   27  C   UNL     1      -6.076   9.668  64.484  1.00  0.00    -0.088 C  
BRANCH  27  28
HETATM   28  O   UNL     1      -6.500   8.493  63.732  1.00  0.00    -0.076 OA 
BRANCH  28  29
HETATM   29  C   UNL     1      -7.825   8.183  63.780  1.00  0.00    -0.147 C  
HETATM   30  O   UNL     1      -8.725   9.007  63.862  1.00  0.00    -0.179 OA 
BRANCH  29  31
HETATM   31  C   UNL     1      -8.066   6.691  63.788  1.00  0.00    -0.003 C  
BRANCH  31  32
HETATM   32  C   UNL     1      -7.537   5.999  65.034  1.00  0.00    -0.090 C  
HETATM   33  C   UNL     1      -8.573   5.196  65.783  1.00  0.00    -0.135 C  
HETATM   34  O   UNL     1      -9.444   5.926  66.499  1.00  0.00    -0.148 OA 
HETATM   35  O   UNL     1      -8.591   3.966  65.783  1.00  0.00    -0.109 OA 
ENDBRANCH  31  32
ENDBRANCH  29  31
ENDBRANCH  28  29
ENDBRANCH  27  28
ENDBRANCH  25  27
ENDBRANCH   4  25
TORSDOF 6
ENDMDL
MODEL      108
REMARK 921   NORMALIZED FREE ENERGY PREDICTED BY IDOCK:   -3.95 KCAL/MOL
REMARK 922        TOTAL FREE ENERGY PREDICTED BY IDOCK:   -6.07 KCAL/MOL
REMARK 923 INTER-LIGAND FREE ENERGY PREDICTED BY IDOCK:   -6.19 KCAL/MOL
REMARK 924 INTRA-LIGAND FREE ENERGY PREDICTED BY IDOCK:    0.11 KCAL/MOL
REMARK 927      BINDING AFFINITY PREDICTED BY RF-SCORE:    0.00 PKD
ROOT
HETATM    1  C   UNL     1     -11.403   7.617  71.367  1.00  0.00    -0.285 C  
HETATM    2  C   UNL     1     -11.525   8.150  72.672  1.00  0.00    -0.454 C  
HETATM    3  C   UNL     1     -10.249   8.524  71.985  1.00  0.00    -0.391 C  
HETATM    4  C   UNL     1     -10.099   8.171  69.956  1.00  0.00    -0.196 C  
HETATM    5  C   UNL     1      -6.129   4.562  73.932  1.00  0.00    -0.033 C  
HETATM    6  O   UNL     1     -11.233   7.594  69.198  1.00  0.00    -0.429 OA 
HETATM    7  C   UNL     1     -10.561   9.222  70.676  1.00  0.00    -0.324 C  
HETATM    8  C   UNL     1      -8.638   9.307  70.922  1.00  0.00    -0.220 C  
HETATM    9  H   UNL     1     -11.164   7.431  68.264  1.00  0.00     0.000 HD 
HETATM   10  C   UNL     1      -8.674   3.981  72.749  1.00  0.00    -0.105 C  
HETATM   11  O   UNL     1      -5.922   2.169  73.802  1.00  0.00     0.000 OA 
HETATM   12  C   UNL     1     -11.522  10.355  70.371  1.00  0.00    -0.420 C  
HETATM   13  C   UNL     1      -7.950   7.665  70.987  1.00  0.00    -0.094 C  
HETATM   14  C   UNL     1     -10.145   3.831  72.451  1.00  0.00    -0.237 C  
HETATM   15  O   UNL     1      -7.783   7.282  69.610  1.00  0.00    -0.100 OA 
HETATM   16  C   UNL     1      -6.630   3.166  73.748  1.00  0.00    -0.030 C  
HETATM   17  C   UNL     1      -8.715   6.413  71.815  1.00  0.00    -0.132 C  
HETATM   18  C   UNL     1      -7.498   4.397  70.646  1.00  0.00    -0.052 C  
HETATM   19  C   UNL     1      -8.084   3.063  73.542  1.00  0.00    -0.072 C  
HETATM   20  H   UNL     1      -7.416   6.406  69.645  1.00  0.00     0.000 HD 
HETATM   21  C   UNL     1     -10.311   6.169  71.441  1.00  0.00    -0.260 C  
HETATM   22  C   UNL     1     -10.902   5.152  72.436  1.00  0.00    -0.265 C  
HETATM   23  C   UNL     1      -7.868   5.062  71.988  1.00  0.00    -0.110 C  
HETATM   24  C   UNL     1      -6.519   5.427  72.737  1.00  0.00    -0.064 C  
ENDROOT
BRANCH   4  25
HETATM   25  C   UNL     1      -9.670   9.173  68.573  1.00  0.00    -0.155 C  
HETATM   26  O   UNL     1      -8.823  10.087  68.562  1.00  0.00    -0.115 OA 
BRANCH  25  27
HETATM   27  C   UNL     1     -10.435   8.978  67.242  1.00  0.00    -0.273 C  
BRANCH  27  28
HETATM   28  O   UNL     1     -10.453  10.223  66.484  1.00  0.00    -0.223 OA 
BRANCH  28  29
HETATM   29  C   UNL     1      -9.982  10.167  65.208  1.00  0.00    -0.311 C  
HETATM   30  O   UNL     1     -10.574  10.608  64.233  1.00  0.00    -0.298 OA 
BRANCH  29  31
HETATM   31  C   UNL     1      -8.663   9.434  65.114  1.00  0.00    -0.210 C  
BRANCH  31  32
HETATM   32  C   UNL     1      -7.455  10.331  65.332  1.00  0.00    -0.145 C  
HETATM   33  C   UNL     1      -6.130   9.611  65.262  1.00  0.00    -0.071 C  
HETATM   34  O   UNL     1      -5.834   8.866  66.341  1.00  0.00    -0.052 OA 
HETATM   35  O   UNL     1      -5.354   9.733  64.316  1.00  0.00    -0.060 OA 
ENDBRANCH  31  32
ENDBRANCH  29  31
ENDBRANCH  28  29
ENDBRANCH  27  28
ENDBRANCH  25  27
ENDBRANCH   4  25
TORSDOF 6
ENDMDL
MODEL      109
REMARK 921   NORMALIZED FREE ENERGY PREDICTED BY IDOCK:   -3.88 KCAL/MOL
REMARK 922        TOTAL FREE ENERGY PREDICTED BY IDOCK:   -5.97 KCAL/MOL
REMARK 923 INTER-LIGAND FREE ENERGY PREDICTED BY IDOCK:   -6.20 KCAL/MOL
REMARK 924 INTRA-LIGAND FREE ENERGY PREDICTED BY IDOCK:    0.23 KCAL/MOL
REMARK 927      BINDING AFFINITY PREDICTED BY RF-SCORE:    0.00 PKD
ROOT
HETATM    1  C   UNL     1      -8.700  11.063  64.757  1.00  0.00     0.023 C  
HETATM    2  C   UNL     1      -9.135  10.009  63.920  1.00  0.00    -0.296 C  
HETATM    3  C   UNL     1      -9.946  10.160  65.169  1.00  0.00    -0.379 C  
HETATM    4  C   UNL     1      -9.698  11.879  66.285  1.00  0.00    -0.229 C  
HETATM    5  C   UNL     1      -7.659   6.170  69.083  1.00  0.00    -0.095 C  
HETATM    6  O   UNL     1      -8.771  12.947  65.844  1.00  0.00    -0.201 OA 
HETATM    7  C   UNL     1     -10.508  11.565  65.245  1.00  0.00    -0.336 C  
HETATM    8  C   UNL     1     -11.262  10.570  66.730  1.00  0.00     0.071 C  
HETATM    9  H   UNL     1      -8.657  13.739  66.357  1.00  0.00     0.000 HD 
HETATM   10  C   UNL     1      -6.237   8.196  67.639  1.00  0.00    -0.052 C  
HETATM   11  O   UNL     1      -5.495   5.870  70.089  1.00  0.00    -0.011 OA 
HETATM   12  C   UNL     1     -11.235  12.390  64.200  1.00  0.00    -0.434 C  
HETATM   13  C   UNL     1      -9.967  10.001  67.814  1.00  0.00    -0.170 C  
HETATM   14  C   UNL     1      -5.584   9.044  66.577  1.00  0.00    -0.049 C  
HETATM   15  O   UNL     1      -9.688  11.122  68.672  1.00  0.00    -0.190 OA 
HETATM   16  C   UNL     1      -6.180   6.346  69.193  1.00  0.00    -0.034 C  
HETATM   17  C   UNL     1      -8.513   9.393  67.218  1.00  0.00    -0.125 C  
HETATM   18  C   UNL     1      -7.074   9.670  69.401  1.00  0.00    -0.062 C  
HETATM   19  C   UNL     1      -5.574   7.112  68.091  1.00  0.00    -0.021 C  
HETATM   20  H   UNL     1      -8.997  10.819  69.250  1.00  0.00     0.000 HD 
HETATM   21  C   UNL     1      -7.729  10.348  66.115  1.00  0.00    -0.129 C  
HETATM   22  C   UNL     1      -6.553   9.551  65.518  1.00  0.00    -0.073 C  
HETATM   23  C   UNL     1      -7.545   8.704  68.295  1.00  0.00    -0.097 C  
HETATM   24  C   UNL     1      -8.350   7.527  68.990  1.00  0.00    -0.129 C  
ENDROOT
BRANCH   4  25
HETATM   25  C   UNL     1     -10.809  13.091  66.918  1.00  0.00    -0.264 C  
HETATM   26  O   UNL     1     -12.021  12.926  67.157  1.00  0.00    -0.371 OA 
BRANCH  25  27
HETATM   27  C   UNL     1     -10.290  14.530  67.155  1.00  0.00    -0.265 C  
BRANCH  27  28
HETATM   28  O   UNL     1     -10.426  14.889  68.561  1.00  0.00    -0.231 OA 
BRANCH  28  29
HETATM   29  C   UNL     1     -10.881  16.144  68.829  1.00  0.00    -0.310 C  
HETATM   30  O   UNL     1     -11.111  16.991  67.978  1.00  0.00    -0.324 OA 
BRANCH  29  31
HETATM   31  C   UNL     1     -11.008  16.404  70.312  1.00  0.00    -0.262 C  
BRANCH  31  32
HETATM   32  C   UNL     1     -11.151  15.137  71.140  1.00  0.00    -0.274 C  
HETATM   33  C   UNL     1     -12.498  14.467  71.020  1.00  0.00    -0.341 C  
HETATM   34  O   UNL     1     -13.492  15.075  71.690  1.00  0.00    -0.349 OA 
HETATM   35  O   UNL     1     -12.669  13.419  70.402  1.00  0.00    -0.194 OA 
ENDBRANCH  31  32
ENDBRANCH  29  31
ENDBRANCH  28  29
ENDBRANCH  27  28
ENDBRANCH  25  27
ENDBRANCH   4  25
TORSDOF 6
ENDMDL
MODEL      110
REMARK 921   NORMALIZED FREE ENERGY PREDICTED BY IDOCK:   -3.85 KCAL/MOL
REMARK 922        TOTAL FREE ENERGY PREDICTED BY IDOCK:   -5.94 KCAL/MOL
REMARK 923 INTER-LIGAND FREE ENERGY PREDICTED BY IDOCK:   -7.27 KCAL/MOL
REMARK 924 INTRA-LIGAND FREE ENERGY PREDICTED BY IDOCK:    1.33 KCAL/MOL
REMARK 927      BINDING AFFINITY PREDICTED BY RF-SCORE:    0.00 PKD
ROOT
HETATM    1  C   UNL     1     -11.456  15.960  65.773  1.00  0.00     0.309 C  
HETATM    2  C   UNL     1     -11.274  15.932  64.370  1.00  0.00    -0.242 C  
HETATM    3  C   UNL     1     -10.253  15.140  65.127  1.00  0.00    -0.386 C  
HETATM    4  C   UNL     1     -10.611  14.751  67.122  1.00  0.00    -0.285 C  
HETATM    5  C   UNL     1      -5.477  18.786  65.726  1.00  0.00    -0.194 C  
HETATM    6  O   UNL     1     -11.856  15.214  67.777  1.00  0.00    -0.401 OA 
HETATM    7  C   UNL     1     -10.949  14.100  65.983  1.00  0.00    -0.304 C  
HETATM    8  C   UNL     1      -9.040  13.785  66.142  1.00  0.00     0.079 C  
HETATM    9  H   UNL     1     -12.021  15.035  68.696  1.00  0.00     0.000 HD 
HETATM   10  C   UNL     1      -8.190  19.343  66.463  1.00  0.00    -0.326 C  
HETATM   11  O   UNL     1      -5.129  20.921  66.778  1.00  0.00    -0.163 OA 
HETATM   12  C   UNL     1     -12.039  13.107  65.630  1.00  0.00    -0.501 C  
HETATM   13  C   UNL     1      -8.235  15.213  66.842  1.00  0.00    -0.199 C  
HETATM   14  C   UNL     1      -9.672  19.624  66.471  1.00  0.00    -0.498 C  
HETATM   15  O   UNL     1      -8.405  15.071  68.263  1.00  0.00    -0.136 OA 
HETATM   16  C   UNL     1      -5.900  20.098  66.303  1.00  0.00    -0.172 C  
HETATM   17  C   UNL     1      -8.660  16.781  66.394  1.00  0.00    -0.338 C  
HETATM   18  C   UNL     1      -7.639  18.045  68.460  1.00  0.00    -0.296 C  
HETATM   19  C   UNL     1      -7.346  20.365  66.215  1.00  0.00    -0.247 C  
HETATM   20  H   UNL     1      -7.975  15.832  68.636  1.00  0.00     0.000 HD 
HETATM   21  C   UNL     1     -10.274  17.144  66.479  1.00  0.00    -0.322 C  
HETATM   22  C   UNL     1     -10.506  18.523  65.831  1.00  0.00    -0.379 C  
HETATM   23  C   UNL     1      -7.696  17.949  66.922  1.00  0.00    -0.244 C  
HETATM   24  C   UNL     1      -6.230  17.643  66.401  1.00  0.00    -0.255 C  
ENDROOT
BRANCH   4  25
HETATM   25  C   UNL     1     -10.636  13.280  68.092  1.00  0.00    -0.249 C  
HETATM   26  O   UNL     1     -10.749  13.218  69.331  1.00  0.00    -0.035 OA 
BRANCH  25  27
HETATM   27  C   UNL     1     -10.438  11.917  67.387  1.00  0.00    -0.217 C  
BRANCH  27  28
HETATM   28  O   UNL     1      -9.468  11.110  68.117  1.00  0.00    -0.167 OA 
BRANCH  28  29
HETATM   29  C   UNL     1      -9.716   9.773  68.186  1.00  0.00    -0.145 C  
HETATM   30  O   UNL     1     -10.457   9.167  67.425  1.00  0.00    -0.249 OA 
BRANCH  29  31
HETATM   31  C   UNL     1      -9.022   9.120  69.360  1.00  0.00    -0.147 C  
BRANCH  31  32
HETATM   32  C   UNL     1      -7.980  10.009  70.019  1.00  0.00    -0.166 C  
HETATM   33  C   UNL     1      -6.921   9.257  70.788  1.00  0.00    -0.109 C  
HETATM   34  O   UNL     1      -7.325   8.767  71.973  1.00  0.00    -0.255 OA 
HETATM   35  O   UNL     1      -5.764   9.142  70.390  1.00  0.00    -0.032 OA 
ENDBRANCH  31  32
ENDBRANCH  29  31
ENDBRANCH  28  29
ENDBRANCH  27  28
ENDBRANCH  25  27
ENDBRANCH   4  25
TORSDOF 6
ENDMDL
MODEL      111
REMARK 921   NORMALIZED FREE ENERGY PREDICTED BY IDOCK:   -3.78 KCAL/MOL
REMARK 922        TOTAL FREE ENERGY PREDICTED BY IDOCK:   -5.83 KCAL/MOL
REMARK 923 INTER-LIGAND FREE ENERGY PREDICTED BY IDOCK:   -6.84 KCAL/MOL
REMARK 924 INTRA-LIGAND FREE ENERGY PREDICTED BY IDOCK:    1.01 KCAL/MOL
REMARK 927      BINDING AFFINITY PREDICTED BY RF-SCORE:    0.00 PKD
ROOT
HETATM    1  C   UNL     1     -11.779  12.251  68.287  1.00  0.00    -0.392 C  
HETATM    2  C   UNL     1     -11.795  13.125  69.399  1.00  0.00    -0.383 C  
HETATM    3  C   UNL     1     -10.714  13.429  68.409  1.00  0.00    -0.271 C  
HETATM    4  C   UNL     1     -10.806  12.514  66.561  1.00  0.00    -0.256 C  
HETATM    5  C   UNL     1      -5.752  10.727  70.543  1.00  0.00    -0.120 C  
HETATM    6  O   UNL     1     -11.927  11.611  66.212  1.00  0.00    -0.401 OA 
HETATM    7  C   UNL     1     -11.326  13.668  67.043  1.00  0.00    -0.344 C  
HETATM    8  C   UNL     1      -9.429  14.048  66.892  1.00  0.00    -0.271 C  
HETATM    9  H   UNL     1     -11.969  11.189  65.361  1.00  0.00     0.000 HD 
HETATM   10  C   UNL     1      -8.310   9.529  70.060  1.00  0.00    -0.192 C  
HETATM   11  O   UNL     1      -5.171   8.444  71.026  1.00  0.00    -0.028 OA 
HETATM   12  C   UNL     1     -12.496  14.540  66.631  1.00  0.00     0.005 C  
HETATM   13  C   UNL     1      -8.475  12.590  67.266  1.00  0.00    -0.185 C  
HETATM   14  C   UNL     1      -9.763   9.127  70.095  1.00  0.00    -0.234 C  
HETATM   15  O   UNL     1      -8.450  11.841  66.038  1.00  0.00    -0.380 OA 
HETATM   16  C   UNL     1      -6.035   9.291  70.839  1.00  0.00    -0.059 C  
HETATM   17  C   UNL     1      -8.891  11.557  68.530  1.00  0.00    -0.139 C  
HETATM   18  C   UNL     1      -7.540   9.444  67.741  1.00  0.00    -0.088 C  
HETATM   19  C   UNL     1      -7.466   8.961  70.945  1.00  0.00    -0.110 C  
HETATM   20  H   UNL     1      -7.942  11.064  66.239  1.00  0.00     0.000 HD 
HETATM   21  C   UNL     1     -10.462  11.028  68.542  1.00  0.00    -0.210 C  
HETATM   22  C   UNL     1     -10.723  10.286  69.868  1.00  0.00    -0.344 C  
HETATM   23  C   UNL     1      -7.815  10.426  68.898  1.00  0.00    -0.115 C  
HETATM   24  C   UNL     1      -6.450  11.150  69.254  1.00  0.00    -0.088 C  
ENDROOT
BRANCH   4  25
HETATM   25  C   UNL     1     -10.757  13.108  64.903  1.00  0.00    -0.346 C  
HETATM   26  O   UNL     1     -10.649  14.299  64.551  1.00  0.00    -0.388 OA 
BRANCH  25  27
HETATM   27  C   UNL     1     -10.922  12.099  63.742  1.00  0.00    -0.431 C  
BRANCH  27  28
HETATM   28  O   UNL     1      -9.617  11.621  63.301  1.00  0.00    -0.345 OA 
BRANCH  28  29
HETATM   29  C   UNL     1      -9.267  10.362  63.685  1.00  0.00    -0.279 C  
HETATM   30  O   UNL     1      -9.555   9.864  64.764  1.00  0.00    -0.289 OA 
BRANCH  29  31
HETATM   31  C   UNL     1      -8.417   9.662  62.651  1.00  0.00    -0.180 C  
BRANCH  31  32
HETATM   32  C   UNL     1      -7.470   8.629  63.243  1.00  0.00    -0.106 C  
HETATM   33  C   UNL     1      -8.133   7.327  63.621  1.00  0.00    -0.005 C  
HETATM   34  O   UNL     1      -8.865   7.372  64.747  1.00  0.00     0.235 OA 
HETATM   35  O   UNL     1      -7.976   6.289  62.981  1.00  0.00    -0.103 OA 
ENDBRANCH  31  32
ENDBRANCH  29  31
ENDBRANCH  28  29
ENDBRANCH  27  28
ENDBRANCH  25  27
ENDBRANCH   4  25
TORSDOF 6
ENDMDL
MODEL      112
REMARK 921   NORMALIZED FREE ENERGY PREDICTED BY IDOCK:   -3.77 KCAL/MOL
REMARK 922        TOTAL FREE ENERGY PREDICTED BY IDOCK:   -5.83 KCAL/MOL
REMARK 923 INTER-LIGAND FREE ENERGY PREDICTED BY IDOCK:   -6.43 KCAL/MOL
REMARK 924 INTRA-LIGAND FREE ENERGY PREDICTED BY IDOCK:    0.60 KCAL/MOL
REMARK 927      BINDING AFFINITY PREDICTED BY RF-SCORE:    0.00 PKD
ROOT
HETATM    1  C   UNL     1      -7.311   8.349  67.295  1.00  0.00    -0.085 C  
HETATM    2  C   UNL     1      -6.964   7.039  66.890  1.00  0.00    -0.070 C  
HETATM    3  C   UNL     1      -8.430   7.329  66.802  1.00  0.00    -0.121 C  
HETATM    4  C   UNL     1      -9.041   9.294  66.967  1.00  0.00    -0.130 C  
HETATM    5  C   UNL     1     -10.826   5.172  71.908  1.00  0.00    -0.171 C  
HETATM    6  O   UNL     1      -8.056  10.387  67.135  1.00  0.00    -0.114 OA 
HETATM    7  C   UNL     1      -8.658   8.535  65.913  1.00  0.00    -0.183 C  
HETATM    8  C   UNL     1     -10.406   7.830  66.373  1.00  0.00     0.066 C  
HETATM    9  H   UNL     1      -8.338  11.292  67.211  1.00  0.00     0.000 HD 
HETATM   10  C   UNL     1      -8.638   7.005  71.656  1.00  0.00    -0.116 C  
HETATM   11  O   UNL     1     -10.499   5.658  74.241  1.00  0.00    -0.274 OA 
HETATM   12  C   UNL     1      -8.107   8.860  64.537  1.00  0.00    -0.150 C  
HETATM   13  C   UNL     1     -10.650   7.886  68.138  1.00  0.00    -0.120 C  
HETATM   14  C   UNL     1      -7.311   7.664  71.372  1.00  0.00    -0.074 C  
HETATM   15  O   UNL     1     -11.092   9.229  68.404  1.00  0.00    -0.467 OA 
HETATM   16  C   UNL     1     -10.085   5.706  73.090  1.00  0.00    -0.181 C  
HETATM   17  C   UNL     1      -9.419   7.490  69.217  1.00  0.00    -0.154 C  
HETATM   18  C   UNL     1     -10.406   8.666  71.352  1.00  0.00    -0.331 C  
HETATM   19  C   UNL     1      -8.759   6.265  72.777  1.00  0.00    -0.126 C  
HETATM   20  H   UNL     1     -11.222   9.259  69.345  1.00  0.00     0.000 HD 
HETATM   21  C   UNL     1      -7.975   8.268  68.983  1.00  0.00    -0.112 C  
HETATM   22  C   UNL     1      -6.914   7.631  69.903  1.00  0.00    -0.054 C  
HETATM   23  C   UNL     1      -9.849   7.357  70.757  1.00  0.00    -0.178 C  
HETATM   24  C   UNL     1     -10.989   6.259  70.850  1.00  0.00    -0.344 C  
ENDROOT
BRANCH   4  25
HETATM   25  C   UNL     1     -10.052  10.343  65.977  1.00  0.00    -0.243 C  
HETATM   26  O   UNL     1     -10.190  10.278  64.740  1.00  0.00    -0.329 OA 
BRANCH  25  27
HETATM   27  C   UNL     1     -10.810  11.509  66.656  1.00  0.00    -0.287 C  
BRANCH  27  28
HETATM   28  O   UNL     1     -10.166  12.779  66.341  1.00  0.00    -0.244 OA 
BRANCH  28  29
HETATM   29  C   UNL     1      -9.598  13.449  67.382  1.00  0.00    -0.223 C  
HETATM   30  O   UNL     1      -8.431  13.331  67.725  1.00  0.00    -0.155 OA 
BRANCH  29  31
HETATM   31  C   UNL     1     -10.593  14.316  68.118  1.00  0.00    -0.246 C  
BRANCH  31  32
HETATM   32  C   UNL     1     -10.955  15.591  67.373  1.00  0.00    -0.306 C  
HETATM   33  C   UNL     1      -9.812  16.202  66.601  1.00  0.00    -0.249 C  
HETATM   34  O   UNL     1      -8.901  16.843  67.354  1.00  0.00    -0.201 OA 
HETATM   35  O   UNL     1      -9.740  16.165  65.374  1.00  0.00    -0.453 OA 
ENDBRANCH  31  32
ENDBRANCH  29  31
ENDBRANCH  28  29
ENDBRANCH  27  28
ENDBRANCH  25  27
ENDBRANCH   4  25
TORSDOF 6
ENDMDL
MODEL      113
REMARK 921   NORMALIZED FREE ENERGY PREDICTED BY IDOCK:   -3.72 KCAL/MOL
REMARK 922        TOTAL FREE ENERGY PREDICTED BY IDOCK:   -5.76 KCAL/MOL
REMARK 923 INTER-LIGAND FREE ENERGY PREDICTED BY IDOCK:   -5.98 KCAL/MOL
REMARK 924 INTRA-LIGAND FREE ENERGY PREDICTED BY IDOCK:    0.23 KCAL/MOL
REMARK 927      BINDING AFFINITY PREDICTED BY RF-SCORE:    0.00 PKD
ROOT
HETATM    1  C   UNL     1     -10.170  10.504  64.515  1.00  0.00    -0.355 C  
HETATM    2  C   UNL     1      -9.737  11.232  63.382  1.00  0.00    -0.385 C  
HETATM    3  C   UNL     1      -8.690  11.088  64.443  1.00  0.00     0.075 C  
HETATM    4  C   UNL     1      -9.026   9.728  65.959  1.00  0.00    -0.155 C  
HETATM    5  C   UNL     1      -8.948  16.180  67.681  1.00  0.00    -0.194 C  
HETATM    6  O   UNL     1     -10.251   8.895  65.978  1.00  0.00    -0.397 OA 
HETATM    7  C   UNL     1      -8.458   9.619  64.734  1.00  0.00    -0.168 C  
HETATM    8  C   UNL     1      -7.148  10.617  65.760  1.00  0.00    -0.096 C  
HETATM    9  H   UNL     1     -10.406   8.269  66.676  1.00  0.00     0.000 HD 
HETATM   10  C   UNL     1     -11.109  14.398  67.071  1.00  0.00    -0.317 C  
HETATM   11  O   UNL     1     -10.660  17.234  69.001  1.00  0.00    -0.323 OA 
HETATM   12  C   UNL     1      -8.226   8.456  63.789  1.00  0.00    -0.106 C  
HETATM   13  C   UNL     1      -7.962  11.701  66.916  1.00  0.00    -0.161 C  
HETATM   14  C   UNL     1     -12.184  13.587  66.393  1.00  0.00    -0.454 C  
HETATM   15  O   UNL     1      -8.259  10.869  68.052  1.00  0.00    -0.114 OA 
HETATM   16  C   UNL     1     -10.351  16.438  68.124  1.00  0.00    -0.283 C  
HETATM   17  C   UNL     1      -9.344  12.569  66.497  1.00  0.00    -0.233 C  
HETATM   18  C   UNL     1     -10.206  13.087  68.927  1.00  0.00    -0.015 C  
HETATM   19  C   UNL     1     -11.374  15.685  67.378  1.00  0.00    -0.163 C  
HETATM   20  H   UNL     1      -8.694  11.448  68.669  1.00  0.00     0.000 HD 
HETATM   21  C   UNL     1     -10.578  11.685  65.831  1.00  0.00    -0.318 C  
HETATM   22  C   UNL     1     -11.656  12.656  65.311  1.00  0.00    -0.389 C  
HETATM   23  C   UNL     1      -9.826  13.676  67.553  1.00  0.00    -0.227 C  
HETATM   24  C   UNL     1      -8.628  14.691  67.775  1.00  0.00    -0.175 C  
ENDROOT
BRANCH   4  25
HETATM   25  C   UNL     1      -8.094   8.390  66.624  1.00  0.00    -0.101 C  
HETATM   26  O   UNL     1      -6.871   8.393  66.864  1.00  0.00    -0.067 OA 
BRANCH  25  27
HETATM   27  C   UNL     1      -8.806   7.043  66.894  1.00  0.00    -0.124 C  
BRANCH  27  28
HETATM   28  O   UNL     1      -8.217   5.990  66.077  1.00  0.00    -0.114 OA 
BRANCH  28  29
HETATM   29  C   UNL     1      -7.977   4.801  66.695  1.00  0.00    -0.103 C  
HETATM   30  O   UNL     1      -7.116   4.625  67.545  1.00  0.00    -0.063 OA 
BRANCH  29  31
HETATM   31  C   UNL     1      -8.855   3.690  66.165  1.00  0.00    -0.127 C  
BRANCH  31  32
HETATM   32  C   UNL     1      -8.240   2.938  64.994  1.00  0.00    -0.087 C  
HETATM   33  C   UNL     1      -8.051   3.775  63.753  1.00  0.00    -0.089 C  
HETATM   34  O   UNL     1      -9.177   4.026  63.064  1.00  0.00    -0.109 OA 
HETATM   35  O   UNL     1      -6.947   4.157  63.368  1.00  0.00    -0.042 OA 
ENDBRANCH  31  32
ENDBRANCH  29  31
ENDBRANCH  28  29
ENDBRANCH  27  28
ENDBRANCH  25  27
ENDBRANCH   4  25
TORSDOF 6
ENDMDL
MODEL      114
REMARK 921   NORMALIZED FREE ENERGY PREDICTED BY IDOCK:   -3.69 KCAL/MOL
REMARK 922        TOTAL FREE ENERGY PREDICTED BY IDOCK:   -5.72 KCAL/MOL
REMARK 923 INTER-LIGAND FREE ENERGY PREDICTED BY IDOCK:   -7.11 KCAL/MOL
REMARK 924 INTRA-LIGAND FREE ENERGY PREDICTED BY IDOCK:    1.39 KCAL/MOL
REMARK 927      BINDING AFFINITY PREDICTED BY RF-SCORE:    0.00 PKD
ROOT
HETATM    1  C   UNL     1     -12.087   9.191  71.885  1.00  0.00    -0.448 C  
HETATM    2  C   UNL     1     -13.403   8.847  71.497  1.00  0.00    -0.374 C  
HETATM    3  C   UNL     1     -12.346   8.307  70.586  1.00  0.00     0.181 C  
HETATM    4  C   UNL     1     -10.385   8.375  71.227  1.00  0.00    -0.214 C  
HETATM    5  C   UNL     1     -11.972  12.238  66.016  1.00  0.00    -0.342 C  
HETATM    6  O   UNL     1     -10.038   8.912  72.563  1.00  0.00    -0.184 OA 
HETATM    7  C   UNL     1     -11.372   7.460  71.381  1.00  0.00    -0.282 C  
HETATM    8  C   UNL     1     -10.878   7.292  69.512  1.00  0.00    -0.224 C  
HETATM    9  H   UNL     1      -9.135   8.944  72.859  1.00  0.00     0.000 HD 
HETATM   10  C   UNL     1     -11.774  12.808  68.818  1.00  0.00    -0.363 C  
HETATM   11  O   UNL     1     -11.421  14.574  65.865  1.00  0.00    -0.339 OA 
HETATM   12  C   UNL     1     -11.627   6.357  72.390  1.00  0.00    -0.308 C  
HETATM   13  C   UNL     1     -10.433   8.883  68.845  1.00  0.00    -0.205 C  
HETATM   14  C   UNL     1     -12.039  13.005  70.289  1.00  0.00    -0.388 C  
HETATM   15  O   UNL     1      -9.056   9.067  69.220  1.00  0.00    -0.141 OA 
HETATM   16  C   UNL     1     -11.788  13.623  66.543  1.00  0.00    -0.404 C  
HETATM   17  C   UNL     1     -11.296  10.279  69.226  1.00  0.00    -0.253 C  
HETATM   18  C   UNL     1      -9.468  12.042  68.544  1.00  0.00    -0.136 C  
HETATM   19  C   UNL     1     -12.138  13.786  67.964  1.00  0.00    -0.315 C  
HETATM   20  H   UNL     1      -8.820   9.916  68.864  1.00  0.00     0.000 HD 
HETATM   21  C   UNL     1     -11.525  10.567  70.842  1.00  0.00    -0.304 C  
HETATM   22  C   UNL     1     -12.509  11.743  71.000  1.00  0.00    -0.411 C  
HETATM   23  C   UNL     1     -10.932  11.587  68.372  1.00  0.00    -0.267 C  
HETATM   24  C   UNL     1     -11.156  11.245  66.840  1.00  0.00    -0.339 C  
ENDROOT
BRANCH   4  25
HETATM   25  C   UNL     1      -9.106   7.172  71.369  1.00  0.00    -0.143 C  
HETATM   26  O   UNL     1      -8.285   7.077  72.301  1.00  0.00    -0.099 OA 
BRANCH  25  27
HETATM   27  C   UNL     1      -8.906   6.155  70.220  1.00  0.00    -0.149 C  
BRANCH  27  28
HETATM   28  O   UNL     1      -9.251   4.812  70.670  1.00  0.00    -0.122 OA 
BRANCH  28  29
HETATM   29  C   UNL     1      -9.212   3.825  69.733  1.00  0.00    -0.143 C  
HETATM   30  O   UNL     1      -9.497   3.981  68.554  1.00  0.00    -0.151 OA 
BRANCH  29  31
HETATM   31  C   UNL     1      -8.840   2.485  70.324  1.00  0.00    -0.142 C  
BRANCH  31  32
HETATM   32  C   UNL     1      -7.369   2.374  70.694  1.00  0.00    -0.033 C  
HETATM   33  C   UNL     1      -6.421   2.675  69.559  1.00  0.00    -0.029 C  
HETATM   34  O   UNL     1      -6.314   1.701  68.639  1.00  0.00    -0.024 OA 
HETATM   35  O   UNL     1      -5.756   3.708  69.502  1.00  0.00    -0.016 OA 
ENDBRANCH  31  32
ENDBRANCH  29  31
ENDBRANCH  28  29
ENDBRANCH  27  28
ENDBRANCH  25  27
ENDBRANCH   4  25
TORSDOF 6
ENDMDL
MODEL      115
REMARK 921   NORMALIZED FREE ENERGY PREDICTED BY IDOCK:   -3.67 KCAL/MOL
REMARK 922        TOTAL FREE ENERGY PREDICTED BY IDOCK:   -5.69 KCAL/MOL
REMARK 923 INTER-LIGAND FREE ENERGY PREDICTED BY IDOCK:   -7.43 KCAL/MOL
REMARK 924 INTRA-LIGAND FREE ENERGY PREDICTED BY IDOCK:    1.74 KCAL/MOL
REMARK 927      BINDING AFFINITY PREDICTED BY RF-SCORE:    0.00 PKD
ROOT
HETATM    1  C   UNL     1     -10.636   5.650  70.607  1.00  0.00    -0.347 C  
HETATM    2  C   UNL     1      -9.608   5.151  71.442  1.00  0.00    -0.215 C  
HETATM    3  C   UNL     1      -9.411   6.577  71.029  1.00  0.00    -0.164 C  
HETATM    4  C   UNL     1     -11.001   7.563  70.157  1.00  0.00    -0.254 C  
HETATM    5  C   UNL     1      -5.702   6.392  66.266  1.00  0.00    -0.014 C  
HETATM    6  O   UNL     1     -12.309   6.890  69.976  1.00  0.00    -0.619 OA 
HETATM    7  C   UNL     1     -10.614   7.398  71.445  1.00  0.00    -0.232 C  
HETATM    8  C   UNL     1      -9.302   8.634  70.726  1.00  0.00    -0.231 C  
HETATM    9  H   UNL     1     -13.041   7.344  69.575  1.00  0.00     0.000 HD 
HETATM   10  C   UNL     1      -8.167   4.970  66.603  1.00  0.00    -0.108 C  
HETATM   11  O   UNL     1      -5.840   5.397  64.080  1.00  0.00    -0.020 OA 
HETATM   12  C   UNL     1     -11.344   7.469  72.772  1.00  0.00    -0.388 C  
HETATM   13  C   UNL     1      -8.956   8.246  69.021  1.00  0.00    -0.147 C  
HETATM   14  C   UNL     1      -9.266   4.039  67.054  1.00  0.00    -0.186 C  
HETATM   15  O   UNL     1     -10.008   8.888  68.278  1.00  0.00    -0.163 OA 
HETATM   16  C   UNL     1      -6.228   5.441  65.241  1.00  0.00    -0.034 C  
HETATM   17  C   UNL     1      -8.800   6.656  68.487  1.00  0.00    -0.122 C  
HETATM   18  C   UNL     1      -9.180   7.088  65.922  1.00  0.00     0.005 C  
HETATM   19  C   UNL     1      -7.239   4.498  65.746  1.00  0.00    -0.075 C  
HETATM   20  H   UNL     1      -9.823   8.680  67.369  1.00  0.00     0.000 HD 
HETATM   21  C   UNL     1     -10.038   5.632  68.893  1.00  0.00    -0.254 C  
HETATM   22  C   UNL     1      -9.630   4.192  68.524  1.00  0.00    -0.192 C  
HETATM   23  C   UNL     1      -8.257   6.467  66.990  1.00  0.00    -0.113 C  
HETATM   24  C   UNL     1      -6.847   7.186  66.889  1.00  0.00    -0.072 C  
ENDROOT
BRANCH   4  25
HETATM   25  C   UNL     1     -11.820   9.087  70.489  1.00  0.00    -0.073 C  
HETATM   26  O   UNL     1     -12.884   9.228  71.123  1.00  0.00    -0.299 OA 
BRANCH  25  27
HETATM   27  C   UNL     1     -11.233  10.393  69.904  1.00  0.00    -0.306 C  
BRANCH  27  28
HETATM   28  O   UNL     1     -12.185  11.007  68.986  1.00  0.00    -0.483 OA 
BRANCH  28  29
HETATM   29  C   UNL     1     -11.680  11.898  68.089  1.00  0.00    -0.320 C  
HETATM   30  O   UNL     1     -11.704  11.745  66.876  1.00  0.00    -0.557 OA 
BRANCH  29  31
HETATM   31  C   UNL     1     -11.019  13.079  68.762  1.00  0.00    -0.295 C  
BRANCH  31  32
HETATM   32  C   UNL     1     -11.642  14.415  68.389  1.00  0.00    -0.351 C  
HETATM   33  C   UNL     1     -11.117  15.585  69.184  1.00  0.00    -0.272 C  
HETATM   34  O   UNL     1     -11.580  15.666  70.444  1.00  0.00    -0.289 OA 
HETATM   35  O   UNL     1     -10.364  16.432  68.706  1.00  0.00    -0.242 OA 
ENDBRANCH  31  32
ENDBRANCH  29  31
ENDBRANCH  28  29
ENDBRANCH  27  28
ENDBRANCH  25  27
ENDBRANCH   4  25
TORSDOF 6
ENDMDL
MODEL      116
REMARK 921   NORMALIZED FREE ENERGY PREDICTED BY IDOCK:   -3.61 KCAL/MOL
REMARK 922        TOTAL FREE ENERGY PREDICTED BY IDOCK:   -5.61 KCAL/MOL
REMARK 923 INTER-LIGAND FREE ENERGY PREDICTED BY IDOCK:   -5.95 KCAL/MOL
REMARK 924 INTRA-LIGAND FREE ENERGY PREDICTED BY IDOCK:    0.35 KCAL/MOL
REMARK 927      BINDING AFFINITY PREDICTED BY RF-SCORE:    0.00 PKD
ROOT
HETATM    1  C   UNL     1     -10.926   6.905  69.245  1.00  0.00    -0.260 C  
HETATM    2  C   UNL     1     -10.802   5.904  70.237  1.00  0.00    -0.391 C  
HETATM    3  C   UNL     1      -9.593   6.778  70.108  1.00  0.00    -0.165 C  
HETATM    4  C   UNL     1      -9.765   8.515  69.005  1.00  0.00    -0.170 C  
HETATM    5  C   UNL     1      -5.785   3.765  66.517  1.00  0.00    -0.022 C  
HETATM    6  O   UNL     1     -11.055   8.901  68.389  1.00  0.00    -0.455 OA 
HETATM    7  C   UNL     1      -9.988   8.227  70.310  1.00  0.00    -0.188 C  
HETATM    8  C   UNL     1      -8.055   8.180  70.155  1.00  0.00    -0.113 C  
HETATM    9  H   UNL     1     -11.134   9.701  67.881  1.00  0.00     0.000 HD 
HETATM   10  C   UNL     1      -8.519   4.433  65.978  1.00  0.00    -0.113 C  
HETATM   11  O   UNL     1      -5.903   2.972  64.249  1.00  0.00    -0.013 OA 
HETATM   12  C   UNL     1     -10.830   8.873  71.394  1.00  0.00    -0.378 C  
HETATM   13  C   UNL     1      -7.578   7.536  68.563  1.00  0.00    -0.114 C  
HETATM   14  C   UNL     1     -10.024   4.536  65.979  1.00  0.00    -0.265 C  
HETATM   15  O   UNL     1      -7.649   8.664  67.674  1.00  0.00    -0.095 OA 
HETATM   16  C   UNL     1      -6.479   3.355  65.260  1.00  0.00    -0.035 C  
HETATM   17  C   UNL     1      -8.377   6.231  67.858  1.00  0.00    -0.118 C  
HETATM   18  C   UNL     1      -7.595   6.615  65.377  1.00  0.00    -0.086 C  
HETATM   19  C   UNL     1      -7.949   3.393  65.334  1.00  0.00    -0.089 C  
HETATM   20  H   UNL     1      -7.395   8.320  66.825  1.00  0.00     0.000 HD 
HETATM   21  C   UNL     1     -10.026   6.358  67.766  1.00  0.00    -0.147 C  
HETATM   22  C   UNL     1     -10.602   5.004  67.307  1.00  0.00    -0.075 C  
HETATM   23  C   UNL     1      -7.693   5.613  66.545  1.00  0.00    -0.100 C  
HETATM   24  C   UNL     1      -6.219   5.169  66.928  1.00  0.00    -0.032 C  
ENDROOT
BRANCH   4  25
HETATM   25  C   UNL     1      -9.403  10.207  69.334  1.00  0.00    -0.219 C  
HETATM   26  O   UNL     1      -8.405  10.641  69.941  1.00  0.00     0.068 OA 
BRANCH  25  27
HETATM   27  C   UNL     1     -10.423  11.287  68.901  1.00  0.00    -0.206 C  
BRANCH  27  28
HETATM   28  O   UNL     1      -9.771  12.588  68.811  1.00  0.00    -0.095 OA 
BRANCH  28  29
HETATM   29  C   UNL     1     -10.321  13.488  67.950  1.00  0.00    -0.249 C  
HETATM   30  O   UNL     1     -10.960  13.188  66.951  1.00  0.00    -0.269 OA 
BRANCH  29  31
HETATM   31  C   UNL     1      -9.998  14.915  68.327  1.00  0.00    -0.222 C  
BRANCH  31  32
HETATM   32  C   UNL     1     -10.996  15.926  67.784  1.00  0.00    -0.315 C  
HETATM   33  C   UNL     1     -10.398  16.940  66.840  1.00  0.00    -0.304 C  
HETATM   34  O   UNL     1      -9.670  17.903  67.431  1.00  0.00    -0.276 OA 
HETATM   35  O   UNL     1     -10.600  16.922  65.627  1.00  0.00    -0.444 OA 
ENDBRANCH  31  32
ENDBRANCH  29  31
ENDBRANCH  28  29
ENDBRANCH  27  28
ENDBRANCH  25  27
ENDBRANCH   4  25
TORSDOF 6
ENDMDL
MODEL      117
REMARK 921   NORMALIZED FREE ENERGY PREDICTED BY IDOCK:   -3.58 KCAL/MOL
REMARK 922        TOTAL FREE ENERGY PREDICTED BY IDOCK:   -5.57 KCAL/MOL
REMARK 923 INTER-LIGAND FREE ENERGY PREDICTED BY IDOCK:   -6.12 KCAL/MOL
REMARK 924 INTRA-LIGAND FREE ENERGY PREDICTED BY IDOCK:    0.56 KCAL/MOL
REMARK 927      BINDING AFFINITY PREDICTED BY RF-SCORE:    0.00 PKD
ROOT
HETATM    1  C   UNL     1      -7.762  10.678  69.653  1.00  0.00    -0.080 C  
HETATM    2  C   UNL     1      -6.758   9.939  70.321  1.00  0.00    -0.126 C  
HETATM    3  C   UNL     1      -6.302  10.548  69.032  1.00  0.00    -0.045 C  
HETATM    4  C   UNL     1      -7.508  11.973  68.151  1.00  0.00    -0.112 C  
HETATM    5  C   UNL     1      -6.831   6.184  64.893  1.00  0.00    -0.047 C  
HETATM    6  O   UNL     1      -8.772  12.403  68.792  1.00  0.00    -0.369 OA 
HETATM    7  C   UNL     1      -6.518  12.048  69.073  1.00  0.00    -0.091 C  
HETATM    8  C   UNL     1      -5.578  11.653  67.422  1.00  0.00    -0.086 C  
HETATM    9  H   UNL     1      -9.327  13.059  68.387  1.00  0.00     0.000 HD 
HETATM   10  C   UNL     1      -8.858   7.135  66.681  1.00  0.00    -0.142 C  
HETATM   11  O   UNL     1      -8.681   4.898  64.050  1.00  0.00    -0.143 OA 
HETATM   12  C   UNL     1      -6.158  13.064  70.140  1.00  0.00    -0.097 C  
HETATM   13  C   UNL     1      -6.558  10.575  66.395  1.00  0.00    -0.106 C  
HETATM   14  C   UNL     1      -9.696   7.478  67.888  1.00  0.00    -0.170 C  
HETATM   15  O   UNL     1      -7.464  11.452  65.702  1.00  0.00    -0.336 OA 
HETATM   16  C   UNL     1      -8.206   5.600  64.933  1.00  0.00    -0.134 C  
HETATM   17  C   UNL     1      -7.431   9.286  67.040  1.00  0.00    -0.091 C  
HETATM   18  C   UNL     1      -9.098   8.929  65.038  1.00  0.00    -0.110 C  
HETATM   19  C   UNL     1      -8.957   5.893  66.165  1.00  0.00    -0.157 C  
HETATM   20  H   UNL     1      -7.987  10.877  65.155  1.00  0.00     0.000 HD 
HETATM   21  C   UNL     1      -8.428   9.653  68.311  1.00  0.00    -0.118 C  
HETATM   22  C   UNL     1      -8.969   8.340  68.911  1.00  0.00    -0.144 C  
HETATM   23  C   UNL     1      -8.070   8.268  65.978  1.00  0.00    -0.110 C  
HETATM   24  C   UNL     1      -6.892   7.697  65.083  1.00  0.00    -0.047 C  
ENDROOT
BRANCH   4  25
HETATM   25  C   UNL     1      -7.232  13.613  67.570  1.00  0.00    -0.156 C  
HETATM   26  O   UNL     1      -6.124  14.144  67.364  1.00  0.00    -0.343 OA 
BRANCH  25  27
HETATM   27  C   UNL     1      -8.450  14.539  67.340  1.00  0.00    -0.205 C  
BRANCH  27  28
HETATM   28  O   UNL     1      -8.058  15.934  67.495  1.00  0.00    -0.137 OA 
BRANCH  28  29
HETATM   29  C   UNL     1      -8.387  16.777  66.478  1.00  0.00    -0.285 C  
HETATM   30  O   UNL     1      -9.207  16.523  65.607  1.00  0.00    -0.481 OA 
BRANCH  29  31
HETATM   31  C   UNL     1      -7.572  18.050  66.500  1.00  0.00    -0.279 C  
BRANCH  31  32
HETATM   32  C   UNL     1      -8.119  19.103  67.450  1.00  0.00    -0.296 C  
HETATM   33  C   UNL     1      -7.144  20.209  67.776  1.00  0.00    -0.295 C  
HETATM   34  O   UNL     1      -6.170  19.867  68.637  1.00  0.00    -0.249 OA 
HETATM   35  O   UNL     1      -7.256  21.350  67.332  1.00  0.00    -0.535 OA 
ENDBRANCH  31  32
ENDBRANCH  29  31
ENDBRANCH  28  29
ENDBRANCH  27  28
ENDBRANCH  25  27
ENDBRANCH   4  25
TORSDOF 6
ENDMDL
MODEL      118
REMARK 921   NORMALIZED FREE ENERGY PREDICTED BY IDOCK:   -3.47 KCAL/MOL
REMARK 922        TOTAL FREE ENERGY PREDICTED BY IDOCK:   -5.42 KCAL/MOL
REMARK 923 INTER-LIGAND FREE ENERGY PREDICTED BY IDOCK:   -6.40 KCAL/MOL
REMARK 924 INTRA-LIGAND FREE ENERGY PREDICTED BY IDOCK:    0.97 KCAL/MOL
REMARK 927      BINDING AFFINITY PREDICTED BY RF-SCORE:    0.00 PKD
ROOT
HETATM    1  C   UNL     1     -10.262   9.736  67.397  1.00  0.00    -0.284 C  
HETATM    2  C   UNL     1     -10.969   9.206  68.502  1.00  0.00     0.003 C  
HETATM    3  C   UNL     1      -9.614   9.736  68.852  1.00  0.00    -0.167 C  
HETATM    4  C   UNL     1      -8.633  10.894  67.452  1.00  0.00    -0.127 C  
HETATM    5  C   UNL     1      -5.942   4.941  68.838  1.00  0.00    -0.025 C  
HETATM    6  O   UNL     1      -9.266  11.218  66.154  1.00  0.00    -0.194 OA 
HETATM    7  C   UNL     1      -9.513  11.190  68.439  1.00  0.00    -0.189 C  
HETATM    8  C   UNL     1      -7.881  10.756  69.395  1.00  0.00    -0.093 C  
HETATM    9  H   UNL     1      -8.814  11.752  65.509  1.00  0.00     0.000 HD 
HETATM   10  C   UNL     1      -7.688   5.797  66.733  1.00  0.00    -0.100 C  
HETATM   11  O   UNL     1      -5.285   3.346  67.162  1.00  0.00    -0.010 OA 
HETATM   12  C   UNL     1     -10.463  12.348  68.678  1.00  0.00    -0.224 C  
HETATM   13  C   UNL     1      -6.995   9.461  68.550  1.00  0.00    -0.066 C  
HETATM   14  C   UNL     1      -8.879   6.149  65.877  1.00  0.00    -0.151 C  
HETATM   15  O   UNL     1      -6.246  10.137  67.525  1.00  0.00    -0.057 OA 
HETATM   16  C   UNL     1      -6.080   4.191  67.554  1.00  0.00    -0.028 C  
HETATM   17  C   UNL     1      -7.790   8.141  67.867  1.00  0.00    -0.122 C  
HETATM   18  C   UNL     1      -5.883   7.368  66.230  1.00  0.00    -0.036 C  
HETATM   19  C   UNL     1      -7.299   4.507  66.792  1.00  0.00    -0.081 C  
HETATM   20  H   UNL     1      -5.774   9.446  67.074  1.00  0.00     0.000 HD 
HETATM   21  C   UNL     1      -9.048   8.502  66.851  1.00  0.00    -0.177 C  
HETATM   22  C   UNL     1      -9.790   7.197  66.500  1.00  0.00    -0.189 C  
HETATM   23  C   UNL     1      -6.853   6.945  67.352  1.00  0.00    -0.076 C  
HETATM   24  C   UNL     1      -5.984   6.445  68.580  1.00  0.00    -0.021 C  
ENDROOT
BRANCH   4  25
HETATM   25  C   UNL     1      -7.885  12.488  67.498  1.00  0.00    -0.168 C  
HETATM   26  O   UNL     1      -6.682  12.742  67.295  1.00  0.00    -0.158 OA 
BRANCH  25  27
HETATM   27  C   UNL     1      -8.752  13.710  67.884  1.00  0.00    -0.184 C  
BRANCH  27  28
HETATM   28  O   UNL     1      -8.668  14.734  66.850  1.00  0.00    -0.224 OA 
BRANCH  28  29
HETATM   29  C   UNL     1      -9.845  15.275  66.430  1.00  0.00    -0.275 C  
HETATM   30  O   UNL     1     -10.637  15.856  67.158  1.00  0.00    -0.310 OA 
BRANCH  29  31
HETATM   31  C   UNL     1     -10.104  15.020  64.963  1.00  0.00    -0.289 C  
BRANCH  31  32
HETATM   32  C   UNL     1     -10.802  13.697  64.692  1.00  0.00    -0.416 C  
HETATM   33  C   UNL     1     -12.248  13.833  64.280  1.00  0.00    -0.400 C  
HETATM   34  O   UNL     1     -13.094  14.130  65.280  1.00  0.00    -0.763 OA 
HETATM   35  O   UNL     1     -12.634  13.637  63.129  1.00  0.00    -0.792 OA 
ENDBRANCH  31  32
ENDBRANCH  29  31
ENDBRANCH  28  29
ENDBRANCH  27  28
ENDBRANCH  25  27
ENDBRANCH   4  25
TORSDOF 6
ENDMDL
MODEL      119
REMARK 921   NORMALIZED FREE ENERGY PREDICTED BY IDOCK:   -3.45 KCAL/MOL
REMARK 922        TOTAL FREE ENERGY PREDICTED BY IDOCK:   -5.40 KCAL/MOL
REMARK 923 INTER-LIGAND FREE ENERGY PREDICTED BY IDOCK:   -5.26 KCAL/MOL
REMARK 924 INTRA-LIGAND FREE ENERGY PREDICTED BY IDOCK:   -0.14 KCAL/MOL
REMARK 927      BINDING AFFINITY PREDICTED BY RF-SCORE:    0.00 PKD
ROOT
HETATM    1  C   UNL     1      -9.568  11.504  68.679  1.00  0.00    -0.159 C  
HETATM    2  C   UNL     1     -10.382  12.223  67.773  1.00  0.00    -0.216 C  
HETATM    3  C   UNL     1     -10.669  10.754  67.806  1.00  0.00    -0.296 C  
HETATM    4  C   UNL     1      -9.860   9.642  69.346  1.00  0.00    -0.193 C  
HETATM    5  C   UNL     1      -7.553   8.384  63.207  1.00  0.00    -0.128 C  
HETATM    6  O   UNL     1      -9.048  10.285  70.405  1.00  0.00    -0.245 OA 
HETATM    7  C   UNL     1     -11.017  10.335  69.220  1.00  0.00    -0.284 C  
HETATM    8  C   UNL     1     -11.285   8.784  68.085  1.00  0.00     0.462 C  
HETATM    9  H   UNL     1      -8.676   9.773  71.114  1.00  0.00     0.000 HD 
HETATM   10  C   UNL     1      -6.545  10.040  65.317  1.00  0.00    -0.116 C  
HETATM   11  O   UNL     1      -5.215   8.284  62.650  1.00  0.00    -0.065 OA 
HETATM   12  C   UNL     1     -11.982  10.949  70.217  1.00  0.00    -0.448 C  
HETATM   13  C   UNL     1      -9.753   8.319  67.303  1.00  0.00    -0.177 C  
HETATM   14  C   UNL     1      -6.233  11.178  66.257  1.00  0.00    -0.102 C  
HETATM   15  O   UNL     1      -9.069   7.517  68.283  1.00  0.00    -0.133 OA 
HETATM   16  C   UNL     1      -6.124   8.811  63.279  1.00  0.00    -0.085 C  
HETATM   17  C   UNL     1      -8.682   9.467  66.693  1.00  0.00    -0.146 C  
HETATM   18  C   UNL     1      -6.533   7.956  66.595  1.00  0.00    -0.055 C  
HETATM   19  C   UNL     1      -5.879   9.976  64.146  1.00  0.00    -0.128 C  
HETATM   20  H   UNL     1      -8.252   7.269  67.866  1.00  0.00     0.000 HD 
HETATM   21  C   UNL     1      -8.253  10.681  67.736  1.00  0.00    -0.111 C  
HETATM   22  C   UNL     1      -7.460  11.747  66.955  1.00  0.00    -0.137 C  
HETATM   23  C   UNL     1      -7.468   8.900  65.812  1.00  0.00    -0.089 C  
HETATM   24  C   UNL     1      -8.086   8.078  64.604  1.00  0.00    -0.140 C  
ENDROOT
BRANCH   4  25
HETATM   25  C   UNL     1     -10.536   8.526  70.529  1.00  0.00    -0.213 C  
HETATM   26  O   UNL     1     -11.064   7.424  70.282  1.00  0.00    -0.259 OA 
BRANCH  25  27
HETATM   27  C   UNL     1     -10.555   8.937  72.020  1.00  0.00    -0.318 C  
BRANCH  27  28
HETATM   28  O   UNL     1      -9.247   8.712  72.621  1.00  0.00    -0.299 OA 
BRANCH  28  29
HETATM   29  C   UNL     1      -9.119   7.610  73.411  1.00  0.00    -0.241 C  
HETATM   30  O   UNL     1     -10.018   7.143  74.096  1.00  0.00    -0.301 OA 
BRANCH  29  31
HETATM   31  C   UNL     1      -7.713   7.057  73.402  1.00  0.00    -0.096 C  
BRANCH  31  32
HETATM   32  C   UNL     1      -6.642   8.120  73.589  1.00  0.00    -0.135 C  
HETATM   33  C   UNL     1      -6.026   8.612  72.302  1.00  0.00    -0.071 C  
HETATM   34  O   UNL     1      -5.153   7.763  71.734  1.00  0.00    -0.034 OA 
HETATM   35  O   UNL     1      -6.261   9.723  71.832  1.00  0.00    -0.301 OA 
ENDBRANCH  31  32
ENDBRANCH  29  31
ENDBRANCH  28  29
ENDBRANCH  27  28
ENDBRANCH  25  27
ENDBRANCH   4  25
TORSDOF 6
ENDMDL
MODEL      120
REMARK 921   NORMALIZED FREE ENERGY PREDICTED BY IDOCK:   -3.45 KCAL/MOL
REMARK 922        TOTAL FREE ENERGY PREDICTED BY IDOCK:   -5.39 KCAL/MOL
REMARK 923 INTER-LIGAND FREE ENERGY PREDICTED BY IDOCK:   -6.78 KCAL/MOL
REMARK 924 INTRA-LIGAND FREE ENERGY PREDICTED BY IDOCK:    1.40 KCAL/MOL
REMARK 927      BINDING AFFINITY PREDICTED BY RF-SCORE:    0.00 PKD
ROOT
HETATM    1  C   UNL     1     -11.399   9.471  69.722  1.00  0.00    -0.117 C  
HETATM    2  C   UNL     1     -11.047   9.589  71.087  1.00  0.00    -0.450 C  
HETATM    3  C   UNL     1      -9.995  10.092  70.148  1.00  0.00    -0.239 C  
HETATM    4  C   UNL     1     -10.512  10.361  68.168  1.00  0.00    -0.188 C  
HETATM    5  C   UNL     1      -6.094   5.530  69.483  1.00  0.00    -0.021 C  
HETATM    6  O   UNL     1     -11.891  10.097  67.697  1.00  0.00    -0.365 OA 
HETATM    7  C   UNL     1     -10.582  11.167  69.255  1.00  0.00    -0.212 C  
HETATM    8  C   UNL     1      -8.682  11.080  68.869  1.00  0.00    -0.122 C  
HETATM    9  H   UNL     1     -12.129  10.222  66.785  1.00  0.00     0.000 HD 
HETATM   10  C   UNL     1      -8.932   5.459  69.091  1.00  0.00    -0.120 C  
HETATM   11  O   UNL     1      -6.281   3.282  68.649  1.00  0.00    -0.027 OA 
HETATM   12  C   UNL     1     -11.416  12.384  69.602  1.00  0.00    -0.264 C  
HETATM   13  C   UNL     1      -8.248   9.464  68.257  1.00  0.00    -0.118 C  
HETATM   14  C   UNL     1     -10.430   5.478  69.264  1.00  0.00    -0.336 C  
HETATM   15  O   UNL     1      -8.559   9.507  66.853  1.00  0.00    -0.126 OA 
HETATM   16  C   UNL     1      -6.821   4.282  69.103  1.00  0.00    -0.046 C  
HETATM   17  C   UNL     1      -8.902   8.059  68.919  1.00  0.00    -0.141 C  
HETATM   18  C   UNL     1      -8.393   6.434  66.915  1.00  0.00    -0.110 C  
HETATM   19  C   UNL     1      -8.270   4.316  69.366  1.00  0.00    -0.069 C  
HETATM   20  H   UNL     1      -8.328   8.645  66.527  1.00  0.00     0.000 HD 
HETATM   21  C   UNL     1     -10.554   8.018  69.038  1.00  0.00    -0.169 C  
HETATM   22  C   UNL     1     -10.960   6.776  69.857  1.00  0.00    -0.340 C  
HETATM   23  C   UNL     1      -8.245   6.679  68.430  1.00  0.00    -0.115 C  
HETATM   24  C   UNL     1      -6.695   6.734  68.764  1.00  0.00    -0.056 C  
ENDROOT
BRANCH   4  25
HETATM   25  C   UNL     1     -10.378  11.713  67.046  1.00  0.00    -0.217 C  
HETATM   26  O   UNL     1      -9.961  11.657  65.873  1.00  0.00    -0.216 OA 
BRANCH  25  27
HETATM   27  C   UNL     1     -10.741  13.134  67.541  1.00  0.00    -0.238 C  
BRANCH  27  28
HETATM   28  O   UNL     1      -9.702  14.082  67.157  1.00  0.00    -0.230 OA 
BRANCH  28  29
HETATM   29  C   UNL     1      -9.721  15.292  67.780  1.00  0.00    -0.215 C  
HETATM   30  O   UNL     1      -9.686  15.446  68.993  1.00  0.00    -0.211 OA 
BRANCH  29  31
HETATM   31  C   UNL     1      -9.858  16.438  66.805  1.00  0.00    -0.265 C  
BRANCH  31  32
HETATM   32  C   UNL     1      -9.979  17.796  67.478  1.00  0.00    -0.324 C  
HETATM   33  C   UNL     1     -10.041  18.959  66.518  1.00  0.00    -0.398 C  
HETATM   34  O   UNL     1      -8.866  19.289  65.955  1.00  0.00    -0.432 OA 
HETATM   35  O   UNL     1     -11.072  19.593  66.304  1.00  0.00    -0.286 OA 
ENDBRANCH  31  32
ENDBRANCH  29  31
ENDBRANCH  28  29
ENDBRANCH  27  28
ENDBRANCH  25  27
ENDBRANCH   4  25
TORSDOF 6
ENDMDL
MODEL      121
REMARK 921   NORMALIZED FREE ENERGY PREDICTED BY IDOCK:   -3.43 KCAL/MOL
REMARK 922        TOTAL FREE ENERGY PREDICTED BY IDOCK:   -5.37 KCAL/MOL
REMARK 923 INTER-LIGAND FREE ENERGY PREDICTED BY IDOCK:   -6.68 KCAL/MOL
REMARK 924 INTRA-LIGAND FREE ENERGY PREDICTED BY IDOCK:    1.31 KCAL/MOL
REMARK 927      BINDING AFFINITY PREDICTED BY RF-SCORE:    0.00 PKD
ROOT
HETATM    1  C   UNL     1      -9.461  13.831  66.046  1.00  0.00    -0.125 C  
HETATM    2  C   UNL     1     -10.110  13.569  64.817  1.00  0.00    -0.267 C  
HETATM    3  C   UNL     1     -10.982  13.358  66.016  1.00  0.00    -0.281 C  
HETATM    4  C   UNL     1     -10.319  14.076  67.835  1.00  0.00    -0.239 C  
HETATM    5  C   UNL     1     -10.721   7.441  67.197  1.00  0.00    -0.400 C  
HETATM    6  O   UNL     1      -9.036  14.808  67.944  1.00  0.00    -0.165 OA 
HETATM    7  C   UNL     1     -11.041  14.634  66.833  1.00  0.00    -0.333 C  
HETATM    8  C   UNL     1     -12.278  13.379  67.646  1.00  0.00    -0.202 C  
HETATM    9  H   UNL     1      -8.731  15.138  68.781  1.00  0.00     0.000 HD 
HETATM   10  C   UNL     1      -8.519   9.252  66.903  1.00  0.00    -0.128 C  
HETATM   11  O   UNL     1      -8.940   5.931  67.773  1.00  0.00    -0.113 OA 
HETATM   12  C   UNL     1     -11.300  16.064  66.402  1.00  0.00     0.301 C  
HETATM   13  C   UNL     1     -11.408  11.928  68.206  1.00  0.00    -0.277 C  
HETATM   14  C   UNL     1      -7.482  10.216  66.384  1.00  0.00    -0.108 C  
HETATM   15  O   UNL     1     -10.884  12.289  69.496  1.00  0.00    -0.454 OA 
HETATM   16  C   UNL     1      -9.298   6.997  67.290  1.00  0.00    -0.133 C  
HETATM   17  C   UNL     1     -10.179  11.222  67.294  1.00  0.00    -0.226 C  
HETATM   18  C   UNL     1      -9.036   9.843  69.218  1.00  0.00    -0.184 C  
HETATM   19  C   UNL     1      -8.327   7.933  66.697  1.00  0.00    -0.125 C  
HETATM   20  H   UNL     1     -10.419  11.515  69.794  1.00  0.00     0.000 HD 
HETATM   21  C   UNL     1      -8.978  12.244  66.786  1.00  0.00    -0.209 C  
HETATM   22  C   UNL     1      -8.072  11.489  65.794  1.00  0.00     0.306 C  
HETATM   23  C   UNL     1      -9.654   9.796  67.806  1.00  0.00    -0.157 C  
HETATM   24  C   UNL     1     -10.893   8.808  67.853  1.00  0.00    -0.078 C  
ENDROOT
BRANCH   4  25
HETATM   25  C   UNL     1     -11.029  15.118  69.065  1.00  0.00    -0.244 C  
HETATM   26  O   UNL     1     -12.156  14.987  69.579  1.00  0.00    -0.302 OA 
BRANCH  25  27
HETATM   27  C   UNL     1     -10.240  16.363  69.536  1.00  0.00    -0.244 C  
BRANCH  27  28
HETATM   28  O   UNL     1      -9.533  16.966  68.413  1.00  0.00    -0.241 OA 
BRANCH  28  29
HETATM   29  C   UNL     1      -8.978  18.191  68.628  1.00  0.00    -0.275 C  
HETATM   30  O   UNL     1      -9.601  19.243  68.619  1.00  0.00    -0.371 OA 
BRANCH  29  31
HETATM   31  C   UNL     1      -7.480  18.118  68.815  1.00  0.00    -0.285 C  
BRANCH  31  32
HETATM   32  C   UNL     1      -6.700  18.245  67.516  1.00  0.00    -0.198 C  
HETATM   33  C   UNL     1      -7.476  17.842  66.286  1.00  0.00    -0.286 C  
HETATM   34  O   UNL     1      -7.627  16.517  66.123  1.00  0.00    -0.216 OA 
HETATM   35  O   UNL     1      -7.896  18.656  65.466  1.00  0.00    -0.419 OA 
ENDBRANCH  31  32
ENDBRANCH  29  31
ENDBRANCH  28  29
ENDBRANCH  27  28
ENDBRANCH  25  27
ENDBRANCH   4  25
TORSDOF 6
ENDMDL
MODEL      122
REMARK 921   NORMALIZED FREE ENERGY PREDICTED BY IDOCK:   -3.40 KCAL/MOL
REMARK 922        TOTAL FREE ENERGY PREDICTED BY IDOCK:   -5.32 KCAL/MOL
REMARK 923 INTER-LIGAND FREE ENERGY PREDICTED BY IDOCK:   -6.45 KCAL/MOL
REMARK 924 INTRA-LIGAND FREE ENERGY PREDICTED BY IDOCK:    1.13 KCAL/MOL
REMARK 927      BINDING AFFINITY PREDICTED BY RF-SCORE:    0.00 PKD
ROOT
HETATM    1  C   UNL     1      -8.126  10.156  65.140  1.00  0.00    -0.148 C  
HETATM    2  C   UNL     1      -8.826   9.389  64.180  1.00  0.00    -0.216 C  
HETATM    3  C   UNL     1      -9.442   9.355  65.544  1.00  0.00    -0.328 C  
HETATM    4  C   UNL     1      -8.783  10.726  66.940  1.00  0.00    -0.141 C  
HETATM    5  C   UNL     1      -7.372   4.310  68.138  1.00  0.00    -0.064 C  
HETATM    6  O   UNL     1      -7.756  11.734  66.591  1.00  0.00    -0.293 OA 
HETATM    7  C   UNL     1      -9.755  10.767  65.996  1.00  0.00    -0.264 C  
HETATM    8  C   UNL     1     -10.472   9.567  67.341  1.00  0.00    -0.336 C  
HETATM    9  H   UNL     1      -7.452  12.366  67.234  1.00  0.00     0.000 HD 
HETATM   10  C   UNL     1      -5.828   6.407  66.943  1.00  0.00    -0.020 C  
HETATM   11  O   UNL     1      -5.178   3.507  68.711  1.00  0.00    -0.010 OA 
HETATM   12  C   UNL     1     -10.460  11.897  65.272  1.00  0.00    -0.317 C  
HETATM   13  C   UNL     1      -9.163   8.600  68.068  1.00  0.00    -0.140 C  
HETATM   14  C   UNL     1      -5.180   7.383  65.992  1.00  0.00    -0.024 C  
HETATM   15  O   UNL     1      -8.603   9.448  69.086  1.00  0.00    -0.130 OA 
HETATM   16  C   UNL     1      -5.882   4.260  68.051  1.00  0.00    -0.026 C  
HETATM   17  C   UNL     1      -7.913   7.958  67.140  1.00  0.00    -0.117 C  
HETATM   18  C   UNL     1      -6.190   7.537  69.081  1.00  0.00    -0.035 C  
HETATM   19  C   UNL     1      -5.299   5.172  67.051  1.00  0.00    -0.008 C  
HETATM   20  H   UNL     1      -7.904   8.933  69.474  1.00  0.00     0.000 HD 
HETATM   21  C   UNL     1      -7.125   9.029  66.151  1.00  0.00    -0.086 C  
HETATM   22  C   UNL     1      -6.176   8.241  65.225  1.00  0.00    -0.045 C  
HETATM   23  C   UNL     1      -6.944   6.920  67.886  1.00  0.00    -0.083 C  
HETATM   24  C   UNL     1      -7.838   5.732  68.439  1.00  0.00    -0.101 C  
ENDROOT
BRANCH   4  25
HETATM   25  C   UNL     1      -9.595  11.896  67.976  1.00  0.00    -0.193 C  
HETATM   26  O   UNL     1      -9.854  11.752  69.186  1.00  0.00     0.020 OA 
BRANCH  25  27
HETATM   27  C   UNL     1     -10.109  13.216  67.353  1.00  0.00    -0.229 C  
BRANCH  27  28
HETATM   28  O   UNL     1      -9.215  14.316  67.694  1.00  0.00    -0.184 OA 
BRANCH  28  29
HETATM   29  C   UNL     1      -9.791  15.428  68.228  1.00  0.00    -0.213 C  
HETATM   30  O   UNL     1     -10.075  15.560  69.410  1.00  0.00    -0.230 OA 
BRANCH  29  31
HETATM   31  C   UNL     1     -10.109  16.470  67.180  1.00  0.00    -0.274 C  
BRANCH  31  32
HETATM   32  C   UNL     1      -9.910  15.976  65.755  1.00  0.00    -0.357 C  
HETATM   33  C   UNL     1     -11.185  15.867  64.955  1.00  0.00    -0.337 C  
HETATM   34  O   UNL     1     -11.958  14.812  65.265  1.00  0.00    -0.325 OA 
HETATM   35  O   UNL     1     -11.475  16.650  64.052  1.00  0.00    -1.192 OA 
ENDBRANCH  31  32
ENDBRANCH  29  31
ENDBRANCH  28  29
ENDBRANCH  27  28
ENDBRANCH  25  27
ENDBRANCH   4  25
TORSDOF 6
ENDMDL
MODEL      123
REMARK 921   NORMALIZED FREE ENERGY PREDICTED BY IDOCK:   -3.30 KCAL/MOL
REMARK 922        TOTAL FREE ENERGY PREDICTED BY IDOCK:   -5.19 KCAL/MOL
REMARK 923 INTER-LIGAND FREE ENERGY PREDICTED BY IDOCK:   -4.52 KCAL/MOL
REMARK 924 INTRA-LIGAND FREE ENERGY PREDICTED BY IDOCK:   -0.67 KCAL/MOL
REMARK 927      BINDING AFFINITY PREDICTED BY RF-SCORE:    0.00 PKD
ROOT
HETATM    1  C   UNL     1      -7.574  10.633  70.000  1.00  0.00     0.159 C  
HETATM    2  C   UNL     1      -6.499   9.889  70.539  1.00  0.00    -0.116 C  
HETATM    3  C   UNL     1      -6.245  10.396  69.154  1.00  0.00    -0.041 C  
HETATM    4  C   UNL     1      -7.531  11.820  68.392  1.00  0.00    -0.105 C  
HETATM    5  C   UNL     1      -7.630   5.818  65.467  1.00  0.00    -0.083 C  
HETATM    6  O   UNL     1      -8.651  12.349  69.205  1.00  0.00    -0.233 OA 
HETATM    7  C   UNL     1      -6.397  11.904  69.128  1.00  0.00    -0.092 C  
HETATM    8  C   UNL     1      -5.766  11.365  67.374  1.00  0.00    -0.064 C  
HETATM    9  H   UNL     1      -9.243  13.004  68.854  1.00  0.00     0.000 HD 
HETATM   10  C   UNL     1      -9.287   6.972  67.501  1.00  0.00    -0.134 C  
HETATM   11  O   UNL     1      -9.642   4.573  65.035  1.00  0.00    -0.164 OA 
HETATM   12  C   UNL     1      -5.824  12.964  70.048  1.00  0.00    -0.142 C  
HETATM   13  C   UNL     1      -6.946  10.275  66.601  1.00  0.00    -0.103 C  
HETATM   14  C   UNL     1      -9.895   7.427  68.804  1.00  0.00    -0.164 C  
HETATM   15  O   UNL     1      -7.923  11.150  66.011  1.00  0.00    -0.279 OA 
HETATM   16  C   UNL     1      -8.998   5.304  65.776  1.00  0.00    -0.154 C  
HETATM   17  C   UNL     1      -7.742   9.070  67.469  1.00  0.00    -0.096 C  
HETATM   18  C   UNL     1      -9.737   8.672  65.802  1.00  0.00    -0.053 C  
HETATM   19  C   UNL     1      -9.518   5.707  67.094  1.00  0.00    -0.120 C  
HETATM   20  H   UNL     1      -8.552  10.569  65.599  1.00  0.00     0.000 HD 
HETATM   21  C   UNL     1      -8.495   9.561  68.861  1.00  0.00    -0.123 C  
HETATM   22  C   UNL     1      -8.974   8.314  69.630  1.00  0.00    -0.149 C  
HETATM   23  C   UNL     1      -8.589   8.021  66.600  1.00  0.00    -0.141 C  
HETATM   24  C   UNL     1      -7.602   7.341  65.561  1.00  0.00    -0.097 C  
ENDROOT
BRANCH   4  25
HETATM   25  C   UNL     1      -7.299  13.407  67.663  1.00  0.00    -0.168 C  
HETATM   26  O   UNL     1      -6.354  13.745  66.923  1.00  0.00     0.188 OA 
BRANCH  25  27
HETATM   27  C   UNL     1      -8.302  14.537  67.995  1.00  0.00    -0.153 C  
BRANCH  27  28
HETATM   28  O   UNL     1      -9.093  14.870  66.816  1.00  0.00    -0.239 OA 
BRANCH  28  29
HETATM   29  C   UNL     1     -10.240  14.160  66.630  1.00  0.00    -0.270 C  
HETATM   30  O   UNL     1     -10.351  13.215  65.863  1.00  0.00    -0.279 OA 
BRANCH  29  31
HETATM   31  C   UNL     1     -11.394  14.713  67.434  1.00  0.00    -0.368 C  
BRANCH  31  32
HETATM   32  C   UNL     1     -11.970  13.718  68.431  1.00  0.00    -0.395 C  
HETATM   33  C   UNL     1     -11.915  14.180  69.867  1.00  0.00    -0.338 C  
HETATM   34  O   UNL     1     -10.698  14.118  70.434  1.00  0.00     0.342 OA 
HETATM   35  O   UNL     1     -12.913  14.537  70.491  1.00  0.00    -0.350 OA 
ENDBRANCH  31  32
ENDBRANCH  29  31
ENDBRANCH  28  29
ENDBRANCH  27  28
ENDBRANCH  25  27
ENDBRANCH   4  25
TORSDOF 6
ENDMDL
MODEL      124
REMARK 921   NORMALIZED FREE ENERGY PREDICTED BY IDOCK:   -3.24 KCAL/MOL
REMARK 922        TOTAL FREE ENERGY PREDICTED BY IDOCK:   -5.10 KCAL/MOL
REMARK 923 INTER-LIGAND FREE ENERGY PREDICTED BY IDOCK:   -5.73 KCAL/MOL
REMARK 924 INTRA-LIGAND FREE ENERGY PREDICTED BY IDOCK:    0.63 KCAL/MOL
REMARK 927      BINDING AFFINITY PREDICTED BY RF-SCORE:    0.00 PKD
ROOT
HETATM    1  C   UNL     1     -10.145   7.696  68.623  1.00  0.00    -0.201 C  
HETATM    2  C   UNL     1     -11.357   7.088  68.219  1.00  0.00     0.157 C  
HETATM    3  C   UNL     1     -10.329   7.165  67.133  1.00  0.00    -0.359 C  
HETATM    4  C   UNL     1      -8.393   7.650  67.662  1.00  0.00    -0.118 C  
HETATM    5  C   UNL     1     -11.695  12.114  63.952  1.00  0.00    -0.546 C  
HETATM    6  O   UNL     1      -8.025   7.881  69.078  1.00  0.00    -0.117 OA 
HETATM    7  C   UNL     1      -9.059   6.472  67.584  1.00  0.00    -0.112 C  
HETATM    8  C   UNL     1      -8.804   6.979  65.728  1.00  0.00    -0.088 C  
HETATM    9  H   UNL     1      -7.134   8.103  69.322  1.00  0.00     0.000 HD 
HETATM   10  C   UNL     1     -11.273  11.929  66.780  1.00  0.00    -0.384 C  
HETATM   11  O   UNL     1     -11.836  14.455  64.485  1.00  0.00    -0.422 OA 
HETATM   12  C   UNL     1      -8.856   5.113  68.224  1.00  0.00    -0.107 C  
HETATM   13  C   UNL     1      -8.912   8.749  65.550  1.00  0.00    -0.181 C  
HETATM   14  C   UNL     1     -11.374  11.627  68.255  1.00  0.00    -0.348 C  
HETATM   15  O   UNL     1      -7.601   9.233  65.891  1.00  0.00    -0.096 OA 
HETATM   16  C   UNL     1     -11.829  13.290  64.862  1.00  0.00    -0.362 C  
HETATM   17  C   UNL     1     -10.064   9.656  66.380  1.00  0.00    -0.317 C  
HETATM   18  C   UNL     1      -8.907  12.007  66.168  1.00  0.00    -0.018 C  
HETATM   19  C   UNL     1     -12.008  12.945  66.283  1.00  0.00    -0.472 C  
HETATM   20  H   UNL     1      -7.660  10.177  65.796  1.00  0.00     0.000 HD 
HETATM   21  C   UNL     1     -10.136   9.408  68.017  1.00  0.00    -0.230 C  
HETATM   22  C   UNL     1     -11.374  10.138  68.574  1.00  0.00    -0.172 C  
HETATM   23  C   UNL     1     -10.197  11.193  65.943  1.00  0.00    -0.303 C  
HETATM   24  C   UNL     1     -10.530  11.231  64.393  1.00  0.00    -0.407 C  
ENDROOT
BRANCH   4  25
HETATM   25  C   UNL     1      -6.826   6.902  67.366  1.00  0.00    -0.076 C  
HETATM   26  O   UNL     1      -6.602   5.939  66.607  1.00  0.00    -0.052 OA 
BRANCH  25  27
HETATM   27  C   UNL     1      -5.593   7.415  68.148  1.00  0.00    -0.026 C  
BRANCH  27  28
HETATM   28  O   UNL     1      -5.770   7.183  69.576  1.00  0.00    -0.021 OA 
BRANCH  28  29
HETATM   29  C   UNL     1      -5.437   5.946  70.038  1.00  0.00    -0.012 C  
HETATM   30  O   UNL     1      -5.154   4.994  69.324  1.00  0.00     0.000 OA 
BRANCH  29  31
HETATM   31  C   UNL     1      -5.522   5.854  71.544  1.00  0.00    -0.021 C  
BRANCH  31  32
HETATM   32  C   UNL     1      -6.258   4.617  72.035  1.00  0.00    -0.021 C  
HETATM   33  C   UNL     1      -7.585   4.907  72.693  1.00  0.00    -0.092 C  
HETATM   34  O   UNL     1      -7.501   5.411  73.937  1.00  0.00    -0.089 OA 
HETATM   35  O   UNL     1      -8.664   4.657  72.159  1.00  0.00    -0.116 OA 
ENDBRANCH  31  32
ENDBRANCH  29  31
ENDBRANCH  28  29
ENDBRANCH  27  28
ENDBRANCH  25  27
ENDBRANCH   4  25
TORSDOF 6
ENDMDL
MODEL      125
REMARK 921   NORMALIZED FREE ENERGY PREDICTED BY IDOCK:   -3.22 KCAL/MOL
REMARK 922        TOTAL FREE ENERGY PREDICTED BY IDOCK:   -5.08 KCAL/MOL
REMARK 923 INTER-LIGAND FREE ENERGY PREDICTED BY IDOCK:   -5.96 KCAL/MOL
REMARK 924 INTRA-LIGAND FREE ENERGY PREDICTED BY IDOCK:    0.88 KCAL/MOL
REMARK 927      BINDING AFFINITY PREDICTED BY RF-SCORE:    0.00 PKD
ROOT
HETATM    1  C   UNL     1      -6.534   7.471  71.675  1.00  0.00    -0.039 C  
HETATM    2  C   UNL     1      -5.925   8.732  71.876  1.00  0.00    -0.063 C  
HETATM    3  C   UNL     1      -7.390   8.811  71.579  1.00  0.00    -0.109 C  
HETATM    4  C   UNL     1      -8.491   7.067  71.661  1.00  0.00    -0.115 C  
HETATM    5  C   UNL     1      -7.793   9.893  65.651  1.00  0.00    -0.127 C  
HETATM    6  O   UNL     1      -7.857   5.782  72.035  1.00  0.00    -0.104 OA 
HETATM    7  C   UNL     1      -8.160   7.991  72.595  1.00  0.00    -0.197 C  
HETATM    8  C   UNL     1      -9.468   8.904  71.490  1.00  0.00    -0.347 C  
HETATM    9  H   UNL     1      -8.364   4.979  72.073  1.00  0.00     0.000 HD 
HETATM   10  C   UNL     1      -6.357   7.772  66.935  1.00  0.00    -0.054 C  
HETATM   11  O   UNL     1      -7.088   8.701  63.685  1.00  0.00    -0.087 OA 
HETATM   12  C   UNL     1      -8.064   7.960  74.108  1.00  0.00    -0.290 C  
HETATM   13  C   UNL     1      -9.300   8.401  69.789  1.00  0.00    -0.158 C  
HETATM   14  C   UNL     1      -5.384   6.945  67.738  1.00  0.00    -0.015 C  
HETATM   15  O   UNL     1     -10.040   7.171  69.695  1.00  0.00    -0.185 OA 
HETATM   16  C   UNL     1      -6.986   8.894  64.890  1.00  0.00    -0.073 C  
HETATM   17  C   UNL     1      -7.791   8.189  69.071  1.00  0.00    -0.108 C  
HETATM   18  C   UNL     1      -8.553   6.702  67.041  1.00  0.00    -0.113 C  
HETATM   19  C   UNL     1      -5.992   8.168  65.699  1.00  0.00    -0.041 C  
HETATM   20  H   UNL     1      -9.949   6.902  68.788  1.00  0.00     0.000 HD 
HETATM   21  C   UNL     1      -6.733   7.211  69.889  1.00  0.00    -0.048 C  
HETATM   22  C   UNL     1      -5.349   7.308  69.217  1.00  0.00    -0.015 C  
HETATM   23  C   UNL     1      -7.793   7.969  67.482  1.00  0.00    -0.118 C  
HETATM   24  C   UNL     1      -8.508   9.219  66.818  1.00  0.00    -0.129 C  
ENDROOT
BRANCH   4  25
HETATM   25  C   UNL     1      -9.966   6.595  72.501  1.00  0.00    -0.170 C  
HETATM   26  O   UNL     1     -10.225   5.463  72.954  1.00  0.00    -0.175 OA 
BRANCH  25  27
HETATM   27  C   UNL     1     -11.101   7.635  72.660  1.00  0.00    -0.359 C  
BRANCH  27  28
HETATM   28  O   UNL     1     -12.128   7.417  71.648  1.00  0.00    -0.289 OA 
BRANCH  28  29
HETATM   29  C   UNL     1     -13.342   7.990  71.878  1.00  0.00    -0.306 C  
HETATM   30  O   UNL     1     -14.398   7.376  71.925  1.00  0.00    -0.391 OA 
BRANCH  29  31
HETATM   31  C   UNL     1     -13.253   9.493  72.005  1.00  0.00    -0.539 C  
BRANCH  31  32
HETATM   32  C   UNL     1     -13.284  10.217  70.668  1.00  0.00    -0.202 C  
HETATM   33  C   UNL     1     -12.371  11.417  70.593  1.00  0.00    -0.373 C  
HETATM   34  O   UNL     1     -12.813  12.504  71.248  1.00  0.00    -0.352 OA 
HETATM   35  O   UNL     1     -11.328  11.421  69.941  1.00  0.00    -0.270 OA 
ENDBRANCH  31  32
ENDBRANCH  29  31
ENDBRANCH  28  29
ENDBRANCH  27  28
ENDBRANCH  25  27
ENDBRANCH   4  25
TORSDOF 6
ENDMDL
MODEL      126
REMARK 921   NORMALIZED FREE ENERGY PREDICTED BY IDOCK:   -3.21 KCAL/MOL
REMARK 922        TOTAL FREE ENERGY PREDICTED BY IDOCK:   -5.07 KCAL/MOL
REMARK 923 INTER-LIGAND FREE ENERGY PREDICTED BY IDOCK:   -4.83 KCAL/MOL
REMARK 924 INTRA-LIGAND FREE ENERGY PREDICTED BY IDOCK:   -0.24 KCAL/MOL
REMARK 927      BINDING AFFINITY PREDICTED BY RF-SCORE:    0.00 PKD
ROOT
HETATM    1  C   UNL     1      -7.675   4.997  71.088  1.00  0.00    -0.091 C  
HETATM    2  C   UNL     1      -6.472   4.272  71.252  1.00  0.00    -0.019 C  
HETATM    3  C   UNL     1      -6.330   5.488  70.390  1.00  0.00    -0.027 C  
HETATM    4  C   UNL     1      -7.875   6.857  70.382  1.00  0.00    -0.109 C  
HETATM    5  C   UNL     1      -6.803   3.512  64.703  1.00  0.00    -0.048 C  
HETATM    6  O   UNL     1      -9.073   6.659  71.230  1.00  0.00    -0.150 OA 
HETATM    7  C   UNL     1      -6.776   6.714  71.161  1.00  0.00    -0.058 C  
HETATM    8  C   UNL     1      -6.060   7.336  69.468  1.00  0.00    -0.030 C  
HETATM    9  H   UNL     1      -9.785   7.289  71.226  1.00  0.00     0.000 HD 
HETATM   10  C   UNL     1      -8.645   3.070  66.853  1.00  0.00    -0.119 C  
HETATM   11  O   UNL     1      -8.531   2.389  63.464  1.00  0.00    -0.084 OA 
HETATM   12  C   UNL     1      -6.419   7.177  72.560  1.00  0.00    -0.052 C  
HETATM   13  C   UNL     1      -7.005   6.665  68.114  1.00  0.00    -0.077 C  
HETATM   14  C   UNL     1      -9.324   2.630  68.126  1.00  0.00    -0.258 C  
HETATM   15  O   UNL     1      -8.138   7.542  67.987  1.00  0.00    -0.120 OA 
HETATM   16  C   UNL     1      -8.041   2.692  64.544  1.00  0.00    -0.082 C  
HETATM   17  C   UNL     1      -7.544   5.069  68.112  1.00  0.00    -0.079 C  
HETATM   18  C   UNL     1      -9.429   5.318  66.296  1.00  0.00    -0.166 C  
HETATM   19  C   UNL     1      -8.623   2.216  65.810  1.00  0.00    -0.111 C  
HETATM   20  H   UNL     1      -8.642   7.184  67.265  1.00  0.00     0.000 HD 
HETATM   21  C   UNL     1      -8.372   4.585  69.463  1.00  0.00    -0.082 C  
HETATM   22  C   UNL     1      -8.592   3.061  69.389  1.00  0.00    -0.114 C  
HETATM   23  C   UNL     1      -8.171   4.540  66.734  1.00  0.00    -0.102 C  
HETATM   24  C   UNL     1      -7.075   4.715  65.602  1.00  0.00    -0.067 C  
ENDROOT
BRANCH   4  25
HETATM   25  C   UNL     1      -7.963   8.596  70.646  1.00  0.00    -0.110 C  
HETATM   26  O   UNL     1      -6.998   9.362  70.829  1.00  0.00    -0.100 OA 
BRANCH  25  27
HETATM   27  C   UNL     1      -9.353   9.270  70.730  1.00  0.00    -0.258 C  
BRANCH  27  28
HETATM   28  O   UNL     1     -10.226   8.757  69.682  1.00  0.00    -0.198 OA 
BRANCH  28  29
HETATM   29  C   UNL     1     -10.470   9.587  68.630  1.00  0.00    -0.211 C  
HETATM   30  O   UNL     1     -10.609   9.215  67.474  1.00  0.00    -0.267 OA 
BRANCH  29  31
HETATM   31  C   UNL     1     -10.485  11.042  69.038  1.00  0.00    -0.242 C  
BRANCH  31  32
HETATM   32  C   UNL     1     -11.881  11.640  69.099  1.00  0.00    -0.390 C  
HETATM   33  C   UNL     1     -12.512  11.603  70.469  1.00  0.00    -0.257 C  
HETATM   34  O   UNL     1     -12.960  10.395  70.852  1.00  0.00    -0.379 OA 
HETATM   35  O   UNL     1     -12.654  12.607  71.165  1.00  0.00    -0.366 OA 
ENDBRANCH  31  32
ENDBRANCH  29  31
ENDBRANCH  28  29
ENDBRANCH  27  28
ENDBRANCH  25  27
ENDBRANCH   4  25
TORSDOF 6
ENDMDL
MODEL      127
REMARK 921   NORMALIZED FREE ENERGY PREDICTED BY IDOCK:   -3.13 KCAL/MOL
REMARK 922        TOTAL FREE ENERGY PREDICTED BY IDOCK:   -4.96 KCAL/MOL
REMARK 923 INTER-LIGAND FREE ENERGY PREDICTED BY IDOCK:   -5.69 KCAL/MOL
REMARK 924 INTRA-LIGAND FREE ENERGY PREDICTED BY IDOCK:    0.74 KCAL/MOL
REMARK 927      BINDING AFFINITY PREDICTED BY RF-SCORE:    0.00 PKD
ROOT
HETATM    1  C   UNL     1     -10.824   9.061  68.240  1.00  0.00    -0.072 C  
HETATM    2  C   UNL     1     -10.808   8.634  69.589  1.00  0.00    -0.163 C  
HETATM    3  C   UNL     1      -9.467   9.054  69.073  1.00  0.00    -0.155 C  
HETATM    4  C   UNL     1      -9.392  10.071  67.279  1.00  0.00    -0.148 C  
HETATM    5  C   UNL     1      -6.707   3.958  67.374  1.00  0.00    -0.047 C  
HETATM    6  O   UNL     1     -10.632  10.405  66.540  1.00  0.00    -0.218 OA 
HETATM    7  C   UNL     1      -9.541  10.479  68.562  1.00  0.00    -0.164 C  
HETATM    8  C   UNL     1      -7.681   9.936  68.466  1.00  0.00    -0.081 C  
HETATM    9  H   UNL     1     -10.598  10.873  65.714  1.00  0.00     0.000 HD 
HETATM   10  C   UNL     1      -9.291   4.890  66.556  1.00  0.00    -0.142 C  
HETATM   11  O   UNL     1      -7.202   2.254  65.750  1.00  0.00    -0.061 OA 
HETATM   12  C   UNL     1     -10.127  11.723  69.203  1.00  0.00     0.099 C  
HETATM   13  C   UNL     1      -7.500   8.540  67.374  1.00  0.00    -0.093 C  
HETATM   14  C   UNL     1     -10.737   5.314  66.493  1.00  0.00    -0.290 C  
HETATM   15  O   UNL     1      -7.429   9.111  66.056  1.00  0.00    -0.093 OA 
HETATM   16  C   UNL     1      -7.588   3.178  66.454  1.00  0.00    -0.077 C  
HETATM   17  C   UNL     1      -8.609   7.272  67.363  1.00  0.00    -0.121 C  
HETATM   18  C   UNL     1      -8.010   6.278  65.003  1.00  0.00    -0.120 C  
HETATM   19  C   UNL     1      -9.007   3.573  66.487  1.00  0.00    -0.154 C  
HETATM   20  H   UNL     1      -7.333   8.366  65.473  1.00  0.00     0.000 HD 
HETATM   21  C   UNL     1     -10.200   7.706  67.205  1.00  0.00    -0.342 C  
HETATM   22  C   UNL     1     -11.078   6.460  67.436  1.00  0.00    -0.412 C  
HETATM   23  C   UNL     1      -8.193   5.981  66.506  1.00  0.00    -0.107 C  
HETATM   24  C   UNL     1      -6.809   5.450  67.067  1.00  0.00    -0.063 C  
ENDROOT
BRANCH   4  25
HETATM   25  C   UNL     1      -8.668  11.594  66.771  1.00  0.00    -0.189 C  
HETATM   26  O   UNL     1      -7.480  11.769  66.436  1.00  0.00     0.011 OA 
BRANCH  25  27
HETATM   27  C   UNL     1      -9.534  12.876  66.785  1.00  0.00    -0.245 C  
BRANCH  27  28
HETATM   28  O   UNL     1      -9.244  13.694  65.614  1.00  0.00     0.150 OA 
BRANCH  28  29
HETATM   29  C   UNL     1     -10.313  14.245  64.975  1.00  0.00    -0.421 C  
HETATM   30  O   UNL     1     -10.955  13.688  64.097  1.00  0.00    -0.345 OA 
BRANCH  29  31
HETATM   31  C   UNL     1     -10.583  15.662  65.425  1.00  0.00    -0.436 C  
BRANCH  31  32
HETATM   32  C   UNL     1      -9.411  16.300  66.154  1.00  0.00    -0.374 C  
HETATM   33  C   UNL     1      -9.758  16.861  67.512  1.00  0.00    -0.249 C  
HETATM   34  O   UNL     1     -10.437  18.021  67.487  1.00  0.00    -0.371 OA 
HETATM   35  O   UNL     1      -9.404  16.330  68.563  1.00  0.00    -0.199 OA 
ENDBRANCH  31  32
ENDBRANCH  29  31
ENDBRANCH  28  29
ENDBRANCH  27  28
ENDBRANCH  25  27
ENDBRANCH   4  25
TORSDOF 6
ENDMDL
MODEL      128
REMARK 921   NORMALIZED FREE ENERGY PREDICTED BY IDOCK:   -3.12 KCAL/MOL
REMARK 922        TOTAL FREE ENERGY PREDICTED BY IDOCK:   -4.95 KCAL/MOL
REMARK 923 INTER-LIGAND FREE ENERGY PREDICTED BY IDOCK:   -4.74 KCAL/MOL
REMARK 924 INTRA-LIGAND FREE ENERGY PREDICTED BY IDOCK:   -0.21 KCAL/MOL
REMARK 927      BINDING AFFINITY PREDICTED BY RF-SCORE:    0.00 PKD
ROOT
HETATM    1  C   UNL     1      -8.933  10.584  65.393  1.00  0.00    -0.207 C  
HETATM    2  C   UNL     1      -9.951   9.841  64.750  1.00  0.00     0.014 C  
HETATM    3  C   UNL     1     -10.456  10.744  65.832  1.00  0.00    -0.270 C  
HETATM    4  C   UNL     1      -9.169  12.174  66.582  1.00  0.00    -0.206 C  
HETATM    5  C   UNL     1     -10.957   7.269  70.746  1.00  0.00    -0.273 C  
HETATM    6  O   UNL     1      -7.798  12.324  66.042  1.00  0.00     0.012 OA 
HETATM    7  C   UNL     1     -10.037  12.171  65.541  1.00  0.00    -0.275 C  
HETATM    8  C   UNL     1     -11.191  12.223  67.101  1.00  0.00    -0.365 C  
HETATM    9  H   UNL     1      -7.206  12.982  66.387  1.00  0.00     0.000 HD 
HETATM   10  C   UNL     1      -8.644   7.611  69.090  1.00  0.00    -0.139 C  
HETATM   11  O   UNL     1      -9.397   5.982  72.047  1.00  0.00    -0.150 OA 
HETATM   12  C   UNL     1     -10.142  12.985  64.266  1.00  0.00    -0.216 C  
HETATM   13  C   UNL     1     -10.478  11.272  68.429  1.00  0.00    -0.197 C  
HETATM   14  C   UNL     1      -7.644   7.610  67.960  1.00  0.00    -0.110 C  
HETATM   15  O   UNL     1      -9.542  12.164  69.059  1.00  0.00    -0.409 OA 
HETATM   16  C   UNL     1      -9.677   6.541  70.994  1.00  0.00    -0.175 C  
HETATM   17  C   UNL     1      -9.723   9.791  68.155  1.00  0.00    -0.163 C  
HETATM   18  C   UNL     1      -8.341   9.661  70.387  1.00  0.00    -0.188 C  
HETATM   19  C   UNL     1      -8.767   6.495  69.837  1.00  0.00    -0.140 C  
HETATM   20  H   UNL     1      -9.162  11.657  69.767  1.00  0.00     0.000 HD 
HETATM   21  C   UNL     1      -8.556   9.782  66.978  1.00  0.00    -0.127 C  
HETATM   22  C   UNL     1      -8.136   8.323  66.709  1.00  0.00    -0.103 C  
HETATM   23  C   UNL     1      -9.343   8.942  69.462  1.00  0.00    -0.155 C  
HETATM   24  C   UNL     1     -10.675   8.697  70.287  1.00  0.00    -0.243 C  
ENDROOT
BRANCH   4  25
HETATM   25  C   UNL     1      -9.282  13.917  66.806  1.00  0.00    -0.254 C  
HETATM   26  O   UNL     1     -10.318  14.560  67.065  1.00  0.00    -0.260 OA 
BRANCH  25  27
HETATM   27  C   UNL     1      -8.013  14.780  66.612  1.00  0.00     0.342 C  
BRANCH  27  28
HETATM   28  O   UNL     1      -7.279  14.887  67.867  1.00  0.00    -0.121 OA 
BRANCH  28  29
HETATM   29  C   UNL     1      -7.215  16.124  68.433  1.00  0.00    -0.135 C  
HETATM   30  O   UNL     1      -7.550  17.158  67.873  1.00  0.00    -0.169 OA 
BRANCH  29  31
HETATM   31  C   UNL     1      -6.617  16.091  69.820  1.00  0.00    -0.143 C  
BRANCH  31  32
HETATM   32  C   UNL     1      -7.152  14.959  70.684  1.00  0.00     0.594 C  
HETATM   33  C   UNL     1      -6.083  14.063  71.261  1.00  0.00    -0.031 C  
HETATM   34  O   UNL     1      -5.534  13.203  70.387  1.00  0.00    -0.117 OA 
HETATM   35  O   UNL     1      -5.771  14.079  72.450  1.00  0.00    -0.360 OA 
ENDBRANCH  31  32
ENDBRANCH  29  31
ENDBRANCH  28  29
ENDBRANCH  27  28
ENDBRANCH  25  27
ENDBRANCH   4  25
TORSDOF 6
ENDMDL
MODEL      129
REMARK 921   NORMALIZED FREE ENERGY PREDICTED BY IDOCK:   -3.08 KCAL/MOL
REMARK 922        TOTAL FREE ENERGY PREDICTED BY IDOCK:   -4.89 KCAL/MOL
REMARK 923 INTER-LIGAND FREE ENERGY PREDICTED BY IDOCK:   -5.84 KCAL/MOL
REMARK 924 INTRA-LIGAND FREE ENERGY PREDICTED BY IDOCK:    0.95 KCAL/MOL
REMARK 927      BINDING AFFINITY PREDICTED BY RF-SCORE:    0.00 PKD
ROOT
HETATM    1  C   UNL     1      -9.422   9.590  67.705  1.00  0.00    -0.151 C  
HETATM    2  C   UNL     1     -10.111   8.734  66.815  1.00  0.00    -0.359 C  
HETATM    3  C   UNL     1     -11.014   9.554  67.683  1.00  0.00    -0.150 C  
HETATM    4  C   UNL     1     -10.185  11.125  68.735  1.00  0.00    -0.206 C  
HETATM    5  C   UNL     1     -12.483   5.988  72.330  1.00  0.00     0.056 C  
HETATM    6  O   UNL     1      -8.746  11.451  68.609  1.00  0.00    -0.175 OA 
HETATM    7  C   UNL     1     -10.708  11.026  67.489  1.00  0.00    -0.289 C  
HETATM    8  C   UNL     1     -12.260  10.915  68.649  1.00  0.00     0.117 C  
HETATM    9  H   UNL     1      -8.364  12.174  69.094  1.00  0.00     0.000 HD 
HETATM   10  C   UNL     1      -9.850   6.635  71.402  1.00  0.00    -0.191 C  
HETATM   11  O   UNL     1     -11.219   4.891  74.057  1.00  0.00    -0.259 OA 
HETATM   12  C   UNL     1     -10.539  11.835  66.218  1.00  0.00    -0.292 C  
HETATM   13  C   UNL     1     -11.850  10.045  70.149  1.00  0.00    -0.173 C  
HETATM   14  C   UNL     1      -8.575   6.771  70.609  1.00  0.00    -0.142 C  
HETATM   15  O   UNL     1     -11.253  11.040  70.999  1.00  0.00    -0.082 OA 
HETATM   16  C   UNL     1     -11.250   5.422  72.955  1.00  0.00    -0.314 C  
HETATM   17  C   UNL     1     -10.872   8.673  70.141  1.00  0.00    -0.242 C  
HETATM   18  C   UNL     1     -10.189   8.692  72.680  1.00  0.00    -0.135 C  
HETATM   19  C   UNL     1     -10.046   5.504  72.110  1.00  0.00    -0.231 C  
HETATM   20  H   UNL     1     -11.034  10.576  71.799  1.00  0.00     0.000 HD 
HETATM   21  C   UNL     1      -9.424   8.824  69.351  1.00  0.00    -0.161 C  
HETATM   22  C   UNL     1      -8.768   7.432  69.251  1.00  0.00    -0.137 C  
HETATM   23  C   UNL     1     -10.785   7.864  71.523  1.00  0.00    -0.267 C  
HETATM   24  C   UNL     1     -12.258   7.445  71.935  1.00  0.00    -0.344 C  
ENDROOT
BRANCH   4  25
HETATM   25  C   UNL     1     -10.572  12.838  68.874  1.00  0.00    -0.122 C  
HETATM   26  O   UNL     1     -10.831  13.450  69.928  1.00  0.00     0.212 OA 
BRANCH  25  27
HETATM   27  C   UNL     1     -10.671  13.688  67.585  1.00  0.00    -0.245 C  
BRANCH  27  28
HETATM   28  O   UNL     1     -11.407  14.918  67.849  1.00  0.00    -0.302 OA 
BRANCH  28  29
HETATM   29  C   UNL     1     -10.665  16.039  68.063  1.00  0.00    -0.309 C  
HETATM   30  O   UNL     1     -11.060  17.025  68.670  1.00  0.00    -0.272 OA 
BRANCH  29  31
HETATM   31  C   UNL     1      -9.306  15.962  67.406  1.00  0.00    -0.214 C  
BRANCH  31  32
HETATM   32  C   UNL     1      -8.164  16.365  68.326  1.00  0.00    -0.177 C  
HETATM   33  C   UNL     1      -7.143  15.277  68.557  1.00  0.00    -0.110 C  
HETATM   34  O   UNL     1      -7.537  14.301  69.393  1.00  0.00    -0.052 OA 
HETATM   35  O   UNL     1      -6.017  15.304  68.063  1.00  0.00    -0.123 OA 
ENDBRANCH  31  32
ENDBRANCH  29  31
ENDBRANCH  28  29
ENDBRANCH  27  28
ENDBRANCH  25  27
ENDBRANCH   4  25
TORSDOF 6
ENDMDL
MODEL      130
REMARK 921   NORMALIZED FREE ENERGY PREDICTED BY IDOCK:   -2.97 KCAL/MOL
REMARK 922        TOTAL FREE ENERGY PREDICTED BY IDOCK:   -4.75 KCAL/MOL
REMARK 923 INTER-LIGAND FREE ENERGY PREDICTED BY IDOCK:   -5.25 KCAL/MOL
REMARK 924 INTRA-LIGAND FREE ENERGY PREDICTED BY IDOCK:    0.50 KCAL/MOL
REMARK 927      BINDING AFFINITY PREDICTED BY RF-SCORE:    0.00 PKD
ROOT
HETATM    1  C   UNL     1      -6.989  10.108  66.478  1.00  0.00    -0.102 C  
HETATM    2  C   UNL     1      -5.980  10.994  66.032  1.00  0.00    -0.109 C  
HETATM    3  C   UNL     1      -6.635  11.420  67.309  1.00  0.00    -0.104 C  
HETATM    4  C   UNL     1      -7.826  10.050  68.293  1.00  0.00    -0.089 C  
HETATM    5  C   UNL     1     -10.897  15.387  65.707  1.00  0.00    -0.349 C  
HETATM    6  O   UNL     1      -8.001   8.676  67.767  1.00  0.00    -0.105 OA 
HETATM    7  C   UNL     1      -6.499  10.319  68.343  1.00  0.00    -0.048 C  
HETATM    8  C   UNL     1      -7.310  11.841  69.234  1.00  0.00     0.060 C  
HETATM    9  H   UNL     1      -8.550   8.046  68.220  1.00  0.00     0.000 HD 
HETATM   10  C   UNL     1     -10.535  12.727  64.704  1.00  0.00    -0.373 C  
HETATM   11  O   UNL     1     -12.858  15.261  64.319  1.00  0.00    -0.482 OA 
HETATM   12  C   UNL     1      -5.286   9.516  68.769  1.00  0.00    -0.037 C  
HETATM   13  C   UNL     1      -8.869  12.246  68.471  1.00  0.00    -0.068 C  
HETATM   14  C   UNL     1     -10.024  11.479  64.028  1.00  0.00    -0.341 C  
HETATM   15  O   UNL     1      -9.818  11.351  69.077  1.00  0.00    -0.367 OA 
HETATM   16  C   UNL     1     -11.769  14.804  64.644  1.00  0.00    -0.422 C  
HETATM   17  C   UNL     1      -9.074  12.211  66.799  1.00  0.00    -0.205 C  
HETATM   18  C   UNL     1     -11.700  12.076  66.752  1.00  0.00    -0.339 C  
HETATM   19  C   UNL     1     -11.194  13.636  63.956  1.00  0.00    -0.189 C  
HETATM   20  H   UNL     1     -10.649  11.567  68.670  1.00  0.00     0.000 HD 
HETATM   21  C   UNL     1      -8.603  10.815  66.042  1.00  0.00    -0.181 C  
HETATM   22  C   UNL     1      -8.651  11.038  64.518  1.00  0.00     0.129 C  
HETATM   23  C   UNL     1     -10.450  12.825  66.247  1.00  0.00    -0.273 C  
HETATM   24  C   UNL     1     -10.549  14.326  66.748  1.00  0.00    -0.278 C  
ENDROOT
BRANCH   4  25
HETATM   25  C   UNL     1      -7.869   9.436  69.943  1.00  0.00    -0.126 C  
HETATM   26  O   UNL     1      -7.361   9.978  70.943  1.00  0.00    -0.302 OA 
BRANCH  25  27
HETATM   27  C   UNL     1      -8.536   8.066  70.213  1.00  0.00    -0.132 C  
BRANCH  27  28
HETATM   28  O   UNL     1      -8.182   7.588  71.544  1.00  0.00    -0.101 OA 
BRANCH  28  29
HETATM   29  C   UNL     1      -7.090   6.778  71.631  1.00  0.00    -0.076 C  
HETATM   30  O   UNL     1      -5.935   7.177  71.646  1.00  0.00    -0.037 OA 
BRANCH  29  31
HETATM   31  C   UNL     1      -7.461   5.313  71.639  1.00  0.00    -0.093 C  
BRANCH  31  32
HETATM   32  C   UNL     1      -7.430   4.688  73.025  1.00  0.00    -0.086 C  
HETATM   33  C   UNL     1      -6.079   4.151  73.431  1.00  0.00    -0.016 C  
HETATM   34  O   UNL     1      -5.733   2.991  72.847  1.00  0.00    -0.006 OA 
HETATM   35  O   UNL     1      -5.368   4.701  74.271  1.00  0.00    -0.008 OA 
ENDBRANCH  31  32
ENDBRANCH  29  31
ENDBRANCH  28  29
ENDBRANCH  27  28
ENDBRANCH  25  27
ENDBRANCH   4  25
TORSDOF 6
ENDMDL
MODEL      131
REMARK 921   NORMALIZED FREE ENERGY PREDICTED BY IDOCK:   -2.95 KCAL/MOL
REMARK 922        TOTAL FREE ENERGY PREDICTED BY IDOCK:   -4.71 KCAL/MOL
REMARK 923 INTER-LIGAND FREE ENERGY PREDICTED BY IDOCK:   -4.88 KCAL/MOL
REMARK 924 INTRA-LIGAND FREE ENERGY PREDICTED BY IDOCK:    0.17 KCAL/MOL
REMARK 927      BINDING AFFINITY PREDICTED BY RF-SCORE:    0.00 PKD
ROOT
HETATM    1  C   UNL     1      -6.735   9.182  69.141  1.00  0.00    -0.050 C  
HETATM    2  C   UNL     1      -6.081  10.164  69.922  1.00  0.00    -0.057 C  
HETATM    3  C   UNL     1      -7.391   9.714  70.491  1.00  0.00    -0.141 C  
HETATM    4  C   UNL     1      -8.264   8.020  69.697  1.00  0.00    -0.121 C  
HETATM    5  C   UNL     1     -11.446  13.799  68.662  1.00  0.00    -0.336 C  
HETATM    6  O   UNL     1      -7.597   7.253  68.620  1.00  0.00    -0.108 OA 
HETATM    7  C   UNL     1      -7.369   8.213  70.696  1.00  0.00    -0.053 C  
HETATM    8  C   UNL     1      -9.037   8.865  71.443  1.00  0.00    -0.318 C  
HETATM    9  H   UNL     1      -7.999   6.473  68.254  1.00  0.00     0.000 HD 
HETATM   10  C   UNL     1      -9.621  12.312  67.028  1.00  0.00    -0.208 C  
HETATM   11  O   UNL     1     -12.220  14.533  66.506  1.00  0.00    -0.381 OA 
HETATM   12  C   UNL     1      -6.328   7.327  71.352  1.00  0.00    -0.036 C  
HETATM   13  C   UNL     1     -10.021   9.640  70.175  1.00  0.00    -0.261 C  
HETATM   14  C   UNL     1      -8.399  11.742  66.352  1.00  0.00    -0.040 C  
HETATM   15  O   UNL     1     -10.705   8.553  69.525  1.00  0.00    -0.250 OA 
HETATM   16  C   UNL     1     -11.361  13.981  67.182  1.00  0.00    -0.331 C  
HETATM   17  C   UNL     1      -9.333  10.634  69.001  1.00  0.00    -0.191 C  
HETATM   18  C   UNL     1     -11.286  10.535  67.243  1.00  0.00    -0.202 C  
HETATM   19  C   UNL     1     -10.114  13.483  66.577  1.00  0.00    -0.282 C  
HETATM   20  H   UNL     1     -11.229   8.967  68.849  1.00  0.00     0.000 HD 
HETATM   21  C   UNL     1      -8.043   9.996  68.180  1.00  0.00    -0.108 C  
HETATM   22  C   UNL     1      -7.408  11.104  67.317  1.00  0.00    -0.118 C  
HETATM   23  C   UNL     1     -10.362  11.446  68.076  1.00  0.00    -0.204 C  
HETATM   24  C   UNL     1     -11.278  12.326  69.025  1.00  0.00    -0.319 C  
ENDROOT
BRANCH   4  25
HETATM   25  C   UNL     1      -8.878   6.524  70.396  1.00  0.00    -0.151 C  
HETATM   26  O   UNL     1      -9.121   6.321  71.601  1.00  0.00    -0.145 OA 
BRANCH  25  27
HETATM   27  C   UNL     1      -9.091   5.301  69.473  1.00  0.00    -0.112 C  
BRANCH  27  28
HETATM   28  O   UNL     1      -7.856   4.535  69.359  1.00  0.00    -0.061 OA 
BRANCH  28  29
HETATM   29  C   UNL     1      -7.813   3.589  68.381  1.00  0.00    -0.063 C  
HETATM   30  O   UNL     1      -8.063   2.404  68.554  1.00  0.00    -0.056 OA 
BRANCH  29  31
HETATM   31  C   UNL     1      -7.353   4.152  67.057  1.00  0.00    -0.073 C  
BRANCH  31  32
HETATM   32  C   UNL     1      -6.158   3.418  66.468  1.00  0.00    -0.024 C  
HETATM   33  C   UNL     1      -6.377   2.906  65.065  1.00  0.00    -0.024 C  
HETATM   34  O   UNL     1      -7.154   1.813  64.978  1.00  0.00    -0.045 OA 
HETATM   35  O   UNL     1      -5.846   3.414  64.079  1.00  0.00    -0.013 OA 
ENDBRANCH  31  32
ENDBRANCH  29  31
ENDBRANCH  28  29
ENDBRANCH  27  28
ENDBRANCH  25  27
ENDBRANCH   4  25
TORSDOF 6
ENDMDL
MODEL      132
REMARK 921   NORMALIZED FREE ENERGY PREDICTED BY IDOCK:   -2.93 KCAL/MOL
REMARK 922        TOTAL FREE ENERGY PREDICTED BY IDOCK:   -4.69 KCAL/MOL
REMARK 923 INTER-LIGAND FREE ENERGY PREDICTED BY IDOCK:   -5.29 KCAL/MOL
REMARK 924 INTRA-LIGAND FREE ENERGY PREDICTED BY IDOCK:    0.59 KCAL/MOL
REMARK 927      BINDING AFFINITY PREDICTED BY RF-SCORE:    0.00 PKD
ROOT
HETATM    1  C   UNL     1     -10.504   9.837  70.722  1.00  0.00    -0.339 C  
HETATM    2  C   UNL     1     -11.696  10.125  70.016  1.00  0.00    -0.294 C  
HETATM    3  C   UNL     1     -11.273   8.692  69.925  1.00  0.00    -0.045 C  
HETATM    4  C   UNL     1      -9.801   8.031  71.213  1.00  0.00    -0.163 C  
HETATM    5  C   UNL     1      -8.244   8.217  64.722  1.00  0.00    -0.137 C  
HETATM    6  O   UNL     1      -9.205   8.940  72.219  1.00  0.00    -0.376 OA 
HETATM    7  C   UNL     1     -11.150   8.108  71.318  1.00  0.00    -0.287 C  
HETATM    8  C   UNL     1     -10.870   6.654  70.064  1.00  0.00    -0.331 C  
HETATM    9  H   UNL     1      -8.528   8.636  72.813  1.00  0.00     0.000 HD 
HETATM   10  C   UNL     1      -7.760  10.075  66.849  1.00  0.00    -0.096 C  
HETATM   11  O   UNL     1      -6.247   9.239  63.853  1.00  0.00    -0.086 OA 
HETATM   12  C   UNL     1     -12.105   8.165  72.494  1.00  0.00    -0.377 C  
HETATM   13  C   UNL     1      -9.449   6.985  69.040  1.00  0.00    -0.138 C  
HETATM   14  C   UNL     1      -7.846  11.192  67.859  1.00  0.00    -0.111 C  
HETATM   15  O   UNL     1      -8.322   6.560  69.827  1.00  0.00    -0.124 OA 
HETATM   16  C   UNL     1      -7.176   9.259  64.651  1.00  0.00    -0.100 C  
HETATM   17  C   UNL     1      -9.138   8.522  68.424  1.00  0.00    -0.139 C  
HETATM   18  C   UNL     1      -6.588   8.192  67.877  1.00  0.00    -0.061 C  
HETATM   19  C   UNL     1      -7.346  10.371  65.601  1.00  0.00    -0.148 C  
HETATM   20  H   UNL     1      -7.565   6.737  69.281  1.00  0.00     0.000 HD 
HETATM   21  C   UNL     1      -9.138   9.757  69.528  1.00  0.00    -0.227 C  
HETATM   22  C   UNL     1      -9.061  11.098  68.772  1.00  0.00    -0.144 C  
HETATM   23  C   UNL     1      -7.966   8.618  67.333  1.00  0.00    -0.102 C  
HETATM   24  C   UNL     1      -8.336   7.647  66.135  1.00  0.00    -0.134 C  
ENDROOT
BRANCH   4  25
HETATM   25  C   UNL     1      -9.686   6.686  72.344  1.00  0.00    -0.154 C  
HETATM   26  O   UNL     1      -9.144   6.712  73.466  1.00  0.00    -0.124 OA 
BRANCH  25  27
HETATM   27  C   UNL     1     -10.241   5.305  71.922  1.00  0.00    -0.207 C  
BRANCH  27  28
HETATM   28  O   UNL     1      -9.152   4.348  71.772  1.00  0.00    -0.121 OA 
BRANCH  28  29
HETATM   29  C   UNL     1      -9.456   3.167  71.168  1.00  0.00    -0.152 C  
HETATM   30  O   UNL     1      -9.739   2.138  71.765  1.00  0.00    -0.124 OA 
BRANCH  29  31
HETATM   31  C   UNL     1      -9.342   3.245  69.663  1.00  0.00    -0.236 C  
BRANCH  31  32
HETATM   32  C   UNL     1      -8.050   2.653  69.122  1.00  0.00    -0.067 C  
HETATM   33  C   UNL     1      -7.084   3.675  68.574  1.00  0.00    -0.051 C  
HETATM   34  O   UNL     1      -7.414   4.178  67.373  1.00  0.00    -0.068 OA 
HETATM   35  O   UNL     1      -6.045   3.988  69.154  1.00  0.00    -0.025 OA 
ENDBRANCH  31  32
ENDBRANCH  29  31
ENDBRANCH  28  29
ENDBRANCH  27  28
ENDBRANCH  25  27
ENDBRANCH   4  25
TORSDOF 6
ENDMDL
MODEL      133
REMARK 921   NORMALIZED FREE ENERGY PREDICTED BY IDOCK:   -2.77 KCAL/MOL
REMARK 922        TOTAL FREE ENERGY PREDICTED BY IDOCK:   -4.48 KCAL/MOL
REMARK 923 INTER-LIGAND FREE ENERGY PREDICTED BY IDOCK:   -4.78 KCAL/MOL
REMARK 924 INTRA-LIGAND FREE ENERGY PREDICTED BY IDOCK:    0.30 KCAL/MOL
REMARK 927      BINDING AFFINITY PREDICTED BY RF-SCORE:    0.00 PKD
ROOT
HETATM    1  C   UNL     1     -10.183  10.074  69.816  1.00  0.00    -0.286 C  
HETATM    2  C   UNL     1     -11.249  10.471  68.974  1.00  0.00    -0.316 C  
HETATM    3  C   UNL     1     -11.137   8.988  69.147  1.00  0.00     0.072 C  
HETATM    4  C   UNL     1      -9.906   8.275  70.643  1.00  0.00    -0.182 C  
HETATM    5  C   UNL     1      -8.024   7.023  64.360  1.00  0.00    -0.101 C  
HETATM    6  O   UNL     1      -9.181   9.203  71.541  1.00  0.00    -0.290 OA 
HETATM    7  C   UNL     1     -11.211   8.640  70.620  1.00  0.00    -0.284 C  
HETATM    8  C   UNL     1     -11.186   6.965  69.640  1.00  0.00    -0.289 C  
HETATM    9  H   UNL     1      -8.615   8.875  72.230  1.00  0.00     0.000 HD 
HETATM   10  C   UNL     1      -7.262   9.082  66.201  1.00  0.00    -0.090 C  
HETATM   11  O   UNL     1      -5.815   7.456  63.513  1.00  0.00    -0.043 OA 
HETATM   12  C   UNL     1     -12.189   9.090  71.688  1.00  0.00    -0.418 C  
HETATM   13  C   UNL     1      -9.678   6.821  68.701  1.00  0.00    -0.131 C  
HETATM   14  C   UNL     1      -7.158  10.350  67.011  1.00  0.00    -0.092 C  
HETATM   15  O   UNL     1      -8.708   6.319  69.637  1.00  0.00    -0.134 OA 
HETATM   16  C   UNL     1      -6.756   7.799  64.216  1.00  0.00    -0.056 C  
HETATM   17  C   UNL     1      -9.016   8.134  67.878  1.00  0.00    -0.133 C  
HETATM   18  C   UNL     1      -6.571   7.206  67.608  1.00  0.00    -0.056 C  
HETATM   19  C   UNL     1      -6.732   9.070  64.960  1.00  0.00    -0.069 C  
HETATM   20  H   UNL     1      -7.904   6.243  69.136  1.00  0.00     0.000 HD 
HETATM   21  C   UNL     1      -8.808   9.515  68.770  1.00  0.00    -0.132 C  
HETATM   22  C   UNL     1      -8.409  10.662  67.821  1.00  0.00    -0.115 C  
HETATM   23  C   UNL     1      -7.798   7.802  66.889  1.00  0.00    -0.107 C  
HETATM   24  C   UNL     1      -8.306   6.735  65.832  1.00  0.00    -0.137 C  
ENDROOT
BRANCH   4  25
HETATM   25  C   UNL     1     -10.138   7.149  71.978  1.00  0.00    -0.177 C  
HETATM   26  O   UNL     1     -11.230   6.723  72.400  1.00  0.00    -0.247 OA 
BRANCH  25  27
HETATM   27  C   UNL     1      -8.900   6.666  72.772  1.00  0.00    -0.122 C  
BRANCH  27  28
HETATM   28  O   UNL     1      -8.567   7.625  73.818  1.00  0.00    -0.179 OA 
BRANCH  28  29
HETATM   29  C   UNL     1      -7.271   8.036  73.879  1.00  0.00    -0.144 C  
HETATM   30  O   UNL     1      -6.920   9.191  74.071  1.00  0.00    -0.358 OA 
BRANCH  29  31
HETATM   31  C   UNL     1      -6.298   6.909  73.616  1.00  0.00    -0.063 C  
BRANCH  31  32
HETATM   32  C   UNL     1      -5.192   7.278  72.640  1.00  0.00    -0.037 C  
HETATM   33  C   UNL     1      -5.516   6.979  71.197  1.00  0.00    -0.027 C  
HETATM   34  O   UNL     1      -5.446   5.680  70.860  1.00  0.00    -0.009 OA 
HETATM   35  O   UNL     1      -5.773   7.857  70.375  1.00  0.00    -0.026 OA 
ENDBRANCH  31  32
ENDBRANCH  29  31
ENDBRANCH  28  29
ENDBRANCH  27  28
ENDBRANCH  25  27
ENDBRANCH   4  25
TORSDOF 6
ENDMDL
MODEL      134
REMARK 921   NORMALIZED FREE ENERGY PREDICTED BY IDOCK:   -2.76 KCAL/MOL
REMARK 922        TOTAL FREE ENERGY PREDICTED BY IDOCK:   -4.46 KCAL/MOL
REMARK 923 INTER-LIGAND FREE ENERGY PREDICTED BY IDOCK:   -5.28 KCAL/MOL
REMARK 924 INTRA-LIGAND FREE ENERGY PREDICTED BY IDOCK:    0.82 KCAL/MOL
REMARK 927      BINDING AFFINITY PREDICTED BY RF-SCORE:    0.00 PKD
ROOT
HETATM    1  C   UNL     1      -9.977  10.379  68.865  1.00  0.00    -0.208 C  
HETATM    2  C   UNL     1     -11.185  10.432  68.132  1.00  0.00    -0.333 C  
HETATM    3  C   UNL     1     -10.819   9.055  68.592  1.00  0.00    -0.061 C  
HETATM    4  C   UNL     1      -9.320   8.869  69.999  1.00  0.00    -0.174 C  
HETATM    5  C   UNL     1      -8.031   6.461  63.906  1.00  0.00    -0.085 C  
HETATM    6  O   UNL     1      -8.650  10.064  70.561  1.00  0.00    -0.358 OA 
HETATM    7  C   UNL     1     -10.660   9.048  70.099  1.00  0.00    -0.250 C  
HETATM    8  C   UNL     1     -10.486   7.211  69.499  1.00  0.00    -0.236 C  
HETATM    9  H   UNL     1      -7.960   9.978  71.209  1.00  0.00     0.000 HD 
HETATM   10  C   UNL     1      -7.390   8.969  65.136  1.00  0.00    -0.096 C  
HETATM   11  O   UNL     1      -6.036   6.968  62.661  1.00  0.00    -0.043 OA 
HETATM   12  C   UNL     1     -11.562   9.602  71.185  1.00  0.00    -0.456 C  
HETATM   13  C   UNL     1      -9.099   7.050  68.393  1.00  0.00    -0.127 C  
HETATM   14  C   UNL     1      -7.393  10.391  65.638  1.00  0.00    -0.148 C  
HETATM   15  O   UNL     1      -7.956   6.905  69.255  1.00  0.00    -0.112 OA 
HETATM   16  C   UNL     1      -6.929   7.340  63.411  1.00  0.00    -0.059 C  
HETATM   17  C   UNL     1      -8.757   8.213  67.222  1.00  0.00    -0.125 C  
HETATM   18  C   UNL     1      -6.246   7.570  66.784  1.00  0.00    -0.048 C  
HETATM   19  C   UNL     1      -7.018   8.740  63.861  1.00  0.00    -0.087 C  
HETATM   20  H   UNL     1      -7.216   6.820  68.664  1.00  0.00     0.000 HD 
HETATM   21  C   UNL     1      -8.666   9.777  67.763  1.00  0.00    -0.129 C  
HETATM   22  C   UNL     1      -8.571  10.717  66.545  1.00  0.00    -0.143 C  
HETATM   23  C   UNL     1      -7.629   7.823  66.151  1.00  0.00    -0.087 C  
HETATM   24  C   UNL     1      -8.085   6.485  65.431  1.00  0.00    -0.129 C  
ENDROOT
BRANCH   4  25
HETATM   25  C   UNL     1      -9.208   8.060  71.560  1.00  0.00    -0.147 C  
HETATM   26  O   UNL     1      -8.594   8.475  72.561  1.00  0.00    -0.284 OA 
BRANCH  25  27
HETATM   27  C   UNL     1      -9.865   6.669  71.730  1.00  0.00    -0.161 C  
BRANCH  27  28
HETATM   28  O   UNL     1      -8.985   5.785  72.484  1.00  0.00    -0.133 OA 
BRANCH  28  29
HETATM   29  C   UNL     1      -8.394   4.774  71.790  1.00  0.00    -0.114 C  
HETATM   30  O   UNL     1      -7.363   4.890  71.143  1.00  0.00    -0.064 OA 
BRANCH  29  31
HETATM   31  C   UNL     1      -9.194   3.493  71.848  1.00  0.00    -0.178 C  
BRANCH  31  32
HETATM   32  C   UNL     1      -9.477   3.019  73.265  1.00  0.00    -0.123 C  
HETATM   33  C   UNL     1     -10.939   3.030  73.641  1.00  0.00    -0.228 C  
HETATM   34  O   UNL     1     -11.447   4.249  73.894  1.00  0.00    -0.147 OA 
HETATM   35  O   UNL     1     -11.605   2.004  73.758  1.00  0.00    -0.206 OA 
ENDBRANCH  31  32
ENDBRANCH  29  31
ENDBRANCH  28  29
ENDBRANCH  27  28
ENDBRANCH  25  27
ENDBRANCH   4  25
TORSDOF 6
ENDMDL
MODEL      135
REMARK 921   NORMALIZED FREE ENERGY PREDICTED BY IDOCK:   -2.76 KCAL/MOL
REMARK 922        TOTAL FREE ENERGY PREDICTED BY IDOCK:   -4.45 KCAL/MOL
REMARK 923 INTER-LIGAND FREE ENERGY PREDICTED BY IDOCK:   -5.92 KCAL/MOL
REMARK 924 INTRA-LIGAND FREE ENERGY PREDICTED BY IDOCK:    1.47 KCAL/MOL
REMARK 927      BINDING AFFINITY PREDICTED BY RF-SCORE:    0.00 PKD
ROOT
HETATM    1  C   UNL     1      -9.080   5.342  71.065  1.00  0.00    -0.171 C  
HETATM    2  C   UNL     1      -7.711   5.161  71.373  1.00  0.00    -0.105 C  
HETATM    3  C   UNL     1      -7.964   6.229  70.355  1.00  0.00    -0.111 C  
HETATM    4  C   UNL     1      -9.904   6.886  70.100  1.00  0.00    -0.177 C  
HETATM    5  C   UNL     1      -7.159   3.583  64.987  1.00  0.00    -0.065 C  
HETATM    6  O   UNL     1     -11.008   6.341  70.923  1.00  0.00    -0.256 OA 
HETATM    7  C   UNL     1      -8.904   7.268  70.931  1.00  0.00    -0.149 C  
HETATM    8  C   UNL     1      -8.331   7.918  69.194  1.00  0.00    -0.133 C  
HETATM    9  H   UNL     1     -11.901   6.644  70.805  1.00  0.00     0.000 HD 
HETATM   10  C   UNL     1      -8.879   2.716  67.109  1.00  0.00    -0.158 C  
HETATM   11  O   UNL     1      -8.222   1.746  63.855  1.00  0.00    -0.074 OA 
HETATM   12  C   UNL     1      -8.872   7.991  72.263  1.00  0.00    -0.224 C  
HETATM   13  C   UNL     1      -8.832   6.785  67.914  1.00  0.00    -0.118 C  
HETATM   14  C   UNL     1      -9.450   2.198  68.405  1.00  0.00    -0.226 C  
HETATM   15  O   UNL     1     -10.196   7.136  67.625  1.00  0.00    -0.168 OA 
HETATM   16  C   UNL     1      -7.978   2.337  64.899  1.00  0.00    -0.078 C  
HETATM   17  C   UNL     1      -8.727   5.115  68.115  1.00  0.00    -0.103 C  
HETATM   18  C   UNL     1     -10.401   4.408  66.215  1.00  0.00    -0.136 C  
HETATM   19  C   UNL     1      -8.446   1.822  66.197  1.00  0.00    -0.106 C  
HETATM   20  H   UNL     1     -10.463   6.531  66.942  1.00  0.00     0.000 HD 
HETATM   21  C   UNL     1      -9.426   4.509  69.490  1.00  0.00    -0.244 C  
HETATM   22  C   UNL     1      -9.048   3.020  69.622  1.00  0.00    -0.197 C  
HETATM   23  C   UNL     1      -8.986   4.231  66.803  1.00  0.00    -0.125 C  
HETATM   24  C   UNL     1      -7.942   4.683  65.698  1.00  0.00    -0.095 C  
ENDROOT
BRANCH   4  25
HETATM   25  C   UNL     1     -10.664   8.475  70.115  1.00  0.00    -0.235 C  
HETATM   26  O   UNL     1     -11.376   8.941  71.025  1.00  0.00    -0.264 OA 
BRANCH  25  27
HETATM   27  C   UNL     1     -10.513   9.388  68.875  1.00  0.00    -0.216 C  
BRANCH  27  28
HETATM   28  O   UNL     1     -10.588  10.790  69.270  1.00  0.00    -0.211 OA 
BRANCH  28  29
HETATM   29  C   UNL     1     -10.987  11.672  68.313  1.00  0.00    -0.226 C  
HETATM   30  O   UNL     1     -12.150  11.850  67.979  1.00  0.00    -0.541 OA 
BRANCH  29  31
HETATM   31  C   UNL     1      -9.821  12.370  67.652  1.00  0.00    -0.198 C  
BRANCH  31  32
HETATM   32  C   UNL     1      -9.563  11.902  66.228  1.00  0.00    -0.243 C  
HETATM   33  C   UNL     1      -9.144  10.456  66.118  1.00  0.00    -0.160 C  
HETATM   34  O   UNL     1      -7.875  10.207  66.482  1.00  0.00    -0.107 OA 
HETATM   35  O   UNL     1      -9.886   9.578  65.681  1.00  0.00    -0.297 OA 
ENDBRANCH  31  32
ENDBRANCH  29  31
ENDBRANCH  28  29
ENDBRANCH  27  28
ENDBRANCH  25  27
ENDBRANCH   4  25
TORSDOF 6
ENDMDL
MODEL      136
REMARK 921   NORMALIZED FREE ENERGY PREDICTED BY IDOCK:   -2.72 KCAL/MOL
REMARK 922        TOTAL FREE ENERGY PREDICTED BY IDOCK:   -4.40 KCAL/MOL
REMARK 923 INTER-LIGAND FREE ENERGY PREDICTED BY IDOCK:   -4.79 KCAL/MOL
REMARK 924 INTRA-LIGAND FREE ENERGY PREDICTED BY IDOCK:    0.39 KCAL/MOL
REMARK 927      BINDING AFFINITY PREDICTED BY RF-SCORE:    0.00 PKD
ROOT
HETATM    1  C   UNL     1      -7.520   4.574  71.841  1.00  0.00    -0.075 C  
HETATM    2  C   UNL     1      -6.348   3.784  71.915  1.00  0.00    -0.014 C  
HETATM    3  C   UNL     1      -6.175   5.047  71.130  1.00  0.00    -0.022 C  
HETATM    4  C   UNL     1      -7.651   6.485  71.267  1.00  0.00    -0.094 C  
HETATM    5  C   UNL     1      -6.927   3.484  65.346  1.00  0.00    -0.057 C  
HETATM    6  O   UNL     1      -8.830   6.286  72.142  1.00  0.00    -0.137 OA 
HETATM    7  C   UNL     1      -6.536   6.238  71.996  1.00  0.00    -0.058 C  
HETATM    8  C   UNL     1      -5.845   6.939  70.323  1.00  0.00    -0.024 C  
HETATM    9  H   UNL     1      -9.509   6.947  72.205  1.00  0.00     0.000 HD 
HETATM   10  C   UNL     1      -8.718   2.985  67.526  1.00  0.00    -0.139 C  
HETATM   11  O   UNL     1      -8.748   2.529  64.098  1.00  0.00    -0.089 OA 
HETATM   12  C   UNL     1      -6.112   6.589  73.409  1.00  0.00    -0.062 C  
HETATM   13  C   UNL     1      -6.865   6.406  68.962  1.00  0.00    -0.066 C  
HETATM   14  C   UNL     1      -9.377   2.492  68.790  1.00  0.00    -0.231 C  
HETATM   15  O   UNL     1      -7.957   7.341  68.934  1.00  0.00    -0.118 OA 
HETATM   16  C   UNL     1      -8.208   2.736  65.177  1.00  0.00    -0.091 C  
HETATM   17  C   UNL     1      -7.481   4.840  68.874  1.00  0.00    -0.061 C  
HETATM   18  C   UNL     1      -9.409   5.299  67.146  1.00  0.00    -0.124 C  
HETATM   19  C   UNL     1      -8.772   2.203  66.429  1.00  0.00    -0.122 C  
HETATM   20  H   UNL     1      -8.501   7.057  68.208  1.00  0.00     0.000 HD 
HETATM   21  C   UNL     1      -8.288   4.306  70.219  1.00  0.00    -0.081 C  
HETATM   22  C   UNL     1      -8.584   2.802  70.053  1.00  0.00    -0.108 C  
HETATM   23  C   UNL     1      -8.178   4.436  67.487  1.00  0.00    -0.099 C  
HETATM   24  C   UNL     1      -7.111   4.635  66.331  1.00  0.00    -0.075 C  
ENDROOT
BRANCH   4  25
HETATM   25  C   UNL     1      -7.646   8.204  71.649  1.00  0.00    -0.087 C  
HETATM   26  O   UNL     1      -6.938   8.765  72.508  1.00  0.00    -0.279 OA 
BRANCH  25  27
HETATM   27  C   UNL     1      -8.641   9.135  70.917  1.00  0.00    -0.206 C  
BRANCH  27  28
HETATM   28  O   UNL     1      -9.979   8.981  71.476  1.00  0.00    -0.295 OA 
BRANCH  28  29
HETATM   29  C   UNL     1     -11.000   8.850  70.585  1.00  0.00    -0.241 C  
HETATM   30  O   UNL     1     -11.930   9.637  70.478  1.00  0.00    -0.250 OA 
BRANCH  29  31
HETATM   31  C   UNL     1     -10.899   7.576  69.778  1.00  0.00    -0.234 C  
BRANCH  31  32
HETATM   32  C   UNL     1     -11.882   6.501  70.216  1.00  0.00    -0.361 C  
HETATM   33  C   UNL     1     -12.431   6.695  71.608  1.00  0.00    -0.303 C  
HETATM   34  O   UNL     1     -11.578   6.386  72.600  1.00  0.00    -0.243 OA 
HETATM   35  O   UNL     1     -13.586   7.056  71.825  1.00  0.00    -0.343 OA 
ENDBRANCH  31  32
ENDBRANCH  29  31
ENDBRANCH  28  29
ENDBRANCH  27  28
ENDBRANCH  25  27
ENDBRANCH   4  25
TORSDOF 6
ENDMDL
MODEL      137
REMARK 921   NORMALIZED FREE ENERGY PREDICTED BY IDOCK:   -2.69 KCAL/MOL
REMARK 922        TOTAL FREE ENERGY PREDICTED BY IDOCK:   -4.37 KCAL/MOL
REMARK 923 INTER-LIGAND FREE ENERGY PREDICTED BY IDOCK:   -4.48 KCAL/MOL
REMARK 924 INTRA-LIGAND FREE ENERGY PREDICTED BY IDOCK:    0.11 KCAL/MOL
REMARK 927      BINDING AFFINITY PREDICTED BY RF-SCORE:    0.00 PKD
ROOT
HETATM    1  C   UNL     1      -6.209   9.580  68.140  1.00  0.00    -0.056 C  
HETATM    2  C   UNL     1      -5.731  10.831  68.597  1.00  0.00    -0.040 C  
HETATM    3  C   UNL     1      -6.836  10.266  69.434  1.00  0.00    -0.076 C  
HETATM    4  C   UNL     1      -7.359   8.290  69.144  1.00  0.00    -0.081 C  
HETATM    5  C   UNL     1     -11.897  12.876  67.425  1.00  0.00    -0.418 C  
HETATM    6  O   UNL     1      -6.640   7.447  68.161  1.00  0.00    -0.047 OA 
HETATM    7  C   UNL     1      -6.441   8.892  69.938  1.00  0.00    -0.038 C  
HETATM    8  C   UNL     1      -8.135   9.340  70.774  1.00  0.00    -0.194 C  
HETATM    9  H   UNL     1      -6.881   6.537  68.028  1.00  0.00     0.000 HD 
HETATM   10  C   UNL     1      -9.943  11.460  65.880  1.00  0.00    -0.274 C  
HETATM   11  O   UNL     1     -13.030  12.909  65.303  1.00  0.00    -0.703 OA 
HETATM   12  C   UNL     1      -5.162   8.419  70.601  1.00  0.00    -0.021 C  
HETATM   13  C   UNL     1      -9.392   9.575  69.533  1.00  0.00    -0.190 C  
HETATM   14  C   UNL     1      -8.694  11.013  65.163  1.00  0.00    -0.068 C  
HETATM   15  O   UNL     1      -9.862   8.249  69.231  1.00  0.00    -0.178 OA 
HETATM   16  C   UNL     1     -12.004  12.721  65.943  1.00  0.00    -0.449 C  
HETATM   17  C   UNL     1      -9.077  10.387  68.091  1.00  0.00    -0.142 C  
HETATM   18  C   UNL     1     -11.114   9.477  66.701  1.00  0.00     0.448 C  
HETATM   19  C   UNL     1     -10.740  12.364  65.275  1.00  0.00    -0.322 C  
HETATM   20  H   UNL     1     -10.533   8.375  68.569  1.00  0.00     0.000 HD 
HETATM   21  C   UNL     1      -7.760   9.857  67.237  1.00  0.00    -0.095 C  
HETATM   22  C   UNL     1      -7.492  10.839  66.080  1.00  0.00    -0.129 C  
HETATM   23  C   UNL     1     -10.354  10.729  67.182  1.00  0.00    -0.269 C  
HETATM   24  C   UNL     1     -11.353  11.597  68.055  1.00  0.00    -0.366 C  
ENDROOT
BRANCH   4  25
HETATM   25  C   UNL     1      -7.532   6.905  70.219  1.00  0.00    -0.086 C  
HETATM   26  O   UNL     1      -7.504   6.932  71.465  1.00  0.00    -0.084 OA 
BRANCH  25  27
HETATM   27  C   UNL     1      -7.673   5.493  69.603  1.00  0.00    -0.078 C  
BRANCH  27  28
HETATM   28  O   UNL     1      -6.358   4.945  69.293  1.00  0.00    -0.029 OA 
BRANCH  28  29
HETATM   29  C   UNL     1      -6.332   3.795  68.565  1.00  0.00    -0.033 C  
HETATM   30  O   UNL     1      -6.152   3.746  67.356  1.00  0.00    -0.027 OA 
BRANCH  29  31
HETATM   31  C   UNL     1      -6.621   2.574  69.408  1.00  0.00    -0.033 C  
BRANCH  31  32
HETATM   32  C   UNL     1      -7.454   1.524  68.689  1.00  0.00    -0.042 C  
HETATM   33  C   UNL     1      -8.931   1.830  68.643  1.00  0.00    -0.112 C  
HETATM   34  O   UNL     1      -9.585   1.628  69.800  1.00  0.00    -0.088 OA 
HETATM   35  O   UNL     1      -9.507   2.188  67.617  1.00  0.00    -0.161 OA 
ENDBRANCH  31  32
ENDBRANCH  29  31
ENDBRANCH  28  29
ENDBRANCH  27  28
ENDBRANCH  25  27
ENDBRANCH   4  25
TORSDOF 6
ENDMDL
MODEL      138
REMARK 921   NORMALIZED FREE ENERGY PREDICTED BY IDOCK:   -2.64 KCAL/MOL
REMARK 922        TOTAL FREE ENERGY PREDICTED BY IDOCK:   -4.30 KCAL/MOL
REMARK 923 INTER-LIGAND FREE ENERGY PREDICTED BY IDOCK:   -5.16 KCAL/MOL
REMARK 924 INTRA-LIGAND FREE ENERGY PREDICTED BY IDOCK:    0.86 KCAL/MOL
REMARK 927      BINDING AFFINITY PREDICTED BY RF-SCORE:    0.00 PKD
ROOT
HETATM    1  C   UNL     1      -7.073  12.563  67.392  1.00  0.00    -0.146 C  
HETATM    2  C   UNL     1      -6.333  13.068  68.486  1.00  0.00    -0.081 C  
HETATM    3  C   UNL     1      -7.171  11.875  68.825  1.00  0.00    -0.112 C  
HETATM    4  C   UNL     1      -7.986  10.788  67.270  1.00  0.00    -0.117 C  
HETATM    5  C   UNL     1     -12.268  14.090  71.188  1.00  0.00    -0.417 C  
HETATM    6  O   UNL     1      -7.721  11.158  65.861  1.00  0.00    -0.332 OA 
HETATM    7  C   UNL     1      -6.799  10.717  67.920  1.00  0.00    -0.072 C  
HETATM    8  C   UNL     1      -8.074  10.040  69.217  1.00  0.00    -0.141 C  
HETATM    9  H   UNL     1      -8.096  10.657  65.145  1.00  0.00     0.000 HD 
HETATM   10  C   UNL     1     -11.087  14.765  68.667  1.00  0.00    -0.274 C  
HETATM   11  O   UNL     1     -14.006  15.530  70.357  1.00  0.00    -0.045 OA 
HETATM   12  C   UNL     1      -5.440  10.154  67.555  1.00  0.00    -0.041 C  
HETATM   13  C   UNL     1      -9.625  10.905  69.070  1.00  0.00    -0.156 C  
HETATM   14  C   UNL     1     -10.192  15.272  67.563  1.00  0.00    -0.239 C  
HETATM   15  O   UNL     1     -10.318  10.237  68.000  1.00  0.00    -0.162 OA 
HETATM   16  C   UNL     1     -12.858  15.112  70.273  1.00  0.00    -0.245 C  
HETATM   17  C   UNL     1      -9.693  12.569  68.812  1.00  0.00     0.045 C  
HETATM   18  C   UNL     1     -12.158  12.702  67.908  1.00  0.00    -0.158 C  
HETATM   19  C   UNL     1     -11.924  15.638  69.263  1.00  0.00    -0.338 C  
HETATM   20  H   UNL     1     -11.145  10.699  67.921  1.00  0.00     0.000 HD 
HETATM   21  C   UNL     1      -8.787  13.141  67.547  1.00  0.00    -0.199 C  
HETATM   22  C   UNL     1      -8.789  14.681  67.595  1.00  0.00    -0.184 C  
HETATM   23  C   UNL     1     -11.143  13.241  68.937  1.00  0.00    -0.304 C  
HETATM   24  C   UNL     1     -11.705  12.921  70.385  1.00  0.00    -0.109 C  
ENDROOT
BRANCH   4  25
HETATM   25  C   UNL     1      -7.968   9.081  66.836  1.00  0.00    -0.105 C  
HETATM   26  O   UNL     1      -7.065   8.264  67.102  1.00  0.00    -0.076 OA 
BRANCH  25  27
HETATM   27  C   UNL     1      -9.132   8.512  65.991  1.00  0.00    -0.194 C  
BRANCH  27  28
HETATM   28  O   UNL     1     -10.153   7.941  66.861  1.00  0.00    -0.239 OA 
BRANCH  28  29
HETATM   29  C   UNL     1     -10.290   6.586  66.833  1.00  0.00    -0.243 C  
HETATM   30  O   UNL     1     -11.232   5.997  66.323  1.00  0.00     0.074 OA 
BRANCH  29  31
HETATM   31  C   UNL     1      -9.172   5.881  67.566  1.00  0.00    -0.108 C  
BRANCH  31  32
HETATM   32  C   UNL     1      -9.470   5.642  69.038  1.00  0.00    -0.159 C  
HETATM   33  C   UNL     1      -8.269   5.777  69.943  1.00  0.00    -0.115 C  
HETATM   34  O   UNL     1      -7.410   4.745  69.898  1.00  0.00    -0.053 OA 
HETATM   35  O   UNL     1      -8.111   6.731  70.702  1.00  0.00    -0.115 OA 
ENDBRANCH  31  32
ENDBRANCH  29  31
ENDBRANCH  28  29
ENDBRANCH  27  28
ENDBRANCH  25  27
ENDBRANCH   4  25
TORSDOF 6
ENDMDL
MODEL      139
REMARK 921   NORMALIZED FREE ENERGY PREDICTED BY IDOCK:   -2.63 KCAL/MOL
REMARK 922        TOTAL FREE ENERGY PREDICTED BY IDOCK:   -4.29 KCAL/MOL
REMARK 923 INTER-LIGAND FREE ENERGY PREDICTED BY IDOCK:   -4.85 KCAL/MOL
REMARK 924 INTRA-LIGAND FREE ENERGY PREDICTED BY IDOCK:    0.56 KCAL/MOL
REMARK 927      BINDING AFFINITY PREDICTED BY RF-SCORE:    0.00 PKD
ROOT
HETATM    1  C   UNL     1      -6.125   9.462  68.554  1.00  0.00    -0.044 C  
HETATM    2  C   UNL     1      -5.708  10.744  68.983  1.00  0.00    -0.040 C  
HETATM    3  C   UNL     1      -6.858  10.192  69.766  1.00  0.00    -0.105 C  
HETATM    4  C   UNL     1      -7.318   8.193  69.535  1.00  0.00    -0.081 C  
HETATM    5  C   UNL     1     -11.814  12.584  67.279  1.00  0.00    -0.381 C  
HETATM    6  O   UNL     1      -6.512   7.323  68.647  1.00  0.00    -0.037 OA 
HETATM    7  C   UNL     1      -6.472   8.854  70.362  1.00  0.00    -0.043 C  
HETATM    8  C   UNL     1      -8.230   9.299  71.053  1.00  0.00    -0.122 C  
HETATM    9  H   UNL     1      -6.724   6.402  68.541  1.00  0.00     0.000 HD 
HETATM   10  C   UNL     1      -9.725  11.144  65.947  1.00  0.00    -0.268 C  
HETATM   11  O   UNL     1     -12.792  12.490  65.083  1.00  0.00    -0.685 OA 
HETATM   12  C   UNL     1      -5.234   8.443  71.136  1.00  0.00    -0.029 C  
HETATM   13  C   UNL     1      -9.400   9.446  69.716  1.00  0.00    -0.203 C  
HETATM   14  C   UNL     1      -8.418  10.695  65.342  1.00  0.00    -0.162 C  
HETATM   15  O   UNL     1      -9.819   8.096  69.445  1.00  0.00    -0.176 OA 
HETATM   16  C   UNL     1     -11.811  12.357  65.802  1.00  0.00    -0.406 C  
HETATM   17  C   UNL     1      -8.998  10.197  68.263  1.00  0.00    -0.120 C  
HETATM   18  C   UNL     1     -10.911   9.174  66.777  1.00  0.00     0.041 C  
HETATM   19  C   UNL     1     -10.495  12.000  65.244  1.00  0.00    -0.323 C  
HETATM   20  H   UNL     1     -10.443   8.175  68.732  1.00  0.00     0.000 HD 
HETATM   21  C   UNL     1      -7.612   9.659  67.531  1.00  0.00    -0.095 C  
HETATM   22  C   UNL     1      -7.282  10.593  66.350  1.00  0.00    -0.134 C  
HETATM   23  C   UNL     1     -10.213  10.465  67.250  1.00  0.00    -0.258 C  
HETATM   24  C   UNL     1     -11.291  11.349  68.006  1.00  0.00    -0.372 C  
ENDROOT
BRANCH   4  25
HETATM   25  C   UNL     1      -7.539   6.856  70.661  1.00  0.00    -0.094 C  
HETATM   26  O   UNL     1      -7.299   6.876  71.883  1.00  0.00    -0.085 OA 
BRANCH  25  27
HETATM   27  C   UNL     1      -8.016   5.489  70.114  1.00  0.00    -0.090 C  
BRANCH  27  28
HETATM   28  O   UNL     1      -9.094   4.963  70.942  1.00  0.00    -0.133 OA 
BRANCH  28  29
HETATM   29  C   UNL     1      -9.013   3.648  71.285  1.00  0.00    -0.101 C  
HETATM   30  O   UNL     1      -9.933   3.001  71.765  1.00  0.00    -0.171 OA 
BRANCH  29  31
HETATM   31  C   UNL     1      -7.629   3.081  71.068  1.00  0.00    -0.036 C  
BRANCH  31  32
HETATM   32  C   UNL     1      -7.170   2.159  72.186  1.00  0.00    -0.038 C  
HETATM   33  C   UNL     1      -6.461   2.862  73.317  1.00  0.00    -0.021 C  
HETATM   34  O   UNL     1      -5.200   3.241  73.045  1.00  0.00     0.000 OA 
HETATM   35  O   UNL     1      -6.973   3.033  74.422  1.00  0.00    -0.038 OA 
ENDBRANCH  31  32
ENDBRANCH  29  31
ENDBRANCH  28  29
ENDBRANCH  27  28
ENDBRANCH  25  27
ENDBRANCH   4  25
TORSDOF 6
ENDMDL
MODEL      140
REMARK 921   NORMALIZED FREE ENERGY PREDICTED BY IDOCK:   -2.47 KCAL/MOL
REMARK 922        TOTAL FREE ENERGY PREDICTED BY IDOCK:   -4.07 KCAL/MOL
REMARK 923 INTER-LIGAND FREE ENERGY PREDICTED BY IDOCK:   -3.99 KCAL/MOL
REMARK 924 INTRA-LIGAND FREE ENERGY PREDICTED BY IDOCK:   -0.07 KCAL/MOL
REMARK 927      BINDING AFFINITY PREDICTED BY RF-SCORE:    0.00 PKD
ROOT
HETATM    1  C   UNL     1      -6.222   9.947  67.087  1.00  0.00    -0.063 C  
HETATM    2  C   UNL     1      -5.623  11.226  67.009  1.00  0.00    -0.088 C  
HETATM    3  C   UNL     1      -6.749  11.147  67.993  1.00  0.00    -0.062 C  
HETATM    4  C   UNL     1      -7.452   9.277  68.513  1.00  0.00    -0.081 C  
HETATM    5  C   UNL     1     -11.616  13.192  65.060  1.00  0.00    -0.354 C  
HETATM    6  O   UNL     1      -6.838   8.050  67.955  1.00  0.00    -0.068 OA 
HETATM    7  C   UNL     1      -6.462  10.059  69.008  1.00  0.00    -0.044 C  
HETATM    8  C   UNL     1      -8.085  10.956  69.579  1.00  0.00     0.086 C  
HETATM    9  H   UNL     1      -7.161   7.188  68.195  1.00  0.00     0.000 HD 
HETATM   10  C   UNL     1      -9.839  11.104  64.229  1.00  0.00    -0.335 C  
HETATM   11  O   UNL     1     -12.802  12.479  63.093  1.00  0.00    -0.599 OA 
HETATM   12  C   UNL     1      -5.211   9.774  69.816  1.00  0.00    -0.033 C  
HETATM   13  C   UNL     1      -9.352  10.792  68.336  1.00  0.00    -0.167 C  
HETATM   14  C   UNL     1      -8.654  10.295  63.762  1.00  0.00    -0.190 C  
HETATM   15  O   UNL     1      -9.945   9.505  68.585  1.00  0.00    -0.158 OA 
HETATM   16  C   UNL     1     -11.778  12.469  63.764  1.00  0.00    -0.485 C  
HETATM   17  C   UNL     1      -9.008  10.928  66.693  1.00  0.00    -0.173 C  
HETATM   18  C   UNL     1     -11.156   9.730  65.764  1.00  0.00     1.385 C  
HETATM   19  C   UNL     1     -10.570  11.761  63.306  1.00  0.00    -0.427 C  
HETATM   20  H   UNL     1     -10.620   9.417  67.922  1.00  0.00     0.000 HD 
HETATM   21  C   UNL     1      -7.767   9.982  66.135  1.00  0.00    -0.108 C  
HETATM   22  C   UNL     1      -7.447  10.392  64.683  1.00  0.00    -0.037 C  
HETATM   23  C   UNL     1     -10.275  10.994  65.712  1.00  0.00    -0.316 C  
HETATM   24  C   UNL     1     -11.169  12.227  66.154  1.00  0.00    -0.372 C  
ENDROOT
BRANCH   4  25
HETATM   25  C   UNL     1      -7.716   8.458  70.050  1.00  0.00    -0.090 C  
HETATM   26  O   UNL     1      -7.590   8.962  71.183  1.00  0.00    -0.109 OA 
BRANCH  25  27
HETATM   27  C   UNL     1      -8.077   6.954  70.044  1.00  0.00    -0.125 C  
BRANCH  27  28
HETATM   28  O   UNL     1      -9.352   6.745  69.368  1.00  0.00    -0.148 OA 
BRANCH  28  29
HETATM   29  C   UNL     1      -9.757   5.454  69.215  1.00  0.00    -0.164 C  
HETATM   30  O   UNL     1     -10.484   4.860  69.998  1.00  0.00    -0.244 OA 
BRANCH  29  31
HETATM   31  C   UNL     1      -9.150   4.803  67.993  1.00  0.00    -0.137 C  
BRANCH  31  32
HETATM   32  C   UNL     1      -8.800   3.338  68.198  1.00  0.00    -0.161 C  
HETATM   33  C   UNL     1      -7.383   3.100  68.662  1.00  0.00    -0.049 C  
HETATM   34  O   UNL     1      -6.446   3.242  67.709  1.00  0.00    -0.035 OA 
HETATM   35  O   UNL     1      -7.106   2.752  69.808  1.00  0.00    -0.040 OA 
ENDBRANCH  31  32
ENDBRANCH  29  31
ENDBRANCH  28  29
ENDBRANCH  27  28
ENDBRANCH  25  27
ENDBRANCH   4  25
TORSDOF 6
ENDMDL
MODEL      141
REMARK 921   NORMALIZED FREE ENERGY PREDICTED BY IDOCK:   -2.43 KCAL/MOL
REMARK 922        TOTAL FREE ENERGY PREDICTED BY IDOCK:   -4.01 KCAL/MOL
REMARK 923 INTER-LIGAND FREE ENERGY PREDICTED BY IDOCK:   -4.88 KCAL/MOL
REMARK 924 INTRA-LIGAND FREE ENERGY PREDICTED BY IDOCK:    0.87 KCAL/MOL
REMARK 927      BINDING AFFINITY PREDICTED BY RF-SCORE:    0.00 PKD
ROOT
HETATM    1  C   UNL     1      -7.370   4.116  69.083  1.00  0.00    -0.054 C  
HETATM    2  C   UNL     1      -6.056   3.973  68.577  1.00  0.00    -0.031 C  
HETATM    3  C   UNL     1      -6.217   5.123  69.522  1.00  0.00    -0.026 C  
HETATM    4  C   UNL     1      -7.946   5.222  70.645  1.00  0.00    -0.103 C  
HETATM    5  C   UNL     1      -7.088   9.979  66.038  1.00  0.00    -0.111 C  
HETATM    6  O   UNL     1      -8.981   4.168  70.545  1.00  0.00    -0.085 OA 
HETATM    7  C   UNL     1      -6.748   4.622  70.849  1.00  0.00    -0.035 C  
HETATM    8  C   UNL     1      -6.358   6.510  71.069  1.00  0.00    -0.048 C  
HETATM    9  H   UNL     1      -9.777   4.213  71.062  1.00  0.00     0.000 HD 
HETATM   10  C   UNL     1      -8.552   7.516  65.982  1.00  0.00    -0.164 C  
HETATM   11  O   UNL     1      -8.762  10.598  64.426  1.00  0.00    -0.180 OA 
HETATM   12  C   UNL     1      -6.295   3.461  71.713  1.00  0.00    -0.015 C  
HETATM   13  C   UNL     1      -7.349   7.480  69.951  1.00  0.00    -0.082 C  
HETATM   14  C   UNL     1      -8.988   6.081  65.826  1.00  0.00    -0.116 C  
HETATM   15  O   UNL     1      -8.613   7.636  70.621  1.00  0.00    -0.132 OA 
HETATM   16  C   UNL     1      -8.193   9.724  65.066  1.00  0.00    -0.142 C  
HETATM   17  C   UNL     1      -7.628   6.995  68.362  1.00  0.00    -0.111 C  
HETATM   18  C   UNL     1      -9.743   8.483  67.886  1.00  0.00    -0.193 C  
HETATM   19  C   UNL     1      -8.529   8.301  64.885  1.00  0.00    -0.115 C  
HETATM   20  H   UNL     1      -9.142   8.153  70.024  1.00  0.00     0.000 HD 
HETATM   21  C   UNL     1      -8.193   5.449  68.168  1.00  0.00    -0.099 C  
HETATM   22  C   UNL     1      -8.179   5.102  66.666  1.00  0.00    -0.108 C  
HETATM   23  C   UNL     1      -8.334   8.075  67.409  1.00  0.00    -0.123 C  
HETATM   24  C   UNL     1      -7.430   9.378  67.399  1.00  0.00    -0.091 C  
ENDROOT
BRANCH   4  25
HETATM   25  C   UNL     1      -8.271   5.391  72.368  1.00  0.00    -0.114 C  
HETATM   26  O   UNL     1      -7.933   4.591  73.263  1.00  0.00    -0.093 OA 
BRANCH  25  27
HETATM   27  C   UNL     1      -9.107   6.598  72.857  1.00  0.00    -0.128 C  
BRANCH  27  28
HETATM   28  O   UNL     1     -10.253   6.137  73.630  1.00  0.00    -0.202 OA 
BRANCH  28  29
HETATM   29  C   UNL     1     -11.331   5.700  72.922  1.00  0.00    -0.273 C  
HETATM   30  O   UNL     1     -11.866   4.612  73.080  1.00  0.00    -0.227 OA 
BRANCH  29  31
HETATM   31  C   UNL     1     -11.760   6.686  71.861  1.00  0.00    -0.355 C  
BRANCH  31  32
HETATM   32  C   UNL     1     -12.169   8.039  72.421  1.00  0.00    -0.337 C  
HETATM   33  C   UNL     1     -11.847   9.206  71.519  1.00  0.00    -0.358 C  
HETATM   34  O   UNL     1     -10.549   9.555  71.490  1.00  0.00    -0.323 OA 
HETATM   35  O   UNL     1     -12.707   9.825  70.896  1.00  0.00    -0.304 OA 
ENDBRANCH  31  32
ENDBRANCH  29  31
ENDBRANCH  28  29
ENDBRANCH  27  28
ENDBRANCH  25  27
ENDBRANCH   4  25
TORSDOF 6
ENDMDL
MODEL      142
REMARK 921   NORMALIZED FREE ENERGY PREDICTED BY IDOCK:   -2.30 KCAL/MOL
REMARK 922        TOTAL FREE ENERGY PREDICTED BY IDOCK:   -3.84 KCAL/MOL
REMARK 923 INTER-LIGAND FREE ENERGY PREDICTED BY IDOCK:   -3.90 KCAL/MOL
REMARK 924 INTRA-LIGAND FREE ENERGY PREDICTED BY IDOCK:    0.06 KCAL/MOL
REMARK 927      BINDING AFFINITY PREDICTED BY RF-SCORE:    0.00 PKD
ROOT
HETATM    1  C   UNL     1      -6.010  10.577  68.671  1.00  0.00    -0.040 C  
HETATM    2  C   UNL     1      -5.604  11.423  69.729  1.00  0.00    -0.075 C  
HETATM    3  C   UNL     1      -6.764  10.541  70.073  1.00  0.00    -0.151 C  
HETATM    4  C   UNL     1      -7.211   8.983  68.794  1.00  0.00    -0.075 C  
HETATM    5  C   UNL     1     -11.694  13.916  69.194  1.00  0.00    -0.382 C  
HETATM    6  O   UNL     1      -6.388   8.726  67.590  1.00  0.00    -0.055 OA 
HETATM    7  C   UNL     1      -6.381   9.090  69.860  1.00  0.00    -0.038 C  
HETATM    8  C   UNL     1      -8.151   9.100  70.655  1.00  0.00    -0.198 C  
HETATM    9  H   UNL     1      -6.594   8.009  67.001  1.00  0.00     0.000 HD 
HETATM   10  C   UNL     1      -9.578  13.414  67.328  1.00  0.00    -0.234 C  
HETATM   11  O   UNL     1     -12.638  15.025  67.280  1.00  0.00     0.459 OA 
HETATM   12  C   UNL     1      -5.153   8.322  70.309  1.00  0.00    -0.023 C  
HETATM   13  C   UNL     1      -9.301   9.949  69.591  1.00  0.00    -0.228 C  
HETATM   14  C   UNL     1      -8.260  13.356  66.596  1.00  0.00     0.329 C  
HETATM   15  O   UNL     1      -9.710   8.961  68.629  1.00  0.00    -0.156 OA 
HETATM   16  C   UNL     1     -11.667  14.521  67.829  1.00  0.00    -0.374 C  
HETATM   17  C   UNL     1      -8.881  11.364  68.778  1.00  0.00    -0.076 C  
HETATM   18  C   UNL     1     -10.767  11.312  66.947  1.00  0.00    -0.319 C  
HETATM   19  C   UNL     1     -10.342  14.516  67.186  1.00  0.00    -0.265 C  
HETATM   20  H   UNL     1     -10.323   9.414  68.062  1.00  0.00     0.000 HD 
HETATM   21  C   UNL     1      -7.482  11.300  67.893  1.00  0.00    -0.094 C  
HETATM   22  C   UNL     1      -7.139  12.722  67.407  1.00  0.00    -0.134 C  
HETATM   23  C   UNL     1     -10.082  12.141  68.052  1.00  0.00    -0.204 C  
HETATM   24  C   UNL     1     -11.175  12.482  69.149  1.00  0.00    -0.297 C  
ENDROOT
BRANCH   4  25
HETATM   25  C   UNL     1      -7.443   7.252  69.018  1.00  0.00    -0.097 C  
HETATM   26  O   UNL     1      -8.332   6.711  69.704  1.00  0.00    -0.128 OA 
BRANCH  25  27
HETATM   27  C   UNL     1      -6.434   6.272  68.371  1.00  0.00    -0.049 C  
BRANCH  27  28
HETATM   28  O   UNL     1      -6.854   5.940  67.015  1.00  0.00    -0.060 OA 
BRANCH  28  29
HETATM   29  C   UNL     1      -6.991   4.617  66.726  1.00  0.00    -0.060 C  
HETATM   30  O   UNL     1      -6.451   3.714  67.349  1.00  0.00    -0.036 OA 
BRANCH  29  31
HETATM   31  C   UNL     1      -7.837   4.382  65.496  1.00  0.00    -0.094 C  
BRANCH  31  32
HETATM   32  C   UNL     1      -9.167   3.709  65.795  1.00  0.00    -0.159 C  
HETATM   33  C   UNL     1     -10.367   4.612  65.639  1.00  0.00    -0.238 C  
HETATM   34  O   UNL     1     -10.537   5.501  66.633  1.00  0.00    -0.274 OA 
HETATM   35  O   UNL     1     -11.159   4.513  64.704  1.00  0.00    -0.077 OA 
ENDBRANCH  31  32
ENDBRANCH  29  31
ENDBRANCH  28  29
ENDBRANCH  27  28
ENDBRANCH  25  27
ENDBRANCH   4  25
TORSDOF 6
ENDMDL
MODEL      143
REMARK 921   NORMALIZED FREE ENERGY PREDICTED BY IDOCK:   -2.25 KCAL/MOL
REMARK 922        TOTAL FREE ENERGY PREDICTED BY IDOCK:   -3.77 KCAL/MOL
REMARK 923 INTER-LIGAND FREE ENERGY PREDICTED BY IDOCK:   -4.59 KCAL/MOL
REMARK 924 INTRA-LIGAND FREE ENERGY PREDICTED BY IDOCK:    0.82 KCAL/MOL
REMARK 927      BINDING AFFINITY PREDICTED BY RF-SCORE:    0.00 PKD
ROOT
HETATM    1  C   UNL     1     -10.427   8.547  68.192  1.00  0.00    -0.236 C  
HETATM    2  C   UNL     1     -10.485   8.429  66.783  1.00  0.00    -0.315 C  
HETATM    3  C   UNL     1      -9.214   7.909  67.380  1.00  0.00    -0.160 C  
HETATM    4  C   UNL     1      -9.141   7.641  69.426  1.00  0.00    -0.142 C  
HETATM    5  C   UNL     1      -5.224  12.416  66.887  1.00  0.00     0.161 C  
HETATM    6  O   UNL     1     -10.323   7.922  70.273  1.00  0.00    -0.205 OA 
HETATM    7  C   UNL     1      -9.533   6.840  68.405  1.00  0.00    -0.126 C  
HETATM    8  C   UNL     1      -7.601   6.899  68.227  1.00  0.00    -0.107 C  
HETATM    9  H   UNL     1     -10.289   7.798  71.215  1.00  0.00     0.000 HD 
HETATM   10  C   UNL     1      -7.827  12.524  68.081  1.00  0.00    -0.151 C  
HETATM   11  O   UNL     1      -5.131  14.663  67.738  1.00  0.00    -0.256 OA 
HETATM   12  C   UNL     1     -10.449   5.635  68.315  1.00  0.00    -0.257 C  
HETATM   13  C   UNL     1      -6.987   8.508  68.686  1.00  0.00    -0.064 C  
HETATM   14  C   UNL     1      -9.311  12.526  68.347  1.00  0.00    -0.149 C  
HETATM   15  O   UNL     1      -6.880   8.464  70.120  1.00  0.00    -0.041 OA 
HETATM   16  C   UNL     1      -5.793  13.672  67.460  1.00  0.00     0.044 C  
HETATM   17  C   UNL     1      -7.784   9.923  68.240  1.00  0.00    -0.085 C  
HETATM   18  C   UNL     1      -6.696  11.534  70.010  1.00  0.00     0.099 C  
HETATM   19  C   UNL     1      -7.257  13.658  67.626  1.00  0.00    -0.179 C  
HETATM   20  H   UNL     1      -6.553   9.322  70.365  1.00  0.00     0.000 HD 
HETATM   21  C   UNL     1      -9.400   9.987  68.602  1.00  0.00    -0.156 C  
HETATM   22  C   UNL     1     -10.008  11.236  67.933  1.00  0.00    -0.189 C  
HETATM   23  C   UNL     1      -6.995  11.292  68.517  1.00  0.00    -0.078 C  
HETATM   24  C   UNL     1      -5.609  11.218  67.751  1.00  0.00    -0.044 C  
ENDROOT
BRANCH   4  25
HETATM   25  C   UNL     1      -8.708   6.284  70.462  1.00  0.00    -0.143 C  
HETATM   26  O   UNL     1      -8.801   5.076  70.169  1.00  0.00    -0.106 OA 
BRANCH  25  27
HETATM   27  C   UNL     1      -8.222   6.568  71.903  1.00  0.00    -0.108 C  
BRANCH  27  28
HETATM   28  O   UNL     1      -8.931   5.718  72.851  1.00  0.00    -0.125 OA 
BRANCH  28  29
HETATM   29  C   UNL     1     -10.165   6.139  73.244  1.00  0.00    -0.209 C  
HETATM   30  O   UNL     1     -10.409   7.259  73.671  1.00  0.00    -0.347 OA 
BRANCH  29  31
HETATM   31  C   UNL     1     -11.200   5.042  73.157  1.00  0.00    -0.408 C  
BRANCH  31  32
HETATM   32  C   UNL     1     -10.974   3.915  74.153  1.00  0.00    -0.165 C  
HETATM   33  C   UNL     1     -10.172   2.759  73.606  1.00  0.00    -0.118 C  
HETATM   34  O   UNL     1     -10.846   1.951  72.770  1.00  0.00    -0.154 OA 
HETATM   35  O   UNL     1      -9.009   2.538  73.938  1.00  0.00    -0.073 OA 
ENDBRANCH  31  32
ENDBRANCH  29  31
ENDBRANCH  28  29
ENDBRANCH  27  28
ENDBRANCH  25  27
ENDBRANCH   4  25
TORSDOF 6
ENDMDL
MODEL      144
REMARK 921   NORMALIZED FREE ENERGY PREDICTED BY IDOCK:   -2.23 KCAL/MOL
REMARK 922        TOTAL FREE ENERGY PREDICTED BY IDOCK:   -3.74 KCAL/MOL
REMARK 923 INTER-LIGAND FREE ENERGY PREDICTED BY IDOCK:   -5.29 KCAL/MOL
REMARK 924 INTRA-LIGAND FREE ENERGY PREDICTED BY IDOCK:    1.55 KCAL/MOL
REMARK 927      BINDING AFFINITY PREDICTED BY RF-SCORE:    0.00 PKD
ROOT
HETATM    1  C   UNL     1     -10.068  10.395  67.217  1.00  0.00    -0.244 C  
HETATM    2  C   UNL     1     -10.993  10.246  68.277  1.00  0.00    -0.315 C  
HETATM    3  C   UNL     1      -9.579  10.433  68.733  1.00  0.00    -0.178 C  
HETATM    4  C   UNL     1      -8.187  11.062  67.344  1.00  0.00    -0.122 C  
HETATM    5  C   UNL     1      -7.445   4.875  69.744  1.00  0.00    -0.056 C  
HETATM    6  O   UNL     1      -8.582  11.351  65.946  1.00  0.00    -0.301 OA 
HETATM    7  C   UNL     1      -9.030  11.729  68.169  1.00  0.00    -0.181 C  
HETATM    8  C   UNL     1      -7.683  11.013  69.369  1.00  0.00    -0.026 C  
HETATM    9  H   UNL     1      -7.941  11.641  65.307  1.00  0.00     0.000 HD 
HETATM   10  C   UNL     1      -8.679   5.852  67.349  1.00  0.00    -0.108 C  
HETATM   11  O   UNL     1      -7.126   2.933  68.362  1.00  0.00    -0.048 OA 
HETATM   12  C   UNL     1      -9.627  13.122  68.149  1.00  0.00    -0.227 C  
HETATM   13  C   UNL     1      -7.133   9.417  68.800  1.00  0.00    -0.069 C  
HETATM   14  C   UNL     1      -9.638   6.383  66.314  1.00  0.00    -0.106 C  
HETATM   15  O   UNL     1      -6.133   9.706  67.807  1.00  0.00    -0.051 OA 
HETATM   16  C   UNL     1      -7.677   4.009  68.550  1.00  0.00    -0.065 C  
HETATM   17  C   UNL     1      -8.207   8.276  68.180  1.00  0.00    -0.128 C  
HETATM   18  C   UNL     1      -6.463   6.783  66.900  1.00  0.00    -0.043 C  
HETATM   19  C   UNL     1      -8.682   4.528  67.606  1.00  0.00    -0.111 C  
HETATM   20  H   UNL     1      -5.840   8.854  67.503  1.00  0.00     0.000 HD 
HETATM   21  C   UNL     1      -9.213   8.811  66.978  1.00  0.00    -0.177 C  
HETATM   22  C   UNL     1     -10.263   7.720  66.689  1.00  0.00    -0.288 C  
HETATM   23  C   UNL     1      -7.609   6.809  67.931  1.00  0.00    -0.107 C  
HETATM   24  C   UNL     1      -7.033   6.279  69.310  1.00  0.00    -0.064 C  
ENDROOT
BRANCH   4  25
HETATM   25  C   UNL     1      -7.022  12.382  67.298  1.00  0.00    -0.129 C  
HETATM   26  O   UNL     1      -5.857  12.321  66.859  1.00  0.00    -0.274 OA 
BRANCH  25  27
HETATM   27  C   UNL     1      -7.416  13.749  67.907  1.00  0.00    -0.152 C  
BRANCH  27  28
HETATM   28  O   UNL     1      -7.530  14.754  66.858  1.00  0.00    -0.014 OA 
BRANCH  28  29
HETATM   29  C   UNL     1      -7.465  16.056  67.250  1.00  0.00    -0.201 C  
HETATM   30  O   UNL     1      -6.505  16.561  67.814  1.00  0.00    -0.125 OA 
BRANCH  29  31
HETATM   31  C   UNL     1      -8.748  16.804  66.972  1.00  0.00    -0.226 C  
BRANCH  31  32
HETATM   32  C   UNL     1      -9.547  17.125  68.226  1.00  0.00    -0.280 C  
HETATM   33  C   UNL     1      -9.732  18.602  68.481  1.00  0.00    -0.370 C  
HETATM   34  O   UNL     1      -8.643  19.234  68.953  1.00  0.00    -0.360 OA 
HETATM   35  O   UNL     1     -10.807  19.176  68.321  1.00  0.00    -0.144 OA 
ENDBRANCH  31  32
ENDBRANCH  29  31
ENDBRANCH  28  29
ENDBRANCH  27  28
ENDBRANCH  25  27
ENDBRANCH   4  25
TORSDOF 6
ENDMDL
MODEL      145
REMARK 921   NORMALIZED FREE ENERGY PREDICTED BY IDOCK:   -2.08 KCAL/MOL
REMARK 922        TOTAL FREE ENERGY PREDICTED BY IDOCK:   -3.55 KCAL/MOL
REMARK 923 INTER-LIGAND FREE ENERGY PREDICTED BY IDOCK:   -4.58 KCAL/MOL
REMARK 924 INTRA-LIGAND FREE ENERGY PREDICTED BY IDOCK:    1.03 KCAL/MOL
REMARK 927      BINDING AFFINITY PREDICTED BY RF-SCORE:    0.00 PKD
ROOT
HETATM    1  C   UNL     1      -6.308  10.652  67.028  1.00  0.00    -0.073 C  
HETATM    2  C   UNL     1      -5.840  11.960  66.763  1.00  0.00    -0.059 C  
HETATM    3  C   UNL     1      -6.894  11.901  67.824  1.00  0.00    -0.094 C  
HETATM    4  C   UNL     1      -7.382  10.053  68.604  1.00  0.00    -0.081 C  
HETATM    5  C   UNL     1     -12.099  13.136  65.022  1.00  0.00    -0.458 C  
HETATM    6  O   UNL     1      -6.687   8.826  68.151  1.00  0.00    -0.063 OA 
HETATM    7  C   UNL     1      -6.445  10.974  68.936  1.00  0.00    -0.054 C  
HETATM    8  C   UNL     1      -8.111  11.787  69.511  1.00  0.00     0.792 C  
HETATM    9  H   UNL     1      -6.911   7.975  68.510  1.00  0.00     0.000 HD 
HETATM   10  C   UNL     1     -10.181  11.128  64.315  1.00  0.00    -0.399 C  
HETATM   11  O   UNL     1     -13.324  12.088  63.237  1.00  0.00    -0.524 OA 
HETATM   12  C   UNL     1      -5.127  10.901  69.682  1.00  0.00    -0.038 C  
HETATM   13  C   UNL     1      -9.427  11.361  68.387  1.00  0.00    -0.194 C  
HETATM   14  C   UNL     1      -8.953  10.377  63.863  1.00  0.00    -0.247 C  
HETATM   15  O   UNL     1      -9.877  10.066  68.823  1.00  0.00    -0.156 OA 
HETATM   16  C   UNL     1     -12.266  12.250  63.832  1.00  0.00    -0.515 C  
HETATM   17  C   UNL     1      -9.193  11.327  66.719  1.00  0.00    -0.186 C  
HETATM   18  C   UNL     1     -11.267   9.839  66.086  1.00  0.00     1.179 C  
HETATM   19  C   UNL     1     -11.025  11.601  63.376  1.00  0.00    -0.442 C  
HETATM   20  H   UNL     1     -10.579   9.839  68.223  1.00  0.00     0.000 HD 
HETATM   21  C   UNL     1      -7.902  10.434  66.188  1.00  0.00    -0.135 C  
HETATM   22  C   UNL     1      -7.709  10.692  64.681  1.00  0.00     0.118 C  
HETATM   23  C   UNL     1     -10.516  11.161  65.827  1.00  0.00    -0.305 C  
HETATM   24  C   UNL     1     -11.497  12.354  66.186  1.00  0.00    -0.430 C  
ENDROOT
BRANCH   4  25
HETATM   25  C   UNL     1      -7.475   9.407  70.240  1.00  0.00    -0.128 C  
HETATM   26  O   UNL     1      -7.040   9.953  71.273  1.00  0.00    -0.293 OA 
BRANCH  25  27
HETATM   27  C   UNL     1      -8.091   8.004  70.456  1.00  0.00    -0.105 C  
BRANCH  27  28
HETATM   28  O   UNL     1      -9.545   8.076  70.388  1.00  0.00    -0.173 OA 
BRANCH  28  29
HETATM   29  C   UNL     1     -10.215   6.890  70.381  1.00  0.00    -0.192 C  
HETATM   30  O   UNL     1     -11.386   6.760  70.056  1.00  0.00    -0.318 OA 
BRANCH  29  31
HETATM   31  C   UNL     1      -9.365   5.748  70.888  1.00  0.00    -0.185 C  
BRANCH  31  32
HETATM   32  C   UNL     1      -9.518   5.494  72.380  1.00  0.00    -0.160 C  
HETATM   33  C   UNL     1     -10.799   4.794  72.761  1.00  0.00    -0.210 C  
HETATM   34  O   UNL     1     -11.897   5.569  72.730  1.00  0.00    -0.271 OA 
HETATM   35  O   UNL     1     -10.835   3.619  73.122  1.00  0.00    -0.181 OA 
ENDBRANCH  31  32
ENDBRANCH  29  31
ENDBRANCH  28  29
ENDBRANCH  27  28
ENDBRANCH  25  27
ENDBRANCH   4  25
TORSDOF 6
ENDMDL
MODEL      146
REMARK 921   NORMALIZED FREE ENERGY PREDICTED BY IDOCK:   -2.03 KCAL/MOL
REMARK 922        TOTAL FREE ENERGY PREDICTED BY IDOCK:   -3.47 KCAL/MOL
REMARK 923 INTER-LIGAND FREE ENERGY PREDICTED BY IDOCK:   -3.54 KCAL/MOL
REMARK 924 INTRA-LIGAND FREE ENERGY PREDICTED BY IDOCK:    0.07 KCAL/MOL
REMARK 927      BINDING AFFINITY PREDICTED BY RF-SCORE:    0.00 PKD
ROOT
HETATM    1  C   UNL     1      -6.957   4.625  71.129  1.00  0.00    -0.039 C  
HETATM    2  C   UNL     1      -5.613   4.211  70.980  1.00  0.00    -0.012 C  
HETATM    3  C   UNL     1      -5.761   5.654  71.347  1.00  0.00    -0.020 C  
HETATM    4  C   UNL     1      -7.612   6.307  71.989  1.00  0.00    -0.096 C  
HETATM    5  C   UNL     1      -5.451   8.697  66.140  1.00  0.00    -0.034 C  
HETATM    6  O   UNL     1      -8.750   5.367  72.114  1.00  0.00    -0.129 OA 
HETATM    7  C   UNL     1      -6.548   5.773  72.637  1.00  0.00    -0.067 C  
HETATM    8  C   UNL     1      -5.951   7.559  72.167  1.00  0.00    -0.039 C  
HETATM    9  H   UNL     1      -9.602   5.667  72.409  1.00  0.00     0.000 HD 
HETATM   10  C   UNL     1      -7.200   6.518  66.776  1.00  0.00    -0.077 C  
HETATM   11  O   UNL     1      -6.767   8.697  64.126  1.00  0.00    -0.075 OA 
HETATM   12  C   UNL     1      -6.387   5.044  73.957  1.00  0.00    -0.065 C  
HETATM   13  C   UNL     1      -6.626   8.042  70.590  1.00  0.00    -0.037 C  
HETATM   14  C   UNL     1      -7.793   5.173  67.117  1.00  0.00    -0.096 C  
HETATM   15  O   UNL     1      -7.945   8.533  70.890  1.00  0.00    -0.089 OA 
HETATM   16  C   UNL     1      -6.421   8.131  65.154  1.00  0.00    -0.052 C  
HETATM   17  C   UNL     1      -6.723   6.965  69.299  1.00  0.00    -0.050 C  
HETATM   18  C   UNL     1      -8.527   8.249  67.881  1.00  0.00    -0.132 C  
HETATM   19  C   UNL     1      -6.909   6.781  65.486  1.00  0.00    -0.052 C  
HETATM   20  H   UNL     1      -8.305   8.790  70.049  1.00  0.00     0.000 HD 
HETATM   21  C   UNL     1      -7.450   5.512  69.623  1.00  0.00    -0.070 C  
HETATM   22  C   UNL     1      -7.255   4.579  68.411  1.00  0.00    -0.060 C  
HETATM   23  C   UNL     1      -7.129   7.600  67.882  1.00  0.00    -0.085 C  
HETATM   24  C   UNL     1      -6.070   8.728  67.534  1.00  0.00    -0.051 C  
ENDROOT
BRANCH   4  25
HETATM   25  C   UNL     1      -8.168   7.186  73.410  1.00  0.00    -0.109 C  
HETATM   26  O   UNL     1      -7.688   7.110  74.557  1.00  0.00    -0.118 OA 
BRANCH  25  27
HETATM   27  C   UNL     1      -9.407   8.104  73.283  1.00  0.00    -0.238 C  
BRANCH  27  28
HETATM   28  O   UNL     1     -10.459   7.431  72.531  1.00  0.00    -0.206 OA 
BRANCH  28  29
HETATM   29  C   UNL     1     -11.522   8.192  72.153  1.00  0.00    -0.350 C  
HETATM   30  O   UNL     1     -12.203   8.858  72.921  1.00  0.00    -0.133 OA 
BRANCH  29  31
HETATM   31  C   UNL     1     -11.818   8.074  70.676  1.00  0.00    -0.102 C  
BRANCH  31  32
HETATM   32  C   UNL     1     -12.228   6.672  70.251  1.00  0.00    -0.049 C  
HETATM   33  C   UNL     1     -11.172   5.930  69.469  1.00  0.00    -0.229 C  
HETATM   34  O   UNL     1     -11.029   6.328  68.193  1.00  0.00    -0.302 OA 
HETATM   35  O   UNL     1     -10.525   4.997  69.941  1.00  0.00    -0.280 OA 
ENDBRANCH  31  32
ENDBRANCH  29  31
ENDBRANCH  28  29
ENDBRANCH  27  28
ENDBRANCH  25  27
ENDBRANCH   4  25
TORSDOF 6
ENDMDL
MODEL      147
REMARK 921   NORMALIZED FREE ENERGY PREDICTED BY IDOCK:   -1.73 KCAL/MOL
REMARK 922        TOTAL FREE ENERGY PREDICTED BY IDOCK:   -3.07 KCAL/MOL
REMARK 923 INTER-LIGAND FREE ENERGY PREDICTED BY IDOCK:   -3.94 KCAL/MOL
REMARK 924 INTRA-LIGAND FREE ENERGY PREDICTED BY IDOCK:    0.87 KCAL/MOL
REMARK 927      BINDING AFFINITY PREDICTED BY RF-SCORE:    0.00 PKD
ROOT
HETATM    1  C   UNL     1      -8.868  13.556  67.892  1.00  0.00    -0.190 C  
HETATM    2  C   UNL     1      -8.706  14.342  69.057  1.00  0.00     0.060 C  
HETATM    3  C   UNL     1      -7.851  13.112  69.034  1.00  0.00     0.233 C  
HETATM    4  C   UNL     1      -7.672  12.088  67.251  1.00  0.00    -0.168 C  
HETATM    5  C   UNL     1     -10.891   8.961  72.197  1.00  0.00    -0.339 C  
HETATM    6  O   UNL     1      -8.342  12.573  66.023  1.00  0.00    -0.177 OA 
HETATM    7  C   UNL     1      -6.981  13.120  67.793  1.00  0.00    -0.145 C  
HETATM    8  C   UNL     1      -6.438  11.593  68.861  1.00  0.00    -0.071 C  
HETATM    9  H   UNL     1      -8.260  12.101  65.202  1.00  0.00     0.000 HD 
HETATM   10  C   UNL     1     -11.848  10.494  69.973  1.00  0.00    -0.388 C  
HETATM   11  O   UNL     1     -13.040   7.913  71.942  1.00  0.00    -0.317 OA 
HETATM   12  C   UNL     1      -6.112  14.216  67.210  1.00  0.00     0.469 C  
HETATM   13  C   UNL     1      -7.802  10.463  69.063  1.00  0.00    -0.120 C  
HETATM   14  C   UNL     1     -12.317  11.591  69.050  1.00  0.00    -0.003 C  
HETATM   15  O   UNL     1      -7.796   9.663  67.867  1.00  0.00    -0.087 OA 
HETATM   16  C   UNL     1     -12.287   8.842  71.681  1.00  0.00    -0.337 C  
HETATM   17  C   UNL     1      -9.370  11.007  69.351  1.00  0.00     0.160 C  
HETATM   18  C   UNL     1     -10.654   8.824  68.644  1.00  0.00    -0.174 C  
HETATM   19  C   UNL     1     -12.730   9.976  70.852  1.00  0.00    -0.414 C  
HETATM   20  H   UNL     1      -8.524   9.061  67.975  1.00  0.00     0.000 HD 
HETATM   21  C   UNL     1      -9.943  12.150  68.297  1.00  0.00    -0.212 C  
HETATM   22  C   UNL     1     -11.284  12.688  68.832  1.00  0.00    -0.329 C  
HETATM   23  C   UNL     1     -10.443   9.882  69.746  1.00  0.00    -0.292 C  
HETATM   24  C   UNL     1      -9.911   9.135  71.040  1.00  0.00    -0.366 C  
ENDROOT
BRANCH   4  25
HETATM   25  C   UNL     1      -6.299  11.535  66.296  1.00  0.00     0.097 C  
HETATM   26  O   UNL     1      -5.157  12.033  66.294  1.00  0.00    -0.320 OA 
BRANCH  25  27
HETATM   27  C   UNL     1      -6.501  10.363  65.306  1.00  0.00    -0.105 C  
BRANCH  27  28
HETATM   28  O   UNL     1      -5.421   9.394  65.446  1.00  0.00    -0.043 OA 
BRANCH  28  29
HETATM   29  C   UNL     1      -5.657   8.333  66.266  1.00  0.00    -0.035 C  
HETATM   30  O   UNL     1      -5.404   8.315  67.462  1.00  0.00    -0.032 OA 
BRANCH  29  31
HETATM   31  C   UNL     1      -6.209   7.141  65.519  1.00  0.00    -0.037 C  
BRANCH  31  32
HETATM   32  C   UNL     1      -7.328   6.426  66.261  1.00  0.00    -0.080 C  
HETATM   33  C   UNL     1      -6.876   5.680  67.492  1.00  0.00    -0.060 C  
HETATM   34  O   UNL     1      -6.233   4.525  67.249  1.00  0.00    -0.036 OA 
HETATM   35  O   UNL     1      -7.120   6.068  68.634  1.00  0.00    -0.076 OA 
ENDBRANCH  31  32
ENDBRANCH  29  31
ENDBRANCH  28  29
ENDBRANCH  27  28
ENDBRANCH  25  27
ENDBRANCH   4  25
TORSDOF 6
ENDMDL
MODEL      148
REMARK 921   NORMALIZED FREE ENERGY PREDICTED BY IDOCK:   -1.26 KCAL/MOL
REMARK 922        TOTAL FREE ENERGY PREDICTED BY IDOCK:   -2.43 KCAL/MOL
REMARK 923 INTER-LIGAND FREE ENERGY PREDICTED BY IDOCK:   -2.98 KCAL/MOL
REMARK 924 INTRA-LIGAND FREE ENERGY PREDICTED BY IDOCK:    0.55 KCAL/MOL
REMARK 927      BINDING AFFINITY PREDICTED BY RF-SCORE:    0.00 PKD
ROOT
HETATM    1  C   UNL     1     -10.448   8.579  68.196  1.00  0.00    -0.236 C  
HETATM    2  C   UNL     1     -10.421   8.368  66.798  1.00  0.00    -0.315 C  
HETATM    3  C   UNL     1      -9.171   7.934  67.498  1.00  0.00    -0.152 C  
HETATM    4  C   UNL     1      -9.208   7.801  69.558  1.00  0.00    -0.149 C  
HETATM    5  C   UNL     1      -5.305  12.539  66.930  1.00  0.00     0.270 C  
HETATM    6  O   UNL     1     -10.445   8.094  70.318  1.00  0.00    -0.210 OA 
HETATM    7  C   UNL     1      -9.514   6.922  68.573  1.00  0.00    -0.133 C  
HETATM    8  C   UNL     1      -7.578   7.039  68.498  1.00  0.00    -0.115 C  
HETATM    9  H   UNL     1     -10.463   8.032  71.266  1.00  0.00     0.000 HD 
HETATM   10  C   UNL     1      -7.975  12.631  67.967  1.00  0.00    -0.155 C  
HETATM   11  O   UNL     1      -5.333  14.839  67.633  1.00  0.00    -0.306 OA 
HETATM   12  C   UNL     1     -10.385   5.682  68.512  1.00  0.00    -0.265 C  
HETATM   13  C   UNL     1      -7.044   8.695  68.884  1.00  0.00    -0.066 C  
HETATM   14  C   UNL     1      -9.472  12.597  68.149  1.00  0.00    -0.218 C  
HETATM   15  O   UNL     1      -7.019   8.747  70.321  1.00  0.00    -0.039 OA 
HETATM   16  C   UNL     1      -5.946  13.809  67.385  1.00  0.00     0.213 C  
HETATM   17  C   UNL     1      -7.858  10.049  68.300  1.00  0.00    -0.089 C  
HETATM   18  C   UNL     1      -6.927  11.809  70.017  1.00  0.00     0.484 C  
HETATM   19  C   UNL     1      -7.416  13.753  67.470  1.00  0.00    -0.182 C  
HETATM   20  H   UNL     1      -6.734   9.631  70.526  1.00  0.00     0.000 HD 
HETATM   21  C   UNL     1      -9.494  10.079  68.566  1.00  0.00    -0.150 C  
HETATM   22  C   UNL     1     -10.101  11.259  67.783  1.00  0.00    -0.199 C  
HETATM   23  C   UNL     1      -7.131  11.460  68.529  1.00  0.00    -0.085 C  
HETATM   24  C   UNL     1      -5.701  11.386  67.848  1.00  0.00    -0.044 C  
ENDROOT
BRANCH   4  25
HETATM   25  C   UNL     1      -8.793   6.530  70.704  1.00  0.00    -0.144 C  
HETATM   26  O   UNL     1      -7.702   6.398  71.293  1.00  0.00    -0.093 OA 
BRANCH  25  27
HETATM   27  C   UNL     1      -9.826   5.414  70.991  1.00  0.00    -0.187 C  
BRANCH  27  28
HETATM   28  O   UNL     1      -9.152   4.213  71.466  1.00  0.00    -0.114 OA 
BRANCH  28  29
HETATM   29  C   UNL     1      -8.944   3.227  70.550  1.00  0.00    -0.096 C  
HETATM   30  O   UNL     1      -9.819   2.736  69.852  1.00  0.00     0.014 OA 
BRANCH  29  31
HETATM   31  C   UNL     1      -7.509   2.751  70.534  1.00  0.00    -0.040 C  
BRANCH  31  32
HETATM   32  C   UNL     1      -6.653   3.442  69.484  1.00  0.00    -0.034 C  
HETATM   33  C   UNL     1      -6.855   2.922  68.082  1.00  0.00    -0.048 C  
HETATM   34  O   UNL     1      -6.286   1.730  67.833  1.00  0.00    -0.024 OA 
HETATM   35  O   UNL     1      -7.450   3.559  67.214  1.00  0.00    -0.072 OA 
ENDBRANCH  31  32
ENDBRANCH  29  31
ENDBRANCH  28  29
ENDBRANCH  27  28
ENDBRANCH  25  27
ENDBRANCH   4  25
TORSDOF 6
ENDMDL
MODEL      149
REMARK 921   NORMALIZED FREE ENERGY PREDICTED BY IDOCK:   -0.99 KCAL/MOL
REMARK 922        TOTAL FREE ENERGY PREDICTED BY IDOCK:   -2.07 KCAL/MOL
REMARK 923 INTER-LIGAND FREE ENERGY PREDICTED BY IDOCK:   -2.25 KCAL/MOL
REMARK 924 INTRA-LIGAND FREE ENERGY PREDICTED BY IDOCK:    0.18 KCAL/MOL
REMARK 927      BINDING AFFINITY PREDICTED BY RF-SCORE:    0.00 PKD
ROOT
HETATM    1  C   UNL     1     -10.361  11.974  69.288  1.00  0.00     0.163 C  
HETATM    2  C   UNL     1     -11.714  12.382  69.245  1.00  0.00    -0.386 C  
HETATM    3  C   UNL     1     -11.087  12.230  67.894  1.00  0.00    -0.290 C  
HETATM    4  C   UNL     1      -9.266  11.264  67.773  1.00  0.00    -0.156 C  
HETATM    5  C   UNL     1      -9.313  17.776  66.293  1.00  0.00    -0.219 C  
HETATM    6  O   UNL     1      -8.616  10.709  68.982  1.00  0.00    -0.148 OA 
HETATM    7  C   UNL     1     -10.547  10.822  67.739  1.00  0.00    -0.266 C  
HETATM    8  C   UNL     1     -10.323  11.710  66.028  1.00  0.00    -0.283 C  
HETATM    9  H   UNL     1      -7.778  10.264  68.927  1.00  0.00     0.000 HD 
HETATM   10  C   UNL     1      -8.671  16.378  68.711  1.00  0.00    -0.246 C  
HETATM   11  O   UNL     1      -7.776  19.372  67.228  1.00  0.00    -0.242 OA 
HETATM   12  C   UNL     1     -11.198   9.483  68.026  1.00  0.00     0.082 C  
HETATM   13  C   UNL     1      -9.256  13.127  66.202  1.00  0.00     0.016 C  
HETATM   14  C   UNL     1      -8.709  15.687  70.051  1.00  0.00     0.451 C  
HETATM   15  O   UNL     1      -7.922  12.594  66.130  1.00  0.00     0.057 OA 
HETATM   16  C   UNL     1      -8.483  18.384  67.376  1.00  0.00    -0.253 C  
HETATM   17  C   UNL     1      -9.362  14.161  67.529  1.00  0.00    -0.204 C  
HETATM   18  C   UNL     1      -6.990  15.276  67.319  1.00  0.00    -0.152 C  
HETATM   19  C   UNL     1      -8.615  17.725  68.687  1.00  0.00    -0.264 C  
HETATM   20  H   UNL     1      -7.353  13.350  66.224  1.00  0.00     0.000 HD 
HETATM   21  C   UNL     1      -9.316  13.433  69.017  1.00  0.00     0.363 C  
HETATM   22  C   UNL     1      -9.645  14.487  70.093  1.00  0.00     0.959 C  
HETATM   23  C   UNL     1      -8.509  15.516  67.434  1.00  0.00    -0.199 C  
HETATM   24  C   UNL     1      -8.977  16.296  66.135  1.00  0.00    -0.374 C  
ENDROOT
BRANCH   4  25
HETATM   25  C   UNL     1      -8.665   9.913  66.817  1.00  0.00    -0.128 C  
HETATM   26  O   UNL     1      -8.592   9.866  65.574  1.00  0.00    -0.134 OA 
BRANCH  25  27
HETATM   27  C   UNL     1      -8.236   8.616  67.543  1.00  0.00    -0.110 C  
BRANCH  27  28
HETATM   28  O   UNL     1      -6.805   8.394  67.373  1.00  0.00    -0.068 OA 
BRANCH  28  29
HETATM   29  C   UNL     1      -6.062   8.304  68.511  1.00  0.00    -0.045 C  
HETATM   30  O   UNL     1      -5.699   9.263  69.177  1.00  0.00    -0.036 OA 
BRANCH  29  31
HETATM   31  C   UNL     1      -5.673   6.879  68.831  1.00  0.00    -0.018 C  
BRANCH  31  32
HETATM   32  C   UNL     1      -6.609   6.202  69.820  1.00  0.00    -0.047 C  
HETATM   33  C   UNL     1      -6.234   4.779  70.152  1.00  0.00    -0.026 C  
HETATM   34  O   UNL     1      -6.520   3.881  69.193  1.00  0.00    -0.032 OA 
HETATM   35  O   UNL     1      -5.752   4.451  71.235  1.00  0.00    -0.014 OA 
ENDBRANCH  31  32
ENDBRANCH  29  31
ENDBRANCH  28  29
ENDBRANCH  27  28
ENDBRANCH  25  27
ENDBRANCH   4  25
TORSDOF 6
ENDMDL
MODEL      150
REMARK 921   NORMALIZED FREE ENERGY PREDICTED BY IDOCK:   -0.88 KCAL/MOL
REMARK 922        TOTAL FREE ENERGY PREDICTED BY IDOCK:   -1.92 KCAL/MOL
REMARK 923 INTER-LIGAND FREE ENERGY PREDICTED BY IDOCK:   -3.49 KCAL/MOL
REMARK 924 INTRA-LIGAND FREE ENERGY PREDICTED BY IDOCK:    1.57 KCAL/MOL
REMARK 927      BINDING AFFINITY PREDICTED BY RF-SCORE:    0.00 PKD
ROOT
HETATM    1  C   UNL     1      -7.320   5.144  70.489  1.00  0.00    -0.066 C  
HETATM    2  C   UNL     1      -6.166   4.351  70.285  1.00  0.00    -0.022 C  
HETATM    3  C   UNL     1      -6.089   5.704  69.649  1.00  0.00    -0.025 C  
HETATM    4  C   UNL     1      -7.500   7.111  70.187  1.00  0.00    -0.089 C  
HETATM    5  C   UNL     1      -7.726   4.891  63.894  1.00  0.00    -0.077 C  
HETATM    6  O   UNL     1      -8.538   6.802  71.198  1.00  0.00    -0.131 OA 
HETATM    7  C   UNL     1      -6.293   6.774  70.703  1.00  0.00    -0.043 C  
HETATM    8  C   UNL     1      -5.847   7.683  69.047  1.00  0.00    -0.030 C  
HETATM    9  H   UNL     1      -9.188   7.450  71.445  1.00  0.00     0.000 HD 
HETATM   10  C   UNL     1      -9.181   4.117  66.238  1.00  0.00    -0.156 C  
HETATM   11  O   UNL     1      -9.731   4.103  62.824  1.00  0.00    -0.144 OA 
HETATM   12  C   UNL     1      -5.656   6.942  72.069  1.00  0.00    -0.037 C  
HETATM   13  C   UNL     1      -7.069   7.328  67.799  1.00  0.00    -0.089 C  
HETATM   14  C   UNL     1      -9.652   3.467  67.515  1.00  0.00    -0.152 C  
HETATM   15  O   UNL     1      -8.136   8.259  68.054  1.00  0.00    -0.124 OA 
HETATM   16  C   UNL     1      -9.033   4.170  63.827  1.00  0.00    -0.130 C  
HETATM   17  C   UNL     1      -7.721   5.786  67.608  1.00  0.00    -0.097 C  
HETATM   18  C   UNL     1      -9.877   6.461  66.262  1.00  0.00    -0.049 C  
HETATM   19  C   UNL     1      -9.413   3.481  65.072  1.00  0.00    -0.159 C  
HETATM   20  H   UNL     1      -8.787   8.069  67.388  1.00  0.00     0.000 HD 
HETATM   21  C   UNL     1      -8.328   5.084  68.980  1.00  0.00    -0.086 C  
HETATM   22  C   UNL     1      -8.674   3.614  68.672  1.00  0.00    -0.139 C  
HETATM   23  C   UNL     1      -8.625   5.562  66.302  1.00  0.00    -0.125 C  
HETATM   24  C   UNL     1      -7.739   5.907  65.032  1.00  0.00    -0.095 C  
ENDROOT
BRANCH   4  25
HETATM   25  C   UNL     1      -7.405   8.768  70.777  1.00  0.00    -0.080 C  
HETATM   26  O   UNL     1      -7.745   9.167  71.908  1.00  0.00    -0.339 OA 
BRANCH  25  27
HETATM   27  C   UNL     1      -6.919   9.878  69.815  1.00  0.00    -0.095 C  
BRANCH  27  28
HETATM   28  O   UNL     1      -8.006  10.804  69.523  1.00  0.00    -0.118 OA 
BRANCH  28  29
HETATM   29  C   UNL     1      -7.864  11.581  68.414  1.00  0.00    -0.136 C  
HETATM   30  O   UNL     1      -8.416  12.660  68.251  1.00  0.00    -0.169 OA 
BRANCH  29  31
HETATM   31  C   UNL     1      -6.993  10.931  67.364  1.00  0.00    -0.084 C  
BRANCH  31  32
HETATM   32  C   UNL     1      -7.533  11.082  65.951  1.00  0.00     0.019 C  
HETATM   33  C   UNL     1      -8.004   9.790  65.327  1.00  0.00    -0.123 C  
HETATM   34  O   UNL     1      -7.021   8.970  64.917  1.00  0.00    -0.076 OA 
HETATM   35  O   UNL     1      -9.193   9.526  65.157  1.00  0.00    -0.224 OA 
ENDBRANCH  31  32
ENDBRANCH  29  31
ENDBRANCH  28  29
ENDBRANCH  27  28
ENDBRANCH  25  27
ENDBRANCH   4  25
TORSDOF 6
ENDMDL
MODEL      151
REMARK 921   NORMALIZED FREE ENERGY PREDICTED BY IDOCK:   -0.72 KCAL/MOL
REMARK 922        TOTAL FREE ENERGY PREDICTED BY IDOCK:   -1.70 KCAL/MOL
REMARK 923 INTER-LIGAND FREE ENERGY PREDICTED BY IDOCK:   -2.93 KCAL/MOL
REMARK 924 INTRA-LIGAND FREE ENERGY PREDICTED BY IDOCK:    1.23 KCAL/MOL
REMARK 927      BINDING AFFINITY PREDICTED BY RF-SCORE:    0.00 PKD
ROOT
HETATM    1  C   UNL     1     -10.732   7.729  67.957  1.00  0.00    -0.130 C  
HETATM    2  C   UNL     1     -10.660   7.533  66.558  1.00  0.00     0.113 C  
HETATM    3  C   UNL     1      -9.409   7.149  67.286  1.00  0.00    -0.156 C  
HETATM    4  C   UNL     1      -9.492   6.995  69.343  1.00  0.00    -0.145 C  
HETATM    5  C   UNL     1      -5.745  11.930  66.854  1.00  0.00    -0.114 C  
HETATM    6  O   UNL     1     -10.759   7.224  70.074  1.00  0.00    -0.234 OA 
HETATM    7  C   UNL     1      -9.733   6.113  68.343  1.00  0.00    -0.133 C  
HETATM    8  C   UNL     1      -7.803   6.318  68.319  1.00  0.00    -0.105 C  
HETATM    9  H   UNL     1     -10.797   7.153  71.021  1.00  0.00     0.000 HD 
HETATM   10  C   UNL     1      -8.441  11.891  67.824  1.00  0.00    -0.154 C  
HETATM   11  O   UNL     1      -5.896  14.220  67.575  1.00  0.00    -0.343 OA 
HETATM   12  C   UNL     1     -10.544   4.835  68.250  1.00  0.00     0.323 C  
HETATM   13  C   UNL     1      -7.354   7.993  68.731  1.00  0.00    -0.085 C  
HETATM   14  C   UNL     1      -9.939  11.787  67.968  1.00  0.00    -0.191 C  
HETATM   15  O   UNL     1      -7.367   8.033  70.169  1.00  0.00    -0.059 OA 
HETATM   16  C   UNL     1      -6.455  13.165  67.303  1.00  0.00     0.080 C  
HETATM   17  C   UNL     1      -8.215   9.314  68.138  1.00  0.00    -0.119 C  
HETATM   18  C   UNL     1      -7.408  11.098  69.893  1.00  0.00     0.267 C  
HETATM   19  C   UNL     1      -7.922  13.042  67.350  1.00  0.00    -0.173 C  
HETATM   20  H   UNL     1      -7.128   8.926  70.389  1.00  0.00     0.000 HD 
HETATM   21  C   UNL     1      -9.856   9.267  68.364  1.00  0.00    -0.173 C  
HETATM   22  C   UNL     1     -10.497  10.426  67.576  1.00  0.00    -0.292 C  
HETATM   23  C   UNL     1      -7.559  10.755  68.397  1.00  0.00    -0.102 C  
HETATM   24  C   UNL     1      -6.110  10.752  67.752  1.00  0.00    -0.047 C  
ENDROOT
BRANCH   4  25
HETATM   25  C   UNL     1      -9.047   5.733  70.489  1.00  0.00    -0.147 C  
HETATM   26  O   UNL     1      -7.940   5.603  71.047  1.00  0.00    -0.106 OA 
BRANCH  25  27
HETATM   27  C   UNL     1     -10.075   4.624  70.816  1.00  0.00    -0.194 C  
BRANCH  27  28
HETATM   28  O   UNL     1     -10.084   4.351  72.248  1.00  0.00    -0.177 OA 
BRANCH  28  29
HETATM   29  C   UNL     1      -9.341   3.291  72.671  1.00  0.00    -0.102 C  
HETATM   30  O   UNL     1      -9.504   2.139  72.294  1.00  0.00    -0.085 OA 
BRANCH  29  31
HETATM   31  C   UNL     1      -8.326   3.683  73.720  1.00  0.00    -0.083 C  
BRANCH  31  32
HETATM   32  C   UNL     1      -6.886   3.547  73.251  1.00  0.00    -0.040 C  
HETATM   33  C   UNL     1      -6.417   2.120  73.098  1.00  0.00    -0.013 C  
HETATM   34  O   UNL     1      -6.152   1.487  74.253  1.00  0.00    -0.004 OA 
HETATM   35  O   UNL     1      -6.240   1.590  72.003  1.00  0.00    -0.012 OA 
ENDBRANCH  31  32
ENDBRANCH  29  31
ENDBRANCH  28  29
ENDBRANCH  27  28
ENDBRANCH  25  27
ENDBRANCH   4  25
TORSDOF 6
ENDMDL
MODEL      152
REMARK 921   NORMALIZED FREE ENERGY PREDICTED BY IDOCK:   -0.16 KCAL/MOL
REMARK 922        TOTAL FREE ENERGY PREDICTED BY IDOCK:   -0.96 KCAL/MOL
REMARK 923 INTER-LIGAND FREE ENERGY PREDICTED BY IDOCK:   -3.32 KCAL/MOL
REMARK 924 INTRA-LIGAND FREE ENERGY PREDICTED BY IDOCK:    2.37 KCAL/MOL
REMARK 927      BINDING AFFINITY PREDICTED BY RF-SCORE:    0.00 PKD
ROOT
HETATM    1  C   UNL     1      -9.403  14.520  65.774  1.00  0.00    -0.035 C  
HETATM    2  C   UNL     1     -10.791  14.375  65.540  1.00  0.00    -0.335 C  
HETATM    3  C   UNL     1     -10.451  14.729  66.955  1.00  0.00    -0.277 C  
HETATM    4  C   UNL     1      -8.530  15.365  67.361  1.00  0.00    -0.181 C  
HETATM    5  C   UNL     1     -10.358   9.493  69.962  1.00  0.00    -0.284 C  
HETATM    6  O   UNL     1      -7.527  15.499  66.280  1.00  0.00    -0.077 OA 
HETATM    7  C   UNL     1      -9.654  16.017  66.980  1.00  0.00    -0.229 C  
HETATM    8  C   UNL     1     -10.009  15.531  68.825  1.00  0.00    -0.214 C  
HETATM    9  H   UNL     1      -6.642  15.792  66.467  1.00  0.00     0.000 HD 
HETATM   10  C   UNL     1      -8.914  10.150  67.576  1.00  0.00    -0.136 C  
HETATM   11  O   UNL     1      -9.056   7.480  69.769  1.00  0.00    -0.141 OA 
HETATM   12  C   UNL     1      -9.910  17.344  66.291  1.00  0.00    -0.291 C  
HETATM   13  C   UNL     1      -9.277  13.950  69.199  1.00  0.00     0.345 C  
HETATM   14  C   UNL     1      -8.506  10.503  66.168  1.00  0.00    -0.154 C  
HETATM   15  O   UNL     1      -7.905  14.245  69.513  1.00  0.00    -0.358 OA 
HETATM   16  C   UNL     1      -9.474   8.513  69.263  1.00  0.00    -0.158 C  
HETATM   17  C   UNL     1      -9.325  12.668  68.106  1.00  0.00    -0.210 C  
HETATM   18  C   UNL     1      -7.368  11.239  69.126  1.00  0.00    -0.104 C  
HETATM   19  C   UNL     1      -9.169   8.858  67.864  1.00  0.00    -0.148 C  
HETATM   20  H   UNL     1      -7.514  13.402  69.712  1.00  0.00     0.000 HD 
HETATM   21  C   UNL     1      -8.797  13.007  66.573  1.00  0.00    -0.009 C  
HETATM   22  C   UNL     1      -9.116  11.804  65.663  1.00  0.00    -0.034 C  
HETATM   23  C   UNL     1      -8.840  11.246  68.668  1.00  0.00    -0.141 C  
HETATM   24  C   UNL     1      -9.739  10.887  69.924  1.00  0.00     0.558 C  
ENDROOT
BRANCH   4  25
HETATM   25  C   UNL     1      -7.860  16.778  68.172  1.00  0.00    -0.182 C  
HETATM   26  O   UNL     1      -6.746  16.848  68.726  1.00  0.00    -0.169 OA 
BRANCH  25  27
HETATM   27  C   UNL     1      -8.726  18.055  68.286  1.00  0.00    -0.283 C  
BRANCH  27  28
HETATM   28  O   UNL     1      -7.894  19.242  68.133  1.00  0.00    -0.285 OA 
BRANCH  28  29
HETATM   29  C   UNL     1      -7.488  19.854  69.279  1.00  0.00    -0.102 C  
HETATM   30  O   UNL     1      -8.186  19.991  70.274  1.00  0.00     0.713 OA 
BRANCH  29  31
HETATM   31  C   UNL     1      -6.088  20.413  69.167  1.00  0.00    -0.372 C  
BRANCH  31  32
HETATM   32  C   UNL     1      -5.148  19.913  70.253  1.00  0.00    -0.227 C  
HETATM   33  C   UNL     1      -5.835  19.538  71.543  1.00  0.00    -0.121 C  
HETATM   34  O   UNL     1      -6.229  20.580  72.296  1.00  0.00    -0.336 OA 
HETATM   35  O   UNL     1      -5.980  18.373  71.907  1.00  0.00     0.652 OA 
ENDBRANCH  31  32
ENDBRANCH  29  31
ENDBRANCH  28  29
ENDBRANCH  27  28
ENDBRANCH  25  27
ENDBRANCH   4  25
TORSDOF 6
ENDMDL
MODEL      153
REMARK 921   NORMALIZED FREE ENERGY PREDICTED BY IDOCK:    1.18 KCAL/MOL
REMARK 922        TOTAL FREE ENERGY PREDICTED BY IDOCK:    0.86 KCAL/MOL
REMARK 923 INTER-LIGAND FREE ENERGY PREDICTED BY IDOCK:    0.48 KCAL/MOL
REMARK 924 INTRA-LIGAND FREE ENERGY PREDICTED BY IDOCK:    0.38 KCAL/MOL
REMARK 927      BINDING AFFINITY PREDICTED BY RF-SCORE:    0.00 PKD
ROOT
HETATM    1  C   UNL     1     -10.399  12.462  65.694  1.00  0.00    -0.284 C  
HETATM    2  C   UNL     1      -9.679  13.602  65.265  1.00  0.00    -0.025 C  
HETATM    3  C   UNL     1      -9.051  12.893  66.425  1.00  0.00    -0.083 C  
HETATM    4  C   UNL     1      -9.749  11.010  66.904  1.00  0.00    -0.188 C  
HETATM    5  C   UNL     1     -10.911  15.859  71.346  1.00  0.00     0.015 C  
HETATM    6  O   UNL     1     -10.816  10.366  66.103  1.00  0.00    -0.073 OA 
HETATM    7  C   UNL     1      -8.787  11.447  66.055  1.00  0.00    -0.177 C  
HETATM    8  C   UNL     1      -8.015  11.736  67.812  1.00  0.00    -0.141 C  
HETATM    9  H   UNL     1     -11.137   9.499  66.324  1.00  0.00     0.000 HD 
HETATM   10  C   UNL     1     -12.542  14.752  69.265  1.00  0.00     0.094 C  
HETATM   11  O   UNL     1     -13.069  16.297  72.315  1.00  0.00    -0.265 OA 
HETATM   12  C   UNL     1      -8.130  10.852  64.825  1.00  0.00     0.202 C  
HETATM   13  C   UNL     1      -9.281  12.207  68.974  1.00  0.00     0.386 C  
HETATM   14  C   UNL     1     -13.233  14.445  67.960  1.00  0.00     3.323 C  
HETATM   15  O   UNL     1      -9.864  10.965  69.406  1.00  0.00    -0.399 OA 
HETATM   16  C   UNL     1     -12.399  15.987  71.338  1.00  0.00    -0.344 C  
HETATM   17  C   UNL     1     -10.514  13.276  68.558  1.00  0.00    -0.259 C  
HETATM   18  C   UNL     1     -12.204  12.654  70.474  1.00  0.00    -0.383 C  
HETATM   19  C   UNL     1     -13.024  15.758  70.023  1.00  0.00     0.353 C  
HETATM   20  H   UNL     1     -10.539  11.216  70.025  1.00  0.00     0.000 HD 
HETATM   21  C   UNL     1     -11.350  12.912  67.175  1.00  0.00    -0.352 C  
HETATM   22  C   UNL     1     -12.276  14.095  66.830  1.00  0.00    -0.429 C  
HETATM   23  C   UNL     1     -11.437  13.789  69.766  1.00  0.00    -0.267 C  
HETATM   24  C   UNL     1     -10.495  14.481  70.838  1.00  0.00     1.088 C  
ENDROOT
BRANCH   4  25
HETATM   25  C   UNL     1      -8.972   9.447  67.144  1.00  0.00    -0.130 C  
HETATM   26  O   UNL     1      -7.770   9.184  66.944  1.00  0.00    -0.096 OA 
BRANCH  25  27
HETATM   27  C   UNL     1      -9.837   8.242  67.583  1.00  0.00    -0.169 C  
BRANCH  27  28
HETATM   28  O   UNL     1      -9.050   7.329  68.402  1.00  0.00    -0.136 OA 
BRANCH  28  29
HETATM   29  C   UNL     1      -9.681   6.770  69.472  1.00  0.00    -0.150 C  
HETATM   30  O   UNL     1     -10.367   5.760  69.420  1.00  0.00    -0.211 OA 
BRANCH  29  31
HETATM   31  C   UNL     1      -9.495   7.579  70.735  1.00  0.00    -0.163 C  
BRANCH  31  32
HETATM   32  C   UNL     1      -8.095   8.155  70.886  1.00  0.00    -0.098 C  
HETATM   33  C   UNL     1      -7.014   7.116  71.055  1.00  0.00    -0.061 C  
HETATM   34  O   UNL     1      -6.963   6.548  72.272  1.00  0.00    -0.071 OA 
HETATM   35  O   UNL     1      -6.205   6.845  70.170  1.00  0.00    -0.030 OA 
ENDBRANCH  31  32
ENDBRANCH  29  31
ENDBRANCH  28  29
ENDBRANCH  27  28
ENDBRANCH  25  27
ENDBRANCH   4  25
TORSDOF 6
ENDMDL
MODEL      154
REMARK 921   NORMALIZED FREE ENERGY PREDICTED BY IDOCK:    1.34 KCAL/MOL
REMARK 922        TOTAL FREE ENERGY PREDICTED BY IDOCK:    1.07 KCAL/MOL
REMARK 923 INTER-LIGAND FREE ENERGY PREDICTED BY IDOCK:   -0.98 KCAL/MOL
REMARK 924 INTRA-LIGAND FREE ENERGY PREDICTED BY IDOCK:    2.05 KCAL/MOL
REMARK 927      BINDING AFFINITY PREDICTED BY RF-SCORE:    0.00 PKD
ROOT
HETATM    1  C   UNL     1      -6.110   8.020  70.553  1.00  0.00    -0.033 C  
HETATM    2  C   UNL     1      -5.982   9.319  70.006  1.00  0.00    -0.035 C  
HETATM    3  C   UNL     1      -7.401   8.883  70.198  1.00  0.00    -0.059 C  
HETATM    4  C   UNL     1      -7.753   7.203  71.345  1.00  0.00    -0.093 C  
HETATM    5  C   UNL     1      -9.186   6.748  64.839  1.00  0.00     0.906 C  
HETATM    6  O   UNL     1      -6.637   6.470  71.986  1.00  0.00    -0.056 OA 
HETATM    7  C   UNL     1      -7.629   8.517  71.651  1.00  0.00    -0.135 C  
HETATM    8  C   UNL     1      -9.350   8.414  70.761  1.00  0.00    -0.191 C  
HETATM    9  H   UNL     1      -6.799   5.697  72.514  1.00  0.00     0.000 HD 
HETATM   10  C   UNL     1      -6.874   5.962  66.338  1.00  0.00    -0.059 C  
HETATM   11  O   UNL     1      -8.442   4.948  63.427  1.00  0.00    -0.116 OA 
HETATM   12  C   UNL     1      -7.269   9.265  72.921  1.00  0.00     0.871 C  
HETATM   13  C   UNL     1      -9.304   7.191  69.466  1.00  0.00    -0.148 C  
HETATM   14  C   UNL     1      -5.543   5.906  67.046  1.00  0.00    -0.016 C  
HETATM   15  O   UNL     1      -9.545   5.940  70.133  1.00  0.00    -0.156 OA 
HETATM   16  C   UNL     1      -8.212   5.731  64.340  1.00  0.00    -0.114 C  
HETATM   17  C   UNL     1      -7.970   7.023  68.450  1.00  0.00    -0.123 C  
HETATM   18  C   UNL     1      -8.470   4.591  67.584  1.00  0.00    -0.103 C  
HETATM   19  C   UNL     1      -6.898   5.768  65.004  1.00  0.00    -0.051 C  
HETATM   20  H   UNL     1      -9.520   5.288  69.442  1.00  0.00     0.000 HD 
HETATM   21  C   UNL     1      -6.503   6.870  69.205  1.00  0.00    -0.043 C  
HETATM   22  C   UNL     1      -5.389   6.951  68.143  1.00  0.00    -0.015 C  
HETATM   23  C   UNL     1      -8.164   6.051  67.190  1.00  0.00    -0.105 C  
HETATM   24  C   UNL     1      -9.392   6.591  66.343  1.00  0.00    -0.175 C  
ENDROOT
BRANCH   4  25
HETATM   25  C   UNL     1      -8.783   6.870  72.735  1.00  0.00    -0.120 C  
HETATM   26  O   UNL     1      -8.462   6.225  73.751  1.00  0.00    -0.122 OA 
BRANCH  25  27
HETATM   27  C   UNL     1     -10.253   7.351  72.708  1.00  0.00    -0.238 C  
BRANCH  27  28
HETATM   28  O   UNL     1     -11.076   6.415  71.951  1.00  0.00    -0.244 OA 
BRANCH  28  29
HETATM   29  C   UNL     1     -12.212   5.973  72.558  1.00  0.00     0.008 C  
HETATM   30  O   UNL     1     -12.338   4.869  73.069  1.00  0.00    -0.005 OA 
BRANCH  29  31
HETATM   31  C   UNL     1     -13.337   6.979  72.475  1.00  0.00     0.522 C  
BRANCH  31  32
HETATM   32  C   UNL     1     -13.313   7.810  71.202  1.00  0.00    -0.141 C  
HETATM   33  C   UNL     1     -13.142   9.291  71.433  1.00  0.00    -0.322 C  
HETATM   34  O   UNL     1     -14.239   9.923  71.884  1.00  0.00     0.054 OA 
HETATM   35  O   UNL     1     -12.097   9.889  71.181  1.00  0.00    -0.318 OA 
ENDBRANCH  31  32
ENDBRANCH  29  31
ENDBRANCH  28  29
ENDBRANCH  27  28
ENDBRANCH  25  27
ENDBRANCH   4  25
TORSDOF 6
ENDMDL
MODEL      155
REMARK 921   NORMALIZED FREE ENERGY PREDICTED BY IDOCK:    1.65 KCAL/MOL
REMARK 922        TOTAL FREE ENERGY PREDICTED BY IDOCK:    1.50 KCAL/MOL
REMARK 923 INTER-LIGAND FREE ENERGY PREDICTED BY IDOCK:    1.23 KCAL/MOL
REMARK 924 INTRA-LIGAND FREE ENERGY PREDICTED BY IDOCK:    0.26 KCAL/MOL
REMARK 927      BINDING AFFINITY PREDICTED BY RF-SCORE:    0.00 PKD
ROOT
HETATM    1  C   UNL     1     -10.387  12.454  65.693  1.00  0.00    -0.284 C  
HETATM    2  C   UNL     1      -9.709  13.623  65.276  1.00  0.00    -0.025 C  
HETATM    3  C   UNL     1      -9.048  12.918  66.419  1.00  0.00    -0.083 C  
HETATM    4  C   UNL     1      -9.677  11.006  66.875  1.00  0.00    -0.188 C  
HETATM    5  C   UNL     1     -10.964  15.744  71.401  1.00  0.00    -0.082 C  
HETATM    6  O   UNL     1     -10.728  10.338  66.073  1.00  0.00    -0.093 OA 
HETATM    7  C   UNL     1      -8.738  11.488  66.025  1.00  0.00    -0.095 C  
HETATM    8  C   UNL     1      -7.960  11.776  67.780  1.00  0.00    -0.141 C  
HETATM    9  H   UNL     1     -11.018   9.458  66.283  1.00  0.00     0.000 HD 
HETATM   10  C   UNL     1     -12.575  14.615  69.316  1.00  0.00     0.093 C  
HETATM   11  O   UNL     1     -13.127  16.095  72.394  1.00  0.00    -0.404 OA 
HETATM   12  C   UNL     1      -8.072  10.935  64.781  1.00  0.00     0.202 C  
HETATM   13  C   UNL     1      -9.231  12.187  68.959  1.00  0.00     0.386 C  
HETATM   14  C   UNL     1     -13.266  14.304  68.013  1.00  0.00     3.319 C  
HETATM   15  O   UNL     1      -9.769  10.919  69.376  1.00  0.00    -0.402 OA 
HETATM   16  C   UNL     1     -12.456  15.822  71.407  1.00  0.00    -0.455 C  
HETATM   17  C   UNL     1     -10.504  13.219  68.570  1.00  0.00    -0.259 C  
HETATM   18  C   UNL     1     -12.155  12.512  70.490  1.00  0.00    -0.361 C  
HETATM   19  C   UNL     1     -13.084  15.592  70.094  1.00  0.00     0.219 C  
HETATM   20  H   UNL     1     -10.447  11.138  70.005  1.00  0.00     0.000 HD 
HETATM   21  C   UNL     1     -11.339  12.848  67.188  1.00  0.00    -0.352 C  
HETATM   22  C   UNL     1     -12.307  14.004  66.869  1.00  0.00    -0.321 C  
HETATM   23  C   UNL     1     -11.433  13.682  69.793  1.00  0.00    -0.256 C  
HETATM   24  C   UNL     1     -10.506  14.389  70.868  1.00  0.00     1.384 C  
ENDROOT
BRANCH   4  25
HETATM   25  C   UNL     1      -8.846   9.467  67.084  1.00  0.00    -0.131 C  
HETATM   26  O   UNL     1      -7.633   9.253  66.891  1.00  0.00    -0.090 OA 
BRANCH  25  27
HETATM   27  C   UNL     1      -9.670   8.220  67.485  1.00  0.00    -0.165 C  
BRANCH  27  28
HETATM   28  O   UNL     1      -9.890   7.367  66.324  1.00  0.00    -0.111 OA 
BRANCH  28  29
HETATM   29  C   UNL     1      -9.814   6.024  66.530  1.00  0.00    -0.145 C  
HETATM   30  O   UNL     1     -10.747   5.329  66.907  1.00  0.00    -0.253 OA 
BRANCH  29  31
HETATM   31  C   UNL     1      -8.420   5.486  66.307  1.00  0.00    -0.122 C  
BRANCH  31  32
HETATM   32  C   UNL     1      -7.707   6.121  65.123  1.00  0.00    -0.097 C  
HETATM   33  C   UNL     1      -8.336   5.814  63.786  1.00  0.00    -0.019 C  
HETATM   34  O   UNL     1      -8.102   4.573  63.324  1.00  0.00    -0.083 OA 
HETATM   35  O   UNL     1      -8.970   6.646  63.140  1.00  0.00     0.649 OA 
ENDBRANCH  31  32
ENDBRANCH  29  31
ENDBRANCH  28  29
ENDBRANCH  27  28
ENDBRANCH  25  27
ENDBRANCH   4  25
TORSDOF 6
ENDMDL
MODEL      156
REMARK 921   NORMALIZED FREE ENERGY PREDICTED BY IDOCK:    1.81 KCAL/MOL
REMARK 922        TOTAL FREE ENERGY PREDICTED BY IDOCK:    1.72 KCAL/MOL
REMARK 923 INTER-LIGAND FREE ENERGY PREDICTED BY IDOCK:   -3.11 KCAL/MOL
REMARK 924 INTRA-LIGAND FREE ENERGY PREDICTED BY IDOCK:    4.82 KCAL/MOL
REMARK 927      BINDING AFFINITY PREDICTED BY RF-SCORE:    0.00 PKD
ROOT
HETATM    1  C   UNL     1      -9.063  15.454  66.915  1.00  0.00    -0.265 C  
HETATM    2  C   UNL     1      -9.585  15.251  65.616  1.00  0.00    -0.313 C  
HETATM    3  C   UNL     1     -10.571  14.985  66.710  1.00  0.00    -0.301 C  
HETATM    4  C   UNL     1     -10.098  15.617  68.618  1.00  0.00    -0.210 C  
HETATM    5  C   UNL     1     -10.409   9.020  67.634  1.00  0.00    -0.317 C  
HETATM    6  O   UNL     1      -8.835  16.341  68.889  1.00  0.00    -0.231 OA 
HETATM    7  C   UNL     1     -10.717  16.221  67.575  1.00  0.00    -0.300 C  
HETATM    8  C   UNL     1     -12.025  14.931  68.201  1.00  0.00    -0.234 C  
HETATM    9  H   UNL     1      -8.617  16.632  69.767  1.00  0.00     0.000 HD 
HETATM   10  C   UNL     1      -8.195  10.840  67.647  1.00  0.00    -0.115 C  
HETATM   11  O   UNL     1      -8.689   7.482  68.315  1.00  0.00    -0.124 OA 
HETATM   12  C   UNL     1     -10.937  17.671  67.188  1.00  0.00     0.017 C  
HETATM   13  C   UNL     1     -11.210  13.455  68.777  1.00  0.00    -0.275 C  
HETATM   14  C   UNL     1      -7.115  11.826  67.281  1.00  0.00    -0.140 C  
HETATM   15  O   UNL     1     -10.820  13.754  70.129  1.00  0.00    -0.315 OA 
HETATM   16  C   UNL     1      -9.001   8.570  67.848  1.00  0.00    -0.137 C  
HETATM   17  C   UNL     1      -9.894  12.791  67.961  1.00  0.00    -0.226 C  
HETATM   18  C   UNL     1      -8.944  11.322  69.924  1.00  0.00     1.446 C  
HETATM   19  C   UNL     1      -7.979   9.532  67.401  1.00  0.00    -0.106 C  
HETATM   20  H   UNL     1     -10.385  12.967  70.436  1.00  0.00     0.000 HD 
HETATM   21  C   UNL     1      -8.652  13.835  67.625  1.00  0.00    -0.187 C  
HETATM   22  C   UNL     1      -7.648  13.126  66.695  1.00  0.00     0.774 C  
HETATM   23  C   UNL     1      -9.417  11.342  68.457  1.00  0.00    -0.191 C  
HETATM   24  C   UNL     1     -10.651  10.355  68.332  1.00  0.00    -0.238 C  
ENDROOT
BRANCH   4  25
HETATM   25  C   UNL     1     -10.931  16.601  69.818  1.00  0.00    -0.205 C  
HETATM   26  O   UNL     1     -11.730  16.189  70.681  1.00  0.00    -0.368 OA 
BRANCH  25  27
HETATM   27  C   UNL     1     -10.733  18.135  69.795  1.00  0.00     1.250 C  
BRANCH  27  28
HETATM   28  O   UNL     1     -10.114  18.545  68.540  1.00  0.00    -0.360 OA 
BRANCH  28  29
HETATM   29  C   UNL     1      -9.532  19.775  68.520  1.00  0.00    -0.312 C  
HETATM   30  O   UNL     1      -9.935  20.720  67.856  1.00  0.00    -0.263 OA 
BRANCH  29  31
HETATM   31  C   UNL     1      -8.280  19.832  69.364  1.00  0.00     0.180 C  
BRANCH  31  32
HETATM   32  C   UNL     1      -7.108  19.073  68.762  1.00  0.00    -0.353 C  
HETATM   33  C   UNL     1      -6.036  18.699  69.757  1.00  0.00    -0.249 C  
HETATM   34  O   UNL     1      -5.244  19.715  70.141  1.00  0.00    -0.190 OA 
HETATM   35  O   UNL     1      -5.862  17.547  70.149  1.00  0.00    -0.249 OA 
ENDBRANCH  31  32
ENDBRANCH  29  31
ENDBRANCH  28  29
ENDBRANCH  27  28
ENDBRANCH  25  27
ENDBRANCH   4  25
TORSDOF 6
ENDMDL
MODEL      157
REMARK 921   NORMALIZED FREE ENERGY PREDICTED BY IDOCK:    5.34 KCAL/MOL
REMARK 922        TOTAL FREE ENERGY PREDICTED BY IDOCK:    6.48 KCAL/MOL
REMARK 923 INTER-LIGAND FREE ENERGY PREDICTED BY IDOCK:   -4.32 KCAL/MOL
REMARK 924 INTRA-LIGAND FREE ENERGY PREDICTED BY IDOCK:   10.80 KCAL/MOL
REMARK 927      BINDING AFFINITY PREDICTED BY RF-SCORE:    0.00 PKD
ROOT
HETATM    1  C   UNL     1     -11.185  13.752  65.190  1.00  0.00    -0.320 C  
HETATM    2  C   UNL     1     -12.249  13.368  66.039  1.00  0.00    -0.491 C  
HETATM    3  C   UNL     1     -10.989  13.711  66.770  1.00  0.00    -0.297 C  
HETATM    4  C   UNL     1      -9.489  14.666  65.721  1.00  0.00    -0.145 C  
HETATM    5  C   UNL     1      -8.212   8.446  67.787  1.00  0.00    -0.126 C  
HETATM    6  O   UNL     1      -9.668  15.031  64.297  1.00  0.00     0.078 OA 
HETATM    7  C   UNL     1     -10.562  15.121  66.413  1.00  0.00    -0.305 C  
HETATM    8  C   UNL     1      -9.355  14.493  67.798  1.00  0.00    -0.198 C  
HETATM    9  H   UNL     1      -8.977  15.471  63.814  1.00  0.00     0.000 HD 
HETATM   10  C   UNL     1      -9.135   9.465  65.273  1.00  0.00    -0.287 C  
HETATM   11  O   UNL     1      -7.343   6.714  66.362  1.00  0.00    -0.071 OA 
HETATM   12  C   UNL     1     -11.360  16.409  66.375  1.00  0.00     0.519 C  
HETATM   13  C   UNL     1      -8.464  13.056  67.236  1.00  0.00    -0.199 C  
HETATM   14  C   UNL     1      -9.965   9.951  64.111  1.00  0.00     0.260 C  
HETATM   15  O   UNL     1      -7.361  13.581  66.476  1.00  0.00     0.192 OA 
HETATM   16  C   UNL     1      -8.084   7.677  66.513  1.00  0.00    -0.119 C  
HETATM   17  C   UNL     1      -9.214  11.839  66.344  1.00  0.00    -0.223 C  
HETATM   18  C   UNL     1      -7.052  10.744  65.323  1.00  0.00     0.120 C  
HETATM   19  C   UNL     1      -8.973   8.136  65.432  1.00  0.00    -0.024 C  
HETATM   20  H   UNL     1      -6.886  12.815  66.176  1.00  0.00     0.000 HD 
HETATM   21  C   UNL     1     -10.060  12.338  65.010  1.00  0.00    -0.277 C  
HETATM   22  C   UNL     1     -10.853  11.141  64.451  1.00  0.00    -0.340 C  
HETATM   23  C   UNL     1      -8.354  10.504  66.114  1.00  0.00    -0.155 C  
HETATM   24  C   UNL     1      -7.957   9.930  67.538  1.00  0.00    -0.106 C  
ENDROOT
BRANCH   4  25
HETATM   25  C   UNL     1      -8.561  16.139  65.992  1.00  0.00    -0.196 C  
HETATM   26  O   UNL     1      -8.736  17.234  65.424  1.00  0.00     0.044 OA 
BRANCH  25  27
HETATM   27  C   UNL     1      -7.364  16.099  66.972  1.00  0.00    -0.231 C  
BRANCH  27  28
HETATM   28  O   UNL     1      -7.730  15.376  68.184  1.00  0.00    -0.118 OA 
BRANCH  28  29
HETATM   29  C   UNL     1      -7.058  15.711  69.320  1.00  0.00    -0.189 C  
HETATM   30  O   UNL     1      -6.751  14.919  70.200  1.00  0.00    -0.183 OA 
BRANCH  29  31
HETATM   31  C   UNL     1      -6.788  17.195  69.412  1.00  0.00    -0.165 C  
BRANCH  31  32
HETATM   32  C   UNL     1      -5.501  17.620  68.722  1.00  0.00    -0.160 C  
HETATM   33  C   UNL     1      -5.438  17.265  67.256  1.00  0.00    -0.135 C  
HETATM   34  O   UNL     1      -5.204  15.966  67.000  1.00  0.00    -0.330 OA 
HETATM   35  O   UNL     1      -5.540  18.102  66.362  1.00  0.00    -0.139 OA 
ENDBRANCH  31  32
ENDBRANCH  29  31
ENDBRANCH  28  29
ENDBRANCH  27  28
ENDBRANCH  25  27
ENDBRANCH   4  25
TORSDOF 6
ENDMDL
MODEL      158
REMARK 921   NORMALIZED FREE ENERGY PREDICTED BY IDOCK:    6.21 KCAL/MOL
REMARK 922        TOTAL FREE ENERGY PREDICTED BY IDOCK:    7.65 KCAL/MOL
REMARK 923 INTER-LIGAND FREE ENERGY PREDICTED BY IDOCK:    0.98 KCAL/MOL
REMARK 924 INTRA-LIGAND FREE ENERGY PREDICTED BY IDOCK:    6.67 KCAL/MOL
REMARK 927      BINDING AFFINITY PREDICTED BY RF-SCORE:    0.00 PKD
ROOT
HETATM    1  C   UNL     1     -11.885  12.926  67.902  1.00  0.00    -0.388 C  
HETATM    2  C   UNL     1     -12.797  12.725  68.965  1.00  0.00     1.330 C  
HETATM    3  C   UNL     1     -11.430  13.140  69.414  1.00  0.00    -0.321 C  
HETATM    4  C   UNL     1     -10.118  13.856  67.990  1.00  0.00    -0.244 C  
HETATM    5  C   UNL     1      -8.563   8.020  70.839  1.00  0.00    -0.136 C  
HETATM    6  O   UNL     1     -10.528  13.986  66.573  1.00  0.00    -0.276 OA 
HETATM    7  C   UNL     1     -11.057  14.456  68.760  1.00  0.00    -0.275 C  
HETATM    8  C   UNL     1      -9.643  14.023  70.016  1.00  0.00     1.614 C  
HETATM    9  H   UNL     1      -9.923  14.316  65.917  1.00  0.00     0.000 HD 
HETATM   10  C   UNL     1      -9.883   8.642  68.373  1.00  0.00    -0.189 C  
HETATM   11  O   UNL     1      -7.956   6.047  69.604  1.00  0.00    -0.102 OA 
HETATM   12  C   UNL     1     -11.841  15.747  68.635  1.00  0.00    -0.287 C  
HETATM   13  C   UNL     1      -8.868  12.482  69.568  1.00  0.00     1.639 C  
HETATM   14  C   UNL     1     -10.891   8.959  67.296  1.00  0.00    -0.084 C  
HETATM   15  O   UNL     1      -7.903  12.835  68.561  1.00  0.00    -0.140 OA 
HETATM   16  C   UNL     1      -8.654   7.047  69.709  1.00  0.00    -0.141 C  
HETATM   17  C   UNL     1      -9.764  11.161  69.027  1.00  0.00    -0.113 C  
HETATM   18  C   UNL     1      -7.811   9.838  67.868  1.00  0.00    -0.090 C  
HETATM   19  C   UNL     1      -9.707   7.352  68.726  1.00  0.00    -0.149 C  
HETATM   20  H   UNL     1      -7.490  12.013  68.322  1.00  0.00     0.000 HD 
HETATM   21  C   UNL     1     -10.816  11.463  67.783  1.00  0.00    -0.281 C  
HETATM   22  C   UNL     1     -11.700  10.219  67.570  1.00  0.00     0.904 C  
HETATM   23  C   UNL     1      -8.965   9.778  68.889  1.00  0.00    -0.144 C  
HETATM   24  C   UNL     1      -8.342   9.432  70.306  1.00  0.00    -0.217 C  
ENDROOT
BRANCH   4  25
HETATM   25  C   UNL     1      -9.146  15.318  67.854  1.00  0.00    -0.175 C  
HETATM   26  O   UNL     1      -9.490  16.382  67.303  1.00  0.00    -0.224 OA 
BRANCH  25  27
HETATM   27  C   UNL     1      -7.699  15.308  68.401  1.00  0.00    -0.124 C  
BRANCH  27  28
HETATM   28  O   UNL     1      -6.765  14.931  67.347  1.00  0.00    -0.236 OA 
BRANCH  28  29
HETATM   29  C   UNL     1      -6.063  13.780  67.537  1.00  0.00     0.015 C  
HETATM   30  O   UNL     1      -5.339  13.265  66.697  1.00  0.00     0.577 OA 
BRANCH  29  31
HETATM   31  C   UNL     1      -6.329  13.161  68.890  1.00  0.00    -0.093 C  
BRANCH  31  32
HETATM   32  C   UNL     1      -5.180  13.332  69.871  1.00  0.00    -0.088 C  
HETATM   33  C   UNL     1      -5.579  13.952  71.189  1.00  0.00    -0.216 C  
HETATM   34  O   UNL     1      -5.802  15.277  71.145  1.00  0.00     0.044 OA 
HETATM   35  O   UNL     1      -5.644  13.310  72.235  1.00  0.00    -0.406 OA 
ENDBRANCH  31  32
ENDBRANCH  29  31
ENDBRANCH  28  29
ENDBRANCH  27  28
ENDBRANCH  25  27
ENDBRANCH   4  25
TORSDOF 6
ENDMDL
MODEL      159
REMARK 921   NORMALIZED FREE ENERGY PREDICTED BY IDOCK:   11.75 KCAL/MOL
REMARK 922        TOTAL FREE ENERGY PREDICTED BY IDOCK:   15.14 KCAL/MOL
REMARK 923 INTER-LIGAND FREE ENERGY PREDICTED BY IDOCK:   13.13 KCAL/MOL
REMARK 924 INTRA-LIGAND FREE ENERGY PREDICTED BY IDOCK:    2.00 KCAL/MOL
REMARK 927      BINDING AFFINITY PREDICTED BY RF-SCORE:    0.00 PKD
ROOT
HETATM    1  C   UNL     1     -11.838  12.976  64.551  1.00  0.00    -0.431 C  
HETATM    2  C   UNL     1     -12.970  12.525  65.269  1.00  0.00     0.400 C  
HETATM    3  C   UNL     1     -12.093  13.454  66.049  1.00  0.00    -0.487 C  
HETATM    4  C   UNL     1     -10.641  14.505  65.025  1.00  0.00    -0.437 C  
HETATM    5  C   UNL     1      -8.509   9.904  69.369  1.00  0.00    -0.169 C  
HETATM    6  O   UNL     1     -10.495  14.369  63.558  1.00  0.00     1.139 OA 
HETATM    7  C   UNL     1     -11.943  14.762  65.299  1.00  0.00    -0.240 C  
HETATM    8  C   UNL     1     -11.061  14.985  67.013  1.00  0.00    -0.334 C  
HETATM    9  H   UNL     1      -9.826  14.854  63.086  1.00  0.00     0.000 HD 
HETATM   10  C   UNL     1      -8.906   9.805  66.533  1.00  0.00    -0.154 C  
HETATM   11  O   UNL     1      -6.874   8.221  68.841  1.00  0.00    -0.058 OA 
HETATM   12  C   UNL     1     -12.990  15.652  64.657  1.00  0.00     1.166 C  
HETATM   13  C   UNL     1      -9.723  13.820  67.175  1.00  0.00    -0.244 C  
HETATM   14  C   UNL     1      -9.467   9.641  65.143  1.00  0.00    -0.332 C  
HETATM   15  O   UNL     1      -8.615  14.436  66.495  1.00  0.00    -0.438 OA 
HETATM   16  C   UNL     1      -7.841   8.889  68.500  1.00  0.00    -0.103 C  
HETATM   17  C   UNL     1      -9.866  12.224  66.654  1.00  0.00    -0.230 C  
HETATM   18  C   UNL     1      -7.304  11.652  66.508  1.00  0.00     0.044 C  
HETATM   19  C   UNL     1      -8.473   8.705  67.183  1.00  0.00    -0.114 C  
HETATM   20  H   UNL     1      -7.901  13.815  66.582  1.00  0.00     0.000 HD 
HETATM   21  C   UNL     1     -10.396  12.018  65.098  1.00  0.00    -0.313 C  
HETATM   22  C   UNL     1     -10.679  10.520  64.866  1.00  0.00     0.054 C  
HETATM   23  C   UNL     1      -8.675  11.236  67.077  1.00  0.00    -0.152 C  
HETATM   24  C   UNL     1      -8.568  11.254  68.659  1.00  0.00    -0.139 C  
ENDROOT
BRANCH   4  25
HETATM   25  C   UNL     1     -10.220  16.212  64.919  1.00  0.00     0.292 C  
HETATM   26  O   UNL     1     -10.872  17.096  64.331  1.00  0.00    -0.662 OA 
BRANCH  25  27
HETATM   27  C   UNL     1      -8.890  16.694  65.548  1.00  0.00     0.711 C  
BRANCH  27  28
HETATM   28  O   UNL     1      -8.920  18.139  65.743  1.00  0.00    -0.462 OA 
BRANCH  28  29
HETATM   29  C   UNL     1      -9.030  18.579  67.026  1.00  0.00    -0.274 C  
HETATM   30  O   UNL     1      -8.406  19.522  67.490  1.00  0.00    -0.283 OA 
BRANCH  29  31
HETATM   31  C   UNL     1      -9.968  17.725  67.848  1.00  0.00    -0.322 C  
BRANCH  31  32
HETATM   32  C   UNL     1     -10.709  18.502  68.925  1.00  0.00     0.452 C  
HETATM   33  C   UNL     1     -12.103  17.994  69.206  1.00  0.00     5.936 C  
HETATM   34  O   UNL     1     -13.018  18.315  68.275  1.00  0.00     5.567 OA 
HETATM   35  O   UNL     1     -12.395  17.380  70.230  1.00  0.00     3.753 OA 
ENDBRANCH  31  32
ENDBRANCH  29  31
ENDBRANCH  28  29
ENDBRANCH  27  28
ENDBRANCH  25  27
ENDBRANCH   4  25
TORSDOF 6
ENDMDL
MODEL      160
REMARK 921   NORMALIZED FREE ENERGY PREDICTED BY IDOCK:   13.09 KCAL/MOL
REMARK 922        TOTAL FREE ENERGY PREDICTED BY IDOCK:   16.94 KCAL/MOL
REMARK 923 INTER-LIGAND FREE ENERGY PREDICTED BY IDOCK:   13.24 KCAL/MOL
REMARK 924 INTRA-LIGAND FREE ENERGY PREDICTED BY IDOCK:    3.71 KCAL/MOL
REMARK 927      BINDING AFFINITY PREDICTED BY RF-SCORE:    0.00 PKD
ROOT
HETATM    1  C   UNL     1      -8.537  14.647  66.431  1.00  0.00     0.103 C  
HETATM    2  C   UNL     1      -7.447  14.955  65.583  1.00  0.00     5.714 C  
HETATM    3  C   UNL     1      -7.063  14.164  66.795  1.00  0.00     1.294 C  
HETATM    4  C   UNL     1      -8.573  13.298  67.906  1.00  0.00    -0.188 C  
HETATM    5  C   UNL     1      -5.130  18.213  70.837  1.00  0.00    -0.265 C  
HETATM    6  O   UNL     1      -9.990  13.429  67.498  1.00  0.00    -0.224 OA 
HETATM    7  C   UNL     1      -7.860  12.875  66.835  1.00  0.00     0.105 C  
HETATM    8  C   UNL     1      -6.583  12.800  68.294  1.00  0.00    -0.085 C  
HETATM    9  H   UNL     1     -10.685  13.030  68.010  1.00  0.00     0.000 HD 
HETATM   10  C   UNL     1      -7.632  18.212  69.440  1.00  0.00     0.190 C  
HETATM   11  O   UNL     1      -6.152  20.090  71.939  1.00  0.00    -0.346 OA 
HETATM   12  C   UNL     1      -8.114  11.843  65.753  1.00  0.00     0.684 C  
HETATM   13  C   UNL     1      -6.872  14.135  69.438  1.00  0.00    -0.104 C  
HETATM   14  C   UNL     1      -8.723  18.277  68.401  1.00  0.00    -0.325 C  
HETATM   15  O   UNL     1      -7.923  13.661  70.298  1.00  0.00     1.193 OA 
HETATM   16  C   UNL     1      -6.146  19.293  71.010  1.00  0.00     0.152 C  
HETATM   17  C   UNL     1      -7.255  15.689  68.911  1.00  0.00    -0.146 C  
HETATM   18  C   UNL     1      -8.289  16.595  71.152  1.00  0.00     6.382 C  
HETATM   19  C   UNL     1      -7.144  19.370  69.929  1.00  0.00     0.045 C  
HETATM   20  H   UNL     1      -8.077  14.373  70.908  1.00  0.00     0.000 HD 
HETATM   21  C   UNL     1      -8.511  15.797  67.835  1.00  0.00    -0.161 C  
HETATM   22  C   UNL     1      -8.577  17.240  67.296  1.00  0.00    -0.214 C  
HETATM   23  C   UNL     1      -7.253  16.833  70.035  1.00  0.00     0.890 C  
HETATM   24  C   UNL     1      -5.815  16.856  70.703  1.00  0.00     0.202 C  
ENDROOT
BRANCH   4  25
HETATM   25  C   UNL     1      -8.878  11.662  68.481  1.00  0.00    -0.131 C  
HETATM   26  O   UNL     1      -9.244  11.341  69.628  1.00  0.00     0.436 OA 
BRANCH  25  27
HETATM   27  C   UNL     1      -8.620  10.473  67.524  1.00  0.00    -0.121 C  
BRANCH  27  28
HETATM   28  O   UNL     1      -9.877   9.820  67.182  1.00  0.00    -0.171 OA 
BRANCH  28  29
HETATM   29  C   UNL     1     -10.987  10.245  67.847  1.00  0.00    -0.292 C  
HETATM   30  O   UNL     1     -11.680  11.191  67.500  1.00  0.00    -0.574 OA 
BRANCH  29  31
HETATM   31  C   UNL     1     -11.236   9.456  69.111  1.00  0.00     0.049 C  
BRANCH  31  32
HETATM   32  C   UNL     1     -10.108   8.497  69.460  1.00  0.00    -0.200 C  
HETATM   33  C   UNL     1     -10.561   7.086  69.743  1.00  0.00    -0.233 C  
HETATM   34  O   UNL     1     -11.146   6.910  70.940  1.00  0.00    -0.250 OA 
HETATM   35  O   UNL     1     -10.366   6.154  68.965  1.00  0.00    -0.173 OA 
ENDBRANCH  31  32
ENDBRANCH  29  31
ENDBRANCH  28  29
ENDBRANCH  27  28
ENDBRANCH  25  27
ENDBRANCH   4  25
TORSDOF 6
ENDMDL
MODEL      161
REMARK 921   NORMALIZED FREE ENERGY PREDICTED BY IDOCK:   13.69 KCAL/MOL
REMARK 922        TOTAL FREE ENERGY PREDICTED BY IDOCK:   17.76 KCAL/MOL
REMARK 923 INTER-LIGAND FREE ENERGY PREDICTED BY IDOCK:    3.69 KCAL/MOL
REMARK 924 INTRA-LIGAND FREE ENERGY PREDICTED BY IDOCK:   14.07 KCAL/MOL
REMARK 927      BINDING AFFINITY PREDICTED BY RF-SCORE:    0.00 PKD
ROOT
HETATM    1  C   UNL     1     -10.913  14.477  65.073  1.00  0.00    -0.408 C  
HETATM    2  C   UNL     1     -12.153  13.811  65.212  1.00  0.00    -0.425 C  
HETATM    3  C   UNL     1     -11.424  14.003  66.505  1.00  0.00    -0.368 C  
HETATM    4  C   UNL     1      -9.815  15.297  66.528  1.00  0.00    -0.266 C  
HETATM    5  C   UNL     1      -8.474   8.827  67.493  1.00  0.00    -0.120 C  
HETATM    6  O   UNL     1      -9.416  16.039  65.310  1.00  0.00    -0.317 OA 
HETATM    7  C   UNL     1     -11.145  15.478  66.718  1.00  0.00    -0.206 C  
HETATM    8  C   UNL     1     -10.573  14.552  68.325  1.00  0.00    -0.241 C  
HETATM    9  H   UNL     1      -8.675  16.634  65.321  1.00  0.00     0.000 HD 
HETATM   10  C   UNL     1      -8.372  10.462  65.142  1.00  0.00    -0.165 C  
HETATM   11  O   UNL     1      -6.774   7.619  66.294  1.00  0.00    -0.055 OA 
HETATM   12  C   UNL     1     -12.063  16.678  66.600  1.00  0.00     2.407 C  
HETATM   13  C   UNL     1      -9.284  13.383  67.941  1.00  0.00    -0.216 C  
HETATM   14  C   UNL     1      -8.684  11.210  63.869  1.00  0.00     0.168 C  
HETATM   15  O   UNL     1      -8.075  14.162  67.927  1.00  0.00    -0.129 OA 
HETATM   16  C   UNL     1      -7.667   8.457  66.292  1.00  0.00    -0.094 C  
HETATM   17  C   UNL     1      -9.336  12.428  66.554  1.00  0.00    -0.233 C  
HETATM   18  C   UNL     1      -6.788  11.788  66.450  1.00  0.00     0.229 C  
HETATM   19  C   UNL     1      -8.061   9.153  65.055  1.00  0.00    -0.130 C  
HETATM   20  H   UNL     1      -7.387  13.539  67.721  1.00  0.00     0.000 HD 
HETATM   21  C   UNL     1      -9.589  13.237  65.129  1.00  0.00     0.185 C  
HETATM   22  C   UNL     1      -9.828  12.204  64.010  1.00  0.00    -0.217 C  
HETATM   23  C   UNL     1      -8.238  11.263  66.460  1.00  0.00    -0.165 C  
HETATM   24  C   UNL     1      -8.407  10.333  67.733  1.00  0.00    -0.110 C  
ENDROOT
BRANCH   4  25
HETATM   25  C   UNL     1      -9.380  16.682  67.526  1.00  0.00    -0.219 C  
HETATM   26  O   UNL     1      -9.827  16.941  68.660  1.00  0.00    -0.246 OA 
BRANCH  25  27
HETATM   27  C   UNL     1      -8.401  17.736  66.956  1.00  0.00    -0.226 C  
BRANCH  27  28
HETATM   28  O   UNL     1      -9.140  18.863  66.402  1.00  0.00    -0.317 OA 
BRANCH  28  29
HETATM   29  C   UNL     1     -10.229  18.563  65.641  1.00  0.00     0.073 C  
HETATM   30  O   UNL     1     -10.322  17.575  64.926  1.00  0.00    -0.079 OA 
BRANCH  29  31
HETATM   31  C   UNL     1     -11.298  19.628  65.723  1.00  0.00     0.519 C  
BRANCH  31  32
HETATM   32  C   UNL     1     -11.716  19.959  67.148  1.00  0.00     1.356 C  
HETATM   33  C   UNL     1     -11.439  18.860  68.145  1.00  0.00     1.310 C  
HETATM   34  O   UNL     1     -12.287  17.819  68.087  1.00  0.00     2.327 OA 
HETATM   35  O   UNL     1     -10.542  18.930  68.983  1.00  0.00     0.067 OA 
ENDBRANCH  31  32
ENDBRANCH  29  31
ENDBRANCH  28  29
ENDBRANCH  27  28
ENDBRANCH  25  27
ENDBRANCH   4  25
TORSDOF 6
ENDMDL
MODEL      162
REMARK 921   NORMALIZED FREE ENERGY PREDICTED BY IDOCK:   16.74 KCAL/MOL
REMARK 922        TOTAL FREE ENERGY PREDICTED BY IDOCK:   21.88 KCAL/MOL
REMARK 923 INTER-LIGAND FREE ENERGY PREDICTED BY IDOCK:   21.31 KCAL/MOL
REMARK 924 INTRA-LIGAND FREE ENERGY PREDICTED BY IDOCK:    0.57 KCAL/MOL
REMARK 927      BINDING AFFINITY PREDICTED BY RF-SCORE:    0.00 PKD
ROOT
HETATM    1  C   UNL     1      -8.687  13.628  71.167  1.00  0.00     8.053 C  
HETATM    2  C   UNL     1      -9.747  14.391  71.710  1.00  0.00     5.221 C  
HETATM    3  C   UNL     1      -9.818  14.233  70.223  1.00  0.00     1.453 C  
HETATM    4  C   UNL     1      -8.591  12.829  69.337  1.00  0.00     1.240 C  
HETATM    5  C   UNL     1      -7.319  19.233  67.935  1.00  0.00    -0.289 C  
HETATM    6  O   UNL     1      -7.692  11.980  70.153  1.00  0.00     0.733 OA 
HETATM    7  C   UNL     1      -9.835  12.760  69.868  1.00  0.00     2.303 C  
HETATM    8  C   UNL     1     -10.094  13.747  68.217  1.00  0.00    -0.239 C  
HETATM    9  H   UNL     1      -7.127  11.333  69.745  1.00  0.00     0.000 HD 
HETATM   10  C   UNL     1      -6.172  17.441  69.855  1.00  0.00    -0.122 C  
HETATM   11  O   UNL     1      -5.135  20.229  68.091  1.00  0.00    -0.179 OA 
HETATM   12  C   UNL     1     -10.672  11.625  70.426  1.00  0.00     1.441 C  
HETATM   13  C   UNL     1      -8.686  14.789  67.892  1.00  0.00    -0.167 C  
HETATM   14  C   UNL     1      -5.850  16.634  71.088  1.00  0.00     0.710 C  
HETATM   15  O   UNL     1      -7.728  13.924  67.256  1.00  0.00    -0.273 OA 
HETATM   16  C   UNL     1      -5.974  19.461  68.543  1.00  0.00    -0.217 C  
HETATM   17  C   UNL     1      -7.916  15.650  69.119  1.00  0.00    -0.227 C  
HETATM   18  C   UNL     1      -5.636  16.093  67.887  1.00  0.00    -0.142 C  
HETATM   19  C   UNL     1      -5.735  18.715  69.790  1.00  0.00    -0.250 C  
HETATM   20  H   UNL     1      -6.976  14.480  67.084  1.00  0.00     0.000 HD 
HETATM   21  C   UNL     1      -7.471  14.769  70.450  1.00  0.00     0.622 C  
HETATM   22  C   UNL     1      -6.992  15.738  71.548  1.00  0.00     3.101 C  
HETATM   23  C   UNL     1      -6.822  16.722  68.646  1.00  0.00    -0.175 C  
HETATM   24  C   UNL     1      -7.535  17.746  67.667  1.00  0.00    -0.207 C  
ENDROOT
BRANCH   4  25
HETATM   25  C   UNL     1      -8.874  11.486  68.233  1.00  0.00    -0.166 C  
HETATM   26  O   UNL     1      -9.220  11.575  67.039  1.00  0.00    -0.170 OA 
BRANCH  25  27
HETATM   27  C   UNL     1      -8.756  10.039  68.770  1.00  0.00    -0.136 C  
BRANCH  27  28
HETATM   28  O   UNL     1      -7.453   9.481  68.429  1.00  0.00    -0.076 OA 
BRANCH  28  29
HETATM   29  C   UNL     1      -6.612   9.218  69.467  1.00  0.00    -0.043 C  
HETATM   30  O   UNL     1      -6.041  10.074  70.128  1.00  0.00    -0.052 OA 
BRANCH  29  31
HETATM   31  C   UNL     1      -6.402   7.736  69.675  1.00  0.00    -0.031 C  
BRANCH  31  32
HETATM   32  C   UNL     1      -7.646   7.011  70.163  1.00  0.00    -0.095 C  
HETATM   33  C   UNL     1      -8.279   6.105  69.135  1.00  0.00    -0.113 C  
HETATM   34  O   UNL     1      -8.968   6.740  68.171  1.00  0.00    -0.121 OA 
HETATM   35  O   UNL     1      -8.216   4.879  69.197  1.00  0.00    -0.078 OA 
ENDBRANCH  31  32
ENDBRANCH  29  31
ENDBRANCH  28  29
ENDBRANCH  27  28
ENDBRANCH  25  27
ENDBRANCH   4  25
TORSDOF 6
ENDMDL
MODEL      163
REMARK 921   NORMALIZED FREE ENERGY PREDICTED BY IDOCK:   20.43 KCAL/MOL
REMARK 922        TOTAL FREE ENERGY PREDICTED BY IDOCK:   26.86 KCAL/MOL
REMARK 923 INTER-LIGAND FREE ENERGY PREDICTED BY IDOCK:    8.63 KCAL/MOL
REMARK 924 INTRA-LIGAND FREE ENERGY PREDICTED BY IDOCK:   18.23 KCAL/MOL
REMARK 927      BINDING AFFINITY PREDICTED BY RF-SCORE:    0.00 PKD
ROOT
HETATM    1  C   UNL     1      -9.162  14.531  67.326  1.00  0.00    -0.213 C  
HETATM    2  C   UNL     1      -9.356  14.569  65.925  1.00  0.00    -0.130 C  
HETATM    3  C   UNL     1     -10.428  13.828  66.662  1.00  0.00    -0.272 C  
HETATM    4  C   UNL     1     -10.507  14.027  68.716  1.00  0.00    -0.233 C  
HETATM    5  C   UNL     1      -8.890   7.997  66.345  1.00  0.00    -0.183 C  
HETATM    6  O   UNL     1      -9.552  14.902  69.434  1.00  0.00    -0.352 OA 
HETATM    7  C   UNL     1     -11.053  14.738  67.700  1.00  0.00    -0.311 C  
HETATM    8  C   UNL     1     -12.072  13.087  67.703  1.00  0.00    -0.262 C  
HETATM    9  H   UNL     1      -9.589  14.993  70.380  1.00  0.00     0.000 HD 
HETATM   10  C   UNL     1      -7.274  10.171  67.280  1.00  0.00    -0.089 C  
HETATM   11  O   UNL     1      -6.990   6.728  67.097  1.00  0.00    -0.069 OA 
HETATM   12  C   UNL     1     -11.566  16.160  67.579  1.00  0.00     0.227 C  
HETATM   13  C   UNL     1     -11.024  11.715  68.145  1.00  0.00    -0.226 C  
HETATM   14  C   UNL     1      -6.439  11.421  67.404  1.00  0.00    -0.083 C  
HETATM   15  O   UNL     1     -10.990  11.727  69.583  1.00  0.00    -0.451 OA 
HETATM   16  C   UNL     1      -7.481   7.811  66.803  1.00  0.00    -0.090 C  
HETATM   17  C   UNL     1      -9.450  11.575  67.561  1.00  0.00    -0.173 C  
HETATM   18  C   UNL     1      -8.540   9.878  69.351  1.00  0.00    -0.180 C  
HETATM   19  C   UNL     1      -6.680   9.047  66.830  1.00  0.00    -0.072 C  
HETATM   20  H   UNL     1     -10.431  10.996  69.819  1.00  0.00     0.000 HD 
HETATM   21  C   UNL     1      -8.484  12.906  67.765  1.00  0.00    -0.185 C  
HETATM   22  C   UNL     1      -7.172  12.688  66.986  1.00  0.00     0.064 C  
HETATM   23  C   UNL     1      -8.714  10.179  67.849  1.00  0.00    -0.122 C  
HETATM   24  C   UNL     1      -9.601   9.024  67.222  1.00  0.00    -0.206 C  
ENDROOT
BRANCH   4  25
HETATM   25  C   UNL     1     -11.781  14.469  69.849  1.00  0.00    -0.299 C  
HETATM   26  O   UNL     1     -12.951  14.040  69.844  1.00  0.00    -0.020 OA 
BRANCH  25  27
HETATM   27  C   UNL     1     -11.482  15.534  70.931  1.00  0.00    -0.375 C  
BRANCH  27  28
HETATM   28  O   UNL     1     -10.043  15.708  71.083  1.00  0.00     0.593 OA 
BRANCH  28  29
HETATM   29  C   UNL     1      -9.306  14.576  71.250  1.00  0.00     4.115 C  
HETATM   30  O   UNL     1      -9.153  14.002  72.318  1.00  0.00     7.224 OA 
BRANCH  29  31
HETATM   31  C   UNL     1      -8.632  14.135  69.971  1.00  0.00     1.543 C  
BRANCH  31  32
HETATM   32  C   UNL     1      -7.582  15.115  69.470  1.00  0.00    -0.207 C  
HETATM   33  C   UNL     1      -6.189  14.540  69.385  1.00  0.00    -0.115 C  
HETATM   34  O   UNL     1      -5.564  14.398  70.566  1.00  0.00    -0.120 OA 
HETATM   35  O   UNL     1      -5.644  14.269  68.316  1.00  0.00    -0.100 OA 
ENDBRANCH  31  32
ENDBRANCH  29  31
ENDBRANCH  28  29
ENDBRANCH  27  28
ENDBRANCH  25  27
ENDBRANCH   4  25
TORSDOF 6
ENDMDL
MODEL      164
REMARK 921   NORMALIZED FREE ENERGY PREDICTED BY IDOCK:   42.95 KCAL/MOL
REMARK 922        TOTAL FREE ENERGY PREDICTED BY IDOCK:   57.28 KCAL/MOL
REMARK 923 INTER-LIGAND FREE ENERGY PREDICTED BY IDOCK:   53.81 KCAL/MOL
REMARK 924 INTRA-LIGAND FREE ENERGY PREDICTED BY IDOCK:    3.47 KCAL/MOL
REMARK 927      BINDING AFFINITY PREDICTED BY RF-SCORE:    0.00 PKD
ROOT
HETATM    1  C   UNL     1      -9.284  14.510  67.427  1.00  0.00    -0.202 C  
HETATM    2  C   UNL     1      -8.845  14.594  66.085  1.00  0.00     0.128 C  
HETATM    3  C   UNL     1     -10.070  13.752  66.267  1.00  0.00    -0.304 C  
HETATM    4  C   UNL     1     -11.059  13.858  68.076  1.00  0.00    -0.259 C  
HETATM    5  C   UNL     1      -8.095   8.056  66.613  1.00  0.00    -0.103 C  
HETATM    6  O   UNL     1     -10.590  14.764  69.149  1.00  0.00    -0.238 OA 
HETATM    7  C   UNL     1     -11.157  14.574  66.930  1.00  0.00    -0.325 C  
HETATM    8  C   UNL     1     -11.940  12.859  66.468  1.00  0.00    -0.447 C  
HETATM    9  H   UNL     1     -11.045  14.813  69.982  1.00  0.00     0.000 HD 
HETATM   10  C   UNL     1      -7.232  10.291  68.184  1.00  0.00    -0.084 C  
HETATM   11  O   UNL     1      -6.626   6.887  68.116  1.00  0.00    -0.054 OA 
HETATM   12  C   UNL     1     -11.675  15.962  66.606  1.00  0.00     0.644 C  
HETATM   13  C   UNL     1     -11.089  11.543  67.316  1.00  0.00    -0.293 C  
HETATM   14  C   UNL     1      -6.638  11.588  68.674  1.00  0.00    -0.064 C  
HETATM   15  O   UNL     1     -11.692  11.497  68.621  1.00  0.00    -0.287 OA 
HETATM   16  C   UNL     1      -7.021   7.945  67.645  1.00  0.00    -0.074 C  
HETATM   17  C   UNL     1      -9.413  11.534  67.486  1.00  0.00    -0.173 C  
HETATM   18  C   UNL     1      -9.252   9.827  69.480  1.00  0.00    -0.226 C  
HETATM   19  C   UNL     1      -6.414   9.230  68.033  1.00  0.00    -0.059 C  
HETATM   20  H   UNL     1     -11.237  10.795  69.074  1.00  0.00     0.000 HD 
HETATM   21  C   UNL     1      -8.743  12.916  68.107  1.00  0.00    -0.190 C  
HETATM   22  C   UNL     1      -7.209  12.820  67.986  1.00  0.00    -0.115 C  
HETATM   23  C   UNL     1      -8.771  10.180  68.057  1.00  0.00    -0.122 C  
HETATM   24  C   UNL     1      -9.198   8.995  67.094  1.00  0.00    -0.164 C  
ENDROOT
BRANCH   4  25
HETATM   25  C   UNL     1     -12.732  14.166  68.534  1.00  0.00     0.880 C  
HETATM   26  O   UNL     1     -13.746  13.766  67.929  1.00  0.00     4.783 OA 
BRANCH  25  27
HETATM   27  C   UNL     1     -13.018  15.065  69.759  1.00  0.00     0.222 C  
BRANCH  27  28
HETATM   28  O   UNL     1     -12.010  14.848  70.790  1.00  0.00    -0.275 OA 
BRANCH  28  29
HETATM   29  C   UNL     1     -11.836  13.566  71.212  1.00  0.00     0.483 C  
HETATM   30  O   UNL     1     -12.670  12.922  71.832  1.00  0.00    -0.209 OA 
BRANCH  29  31
HETATM   31  C   UNL     1     -10.458  13.037  70.886  1.00  0.00     4.757 C  
BRANCH  31  32
HETATM   32  C   UNL     1      -9.349  13.703  71.686  1.00  0.00    10.692 C  
HETATM   33  C   UNL     1      -9.353  13.359  73.155  1.00  0.00    15.963 C  
HETATM   34  O   UNL     1     -10.307  13.973  73.876  1.00  0.00     4.807 OA 
HETATM   35  O   UNL     1      -8.519  12.617  73.669  1.00  0.00    14.714 OA 
ENDBRANCH  31  32
ENDBRANCH  29  31
ENDBRANCH  28  29
ENDBRANCH  27  28
ENDBRANCH  25  27
ENDBRANCH   4  25
TORSDOF 6
ENDMDL
MODEL      165
REMARK 921   NORMALIZED FREE ENERGY PREDICTED BY IDOCK:   47.71 KCAL/MOL
REMARK 922        TOTAL FREE ENERGY PREDICTED BY IDOCK:   63.71 KCAL/MOL
REMARK 923 INTER-LIGAND FREE ENERGY PREDICTED BY IDOCK:   21.86 KCAL/MOL
REMARK 924 INTRA-LIGAND FREE ENERGY PREDICTED BY IDOCK:   41.85 KCAL/MOL
REMARK 927      BINDING AFFINITY PREDICTED BY RF-SCORE:    0.00 PKD
ROOT
HETATM    1  C   UNL     1     -12.423  12.798  67.830  1.00  0.00     0.623 C  
HETATM    2  C   UNL     1     -12.934  12.695  69.145  1.00  0.00     1.663 C  
HETATM    3  C   UNL     1     -11.445  12.839  69.086  1.00  0.00    -0.361 C  
HETATM    4  C   UNL     1     -10.595  13.401  67.290  1.00  0.00    -0.255 C  
HETATM    5  C   UNL     1      -9.250   7.224  69.442  1.00  0.00    -0.148 C  
HETATM    6  O   UNL     1     -11.436  13.686  66.105  1.00  0.00    -0.311 OA 
HETATM    7  C   UNL     1     -11.086  14.108  68.337  1.00  0.00    -0.273 C  
HETATM    8  C   UNL     1      -9.430  13.362  69.022  1.00  0.00     0.333 C  
HETATM    9  H   UNL     1     -11.045  13.945  65.278  1.00  0.00     0.000 HD 
HETATM   10  C   UNL     1     -11.201   8.212  67.589  1.00  0.00     0.587 C  
HETATM   11  O   UNL     1      -9.477   5.254  68.081  1.00  0.00    -0.114 OA 
HETATM   12  C   UNL     1     -11.614  15.521  68.489  1.00  0.00    -0.379 C  
HETATM   13  C   UNL     1      -9.153  11.740  68.338  1.00  0.00    -0.176 C  
HETATM   14  C   UNL     1     -12.441   8.763  66.931  1.00  0.00    10.130 C  
HETATM   15  O   UNL     1      -8.545  11.981  67.056  1.00  0.00    -0.174 OA 
HETATM   16  C   UNL     1      -9.901   6.352  68.419  1.00  0.00    -0.137 C  
HETATM   17  C   UNL     1     -10.406  10.630  68.150  1.00  0.00    -0.203 C  
HETATM   18  C   UNL     1      -9.247   9.060  66.387  1.00  0.00    -0.239 C  
HETATM   19  C   UNL     1     -11.153   6.893  67.864  1.00  0.00    -0.200 C  
HETATM   20  H   UNL     1      -8.398  11.116  66.691  1.00  0.00     0.000 HD 
HETATM   21  C   UNL     1     -11.747  11.183  67.351  1.00  0.00    -0.030 C  
HETATM   22  C   UNL     1     -12.863  10.125  67.465  1.00  0.00     7.887 C  
HETATM   23  C   UNL     1      -9.970   9.139  67.747  1.00  0.00    -0.236 C  
HETATM   24  C   UNL     1      -8.972   8.607  68.859  1.00  0.00    -0.142 C  
ENDROOT
BRANCH   4  25
HETATM   25  C   UNL     1      -9.479  14.680  66.818  1.00  0.00    -0.260 C  
HETATM   26  O   UNL     1      -9.780  15.863  66.565  1.00  0.00    -0.238 OA 
BRANCH  25  27
HETATM   27  C   UNL     1      -7.984  14.333  66.623  1.00  0.00     0.568 C  
BRANCH  27  28
HETATM   28  O   UNL     1      -7.821  13.418  65.500  1.00  0.00     3.163 OA 
BRANCH  28  29
HETATM   29  C   UNL     1      -8.104  12.107  65.735  1.00  0.00     1.025 C  
HETATM   30  O   UNL     1      -7.953  11.210  64.918  1.00  0.00     0.246 OA 
BRANCH  29  31
HETATM   31  C   UNL     1      -8.697  11.885  67.107  1.00  0.00    -0.176 C  
BRANCH  31  32
HETATM   32  C   UNL     1      -7.680  11.422  68.139  1.00  0.00    -0.118 C  
HETATM   33  C   UNL     1      -6.279  11.928  67.897  1.00  0.00    -0.061 C  
HETATM   34  O   UNL     1      -5.621  11.312  66.900  1.00  0.00    -0.072 OA 
HETATM   35  O   UNL     1      -5.756  12.800  68.588  1.00  0.00    -0.064 OA 
ENDBRANCH  31  32
ENDBRANCH  29  31
ENDBRANCH  28  29
ENDBRANCH  27  28
ENDBRANCH  25  27
ENDBRANCH   4  25
TORSDOF 6
ENDMDL
MODEL      166
REMARK 921   NORMALIZED FREE ENERGY PREDICTED BY IDOCK:   75.13 KCAL/MOL
REMARK 922        TOTAL FREE ENERGY PREDICTED BY IDOCK:  100.74 KCAL/MOL
REMARK 923 INTER-LIGAND FREE ENERGY PREDICTED BY IDOCK:   89.72 KCAL/MOL
REMARK 924 INTRA-LIGAND FREE ENERGY PREDICTED BY IDOCK:   11.02 KCAL/MOL
REMARK 927      BINDING AFFINITY PREDICTED BY RF-SCORE:    0.00 PKD
ROOT
HETATM    1  C   UNL     1      -9.388  15.651  67.103  1.00  0.00    -0.229 C  
HETATM    2  C   UNL     1      -9.387  14.326  67.597  1.00  0.00    -0.201 C  
HETATM    3  C   UNL     1     -10.729  14.793  67.126  1.00  0.00    -0.299 C  
HETATM    4  C   UNL     1     -10.817  16.533  66.018  1.00  0.00    -0.069 C  
HETATM    5  C   UNL     1     -13.620  16.693  72.077  1.00  0.00     2.862 C  
HETATM    6  O   UNL     1      -9.585  17.278  65.671  1.00  0.00    -0.527 OA 
HETATM    7  C   UNL     1     -10.636  15.234  65.679  1.00  0.00    -0.377 C  
HETATM    8  C   UNL     1     -12.508  15.320  66.181  1.00  0.00     0.896 C  
HETATM    9  H   UNL     1      -9.625  18.079  65.161  1.00  0.00     0.000 HD 
HETATM   10  C   UNL     1     -11.034  17.513  71.154  1.00  0.00     1.834 C  
HETATM   11  O   UNL     1     -13.189  18.409  73.706  1.00  0.00     5.090 OA 
HETATM   12  C   UNL     1     -10.015  14.543  64.481  1.00  0.00     0.624 C  
HETATM   13  C   UNL     1     -12.737  16.478  67.517  1.00  0.00     3.404 C  
HETATM   14  C   UNL     1      -9.581  17.582  70.754  1.00  0.00     3.975 C  
HETATM   15  O   UNL     1     -12.821  17.764  66.878  1.00  0.00     5.872 OA 
HETATM   16  C   UNL     1     -12.772  17.668  72.826  1.00  0.00     4.882 C  
HETATM   17  C   UNL     1     -11.654  16.575  68.803  1.00  0.00    -0.042 C  
HETATM   18  C   UNL     1     -12.316  18.969  69.665  1.00  0.00    12.077 C  
HETATM   19  C   UNL     1     -11.345  17.643  72.460  1.00  0.00     1.960 C  
HETATM   20  H   UNL     1     -12.943  18.381  67.591  1.00  0.00     0.000 HD 
HETATM   21  C   UNL     1     -10.057  16.741  68.392  1.00  0.00    -0.285 C  
HETATM   22  C   UNL     1      -9.200  16.590  69.664  1.00  0.00     0.329 C  
HETATM   23  C   UNL     1     -12.110  17.487  70.041  1.00  0.00     5.154 C  
HETATM   24  C   UNL     1     -13.494  16.926  70.574  1.00  0.00     7.304 C  
ENDROOT
BRANCH   4  25
HETATM   25  C   UNL     1     -11.520  16.950  64.458  1.00  0.00     0.575 C  
HETATM   26  O   UNL     1     -12.736  17.061  64.205  1.00  0.00     2.540 OA 
BRANCH  25  27
HETATM   27  C   UNL     1     -10.583  17.143  63.243  1.00  0.00     9.257 C  
BRANCH  27  28
HETATM   28  O   UNL     1      -9.256  17.548  63.689  1.00  0.00    10.719 OA 
BRANCH  28  29
HETATM   29  C   UNL     1      -9.172  18.729  64.361  1.00  0.00     7.304 C  
HETATM   30  O   UNL     1      -9.251  19.830  63.835  1.00  0.00     5.983 OA 
BRANCH  29  31
HETATM   31  C   UNL     1      -8.900  18.534  65.835  1.00  0.00     0.207 C  
BRANCH  31  32
HETATM   32  C   UNL     1      -7.587  17.822  66.120  1.00  0.00    -0.302 C  
HETATM   33  C   UNL     1      -6.360  18.595  65.702  1.00  0.00    -0.264 C  
HETATM   34  O   UNL     1      -6.124  18.606  64.379  1.00  0.00    -0.375 OA 
HETATM   35  O   UNL     1      -5.603  19.132  66.509  1.00  0.00    -0.154 OA 
ENDBRANCH  31  32
ENDBRANCH  29  31
ENDBRANCH  28  29
ENDBRANCH  27  28
ENDBRANCH  25  27
ENDBRANCH   4  25
TORSDOF 6
ENDMDL
