MODEL        1
REMARK 921   NORMALIZED FREE ENERGY PREDICTED BY IDOCK:   -7.22 KCAL/MOL
REMARK 922        TOTAL FREE ENERGY PREDICTED BY IDOCK:  -10.75 KCAL/MOL
REMARK 923 INTER-LIGAND FREE ENERGY PREDICTED BY IDOCK:  -10.60 KCAL/MOL
REMARK 924 INTRA-LIGAND FREE ENERGY PREDICTED BY IDOCK:   -0.15 KCAL/MOL
REMARK 927      BINDING AFFINITY PREDICTED BY RF-SCORE:    0.00 PKD
ROOT
HETATM    1  C   UNL     1     -11.013  12.696  63.888  1.00  0.00    -0.468 C  
HETATM    2  C   UNL     1     -12.211  12.052  63.503  1.00  0.00    -0.653 C  
HETATM    3  C   UNL     1     -12.184  12.491  64.936  1.00  0.00    -0.534 C  
HETATM    4  C   UNL     1     -10.696  13.794  65.532  1.00  0.00    -0.302 C  
HETATM    5  C   UNL     1      -9.161   8.795  65.885  1.00  0.00    -0.282 C  
HETATM    6  O   UNL     1      -9.701  14.302  64.558  1.00  0.00    -0.539 OA 
HETATM    7  C   UNL     1     -11.935  13.979  65.016  1.00  0.00    -0.409 C  
HETATM    8  C   UNL     1     -12.296  13.368  66.821  1.00  0.00    -0.287 C  
HETATM    9  H   UNL     1      -9.017  14.901  64.832  1.00  0.00     0.000 HD 
HETATM   10  C   UNL     1      -8.957   7.498  66.188  1.00  0.00    -0.188 C  
HETATM   11  C   UNL     1      -9.264   7.055  67.560  1.00  0.00    -0.124 C  
HETATM   12  C   UNL     1     -12.597  15.118  64.263  1.00  0.00     0.104 C  
HETATM   13  C   UNL     1     -11.081  12.173  67.323  1.00  0.00    -0.287 C  
HETATM   14  C   UNL     1     -10.515   7.634  68.132  1.00  0.00    -0.233 C  
HETATM   15  C   UNL     1      -8.309  10.368  67.546  1.00  0.00    -0.114 C  
HETATM   16  O   UNL     1      -9.961  12.950  67.784  1.00  0.00    -0.218 OA 
HETATM   17  C   UNL     1     -10.528  10.979  66.277  1.00  0.00    -0.310 C  
HETATM   18  C   UNL     1      -9.619   9.833  66.937  1.00  0.00    -0.228 C  
HETATM   19  C   UNL     1     -10.459   9.160  68.102  1.00  0.00    -0.260 C  
HETATM   20  H   UNL     1      -9.311  12.310  68.052  1.00  0.00     0.000 HD 
HETATM   21  C   UNL     1      -9.988  11.505  64.800  1.00  0.00    -0.304 C  
HETATM   22  C   UNL     1      -9.736  10.277  63.902  1.00  0.00    -0.325 C  
HETATM   23  O   UNL     1      -8.554   6.241  68.137  1.00  0.00    -0.117 OA 
HETATM   24  C   UNL     1      -8.757   9.284  64.516  1.00  0.00    -0.218 C  
ENDROOT
BRANCH   4  25
HETATM   25  C   UNL     1     -10.697  15.348  66.368  1.00  0.00    -0.311 C  
HETATM   26  O   UNL     1     -11.229  15.568  67.470  1.00  0.00    -0.322 OA 
BRANCH  25  27
HETATM   27  C   UNL     1     -10.037  16.586  65.706  1.00  0.00    -0.303 C  
BRANCH  27  28
HETATM   28  O   UNL     1      -8.579  16.462  65.816  1.00  0.00    -0.398 OA 
BRANCH  28  29
HETATM   29  C   UNL     1      -7.832  17.542  66.205  1.00  0.00    -0.287 C  
HETATM   30  O   UNL     1      -7.192  18.238  65.423  1.00  0.00    -0.541 OA 
BRANCH  29  31
HETATM   31  C   UNL     1      -7.902  17.734  67.745  1.00  0.00    -0.216 C  
BRANCH  31  32
HETATM   32  N   UNL     1      -8.192  19.136  68.199  1.00  0.00    -0.306 NA 
BRANCH  32  33
HETATM   33  C   UNL     1      -9.566  19.302  68.700  1.00  0.00    -0.418 C  
HETATM   34  C   UNL     1     -10.637  19.559  67.644  1.00  0.00    -0.566 C  
ENDBRANCH  32  33
BRANCH  32  35
HETATM   35  C   UNL     1      -7.165  19.589  69.164  1.00  0.00    -0.347 C  
HETATM   36  C   UNL     1      -5.895  20.183  68.542  1.00  0.00    -0.291 C  
ENDBRANCH  32  35
ENDBRANCH  31  32
ENDBRANCH  29  31
ENDBRANCH  28  29
ENDBRANCH  27  28
ENDBRANCH  25  27
ENDBRANCH   4  25
TORSDOF 8
ENDMDL
MODEL        2
REMARK 921   NORMALIZED FREE ENERGY PREDICTED BY IDOCK:   -7.07 KCAL/MOL
REMARK 922        TOTAL FREE ENERGY PREDICTED BY IDOCK:  -10.52 KCAL/MOL
REMARK 923 INTER-LIGAND FREE ENERGY PREDICTED BY IDOCK:  -10.44 KCAL/MOL
REMARK 924 INTRA-LIGAND FREE ENERGY PREDICTED BY IDOCK:   -0.08 KCAL/MOL
REMARK 927      BINDING AFFINITY PREDICTED BY RF-SCORE:    0.00 PKD
ROOT
HETATM    1  C   UNL     1     -10.962  12.840  64.071  1.00  0.00    -0.454 C  
HETATM    2  C   UNL     1     -12.181  12.230  63.694  1.00  0.00    -0.665 C  
HETATM    3  C   UNL     1     -12.101  12.597  65.146  1.00  0.00    -0.508 C  
HETATM    4  C   UNL     1     -10.576  13.851  65.756  1.00  0.00    -0.297 C  
HETATM    5  C   UNL     1      -9.098   8.823  65.810  1.00  0.00    -0.267 C  
HETATM    6  O   UNL     1      -9.608  14.395  64.775  1.00  0.00    -0.382 OA 
HETATM    7  C   UNL     1     -11.830  14.076  65.291  1.00  0.00    -0.363 C  
HETATM    8  C   UNL     1     -12.139  13.381  67.074  1.00  0.00    -0.390 C  
HETATM    9  H   UNL     1      -8.907  14.972  65.055  1.00  0.00     0.000 HD 
HETATM   10  C   UNL     1      -8.901   7.510  66.042  1.00  0.00    -0.179 C  
HETATM   11  C   UNL     1      -9.170   7.003  67.400  1.00  0.00    -0.126 C  
HETATM   12  C   UNL     1     -12.501  15.259  64.618  1.00  0.00     0.019 C  
HETATM   13  C   UNL     1     -10.925  12.148  67.476  1.00  0.00    -0.257 C  
HETATM   14  C   UNL     1     -10.393   7.568  68.041  1.00  0.00    -0.254 C  
HETATM   15  C   UNL     1      -8.171  10.302  67.518  1.00  0.00    -0.114 C  
HETATM   16  O   UNL     1      -9.780  12.887  67.937  1.00  0.00    -0.204 OA 
HETATM   17  C   UNL     1     -10.422  11.000  66.354  1.00  0.00    -0.312 C  
HETATM   18  C   UNL     1      -9.508   9.813  66.927  1.00  0.00    -0.202 C  
HETATM   19  C   UNL     1     -10.318   9.093  68.084  1.00  0.00    -0.263 C  
HETATM   20  H   UNL     1      -9.130  12.228  68.152  1.00  0.00     0.000 HD 
HETATM   21  C   UNL     1      -9.924  11.593  64.888  1.00  0.00    -0.293 C  
HETATM   22  C   UNL     1      -9.718  10.408  63.923  1.00  0.00    -0.367 C  
HETATM   23  O   UNL     1      -8.452   6.153  67.912  1.00  0.00    -0.116 OA 
HETATM   24  C   UNL     1      -8.732   9.375  64.454  1.00  0.00    -0.227 C  
ENDROOT
BRANCH   4  25
HETATM   25  C   UNL     1     -10.530  15.361  66.667  1.00  0.00    -0.293 C  
HETATM   26  O   UNL     1     -11.290  15.655  67.605  1.00  0.00    -0.313 OA 
BRANCH  25  27
HETATM   27  C   UNL     1      -9.511  16.467  66.285  1.00  0.00    -0.317 C  
BRANCH  27  28
HETATM   28  O   UNL     1     -10.227  17.565  65.625  1.00  0.00    -0.595 OA 
BRANCH  28  29
HETATM   29  C   UNL     1     -10.037  18.853  66.051  1.00  0.00    -0.329 C  
HETATM   30  O   UNL     1     -10.705  19.802  65.652  1.00  0.00    -0.505 OA 
BRANCH  29  31
HETATM   31  C   UNL     1      -8.870  18.928  67.073  1.00  0.00    -0.294 C  
BRANCH  31  32
HETATM   32  N   UNL     1      -7.882  20.033  66.830  1.00  0.00    -0.298 NA 
BRANCH  32  33
HETATM   33  C   UNL     1      -6.992  20.267  67.978  1.00  0.00    -0.292 C  
HETATM   34  C   UNL     1      -7.113  19.276  69.132  1.00  0.00    -0.370 C  
ENDBRANCH  32  33
BRANCH  32  35
HETATM   35  C   UNL     1      -7.147  19.800  65.565  1.00  0.00    -0.288 C  
HETATM   36  C   UNL     1      -6.371  18.480  65.490  1.00  0.00    -0.320 C  
ENDBRANCH  32  35
ENDBRANCH  31  32
ENDBRANCH  29  31
ENDBRANCH  28  29
ENDBRANCH  27  28
ENDBRANCH  25  27
ENDBRANCH   4  25
TORSDOF 8
ENDMDL
MODEL        3
REMARK 921   NORMALIZED FREE ENERGY PREDICTED BY IDOCK:   -6.72 KCAL/MOL
REMARK 922        TOTAL FREE ENERGY PREDICTED BY IDOCK:  -10.00 KCAL/MOL
REMARK 923 INTER-LIGAND FREE ENERGY PREDICTED BY IDOCK:  -10.07 KCAL/MOL
REMARK 924 INTRA-LIGAND FREE ENERGY PREDICTED BY IDOCK:    0.07 KCAL/MOL
REMARK 927      BINDING AFFINITY PREDICTED BY RF-SCORE:    0.00 PKD
ROOT
HETATM    1  C   UNL     1     -10.943  12.728  65.154  1.00  0.00    -0.323 C  
HETATM    2  C   UNL     1     -12.280  12.371  64.865  1.00  0.00    -0.485 C  
HETATM    3  C   UNL     1     -12.107  13.107  66.160  1.00  0.00    -0.479 C  
HETATM    4  C   UNL     1     -10.303  14.047  66.518  1.00  0.00    -0.285 C  
HETATM    5  C   UNL     1     -10.231   9.045  68.079  1.00  0.00    -0.260 C  
HETATM    6  O   UNL     1      -9.222  14.018  65.504  1.00  0.00    -0.401 OA 
HETATM    7  C   UNL     1     -11.449  14.443  65.911  1.00  0.00    -0.341 C  
HETATM    8  C   UNL     1     -11.937  14.395  67.787  1.00  0.00    -0.368 C  
HETATM    9  H   UNL     1      -8.392  14.451  65.669  1.00  0.00     0.000 HD 
HETATM   10  C   UNL     1     -10.395   7.850  68.680  1.00  0.00    -0.224 C  
HETATM   11  C   UNL     1     -10.792   7.842  70.099  1.00  0.00    -0.243 C  
HETATM   12  C   UNL     1     -11.775  15.513  64.886  1.00  0.00    -0.118 C  
HETATM   13  C   UNL     1     -11.099  13.061  68.609  1.00  0.00    -0.269 C  
HETATM   14  C   UNL     1     -11.820   8.862  70.461  1.00  0.00    -0.073 C  
HETATM   15  C   UNL     1      -8.944  10.662  69.378  1.00  0.00    -0.049 C  
HETATM   16  O   UNL     1      -9.799  13.582  68.937  1.00  0.00    -0.413 OA 
HETATM   17  C   UNL     1     -10.922  11.550  67.893  1.00  0.00    -0.287 C  
HETATM   18  C   UNL     1     -10.361  10.385  68.842  1.00  0.00    -0.227 C  
HETATM   19  C   UNL     1     -11.338  10.262  70.085  1.00  0.00    -0.388 C  
HETATM   20  H   UNL     1      -9.351  12.868  69.376  1.00  0.00     0.000 HD 
HETATM   21  C   UNL     1     -10.280  11.547  66.364  1.00  0.00    -0.261 C  
HETATM   22  C   UNL     1     -10.398  10.123  65.784  1.00  0.00    -0.216 C  
HETATM   23  O   UNL     1     -10.330   7.021  70.882  1.00  0.00    -0.198 OA 
HETATM   24  C   UNL     1      -9.727   9.069  66.657  1.00  0.00    -0.295 C  
ENDROOT
BRANCH   4  25
HETATM   25  C   UNL     1      -9.854  15.691  66.976  1.00  0.00    -0.233 C  
HETATM   26  O   UNL     1     -10.651  16.587  67.301  1.00  0.00    -0.315 OA 
BRANCH  25  27
HETATM   27  C   UNL     1      -8.364  16.125  66.948  1.00  0.00    -0.236 C  
BRANCH  27  28
HETATM   28  O   UNL     1      -8.149  17.011  65.798  1.00  0.00    -0.460 OA 
BRANCH  28  29
HETATM   29  C   UNL     1      -7.224  18.017  65.880  1.00  0.00    -0.243 C  
HETATM   30  O   UNL     1      -6.785  18.613  64.901  1.00  0.00    -0.501 OA 
BRANCH  29  31
HETATM   31  C   UNL     1      -6.813  18.269  67.356  1.00  0.00    -0.197 C  
BRANCH  31  32
HETATM   32  N   UNL     1      -7.313  19.556  67.946  1.00  0.00    -0.267 NA 
BRANCH  32  33
HETATM   33  C   UNL     1      -8.648  19.427  68.551  1.00  0.00    -0.364 C  
HETATM   34  C   UNL     1      -9.811  19.983  67.735  1.00  0.00    -0.545 C  
ENDBRANCH  32  33
BRANCH  32  35
HETATM   35  C   UNL     1      -6.308  20.124  68.874  1.00  0.00    -0.323 C  
HETATM   36  C   UNL     1      -6.229  19.449  70.249  1.00  0.00    -0.184 C  
ENDBRANCH  32  35
ENDBRANCH  31  32
ENDBRANCH  29  31
ENDBRANCH  28  29
ENDBRANCH  27  28
ENDBRANCH  25  27
ENDBRANCH   4  25
TORSDOF 8
ENDMDL
MODEL        4
REMARK 921   NORMALIZED FREE ENERGY PREDICTED BY IDOCK:   -6.60 KCAL/MOL
REMARK 922        TOTAL FREE ENERGY PREDICTED BY IDOCK:   -9.84 KCAL/MOL
REMARK 923 INTER-LIGAND FREE ENERGY PREDICTED BY IDOCK:   -9.48 KCAL/MOL
REMARK 924 INTRA-LIGAND FREE ENERGY PREDICTED BY IDOCK:   -0.35 KCAL/MOL
REMARK 927      BINDING AFFINITY PREDICTED BY RF-SCORE:    0.00 PKD
ROOT
HETATM    1  C   UNL     1     -10.027   9.390  66.462  1.00  0.00    -0.339 C  
HETATM    2  C   UNL     1      -8.929   9.327  65.574  1.00  0.00    -0.251 C  
HETATM    3  C   UNL     1      -8.666  10.116  66.821  1.00  0.00    -0.133 C  
HETATM    4  C   UNL     1     -10.008   9.957  68.383  1.00  0.00    -0.158 C  
HETATM    5  C   UNL     1     -11.406  13.699  64.989  1.00  0.00    -0.339 C  
HETATM    6  O   UNL     1     -11.184   9.061  68.280  1.00  0.00    -0.459 OA 
HETATM    7  C   UNL     1      -8.902   9.254  68.039  1.00  0.00    -0.128 C  
HETATM    8  C   UNL     1      -8.175  10.937  68.671  1.00  0.00    -0.146 C  
HETATM    9  H   UNL     1     -11.802   8.988  68.998  1.00  0.00     0.000 HD 
HETATM   10  C   UNL     1     -11.535  14.796  64.218  1.00  0.00    -0.159 C  
HETATM   11  C   UNL     1     -10.950  16.056  64.710  1.00  0.00    -0.356 C  
HETATM   12  C   UNL     1      -8.416   7.849  68.346  1.00  0.00    -0.128 C  
HETATM   13  C   UNL     1      -9.254  12.278  68.232  1.00  0.00    -0.189 C  
HETATM   14  C   UNL     1      -9.612  15.908  65.356  1.00  0.00    -0.015 C  
HETATM   15  C   UNL     1     -11.909  14.057  67.351  1.00  0.00    -0.445 C  
HETATM   16  O   UNL     1     -10.261  12.300  69.260  1.00  0.00    -0.409 OA 
HETATM   17  C   UNL     1     -10.001  12.360  66.729  1.00  0.00    -0.234 C  
HETATM   18  C   UNL     1     -10.748  13.739  66.390  1.00  0.00    -0.281 C  
HETATM   19  C   UNL     1      -9.683  14.907  66.507  1.00  0.00    -0.294 C  
HETATM   20  H   UNL     1     -10.838  13.018  69.025  1.00  0.00     0.000 HD 
HETATM   21  C   UNL     1     -10.836  11.005  66.263  1.00  0.00    -0.234 C  
HETATM   22  C   UNL     1     -11.258  11.169  64.789  1.00  0.00    -0.040 C  
HETATM   23  O   UNL     1     -11.522  17.127  64.546  1.00  0.00    -0.907 OA 
HETATM   24  C   UNL     1     -12.085  12.426  64.546  1.00  0.00    -0.492 C  
ENDROOT
BRANCH   4  25
HETATM   25  C   UNL     1      -9.846   9.576  70.098  1.00  0.00    -0.244 C  
HETATM   26  O   UNL     1      -8.792   9.228  70.657  1.00  0.00    -0.213 OA 
BRANCH  25  27
HETATM   27  C   UNL     1     -11.090   9.617  71.023  1.00  0.00    -0.368 C  
BRANCH  27  28
HETATM   28  O   UNL     1     -11.987  10.684  70.566  1.00  0.00    -0.291 OA 
BRANCH  28  29
HETATM   29  C   UNL     1     -12.841  11.282  71.455  1.00  0.00    -0.414 C  
HETATM   30  O   UNL     1     -13.245  10.734  72.477  1.00  0.00    -0.075 OA 
BRANCH  29  31
HETATM   31  C   UNL     1     -13.225  12.708  70.976  1.00  0.00     0.184 C  
BRANCH  31  32
HETATM   32  N   UNL     1     -12.541  13.830  71.704  1.00  0.00    -0.314 NA 
BRANCH  32  33
HETATM   33  C   UNL     1     -12.150  14.935  70.814  1.00  0.00    -0.317 C  
HETATM   34  C   UNL     1     -10.666  15.285  70.793  1.00  0.00    -0.174 C  
ENDBRANCH  32  33
BRANCH  32  35
HETATM   35  C   UNL     1     -13.361  14.274  72.855  1.00  0.00    -0.462 C  
HETATM   36  C   UNL     1     -13.590  15.787  72.952  1.00  0.00    -0.660 C  
ENDBRANCH  32  35
ENDBRANCH  31  32
ENDBRANCH  29  31
ENDBRANCH  28  29
ENDBRANCH  27  28
ENDBRANCH  25  27
ENDBRANCH   4  25
TORSDOF 8
ENDMDL
MODEL        5
REMARK 921   NORMALIZED FREE ENERGY PREDICTED BY IDOCK:   -6.55 KCAL/MOL
REMARK 922        TOTAL FREE ENERGY PREDICTED BY IDOCK:   -9.76 KCAL/MOL
REMARK 923 INTER-LIGAND FREE ENERGY PREDICTED BY IDOCK:   -9.93 KCAL/MOL
REMARK 924 INTRA-LIGAND FREE ENERGY PREDICTED BY IDOCK:    0.17 KCAL/MOL
REMARK 927      BINDING AFFINITY PREDICTED BY RF-SCORE:    0.00 PKD
ROOT
HETATM    1  C   UNL     1     -11.522  15.462  65.887  1.00  0.00    -0.014 C  
HETATM    2  C   UNL     1     -11.324  15.321  64.494  1.00  0.00    -0.307 C  
HETATM    3  C   UNL     1     -10.292  14.631  65.333  1.00  0.00    -0.406 C  
HETATM    4  C   UNL     1     -10.667  14.396  67.351  1.00  0.00    -0.280 C  
HETATM    5  C   UNL     1      -8.358  18.988  66.323  1.00  0.00    -0.293 C  
HETATM    6  O   UNL     1     -11.940  14.873  67.943  1.00  0.00    -0.502 OA 
HETATM    7  C   UNL     1     -10.956  13.642  66.263  1.00  0.00    -0.300 C  
HETATM    8  C   UNL     1      -9.042  13.408  66.465  1.00  0.00    -0.128 C  
HETATM    9  H   UNL     1     -12.112  14.765  68.871  1.00  0.00     0.000 HD 
HETATM   10  C   UNL     1      -7.538  20.006  65.996  1.00  0.00    -0.326 C  
HETATM   11  C   UNL     1      -6.086  19.792  66.135  1.00  0.00    -0.176 C  
HETATM   12  C   UNL     1     -12.004  12.584  65.970  1.00  0.00    -0.456 C  
HETATM   13  C   UNL     1      -8.295  14.910  67.051  1.00  0.00    -0.216 C  
HETATM   14  C   UNL     1      -5.613  18.448  65.688  1.00  0.00    -0.226 C  
HETATM   15  C   UNL     1      -7.812  17.885  68.432  1.00  0.00    -0.288 C  
HETATM   16  O   UNL     1      -8.473  14.883  68.479  1.00  0.00    -0.149 OA 
HETATM   17  C   UNL     1      -8.758  16.417  66.467  1.00  0.00    -0.324 C  
HETATM   18  C   UNL     1      -7.836  17.654  66.908  1.00  0.00    -0.252 C  
HETATM   19  C   UNL     1      -6.354  17.345  66.439  1.00  0.00    -0.268 C  
HETATM   20  H   UNL     1      -8.073  15.687  68.792  1.00  0.00     0.000 HD 
HETATM   21  C   UNL     1     -10.384  16.737  66.503  1.00  0.00    -0.301 C  
HETATM   22  C   UNL     1     -10.645  18.048  65.734  1.00  0.00    -0.174 C  
HETATM   23  O   UNL     1      -5.351  20.681  66.544  1.00  0.00    -0.167 OA 
HETATM   24  C   UNL     1      -9.848  19.225  66.283  1.00  0.00    -0.456 C  
ENDROOT
BRANCH   4  25
HETATM   25  C   UNL     1     -10.659  13.009  68.440  1.00  0.00    -0.251 C  
HETATM   26  O   UNL     1      -9.771  12.141  68.489  1.00  0.00    -0.206 OA 
BRANCH  25  27
HETATM   27  C   UNL     1     -11.850  12.775  69.408  1.00  0.00    -0.300 C  
BRANCH  27  28
HETATM   28  O   UNL     1     -12.106  11.333  69.505  1.00  0.00    -0.321 OA 
BRANCH  28  29
HETATM   29  C   UNL     1     -12.127  10.727  70.733  1.00  0.00    -0.372 C  
HETATM   30  O   UNL     1     -12.861  11.084  71.650  1.00  0.00    -0.430 OA 
BRANCH  29  31
HETATM   31  C   UNL     1     -11.096   9.568  70.792  1.00  0.00    -0.323 C  
BRANCH  31  32
HETATM   32  N   UNL     1     -10.892   8.965  72.152  1.00  0.00    -0.334 NA 
BRANCH  32  33
HETATM   33  C   UNL     1     -11.859   7.898  72.455  1.00  0.00    -0.335 C  
HETATM   34  C   UNL     1     -12.475   7.190  71.252  1.00  0.00    -0.425 C  
ENDBRANCH  32  33
BRANCH  32  35
HETATM   35  C   UNL     1      -9.485   8.537  72.323  1.00  0.00    -0.295 C  
HETATM   36  C   UNL     1      -9.214   7.634  73.533  1.00  0.00    -0.331 C  
ENDBRANCH  32  35
ENDBRANCH  31  32
ENDBRANCH  29  31
ENDBRANCH  28  29
ENDBRANCH  27  28
ENDBRANCH  25  27
ENDBRANCH   4  25
TORSDOF 8
ENDMDL
MODEL        6
REMARK 921   NORMALIZED FREE ENERGY PREDICTED BY IDOCK:   -6.55 KCAL/MOL
REMARK 922        TOTAL FREE ENERGY PREDICTED BY IDOCK:   -9.76 KCAL/MOL
REMARK 923 INTER-LIGAND FREE ENERGY PREDICTED BY IDOCK:   -9.36 KCAL/MOL
REMARK 924 INTRA-LIGAND FREE ENERGY PREDICTED BY IDOCK:   -0.40 KCAL/MOL
REMARK 927      BINDING AFFINITY PREDICTED BY RF-SCORE:    0.00 PKD
ROOT
HETATM    1  C   UNL     1      -9.974   9.819  65.336  1.00  0.00    -0.302 C  
HETATM    2  C   UNL     1      -9.132  10.005  64.216  1.00  0.00    -0.296 C  
HETATM    3  C   UNL     1      -8.464  10.251  65.535  1.00  0.00    -0.167 C  
HETATM    4  C   UNL     1      -9.428   9.628  67.253  1.00  0.00    -0.143 C  
HETATM    5  C   UNL     1     -10.893  14.459  65.845  1.00  0.00    -0.304 C  
HETATM    6  O   UNL     1     -10.732   8.928  67.175  1.00  0.00    -0.322 OA 
HETATM    7  C   UNL     1      -8.564   9.019  66.404  1.00  0.00    -0.136 C  
HETATM    8  C   UNL     1      -7.437  10.285  67.346  1.00  0.00    -0.094 C  
HETATM    9  H   UNL     1     -11.176   8.642  67.965  1.00  0.00     0.000 HD 
HETATM   10  C   UNL     1     -11.003  15.771  65.557  1.00  0.00    -0.275 C  
HETATM   11  C   UNL     1     -10.117  16.708  66.270  1.00  0.00    -0.328 C  
HETATM   12  C   UNL     1      -8.268   7.568  66.072  1.00  0.00    -0.130 C  
HETATM   13  C   UNL     1      -8.342  11.773  67.700  1.00  0.00    -0.145 C  
HETATM   14  C   UNL     1      -8.713  16.228  66.437  1.00  0.00    -0.354 C  
HETATM   15  C   UNL     1     -10.784  13.951  68.230  1.00  0.00    -0.261 C  
HETATM   16  O   UNL     1      -9.073  11.489  68.906  1.00  0.00    -0.366 OA 
HETATM   17  C   UNL     1      -9.383  12.465  66.576  1.00  0.00    -0.233 C  
HETATM   18  C   UNL     1      -9.941  13.924  66.941  1.00  0.00    -0.264 C  
HETATM   19  C   UNL     1      -8.693  14.880  67.154  1.00  0.00    -0.240 C  
HETATM   20  H   UNL     1      -9.557  12.285  69.095  1.00  0.00     0.000 HD 
HETATM   21  C   UNL     1     -10.520  11.449  65.923  1.00  0.00    -0.309 C  
HETATM   22  C   UNL     1     -11.228  12.182  64.766  1.00  0.00    -0.373 C  
HETATM   23  O   UNL     1     -10.519  17.804  66.640  1.00  0.00    -0.344 OA 
HETATM   24  C   UNL     1     -11.862  13.499  65.198  1.00  0.00    -0.363 C  
ENDROOT
BRANCH   4  25
HETATM   25  C   UNL     1      -8.951   8.625  68.623  1.00  0.00    -0.142 C  
HETATM   26  O   UNL     1      -8.001   8.862  69.388  1.00  0.00    -0.095 OA 
BRANCH  25  27
HETATM   27  C   UNL     1      -9.713   7.307  68.923  1.00  0.00    -0.148 C  
BRANCH  27  28
HETATM   28  O   UNL     1     -10.912   7.620  69.709  1.00  0.00    -0.241 OA 
BRANCH  28  29
HETATM   29  C   UNL     1     -10.819   7.742  71.070  1.00  0.00    -0.239 C  
HETATM   30  O   UNL     1     -10.622   6.792  71.823  1.00  0.00    -0.211 OA 
BRANCH  29  31
HETATM   31  C   UNL     1     -11.015   9.220  71.504  1.00  0.00    -0.375 C  
BRANCH  31  32
HETATM   32  N   UNL     1     -12.371   9.795  71.213  1.00  0.00    -0.345 NA 
BRANCH  32  33
HETATM   33  C   UNL     1     -13.392   9.371  72.183  1.00  0.00    -0.468 C  
HETATM   34  C   UNL     1     -14.337   8.265  71.723  1.00  0.00    -0.574 C  
ENDBRANCH  32  33
BRANCH  32  35
HETATM   35  C   UNL     1     -12.288  11.266  71.065  1.00  0.00    -0.366 C  
HETATM   36  C   UNL     1     -13.319  12.067  71.871  1.00  0.00    -0.408 C  
ENDBRANCH  32  35
ENDBRANCH  31  32
ENDBRANCH  29  31
ENDBRANCH  28  29
ENDBRANCH  27  28
ENDBRANCH  25  27
ENDBRANCH   4  25
TORSDOF 8
ENDMDL
MODEL        7
REMARK 921   NORMALIZED FREE ENERGY PREDICTED BY IDOCK:   -6.51 KCAL/MOL
REMARK 922        TOTAL FREE ENERGY PREDICTED BY IDOCK:   -9.70 KCAL/MOL
REMARK 923 INTER-LIGAND FREE ENERGY PREDICTED BY IDOCK:   -9.52 KCAL/MOL
REMARK 924 INTRA-LIGAND FREE ENERGY PREDICTED BY IDOCK:   -0.19 KCAL/MOL
REMARK 927      BINDING AFFINITY PREDICTED BY RF-SCORE:    0.00 PKD
ROOT
HETATM    1  C   UNL     1      -7.920  10.274  68.843  1.00  0.00    -0.113 C  
HETATM    2  C   UNL     1      -7.124   9.278  68.232  1.00  0.00    -0.076 C  
HETATM    3  C   UNL     1      -8.586   9.171  67.922  1.00  0.00    -0.121 C  
HETATM    4  C   UNL     1      -9.808  10.769  68.395  1.00  0.00    -0.169 C  
HETATM    5  C   UNL     1      -9.290   7.458  72.425  1.00  0.00    -0.179 C  
HETATM    6  O   UNL     1      -9.242  12.000  68.996  1.00  0.00    -0.384 OA 
HETATM    7  C   UNL     1      -9.079  10.454  67.296  1.00  0.00    -0.146 C  
HETATM    8  C   UNL     1     -10.548   9.192  67.226  1.00  0.00    -0.303 C  
HETATM    9  H   UNL     1      -9.804  12.735  69.213  1.00  0.00     0.000 HD 
HETATM   10  C   UNL     1      -9.311   6.431  73.297  1.00  0.00    -0.140 C  
HETATM   11  C   UNL     1     -10.425   5.472  73.204  1.00  0.00    -0.222 C  
HETATM   12  C   UNL     1      -8.490  11.271  66.160  1.00  0.00    -0.135 C  
HETATM   13  C   UNL     1     -11.015   8.695  68.867  1.00  0.00     0.120 C  
HETATM   14  C   UNL     1     -10.815   5.107  71.810  1.00  0.00    -0.149 C  
HETATM   15  C   UNL     1     -11.433   8.598  72.154  1.00  0.00    -0.443 C  
HETATM   16  O   UNL     1     -11.896   9.731  69.335  1.00  0.00    -0.448 OA 
HETATM   17  C   UNL     1      -9.869   8.370  70.054  1.00  0.00    -0.182 C  
HETATM   18  C   UNL     1     -10.426   7.705  71.403  1.00  0.00    -0.230 C  
HETATM   19  C   UNL     1     -11.167   6.359  71.010  1.00  0.00    -0.370 C  
HETATM   20  H   UNL     1     -12.145   9.466  70.213  1.00  0.00     0.000 HD 
HETATM   21  C   UNL     1      -8.729   9.549  70.299  1.00  0.00    -0.270 C  
HETATM   22  C   UNL     1      -7.645   8.996  71.246  1.00  0.00    -0.104 C  
HETATM   23  O   UNL     1     -10.938   4.996  74.210  1.00  0.00    -0.310 OA 
HETATM   24  C   UNL     1      -8.212   8.503  72.572  1.00  0.00    -0.144 C  
ENDROOT
BRANCH   4  25
HETATM   25  C   UNL     1     -10.970  11.729  67.478  1.00  0.00    -0.256 C  
HETATM   26  O   UNL     1     -11.773  11.277  66.644  1.00  0.00    -0.368 OA 
BRANCH  25  27
HETATM   27  C   UNL     1     -11.010  13.270  67.650  1.00  0.00    -0.262 C  
BRANCH  27  28
HETATM   28  O   UNL     1     -11.904  13.600  68.766  1.00  0.00    -0.323 OA 
BRANCH  28  29
HETATM   29  C   UNL     1     -11.752  14.789  69.430  1.00  0.00    -0.323 C  
HETATM   30  O   UNL     1     -11.621  15.869  68.861  1.00  0.00    -0.371 OA 
BRANCH  29  31
HETATM   31  C   UNL     1     -11.751  14.565  70.966  1.00  0.00    -0.237 C  
BRANCH  31  32
HETATM   32  N   UNL     1     -12.787  15.345  71.724  1.00  0.00    -0.375 NA 
BRANCH  32  33
HETATM   33  C   UNL     1     -13.859  14.495  72.265  1.00  0.00    -0.486 C  
HETATM   34  C   UNL     1     -13.571  12.997  72.308  1.00  0.00    -0.643 C  
ENDBRANCH  32  33
BRANCH  32  35
HETATM   35  C   UNL     1     -12.145  16.194  72.754  1.00  0.00    -0.553 C  
HETATM   36  C   UNL     1     -12.301  15.704  74.199  1.00  0.00    -0.799 C  
ENDBRANCH  32  35
ENDBRANCH  31  32
ENDBRANCH  29  31
ENDBRANCH  28  29
ENDBRANCH  27  28
ENDBRANCH  25  27
ENDBRANCH   4  25
TORSDOF 8
ENDMDL
MODEL        8
REMARK 921   NORMALIZED FREE ENERGY PREDICTED BY IDOCK:   -6.44 KCAL/MOL
REMARK 922        TOTAL FREE ENERGY PREDICTED BY IDOCK:   -9.60 KCAL/MOL
REMARK 923 INTER-LIGAND FREE ENERGY PREDICTED BY IDOCK:   -9.48 KCAL/MOL
REMARK 924 INTRA-LIGAND FREE ENERGY PREDICTED BY IDOCK:   -0.12 KCAL/MOL
REMARK 927      BINDING AFFINITY PREDICTED BY RF-SCORE:    0.00 PKD
ROOT
HETATM    1  C   UNL     1     -10.107   9.956  65.795  1.00  0.00    -0.317 C  
HETATM    2  C   UNL     1      -9.060   9.963  64.845  1.00  0.00    -0.271 C  
HETATM    3  C   UNL     1      -8.658  10.443  66.207  1.00  0.00    -0.147 C  
HETATM    4  C   UNL     1      -9.947  10.106  67.786  1.00  0.00    -0.168 C  
HETATM    5  C   UNL     1     -11.035  14.596  65.312  1.00  0.00    -0.374 C  
HETATM    6  O   UNL     1     -11.222   9.379  67.577  1.00  0.00    -0.423 OA 
HETATM    7  C   UNL     1      -8.943   9.377  67.238  1.00  0.00    -0.143 C  
HETATM    8  C   UNL     1      -8.003  10.806  68.150  1.00  0.00    -0.114 C  
HETATM    9  H   UNL     1     -11.815   9.224  68.304  1.00  0.00     0.000 HD 
HETATM   10  C   UNL     1     -11.068  15.837  64.788  1.00  0.00    -0.413 C  
HETATM   11  C   UNL     1     -10.322  16.899  65.487  1.00  0.00    -0.177 C  
HETATM   12  C   UNL     1      -8.611   7.896  67.224  1.00  0.00    -0.128 C  
HETATM   13  C   UNL     1      -8.935  12.316  68.060  1.00  0.00    -0.190 C  
HETATM   14  C   UNL     1      -8.986  16.480  66.004  1.00  0.00    -0.276 C  
HETATM   15  C   UNL     1     -11.400  14.507  67.724  1.00  0.00    -0.335 C  
HETATM   16  O   UNL     1      -9.891  12.229  69.132  1.00  0.00    -0.394 OA 
HETATM   17  C   UNL     1      -9.728  12.785  66.653  1.00  0.00    -0.252 C  
HETATM   18  C   UNL     1     -10.323  14.275  66.647  1.00  0.00    -0.279 C  
HETATM   19  C   UNL     1      -9.126  15.276  66.931  1.00  0.00    -0.263 C  
HETATM   20  H   UNL     1     -10.391  13.036  69.083  1.00  0.00     0.000 HD 
HETATM   21  C   UNL     1     -10.731  11.652  65.977  1.00  0.00    -0.328 C  
HETATM   22  C   UNL     1     -11.190  12.162  64.596  1.00  0.00    -0.374 C  
HETATM   23  O   UNL     1     -10.772  18.034  65.578  1.00  0.00    -0.597 OA 
HETATM   24  C   UNL     1     -11.875  13.522  64.664  1.00  0.00    -0.428 C  
ENDROOT
BRANCH   4  25
HETATM   25  C   UNL     1      -9.761   9.362  69.374  1.00  0.00    -0.177 C  
HETATM   26  O   UNL     1      -8.886   9.657  70.206  1.00  0.00    -0.223 OA 
BRANCH  25  27
HETATM   27  C   UNL     1     -10.708   8.212  69.808  1.00  0.00    -0.229 C  
BRANCH  27  28
HETATM   28  O   UNL     1     -11.826   8.780  70.570  1.00  0.00    -0.181 OA 
BRANCH  28  29
HETATM   29  C   UNL     1     -12.549   7.980  71.416  1.00  0.00    -0.289 C  
HETATM   30  O   UNL     1     -13.523   8.372  72.050  1.00  0.00    -0.342 OA 
BRANCH  29  31
HETATM   31  C   UNL     1     -11.951   6.547  71.462  1.00  0.00    -0.329 C  
BRANCH  31  32
HETATM   32  N   UNL     1     -11.345   6.152  72.778  1.00  0.00    -0.252 NA 
BRANCH  32  33
HETATM   33  C   UNL     1     -10.405   5.026  72.661  1.00  0.00    -0.199 C  
HETATM   34  C   UNL     1     -10.078   4.572  71.242  1.00  0.00    -0.225 C  
ENDBRANCH  32  33
BRANCH  32  35
HETATM   35  C   UNL     1     -10.754   7.333  73.450  1.00  0.00    -0.369 C  
HETATM   36  C   UNL     1      -9.221   7.371  73.482  1.00  0.00    -0.275 C  
ENDBRANCH  32  35
ENDBRANCH  31  32
ENDBRANCH  29  31
ENDBRANCH  28  29
ENDBRANCH  27  28
ENDBRANCH  25  27
ENDBRANCH   4  25
TORSDOF 8
ENDMDL
MODEL        9
REMARK 921   NORMALIZED FREE ENERGY PREDICTED BY IDOCK:   -6.41 KCAL/MOL
REMARK 922        TOTAL FREE ENERGY PREDICTED BY IDOCK:   -9.55 KCAL/MOL
REMARK 923 INTER-LIGAND FREE ENERGY PREDICTED BY IDOCK:   -9.43 KCAL/MOL
REMARK 924 INTRA-LIGAND FREE ENERGY PREDICTED BY IDOCK:   -0.12 KCAL/MOL
REMARK 927      BINDING AFFINITY PREDICTED BY RF-SCORE:    0.00 PKD
ROOT
HETATM    1  C   UNL     1     -10.462  12.386  65.275  1.00  0.00    -0.316 C  
HETATM    2  C   UNL     1     -11.711  12.037  64.711  1.00  0.00    -0.342 C  
HETATM    3  C   UNL     1     -11.705  12.086  66.209  1.00  0.00    -0.319 C  
HETATM    4  C   UNL     1     -10.095  12.970  67.154  1.00  0.00    -0.244 C  
HETATM    5  C   UNL     1      -9.248   7.883  66.218  1.00  0.00    -0.231 C  
HETATM    6  O   UNL     1      -8.990  13.566  66.366  1.00  0.00    -0.452 OA 
HETATM    7  C   UNL     1     -11.269  13.454  66.681  1.00  0.00    -0.330 C  
HETATM    8  C   UNL     1     -11.806  12.458  68.255  1.00  0.00    -0.364 C  
HETATM    9  H   UNL     1      -8.249  13.973  66.800  1.00  0.00     0.000 HD 
HETATM   10  C   UNL     1      -9.232   6.536  66.175  1.00  0.00    -0.126 C  
HETATM   11  C   UNL     1      -9.670   5.805  67.377  1.00  0.00    -0.123 C  
HETATM   12  C   UNL     1     -11.734  14.829  66.239  1.00  0.00    -0.260 C  
HETATM   13  C   UNL     1     -10.787  11.016  68.451  1.00  0.00    -0.220 C  
HETATM   14  C   UNL     1     -10.864   6.388  68.057  1.00  0.00    -0.396 C  
HETATM   15  C   UNL     1      -8.291   8.843  68.249  1.00  0.00    -0.125 C  
HETATM   16  O   UNL     1      -9.602  11.483  69.121  1.00  0.00    -0.414 OA 
HETATM   17  C   UNL     1     -10.338  10.063  67.140  1.00  0.00    -0.300 C  
HETATM   18  C   UNL     1      -9.624   8.671  67.496  1.00  0.00    -0.196 C  
HETATM   19  C   UNL     1     -10.608   7.847  68.427  1.00  0.00    -0.154 C  
HETATM   20  H   UNL     1      -9.057  10.711  69.225  1.00  0.00     0.000 HD 
HETATM   21  C   UNL     1      -9.653  10.869  65.863  1.00  0.00    -0.257 C  
HETATM   22  C   UNL     1      -9.515   9.889  64.680  1.00  0.00    -0.343 C  
HETATM   23  O   UNL     1      -9.105   4.779  67.736  1.00  0.00    -0.109 OA 
HETATM   24  C   UNL     1      -8.708   8.645  65.032  1.00  0.00    -0.154 C  
ENDROOT
BRANCH   4  25
HETATM   25  C   UNL     1      -9.939  14.242  68.367  1.00  0.00    -0.240 C  
HETATM   26  O   UNL     1     -10.794  14.522  69.225  1.00  0.00    -0.252 OA 
BRANCH  25  27
HETATM   27  C   UNL     1      -8.678  15.146  68.387  1.00  0.00    -0.169 C  
BRANCH  27  28
HETATM   28  O   UNL     1      -9.036  16.472  67.872  1.00  0.00    -0.203 OA 
BRANCH  28  29
HETATM   29  C   UNL     1      -8.527  16.895  66.672  1.00  0.00    -0.250 C  
HETATM   30  O   UNL     1      -8.975  16.542  65.585  1.00  0.00    -0.449 OA 
BRANCH  29  31
HETATM   31  C   UNL     1      -7.320  17.847  66.892  1.00  0.00    -0.201 C  
BRANCH  31  32
HETATM   32  N   UNL     1      -7.676  19.294  67.081  1.00  0.00    -0.243 NA 
BRANCH  32  33
HETATM   33  C   UNL     1      -8.887  19.686  66.342  1.00  0.00    -0.376 C  
HETATM   34  C   UNL     1     -10.007  20.305  67.172  1.00  0.00    -0.593 C  
ENDBRANCH  32  33
BRANCH  32  35
HETATM   35  C   UNL     1      -7.744  19.625  68.523  1.00  0.00    -0.334 C  
HETATM   36  C   UNL     1      -6.433  19.449  69.299  1.00  0.00    -0.347 C  
ENDBRANCH  32  35
ENDBRANCH  31  32
ENDBRANCH  29  31
ENDBRANCH  28  29
ENDBRANCH  27  28
ENDBRANCH  25  27
ENDBRANCH   4  25
TORSDOF 8
ENDMDL
MODEL       10
REMARK 921   NORMALIZED FREE ENERGY PREDICTED BY IDOCK:   -6.36 KCAL/MOL
REMARK 922        TOTAL FREE ENERGY PREDICTED BY IDOCK:   -9.48 KCAL/MOL
REMARK 923 INTER-LIGAND FREE ENERGY PREDICTED BY IDOCK:   -9.28 KCAL/MOL
REMARK 924 INTRA-LIGAND FREE ENERGY PREDICTED BY IDOCK:   -0.19 KCAL/MOL
REMARK 927      BINDING AFFINITY PREDICTED BY RF-SCORE:    0.00 PKD
ROOT
HETATM    1  C   UNL     1      -7.904   9.585  66.278  1.00  0.00    -0.100 C  
HETATM    2  C   UNL     1      -6.865  10.041  65.435  1.00  0.00    -0.122 C  
HETATM    3  C   UNL     1      -7.079  10.883  66.656  1.00  0.00    -0.135 C  
HETATM    4  C   UNL     1      -8.262  10.128  68.172  1.00  0.00    -0.113 C  
HETATM    5  C   UNL     1     -11.101  12.668  64.572  1.00  0.00    -0.365 C  
HETATM    6  O   UNL     1      -8.856   8.774  68.062  1.00  0.00    -0.139 OA 
HETATM    7  C   UNL     1      -6.937  10.037  67.900  1.00  0.00    -0.084 C  
HETATM    8  C   UNL     1      -7.142  11.874  68.486  1.00  0.00    -0.089 C  
HETATM    9  H   UNL     1      -9.400   8.427  68.760  1.00  0.00     0.000 HD 
HETATM   10  C   UNL     1     -11.700  13.552  63.750  1.00  0.00    -0.367 C  
HETATM   11  C   UNL     1     -11.819  14.947  64.210  1.00  0.00    -0.297 C  
HETATM   12  C   UNL     1      -5.854   9.047  68.284  1.00  0.00    -0.038 C  
HETATM   13  C   UNL     1      -8.708  12.522  67.951  1.00  0.00    -0.180 C  
HETATM   14  C   UNL     1     -10.611  15.474  64.911  1.00  0.00    -0.370 C  
HETATM   15  C   UNL     1     -11.840  12.785  66.896  1.00  0.00    -0.440 C  
HETATM   16  O   UNL     1      -9.655  12.076  68.938  1.00  0.00    -0.408 OA 
HETATM   17  C   UNL     1      -9.321  12.204  66.418  1.00  0.00    -0.225 C  
HETATM   18  C   UNL     1     -10.619  13.046  65.993  1.00  0.00    -0.292 C  
HETATM   19  C   UNL     1     -10.254  14.585  66.100  1.00  0.00    -0.317 C  
HETATM   20  H   UNL     1     -10.492  12.422  68.651  1.00  0.00     0.000 HD 
HETATM   21  C   UNL     1      -9.376  10.606  65.979  1.00  0.00    -0.219 C  
HETATM   22  C   UNL     1      -9.747  10.518  64.485  1.00  0.00    -0.375 C  
HETATM   23  O   UNL     1     -12.824  15.607  63.979  1.00  0.00    -0.561 OA 
HETATM   24  C   UNL     1     -11.061  11.217  64.158  1.00  0.00    -0.306 C  
ENDROOT
BRANCH   4  25
HETATM   25  C   UNL     1      -8.028   9.905  69.906  1.00  0.00    -0.182 C  
HETATM   26  O   UNL     1      -7.072  10.351  70.563  1.00  0.00    -0.301 OA 
BRANCH  25  27
HETATM   27  C   UNL     1      -9.038   9.056  70.723  1.00  0.00    -0.245 C  
BRANCH  27  28
HETATM   28  O   UNL     1     -10.360   9.690  70.648  1.00  0.00    -0.278 OA 
BRANCH  28  29
HETATM   29  C   UNL     1     -11.369   9.255  71.466  1.00  0.00    -0.385 C  
HETATM   30  O   UNL     1     -12.489   9.756  71.482  1.00  0.00    -0.346 OA 
BRANCH  29  31
HETATM   31  C   UNL     1     -10.886   8.078  72.357  1.00  0.00    -0.327 C  
BRANCH  31  32
HETATM   32  N   UNL     1     -11.452   6.734  71.998  1.00  0.00    -0.269 NA 
BRANCH  32  33
HETATM   33  C   UNL     1     -11.859   6.643  70.587  1.00  0.00    -0.383 C  
HETATM   34  C   UNL     1     -10.880   5.941  69.651  1.00  0.00    -0.444 C  
ENDBRANCH  32  33
BRANCH  32  35
HETATM   35  C   UNL     1     -10.521   5.656  72.403  1.00  0.00    -0.211 C  
HETATM   36  C   UNL     1     -10.791   5.038  73.780  1.00  0.00    -0.366 C  
ENDBRANCH  32  35
ENDBRANCH  31  32
ENDBRANCH  29  31
ENDBRANCH  28  29
ENDBRANCH  27  28
ENDBRANCH  25  27
ENDBRANCH   4  25
TORSDOF 8
ENDMDL
MODEL       11
REMARK 921   NORMALIZED FREE ENERGY PREDICTED BY IDOCK:   -6.34 KCAL/MOL
REMARK 922        TOTAL FREE ENERGY PREDICTED BY IDOCK:   -9.45 KCAL/MOL
REMARK 923 INTER-LIGAND FREE ENERGY PREDICTED BY IDOCK:   -9.08 KCAL/MOL
REMARK 924 INTRA-LIGAND FREE ENERGY PREDICTED BY IDOCK:   -0.37 KCAL/MOL
REMARK 927      BINDING AFFINITY PREDICTED BY RF-SCORE:    0.00 PKD
ROOT
HETATM    1  C   UNL     1     -10.142  13.504  68.629  1.00  0.00    -0.170 C  
HETATM    2  C   UNL     1     -11.177  13.917  69.500  1.00  0.00    -0.237 C  
HETATM    3  C   UNL     1     -11.463  14.159  68.048  1.00  0.00    -0.342 C  
HETATM    4  C   UNL     1     -10.250  13.248  66.646  1.00  0.00    -0.265 C  
HETATM    5  C   UNL     1      -8.320  17.875  68.174  1.00  0.00    -0.267 C  
HETATM    6  O   UNL     1      -9.146  12.354  67.069  1.00  0.00    -0.194 OA 
HETATM    7  C   UNL     1     -11.383  12.860  67.281  1.00  0.00    -0.356 C  
HETATM    8  C   UNL     1     -12.014  14.211  66.041  1.00  0.00    -0.427 C  
HETATM    9  H   UNL     1      -8.588  11.935  66.423  1.00  0.00     0.000 HD 
HETATM   10  C   UNL     1      -8.049  19.171  68.426  1.00  0.00    -0.378 C  
HETATM   11  C   UNL     1      -8.563  20.178  67.481  1.00  0.00    -0.336 C  
HETATM   12  C   UNL     1     -12.001  11.509  67.589  1.00  0.00    -0.054 C  
HETATM   13  C   UNL     1     -10.802  15.497  65.860  1.00  0.00    -0.313 C  
HETATM   14  C   UNL     1      -9.950  19.920  66.995  1.00  0.00    -0.559 C  
HETATM   15  C   UNL     1      -7.956  17.198  65.856  1.00  0.00    -0.019 C  
HETATM   16  O   UNL     1      -9.871  15.000  64.882  1.00  0.00    -0.301 OA 
HETATM   17  C   UNL     1      -9.947  16.100  67.176  1.00  0.00    -0.251 C  
HETATM   18  C   UNL     1      -9.069  17.415  66.900  1.00  0.00    -0.258 C  
HETATM   19  C   UNL     1     -10.042  18.540  66.350  1.00  0.00    -0.430 C  
HETATM   20  H   UNL     1      -9.223  15.688  64.786  1.00  0.00     0.000 HD 
HETATM   21  C   UNL     1      -9.194  14.970  68.128  1.00  0.00    -0.183 C  
HETATM   22  C   UNL     1      -8.657  15.670  69.392  1.00  0.00    -0.248 C  
HETATM   23  O   UNL     1      -7.897  21.160  67.177  1.00  0.00    -0.266 OA 
HETATM   24  C   UNL     1      -7.716  16.827  69.076  1.00  0.00    -0.213 C  
ENDROOT
BRANCH   4  25
HETATM   25  C   UNL     1     -10.563  12.227  65.241  1.00  0.00    -0.287 C  
HETATM   26  O   UNL     1     -11.534  12.342  64.474  1.00  0.00    -0.312 OA 
BRANCH  25  27
HETATM   27  C   UNL     1      -9.611  11.048  64.912  1.00  0.00    -0.245 C  
BRANCH  27  28
HETATM   28  O   UNL     1     -10.044   9.863  65.661  1.00  0.00    -0.289 OA 
BRANCH  28  29
HETATM   29  C   UNL     1      -9.137   8.884  65.970  1.00  0.00    -0.214 C  
HETATM   30  O   UNL     1      -8.544   8.222  65.124  1.00  0.00    -0.165 OA 
BRANCH  29  31
HETATM   31  C   UNL     1      -8.994   8.732  67.509  1.00  0.00    -0.134 C  
BRANCH  31  32
HETATM   32  N   UNL     1     -10.252   8.337  68.229  1.00  0.00    -0.203 NA 
BRANCH  32  33
HETATM   33  C   UNL     1     -10.733   7.000  67.848  1.00  0.00    -0.210 C  
HETATM   34  C   UNL     1     -10.870   5.988  68.982  1.00  0.00    -0.412 C  
ENDBRANCH  32  33
BRANCH  32  35
HETATM   35  C   UNL     1     -10.081   8.496  69.691  1.00  0.00    -0.202 C  
HETATM   36  C   UNL     1     -10.320   9.913  70.230  1.00  0.00    -0.339 C  
ENDBRANCH  32  35
ENDBRANCH  31  32
ENDBRANCH  29  31
ENDBRANCH  28  29
ENDBRANCH  27  28
ENDBRANCH  25  27
ENDBRANCH   4  25
TORSDOF 8
ENDMDL
MODEL       12
REMARK 921   NORMALIZED FREE ENERGY PREDICTED BY IDOCK:   -6.33 KCAL/MOL
REMARK 922        TOTAL FREE ENERGY PREDICTED BY IDOCK:   -9.43 KCAL/MOL
REMARK 923 INTER-LIGAND FREE ENERGY PREDICTED BY IDOCK:   -9.17 KCAL/MOL
REMARK 924 INTRA-LIGAND FREE ENERGY PREDICTED BY IDOCK:   -0.26 KCAL/MOL
REMARK 927      BINDING AFFINITY PREDICTED BY RF-SCORE:    0.00 PKD
ROOT
HETATM    1  C   UNL     1     -10.710  12.441  64.430  1.00  0.00    -0.371 C  
HETATM    2  C   UNL     1     -11.857  11.879  63.824  1.00  0.00    -0.558 C  
HETATM    3  C   UNL     1     -11.785  11.679  65.308  1.00  0.00    -0.016 C  
HETATM    4  C   UNL     1     -10.405  12.781  66.380  1.00  0.00    -0.258 C  
HETATM    5  C   UNL     1      -8.342   8.317  64.567  1.00  0.00    -0.097 C  
HETATM    6  O   UNL     1      -9.532  13.766  65.698  1.00  0.00    -0.504 OA 
HETATM    7  C   UNL     1     -11.687  13.015  66.007  1.00  0.00    -0.442 C  
HETATM    8  C   UNL     1     -11.869  11.667  67.388  1.00  0.00    -0.170 C  
HETATM    9  H   UNL     1      -8.897  14.273  66.191  1.00  0.00     0.000 HD 
HETATM   10  C   UNL     1      -7.986   7.047  64.291  1.00  0.00    -0.091 C  
HETATM   11  C   UNL     1      -8.160   6.038  65.351  1.00  0.00    -0.132 C  
HETATM   12  C   UNL     1     -12.509  14.276  65.814  1.00  0.00    -0.421 C  
HETATM   13  C   UNL     1     -10.507  10.527  67.322  1.00  0.00    -0.250 C  
HETATM   14  C   UNL     1      -9.425   6.170  66.131  1.00  0.00    -0.100 C  
HETATM   15  C   UNL     1      -7.555   9.142  66.726  1.00  0.00    -0.087 C  
HETATM   16  O   UNL     1      -9.447  11.168  68.053  1.00  0.00    -0.163 OA 
HETATM   17  C   UNL     1      -9.901   9.955  65.862  1.00  0.00    -0.342 C  
HETATM   18  C   UNL     1      -8.839   8.757  65.965  1.00  0.00    -0.210 C  
HETATM   19  C   UNL     1      -9.530   7.563  66.747  1.00  0.00    -0.230 C  
HETATM   20  H   UNL     1      -8.719  10.558  68.018  1.00  0.00     0.000 HD 
HETATM   21  C   UNL     1      -9.512  11.111  64.739  1.00  0.00    -0.250 C  
HETATM   22  C   UNL     1      -9.191  10.411  63.403  1.00  0.00    -0.311 C  
HETATM   23  O   UNL     1      -7.334   5.149  65.520  1.00  0.00    -0.070 OA 
HETATM   24  C   UNL     1      -8.077   9.378  63.527  1.00  0.00    -0.157 C  
ENDROOT
BRANCH   4  25
HETATM   25  C   UNL     1     -10.515  13.830  67.793  1.00  0.00    -0.240 C  
HETATM   26  O   UNL     1     -11.355  13.722  68.702  1.00  0.00    -0.252 OA 
BRANCH  25  27
HETATM   27  C   UNL     1      -9.541  15.028  67.949  1.00  0.00    -0.203 C  
BRANCH  27  28
HETATM   28  O   UNL     1     -10.232  16.258  67.543  1.00  0.00    -0.258 OA 
BRANCH  28  29
HETATM   29  C   UNL     1      -9.789  16.957  66.451  1.00  0.00    -0.305 C  
HETATM   30  O   UNL     1     -10.164  16.729  65.305  1.00  0.00    -0.607 OA 
BRANCH  29  31
HETATM   31  C   UNL     1      -8.757  18.039  66.873  1.00  0.00    -0.251 C  
BRANCH  31  32
HETATM   32  N   UNL     1      -8.853  18.487  68.303  1.00  0.00    -0.302 NA 
BRANCH  32  33
HETATM   33  C   UNL     1      -7.539  18.763  68.904  1.00  0.00    -0.278 C  
HETATM   34  C   UNL     1      -6.622  17.558  69.095  1.00  0.00    -0.246 C  
ENDBRANCH  32  33
BRANCH  32  35
HETATM   35  C   UNL     1      -9.796  19.622  68.426  1.00  0.00    -0.432 C  
HETATM   36  C   UNL     1      -9.910  20.518  67.187  1.00  0.00    -0.567 C  
ENDBRANCH  32  35
ENDBRANCH  31  32
ENDBRANCH  29  31
ENDBRANCH  28  29
ENDBRANCH  27  28
ENDBRANCH  25  27
ENDBRANCH   4  25
TORSDOF 8
ENDMDL
MODEL       13
REMARK 921   NORMALIZED FREE ENERGY PREDICTED BY IDOCK:   -6.32 KCAL/MOL
REMARK 922        TOTAL FREE ENERGY PREDICTED BY IDOCK:   -9.41 KCAL/MOL
REMARK 923 INTER-LIGAND FREE ENERGY PREDICTED BY IDOCK:   -9.48 KCAL/MOL
REMARK 924 INTRA-LIGAND FREE ENERGY PREDICTED BY IDOCK:    0.07 KCAL/MOL
REMARK 927      BINDING AFFINITY PREDICTED BY RF-SCORE:    0.00 PKD
ROOT
HETATM    1  C   UNL     1      -9.939   9.331  66.454  1.00  0.00    -0.356 C  
HETATM    2  C   UNL     1      -8.748   9.321  65.694  1.00  0.00    -0.193 C  
HETATM    3  C   UNL     1      -8.645  10.074  66.986  1.00  0.00    -0.126 C  
HETATM    4  C   UNL     1     -10.150   9.834  68.381  1.00  0.00    -0.166 C  
HETATM    5  C   UNL     1     -11.254  13.654  64.967  1.00  0.00    -0.329 C  
HETATM    6  O   UNL     1     -11.284   8.916  68.119  1.00  0.00    -0.428 OA 
HETATM    7  C   UNL     1      -8.994   9.167  68.142  1.00  0.00    -0.129 C  
HETATM    8  C   UNL     1      -8.386  10.844  68.903  1.00  0.00    -0.139 C  
HETATM    9  H   UNL     1     -11.976   8.806  68.761  1.00  0.00     0.000 HD 
HETATM   10  C   UNL     1     -11.325  14.773  64.219  1.00  0.00    -0.097 C  
HETATM   11  C   UNL     1     -10.831  16.029  64.812  1.00  0.00    -0.294 C  
HETATM   12  C   UNL     1      -8.509   7.764  68.460  1.00  0.00    -0.129 C  
HETATM   13  C   UNL     1      -9.443  12.175  68.387  1.00  0.00    -0.179 C  
HETATM   14  C   UNL     1      -9.571  15.889  65.599  1.00  0.00    -0.266 C  
HETATM   15  C   UNL     1     -12.028  13.923  67.267  1.00  0.00    -0.446 C  
HETATM   16  O   UNL     1     -10.559  12.141  69.295  1.00  0.00    -0.430 OA 
HETATM   17  C   UNL     1     -10.020  12.289  66.811  1.00  0.00    -0.217 C  
HETATM   18  C   UNL     1     -10.759  13.662  66.433  1.00  0.00    -0.281 C  
HETATM   19  C   UNL     1      -9.744  14.849  66.705  1.00  0.00    -0.276 C  
HETATM   20  H   UNL     1     -11.124  12.853  69.018  1.00  0.00     0.000 HD 
HETATM   21  C   UNL     1     -10.762  10.932  66.214  1.00  0.00    -0.241 C  
HETATM   22  C   UNL     1     -11.021  11.136  64.707  1.00  0.00    -0.218 C  
HETATM   23  O   UNL     1     -11.408  17.091  64.617  1.00  0.00    -0.889 OA 
HETATM   24  C   UNL     1     -11.847  12.382  64.411  1.00  0.00    -0.461 C  
ENDROOT
BRANCH   4  25
HETATM   25  C   UNL     1     -10.170   9.400  70.091  1.00  0.00    -0.231 C  
HETATM   26  O   UNL     1      -9.165   9.289  70.814  1.00  0.00    -0.240 OA 
BRANCH  25  27
HETATM   27  C   UNL     1     -11.515   9.076  70.793  1.00  0.00    -0.282 C  
BRANCH  27  28
HETATM   28  O   UNL     1     -11.810   7.649  70.618  1.00  0.00    -0.251 OA 
BRANCH  28  29
HETATM   29  C   UNL     1     -12.743   7.044  71.419  1.00  0.00    -0.374 C  
HETATM   30  O   UNL     1     -13.929   7.358  71.431  1.00  0.00    -0.411 OA 
BRANCH  29  31
HETATM   31  C   UNL     1     -12.084   5.947  72.299  1.00  0.00    -0.078 C  
BRANCH  31  32
HETATM   32  N   UNL     1     -10.632   6.170  72.614  1.00  0.00    -0.208 NA 
BRANCH  32  33
HETATM   33  C   UNL     1     -10.426   7.135  73.705  1.00  0.00    -0.370 C  
HETATM   34  C   UNL     1      -8.988   7.307  74.184  1.00  0.00    -0.267 C  
ENDBRANCH  32  33
BRANCH  32  35
HETATM   35  C   UNL     1      -9.950   4.876  72.846  1.00  0.00    -0.157 C  
HETATM   36  C   UNL     1     -10.806   3.793  73.513  1.00  0.00    -0.324 C  
ENDBRANCH  32  35
ENDBRANCH  31  32
ENDBRANCH  29  31
ENDBRANCH  28  29
ENDBRANCH  27  28
ENDBRANCH  25  27
ENDBRANCH   4  25
TORSDOF 8
ENDMDL
MODEL       14
REMARK 921   NORMALIZED FREE ENERGY PREDICTED BY IDOCK:   -6.31 KCAL/MOL
REMARK 922        TOTAL FREE ENERGY PREDICTED BY IDOCK:   -9.40 KCAL/MOL
REMARK 923 INTER-LIGAND FREE ENERGY PREDICTED BY IDOCK:   -9.34 KCAL/MOL
REMARK 924 INTRA-LIGAND FREE ENERGY PREDICTED BY IDOCK:   -0.06 KCAL/MOL
REMARK 927      BINDING AFFINITY PREDICTED BY RF-SCORE:    0.00 PKD
ROOT
HETATM    1  C   UNL     1     -11.155  11.861  67.729  1.00  0.00    -0.295 C  
HETATM    2  C   UNL     1     -11.453  11.852  66.347  1.00  0.00    -0.371 C  
HETATM    3  C   UNL     1      -9.990  11.758  66.660  1.00  0.00    -0.224 C  
HETATM    4  C   UNL     1      -9.430  11.346  68.605  1.00  0.00    -0.163 C  
HETATM    5  C   UNL     1     -10.055  16.488  67.808  1.00  0.00    -0.264 C  
HETATM    6  O   UNL     1     -10.452  11.120  69.654  1.00  0.00    -0.437 OA 
HETATM    7  C   UNL     1      -9.726  10.560  67.542  1.00  0.00    -0.190 C  
HETATM    8  C   UNL     1      -8.000  11.307  67.070  1.00  0.00    -0.150 C  
HETATM    9  H   UNL     1     -10.194  10.931  70.549  1.00  0.00     0.000 HD 
HETATM   10  C   UNL     1      -9.982  17.783  67.442  1.00  0.00    -0.323 C  
HETATM   11  C   UNL     1      -8.662  18.318  67.064  1.00  0.00    -0.263 C  
HETATM   12  C   UNL     1     -10.196   9.124  67.399  1.00  0.00    -0.310 C  
HETATM   13  C   UNL     1      -7.864  12.974  67.668  1.00  0.00    -0.166 C  
HETATM   14  C   UNL     1      -7.833  17.393  66.235  1.00  0.00    -0.330 C  
HETATM   15  C   UNL     1      -8.320  15.781  69.374  1.00  0.00    -0.215 C  
HETATM   16  O   UNL     1      -7.461  12.848  69.043  1.00  0.00    -0.284 OA 
HETATM   17  C   UNL     1      -9.146  14.058  67.569  1.00  0.00    -0.196 C  
HETATM   18  C   UNL     1      -8.804  15.584  67.924  1.00  0.00    -0.171 C  
HETATM   19  C   UNL     1      -7.643  16.059  66.954  1.00  0.00    -0.268 C  
HETATM   20  H   UNL     1      -7.389  13.740  69.363  1.00  0.00     0.000 HD 
HETATM   21  C   UNL     1     -10.591  13.526  68.185  1.00  0.00    -0.253 C  
HETATM   22  C   UNL     1     -11.689  14.542  67.811  1.00  0.00    -0.403 C  
HETATM   23  O   UNL     1      -8.322  19.451  67.381  1.00  0.00    -0.281 OA 
HETATM   24  C   UNL     1     -11.380  15.954  68.294  1.00  0.00    -0.342 C  
ENDROOT
BRANCH   4  25
HETATM   25  C   UNL     1      -8.380  10.134  69.342  1.00  0.00    -0.168 C  
HETATM   26  O   UNL     1      -7.139  10.128  69.278  1.00  0.00    -0.061 OA 
BRANCH  25  27
HETATM   27  C   UNL     1      -8.998   8.934  70.106  1.00  0.00    -0.172 C  
BRANCH  27  28
HETATM   28  O   UNL     1      -9.024   9.246  71.539  1.00  0.00    -0.316 OA 
BRANCH  28  29
HETATM   29  C   UNL     1      -9.884   8.571  72.366  1.00  0.00    -0.288 C  
HETATM   30  O   UNL     1      -9.530   8.018  73.403  1.00  0.00    -0.279 OA 
BRANCH  29  31
HETATM   31  C   UNL     1     -11.329   8.597  71.796  1.00  0.00    -0.323 C  
BRANCH  31  32
HETATM   32  N   UNL     1     -12.100   7.319  71.961  1.00  0.00    -0.300 NA 
BRANCH  32  33
HETATM   33  C   UNL     1     -13.521   7.459  71.605  1.00  0.00    -0.366 C  
HETATM   34  C   UNL     1     -14.134   8.839  71.826  1.00  0.00    -0.468 C  
ENDBRANCH  32  33
BRANCH  32  35
HETATM   35  C   UNL     1     -11.429   6.213  71.240  1.00  0.00    -0.247 C  
HETATM   36  C   UNL     1     -11.499   6.289  69.710  1.00  0.00    -0.449 C  
ENDBRANCH  32  35
ENDBRANCH  31  32
ENDBRANCH  29  31
ENDBRANCH  28  29
ENDBRANCH  27  28
ENDBRANCH  25  27
ENDBRANCH   4  25
TORSDOF 8
ENDMDL
MODEL       15
REMARK 921   NORMALIZED FREE ENERGY PREDICTED BY IDOCK:   -6.28 KCAL/MOL
REMARK 922        TOTAL FREE ENERGY PREDICTED BY IDOCK:   -9.36 KCAL/MOL
REMARK 923 INTER-LIGAND FREE ENERGY PREDICTED BY IDOCK:   -8.79 KCAL/MOL
REMARK 924 INTRA-LIGAND FREE ENERGY PREDICTED BY IDOCK:   -0.58 KCAL/MOL
REMARK 927      BINDING AFFINITY PREDICTED BY RF-SCORE:    0.00 PKD
ROOT
HETATM    1  C   UNL     1      -7.418   9.485  66.140  1.00  0.00    -0.100 C  
HETATM    2  C   UNL     1      -6.415  10.080  65.342  1.00  0.00    -0.106 C  
HETATM    3  C   UNL     1      -6.712  10.822  66.610  1.00  0.00    -0.120 C  
HETATM    4  C   UNL     1      -7.839   9.874  68.059  1.00  0.00    -0.086 C  
HETATM    5  C   UNL     1     -10.854  12.385  64.584  1.00  0.00    -0.346 C  
HETATM    6  O   UNL     1      -8.313   8.484  67.857  1.00  0.00    -0.124 OA 
HETATM    7  C   UNL     1      -6.509   9.915  67.801  1.00  0.00    -0.063 C  
HETATM    8  C   UNL     1      -6.877  11.686  68.497  1.00  0.00    -0.073 C  
HETATM    9  H   UNL     1      -8.831   8.048  68.523  1.00  0.00     0.000 HD 
HETATM   10  C   UNL     1     -11.519  13.265  63.810  1.00  0.00    -0.363 C  
HETATM   11  C   UNL     1     -11.763  14.613  64.355  1.00  0.00    -0.346 C  
HETATM   12  C   UNL     1      -5.347   8.998  68.138  1.00  0.00    -0.034 C  
HETATM   13  C   UNL     1      -8.487  12.230  67.981  1.00  0.00    -0.171 C  
HETATM   14  C   UNL     1     -10.611  15.195  65.104  1.00  0.00    -0.447 C  
HETATM   15  C   UNL     1     -11.621  12.290  66.900  1.00  0.00    -0.427 C  
HETATM   16  O   UNL     1      -9.401  11.643  68.925  1.00  0.00    -0.384 OA 
HETATM   17  C   UNL     1      -9.057  11.959  66.423  1.00  0.00    -0.208 C  
HETATM   18  C   UNL     1     -10.419  12.712  66.033  1.00  0.00    -0.288 C  
HETATM   19  C   UNL     1     -10.189  14.267  66.241  1.00  0.00    -0.307 C  
HETATM   20  H   UNL     1     -10.263  11.934  68.649  1.00  0.00     0.000 HD 
HETATM   21  C   UNL     1      -8.971  10.393  65.885  1.00  0.00    -0.182 C  
HETATM   22  C   UNL     1      -9.319  10.369  64.383  1.00  0.00    -0.321 C  
HETATM   23  O   UNL     1     -12.819  15.197  64.151  1.00  0.00    -0.604 OA 
HETATM   24  C   UNL     1     -10.686  10.972  64.081  1.00  0.00    -0.344 C  
ENDROOT
BRANCH   4  25
HETATM   25  C   UNL     1      -7.602   9.563  69.779  1.00  0.00    -0.110 C  
HETATM   26  O   UNL     1      -7.152  10.380  70.600  1.00  0.00    -0.300 OA 
BRANCH  25  27
HETATM   27  C   UNL     1      -7.921   8.162  70.365  1.00  0.00    -0.099 C  
BRANCH  27  28
HETATM   28  O   UNL     1      -9.370   7.939  70.300  1.00  0.00    -0.159 OA 
BRANCH  28  29
HETATM   29  C   UNL     1     -10.177   8.413  71.301  1.00  0.00    -0.212 C  
HETATM   30  O   UNL     1      -9.851   8.423  72.484  1.00  0.00    -0.282 OA 
BRANCH  29  31
HETATM   31  C   UNL     1     -11.535   8.902  70.728  1.00  0.00    -0.275 C  
BRANCH  31  32
HETATM   32  N   UNL     1     -12.104  10.122  71.393  1.00  0.00    -0.383 NA 
BRANCH  32  33
HETATM   33  C   UNL     1     -12.469  11.177  70.435  1.00  0.00    -0.299 C  
HETATM   34  C   UNL     1     -12.587  12.588  71.005  1.00  0.00    -0.350 C  
ENDBRANCH  32  33
BRANCH  32  35
HETATM   35  C   UNL     1     -13.217   9.747  72.295  1.00  0.00    -0.377 C  
HETATM   36  C   UNL     1     -14.136   8.634  71.776  1.00  0.00    -0.499 C  
ENDBRANCH  32  35
ENDBRANCH  31  32
ENDBRANCH  29  31
ENDBRANCH  28  29
ENDBRANCH  27  28
ENDBRANCH  25  27
ENDBRANCH   4  25
TORSDOF 8
ENDMDL
MODEL       16
REMARK 921   NORMALIZED FREE ENERGY PREDICTED BY IDOCK:   -6.25 KCAL/MOL
REMARK 922        TOTAL FREE ENERGY PREDICTED BY IDOCK:   -9.32 KCAL/MOL
REMARK 923 INTER-LIGAND FREE ENERGY PREDICTED BY IDOCK:   -9.24 KCAL/MOL
REMARK 924 INTRA-LIGAND FREE ENERGY PREDICTED BY IDOCK:   -0.08 KCAL/MOL
REMARK 927      BINDING AFFINITY PREDICTED BY RF-SCORE:    0.00 PKD
ROOT
HETATM    1  C   UNL     1     -10.072   9.667  65.594  1.00  0.00    -0.231 C  
HETATM    2  C   UNL     1      -9.107  10.070  64.642  1.00  0.00    -0.280 C  
HETATM    3  C   UNL     1      -8.608  10.059  66.055  1.00  0.00    -0.148 C  
HETATM    4  C   UNL     1      -9.752   9.111  67.491  1.00  0.00    -0.160 C  
HETATM    5  C   UNL     1     -11.170  14.118  66.867  1.00  0.00    -0.326 C  
HETATM    6  O   UNL     1     -11.018   8.435  67.122  1.00  0.00    -0.425 OA 
HETATM    7  C   UNL     1      -8.776   8.682  66.653  1.00  0.00    -0.137 C  
HETATM    8  C   UNL     1      -7.805   9.745  67.951  1.00  0.00    -0.090 C  
HETATM    9  H   UNL     1     -11.544   7.999  67.783  1.00  0.00     0.000 HD 
HETATM   10  C   UNL     1     -11.282  15.460  66.825  1.00  0.00    -0.197 C  
HETATM   11  C   UNL     1     -10.512  16.245  67.806  1.00  0.00    -0.295 C  
HETATM   12  C   UNL     1      -8.404   7.323  66.088  1.00  0.00    -0.133 C  
HETATM   13  C   UNL     1      -8.786  11.133  68.470  1.00  0.00    -0.161 C  
HETATM   14  C   UNL     1      -9.126  15.747  68.049  1.00  0.00    -0.187 C  
HETATM   15  C   UNL     1     -11.332  13.159  69.106  1.00  0.00    -0.335 C  
HETATM   16  O   UNL     1      -9.647  10.618  69.501  1.00  0.00    -0.389 OA 
HETATM   17  C   UNL     1      -9.705  12.026  67.381  1.00  0.00    -0.185 C  
HETATM   18  C   UNL     1     -10.341  13.385  67.948  1.00  0.00    -0.238 C  
HETATM   19  C   UNL     1      -9.154  14.285  68.491  1.00  0.00    -0.191 C  
HETATM   20  H   UNL     1     -10.172  11.361  69.778  1.00  0.00     0.000 HD 
HETATM   21  C   UNL     1     -10.727  11.151  66.412  1.00  0.00    -0.303 C  
HETATM   22  C   UNL     1     -11.313  12.091  65.339  1.00  0.00    -0.375 C  
HETATM   23  O   UNL     1     -10.985  17.247  68.328  1.00  0.00    -0.336 OA 
HETATM   24  C   UNL     1     -12.029  13.298  65.935  1.00  0.00    -0.466 C  
ENDROOT
BRANCH   4  25
HETATM   25  C   UNL     1      -9.414   7.864  68.692  1.00  0.00    -0.149 C  
HETATM   26  O   UNL     1      -8.579   7.958  69.607  1.00  0.00    -0.131 OA 
BRANCH  25  27
HETATM   27  C   UNL     1     -10.156   6.503  68.627  1.00  0.00    -0.161 C  
BRANCH  27  28
HETATM   28  O   UNL     1     -11.375   6.587  69.439  1.00  0.00    -0.354 OA 
BRANCH  28  29
HETATM   29  C   UNL     1     -11.368   6.118  70.726  1.00  0.00    -0.295 C  
HETATM   30  O   UNL     1     -10.636   5.212  71.112  1.00  0.00    -0.205 OA 
BRANCH  29  31
HETATM   31  C   UNL     1     -12.412   6.874  71.593  1.00  0.00    -0.375 C  
BRANCH  31  32
HETATM   32  N   UNL     1     -11.890   8.093  72.299  1.00  0.00    -0.358 NA 
BRANCH  32  33
HETATM   33  C   UNL     1     -10.526   7.912  72.820  1.00  0.00    -0.346 C  
HETATM   34  C   UNL     1     -10.372   6.912  73.961  1.00  0.00    -0.355 C  
ENDBRANCH  32  33
BRANCH  32  35
HETATM   35  C   UNL     1     -12.027   9.288  71.435  1.00  0.00    -0.351 C  
HETATM   36  C   UNL     1     -13.092  10.300  71.876  1.00  0.00    -0.568 C  
ENDBRANCH  32  35
ENDBRANCH  31  32
ENDBRANCH  29  31
ENDBRANCH  28  29
ENDBRANCH  27  28
ENDBRANCH  25  27
ENDBRANCH   4  25
TORSDOF 8
ENDMDL
MODEL       17
REMARK 921   NORMALIZED FREE ENERGY PREDICTED BY IDOCK:   -6.21 KCAL/MOL
REMARK 922        TOTAL FREE ENERGY PREDICTED BY IDOCK:   -9.26 KCAL/MOL
REMARK 923 INTER-LIGAND FREE ENERGY PREDICTED BY IDOCK:   -9.42 KCAL/MOL
REMARK 924 INTRA-LIGAND FREE ENERGY PREDICTED BY IDOCK:    0.16 KCAL/MOL
REMARK 927      BINDING AFFINITY PREDICTED BY RF-SCORE:    0.00 PKD
ROOT
HETATM    1  C   UNL     1     -10.400  12.526  64.990  1.00  0.00    -0.323 C  
HETATM    2  C   UNL     1     -11.417  11.604  64.650  1.00  0.00    -0.249 C  
HETATM    3  C   UNL     1     -11.597  12.252  65.991  1.00  0.00    -0.451 C  
HETATM    4  C   UNL     1     -10.439  13.901  66.445  1.00  0.00    -0.284 C  
HETATM    5  C   UNL     1      -8.024   9.422  67.702  1.00  0.00    -0.099 C  
HETATM    6  O   UNL     1      -9.478  14.445  65.456  1.00  0.00    -0.535 OA 
HETATM    7  C   UNL     1     -11.642  13.754  65.838  1.00  0.00    -0.346 C  
HETATM    8  C   UNL     1     -12.035  13.363  67.696  1.00  0.00    -0.362 C  
HETATM    9  H   UNL     1      -8.945  15.203  65.665  1.00  0.00     0.000 HD 
HETATM   10  C   UNL     1      -7.605   8.253  68.226  1.00  0.00    -0.101 C  
HETATM   11  C   UNL     1      -7.941   7.971  69.633  1.00  0.00    -0.117 C  
HETATM   12  C   UNL     1     -12.439  14.610  64.872  1.00  0.00    -0.266 C  
HETATM   13  C   UNL     1     -10.664  12.526  68.454  1.00  0.00    -0.240 C  
HETATM   14  C   UNL     1      -9.323   8.368  70.032  1.00  0.00    -0.159 C  
HETATM   15  C   UNL     1      -7.631  11.367  69.125  1.00  0.00    -0.038 C  
HETATM   16  O   UNL     1      -9.755  13.571  68.842  1.00  0.00    -0.410 OA 
HETATM   17  C   UNL     1      -9.807  11.322  67.652  1.00  0.00    -0.190 C  
HETATM   18  C   UNL     1      -8.759  10.495  68.542  1.00  0.00    -0.140 C  
HETATM   19  C   UNL     1      -9.554   9.851  69.753  1.00  0.00    -0.261 C  
HETATM   20  H   UNL     1      -9.021  13.123  69.247  1.00  0.00     0.000 HD 
HETATM   21  C   UNL     1      -9.251  11.716  66.141  1.00  0.00    -0.228 C  
HETATM   22  C   UNL     1      -8.695  10.442  65.473  1.00  0.00    -0.190 C  
HETATM   23  O   UNL     1      -7.142   7.412  70.375  1.00  0.00    -0.061 OA 
HETATM   24  C   UNL     1      -7.603   9.770  66.296  1.00  0.00    -0.100 C  
ENDROOT
BRANCH   4  25
HETATM   25  C   UNL     1     -10.806  15.531  67.011  1.00  0.00    -0.314 C  
HETATM   26  O   UNL     1     -11.532  15.805  67.982  1.00  0.00    -0.338 OA 
BRANCH  25  27
HETATM   27  C   UNL     1     -10.242  16.761  66.253  1.00  0.00    -0.332 C  
BRANCH  27  28
HETATM   28  O   UNL     1     -10.645  17.981  66.961  1.00  0.00    -0.366 OA 
BRANCH  28  29
HETATM   29  C   UNL     1     -10.523  19.198  66.343  1.00  0.00    -0.463 C  
HETATM   30  O   UNL     1     -10.875  19.407  65.186  1.00  0.00    -0.425 OA 
BRANCH  29  31
HETATM   31  C   UNL     1      -9.871  20.236  67.297  1.00  0.00    -0.452 C  
BRANCH  31  32
HETATM   32  N   UNL     1      -8.383  20.106  67.457  1.00  0.00    -0.333 NA 
BRANCH  32  33
HETATM   33  C   UNL     1      -7.998  19.488  68.735  1.00  0.00    -0.327 C  
HETATM   34  C   UNL     1      -7.562  18.027  68.669  1.00  0.00    -0.297 C  
ENDBRANCH  32  33
BRANCH  32  35
HETATM   35  C   UNL     1      -7.795  19.423  66.282  1.00  0.00    -0.308 C  
HETATM   36  C   UNL     1      -6.695  20.203  65.551  1.00  0.00    -0.313 C  
ENDBRANCH  32  35
ENDBRANCH  31  32
ENDBRANCH  29  31
ENDBRANCH  28  29
ENDBRANCH  27  28
ENDBRANCH  25  27
ENDBRANCH   4  25
TORSDOF 8
ENDMDL
MODEL       18
REMARK 921   NORMALIZED FREE ENERGY PREDICTED BY IDOCK:   -6.21 KCAL/MOL
REMARK 922        TOTAL FREE ENERGY PREDICTED BY IDOCK:   -9.26 KCAL/MOL
REMARK 923 INTER-LIGAND FREE ENERGY PREDICTED BY IDOCK:   -9.05 KCAL/MOL
REMARK 924 INTRA-LIGAND FREE ENERGY PREDICTED BY IDOCK:   -0.21 KCAL/MOL
REMARK 927      BINDING AFFINITY PREDICTED BY RF-SCORE:    0.00 PKD
ROOT
HETATM    1  C   UNL     1      -8.376  11.911  68.334  1.00  0.00    -0.157 C  
HETATM    2  C   UNL     1      -7.456  11.384  67.400  1.00  0.00    -0.120 C  
HETATM    3  C   UNL     1      -8.893  11.135  67.054  1.00  0.00    -0.149 C  
HETATM    4  C   UNL     1     -10.344  12.184  68.084  1.00  0.00    -0.207 C  
HETATM    5  C   UNL     1      -9.025   7.752  70.552  1.00  0.00    -0.150 C  
HETATM    6  O   UNL     1      -9.967  13.178  69.117  1.00  0.00    -0.403 OA 
HETATM    7  C   UNL     1      -9.637  12.447  66.958  1.00  0.00    -0.211 C  
HETATM    8  C   UNL     1     -10.866  11.058  66.392  1.00  0.00    -0.253 C  
HETATM    9  H   UNL     1     -10.635  13.660  69.591  1.00  0.00     0.000 HD 
HETATM   10  C   UNL     1      -8.815   6.487  70.966  1.00  0.00    -0.139 C  
HETATM   11  C   UNL     1      -9.749   5.447  70.500  1.00  0.00    -0.185 C  
HETATM   12  C   UNL     1      -9.267  13.724  66.228  1.00  0.00    -0.095 C  
HETATM   13  C   UNL     1     -11.142   9.902  67.713  1.00  0.00    -0.129 C  
HETATM   14  C   UNL     1     -10.150   5.571  69.067  1.00  0.00    -0.275 C  
HETATM   15  C   UNL     1     -11.345   8.497  70.709  1.00  0.00    -0.296 C  
HETATM   16  O   UNL     1     -12.162  10.505  68.530  1.00  0.00    -0.806 OA 
HETATM   17  C   UNL     1      -9.891   9.369  68.701  1.00  0.00    -0.174 C  
HETATM   18  C   UNL     1     -10.244   8.154  69.687  1.00  0.00    -0.205 C  
HETATM   19  C   UNL     1     -10.760   6.945  68.801  1.00  0.00    -0.255 C  
HETATM   20  H   UNL     1     -12.310   9.887  69.237  1.00  0.00     0.000 HD 
HETATM   21  C   UNL     1      -8.961  10.555  69.393  1.00  0.00    -0.111 C  
HETATM   22  C   UNL     1      -7.744   9.894  70.071  1.00  0.00    -0.188 C  
HETATM   23  O   UNL     1     -10.112   4.542  71.241  1.00  0.00    -0.192 OA 
HETATM   24  C   UNL     1      -8.138   8.843  71.101  1.00  0.00    -0.201 C  
ENDROOT
BRANCH   4  25
HETATM   25  C   UNL     1     -11.707  13.189  67.588  1.00  0.00    -0.369 C  
HETATM   26  O   UNL     1     -12.380  13.025  66.557  1.00  0.00    -0.399 OA 
BRANCH  25  27
HETATM   27  C   UNL     1     -12.118  14.415  68.444  1.00  0.00    -0.243 C  
BRANCH  27  28
HETATM   28  O   UNL     1     -11.456  15.611  67.910  1.00  0.00    -0.329 OA 
BRANCH  28  29
HETATM   29  C   UNL     1     -10.616  16.338  68.712  1.00  0.00    -0.298 C  
HETATM   30  O   UNL     1     -10.594  16.238  69.935  1.00  0.00    -0.306 OA 
BRANCH  29  31
HETATM   31  C   UNL     1      -9.734  17.293  67.862  1.00  0.00    -0.273 C  
BRANCH  31  32
HETATM   32  N   UNL     1      -9.470  18.636  68.481  1.00  0.00    -0.336 NA 
BRANCH  32  33
HETATM   33  C   UNL     1      -8.051  19.021  68.427  1.00  0.00    -0.346 C  
HETATM   34  C   UNL     1      -7.053  17.976  68.917  1.00  0.00    -0.268 C  
ENDBRANCH  32  33
BRANCH  32  35
HETATM   35  C   UNL     1     -10.371  19.658  67.902  1.00  0.00    -0.454 C  
HETATM   36  C   UNL     1     -10.709  19.471  66.418  1.00  0.00    -0.528 C  
ENDBRANCH  32  35
ENDBRANCH  31  32
ENDBRANCH  29  31
ENDBRANCH  28  29
ENDBRANCH  27  28
ENDBRANCH  25  27
ENDBRANCH   4  25
TORSDOF 8
ENDMDL
MODEL       19
REMARK 921   NORMALIZED FREE ENERGY PREDICTED BY IDOCK:   -6.15 KCAL/MOL
REMARK 922        TOTAL FREE ENERGY PREDICTED BY IDOCK:   -9.17 KCAL/MOL
REMARK 923 INTER-LIGAND FREE ENERGY PREDICTED BY IDOCK:   -9.36 KCAL/MOL
REMARK 924 INTRA-LIGAND FREE ENERGY PREDICTED BY IDOCK:    0.18 KCAL/MOL
REMARK 927      BINDING AFFINITY PREDICTED BY RF-SCORE:    0.00 PKD
ROOT
HETATM    1  C   UNL     1      -9.045  11.032  65.488  1.00  0.00    -0.225 C  
HETATM    2  C   UNL     1      -9.820  10.299  64.560  1.00  0.00    -0.384 C  
HETATM    3  C   UNL     1     -10.611  10.899  65.683  1.00  0.00    -0.233 C  
HETATM    4  C   UNL     1      -9.701  12.322  66.872  1.00  0.00    -0.212 C  
HETATM    5  C   UNL     1      -8.808   7.465  68.626  1.00  0.00    -0.126 C  
HETATM    6  O   UNL     1      -8.311  12.758  66.598  1.00  0.00    -0.405 OA 
HETATM    7  C   UNL     1     -10.409  12.395  65.718  1.00  0.00    -0.289 C  
HETATM    8  C   UNL     1     -11.764  11.978  67.040  1.00  0.00    -0.341 C  
HETATM    9  H   UNL     1      -7.893  13.413  67.145  1.00  0.00     0.000 HD 
HETATM   10  C   UNL     1      -8.857   6.220  69.140  1.00  0.00    -0.128 C  
HETATM   11  C   UNL     1      -9.914   5.923  70.123  1.00  0.00    -0.191 C  
HETATM   12  C   UNL     1     -10.478  13.413  64.594  1.00  0.00    -0.428 C  
HETATM   13  C   UNL     1     -11.100  10.900  68.286  1.00  0.00    -0.266 C  
HETATM   14  C   UNL     1     -11.247   6.510  69.797  1.00  0.00    -0.456 C  
HETATM   15  C   UNL     1      -9.024   9.251  70.277  1.00  0.00    -0.261 C  
HETATM   16  O   UNL     1     -10.429  11.770  69.214  1.00  0.00    -0.412 OA 
HETATM   17  C   UNL     1     -10.082   9.619  67.899  1.00  0.00    -0.222 C  
HETATM   18  C   UNL     1      -9.758   8.595  69.091  1.00  0.00    -0.173 C  
HETATM   19  C   UNL     1     -11.136   8.023  69.626  1.00  0.00    -0.021 C  
HETATM   20  H   UNL     1     -10.073  11.193  69.881  1.00  0.00     0.000 HD 
HETATM   21  C   UNL     1      -8.772   9.997  66.955  1.00  0.00    -0.135 C  
HETATM   22  C   UNL     1      -8.086   8.687  66.517  1.00  0.00    -0.103 C  
HETATM   23  O   UNL     1      -9.693   5.210  71.095  1.00  0.00    -0.158 OA 
HETATM   24  C   UNL     1      -7.673   7.812  67.695  1.00  0.00    -0.121 C  
ENDROOT
BRANCH   4  25
HETATM   25  C   UNL     1     -10.137  13.959  67.365  1.00  0.00    -0.244 C  
HETATM   26  O   UNL     1     -11.176  14.272  67.971  1.00  0.00    -0.260 OA 
BRANCH  25  27
HETATM   27  C   UNL     1      -9.212  15.151  67.003  1.00  0.00    -0.223 C  
BRANCH  27  28
HETATM   28  O   UNL     1      -9.957  16.402  67.184  1.00  0.00    -0.248 OA 
BRANCH  28  29
HETATM   29  C   UNL     1     -10.231  17.193  66.100  1.00  0.00    -0.334 C  
HETATM   30  O   UNL     1     -10.631  16.752  65.026  1.00  0.00    -0.695 OA 
BRANCH  29  31
HETATM   31  C   UNL     1      -9.948  18.685  66.422  1.00  0.00    -0.388 C  
BRANCH  31  32
HETATM   32  N   UNL     1      -8.566  18.975  66.934  1.00  0.00    -0.285 NA 
BRANCH  32  33
HETATM   33  C   UNL     1      -7.818  19.900  66.068  1.00  0.00    -0.323 C  
HETATM   34  C   UNL     1      -6.543  19.346  65.439  1.00  0.00    -0.310 C  
ENDBRANCH  32  33
BRANCH  32  35
HETATM   35  C   UNL     1      -8.621  19.418  68.346  1.00  0.00    -0.360 C  
HETATM   36  C   UNL     1      -7.268  19.492  69.064  1.00  0.00    -0.397 C  
ENDBRANCH  32  35
ENDBRANCH  31  32
ENDBRANCH  29  31
ENDBRANCH  28  29
ENDBRANCH  27  28
ENDBRANCH  25  27
ENDBRANCH   4  25
TORSDOF 8
ENDMDL
MODEL       20
REMARK 921   NORMALIZED FREE ENERGY PREDICTED BY IDOCK:   -6.14 KCAL/MOL
REMARK 922        TOTAL FREE ENERGY PREDICTED BY IDOCK:   -9.15 KCAL/MOL
REMARK 923 INTER-LIGAND FREE ENERGY PREDICTED BY IDOCK:   -9.16 KCAL/MOL
REMARK 924 INTRA-LIGAND FREE ENERGY PREDICTED BY IDOCK:    0.01 KCAL/MOL
REMARK 927      BINDING AFFINITY PREDICTED BY RF-SCORE:    0.00 PKD
ROOT
HETATM    1  C   UNL     1     -10.164  12.288  65.102  1.00  0.00    -0.305 C  
HETATM    2  C   UNL     1     -11.264  11.663  64.471  1.00  0.00    -0.335 C  
HETATM    3  C   UNL     1     -11.567  12.208  65.834  1.00  0.00    -0.425 C  
HETATM    4  C   UNL     1     -10.202  13.495  66.700  1.00  0.00    -0.275 C  
HETATM    5  C   UNL     1      -9.082   8.482  67.744  1.00  0.00    -0.143 C  
HETATM    6  O   UNL     1      -8.971  13.890  65.974  1.00  0.00    -0.457 OA 
HETATM    7  C   UNL     1     -11.264  13.687  65.879  1.00  0.00    -0.311 C  
HETATM    8  C   UNL     1     -12.092  13.229  67.571  1.00  0.00    -0.312 C  
HETATM    9  H   UNL     1      -8.343  14.482  66.372  1.00  0.00     0.000 HD 
HETATM   10  C   UNL     1      -9.031   7.205  68.171  1.00  0.00    -0.128 C  
HETATM   11  C   UNL     1      -9.692   6.880  69.448  1.00  0.00    -0.157 C  
HETATM   12  C   UNL     1     -11.655  14.790  64.913  1.00  0.00    -0.401 C  
HETATM   13  C   UNL     1     -11.106  12.030  68.437  1.00  0.00    -0.245 C  
HETATM   14  C   UNL     1     -11.011   7.548  69.651  1.00  0.00    -0.164 C  
HETATM   15  C   UNL     1      -8.580  10.144  69.462  1.00  0.00    -0.177 C  
HETATM   16  O   UNL     1     -10.093  12.796  69.113  1.00  0.00    -0.413 OA 
HETATM   17  C   UNL     1     -10.380  10.740  67.641  1.00  0.00    -0.236 C  
HETATM   18  C   UNL     1      -9.727   9.614  68.580  1.00  0.00    -0.161 C  
HETATM   19  C   UNL     1     -10.865   9.064  69.538  1.00  0.00    -0.177 C  
HETATM   20  H   UNL     1      -9.566  12.155  69.575  1.00  0.00     0.000 HD 
HETATM   21  C   UNL     1      -9.464  11.132  66.316  1.00  0.00    -0.220 C  
HETATM   22  C   UNL     1      -9.067   9.830  65.589  1.00  0.00    -0.222 C  
HETATM   23  O   UNL     1      -9.192   6.086  70.235  1.00  0.00    -0.152 OA 
HETATM   24  C   UNL     1      -8.326   8.851  66.491  1.00  0.00    -0.115 C  
ENDROOT
BRANCH   4  25
HETATM   25  C   UNL     1     -10.323  15.106  67.407  1.00  0.00    -0.244 C  
HETATM   26  O   UNL     1     -11.382  15.662  67.745  1.00  0.00    -0.326 OA 
BRANCH  25  27
HETATM   27  C   UNL     1      -9.046  15.964  67.608  1.00  0.00    -0.198 C  
BRANCH  27  28
HETATM   28  O   UNL     1      -8.749  16.673  66.358  1.00  0.00    -0.257 OA 
BRANCH  28  29
HETATM   29  C   UNL     1      -7.547  17.314  66.209  1.00  0.00    -0.325 C  
HETATM   30  O   UNL     1      -6.463  16.754  66.336  1.00  0.00    -0.241 OA 
BRANCH  29  31
HETATM   31  C   UNL     1      -7.762  18.818  65.884  1.00  0.00    -0.118 C  
BRANCH  31  32
HETATM   32  N   UNL     1      -8.143  19.674  67.057  1.00  0.00    -0.274 NA 
BRANCH  32  33
HETATM   33  C   UNL     1      -7.254  20.833  67.231  1.00  0.00    -0.360 C  
HETATM   34  C   UNL     1      -6.157  20.685  68.282  1.00  0.00    -0.368 C  
ENDBRANCH  32  33
BRANCH  32  35
HETATM   35  C   UNL     1      -9.574  20.048  66.980  1.00  0.00    -0.411 C  
HETATM   36  C   UNL     1     -10.436  19.595  68.166  1.00  0.00    -0.503 C  
ENDBRANCH  32  35
ENDBRANCH  31  32
ENDBRANCH  29  31
ENDBRANCH  28  29
ENDBRANCH  27  28
ENDBRANCH  25  27
ENDBRANCH   4  25
TORSDOF 8
ENDMDL
MODEL       21
REMARK 921   NORMALIZED FREE ENERGY PREDICTED BY IDOCK:   -6.11 KCAL/MOL
REMARK 922        TOTAL FREE ENERGY PREDICTED BY IDOCK:   -9.12 KCAL/MOL
REMARK 923 INTER-LIGAND FREE ENERGY PREDICTED BY IDOCK:   -8.98 KCAL/MOL
REMARK 924 INTRA-LIGAND FREE ENERGY PREDICTED BY IDOCK:   -0.14 KCAL/MOL
REMARK 927      BINDING AFFINITY PREDICTED BY RF-SCORE:    0.00 PKD
ROOT
HETATM    1  C   UNL     1      -8.060   9.783  70.412  1.00  0.00    -0.134 C  
HETATM    2  C   UNL     1      -6.764   9.228  70.523  1.00  0.00    -0.078 C  
HETATM    3  C   UNL     1      -7.591   8.641  69.419  1.00  0.00    -0.092 C  
HETATM    4  C   UNL     1      -9.327   9.617  68.870  1.00  0.00    -0.151 C  
HETATM    5  C   UNL     1     -10.155   6.232  72.784  1.00  0.00    -0.194 C  
HETATM    6  O   UNL     1      -9.724  10.882  69.533  1.00  0.00    -0.425 OA 
HETATM    7  C   UNL     1      -8.036   9.729  68.471  1.00  0.00    -0.104 C  
HETATM    8  C   UNL     1      -8.592   8.041  67.695  1.00  0.00    -0.130 C  
HETATM    9  H   UNL     1     -10.523  11.331  69.280  1.00  0.00     0.000 HD 
HETATM   10  C   UNL     1     -10.317   5.164  73.591  1.00  0.00    -0.260 C  
HETATM   11  C   UNL     1     -10.714   3.888  72.971  1.00  0.00    -0.153 C  
HETATM   12  C   UNL     1      -7.234  10.840  67.819  1.00  0.00    -0.088 C  
HETATM   13  C   UNL     1      -9.723   7.206  68.780  1.00  0.00    -0.145 C  
HETATM   14  C   UNL     1     -10.032   3.588  71.678  1.00  0.00    -0.190 C  
HETATM   15  C   UNL     1     -11.944   6.547  71.152  1.00  0.00    -0.365 C  
HETATM   16  O   UNL     1     -11.010   7.786  68.499  1.00  0.00    -0.417 OA 
HETATM   17  C   UNL     1      -9.490   7.167  70.445  1.00  0.00    -0.162 C  
HETATM   18  C   UNL     1     -10.452   6.180  71.266  1.00  0.00    -0.274 C  
HETATM   19  C   UNL     1     -10.262   4.720  70.679  1.00  0.00    -0.250 C  
HETATM   20  H   UNL     1     -11.615   7.339  69.080  1.00  0.00     0.000 HD 
HETATM   21  C   UNL     1      -9.245   8.636  71.174  1.00  0.00    -0.269 C  
HETATM   22  C   UNL     1      -8.830   8.396  72.639  1.00  0.00    -0.288 C  
HETATM   23  O   UNL     1     -11.508   3.136  73.523  1.00  0.00    -0.209 OA 
HETATM   24  C   UNL     1      -9.847   7.567  73.415  1.00  0.00    -0.365 C  
ENDROOT
BRANCH   4  25
HETATM   25  C   UNL     1      -9.963  10.202  67.332  1.00  0.00    -0.195 C  
HETATM   26  O   UNL     1     -10.216   9.491  66.344  1.00  0.00    -0.264 OA 
BRANCH  25  27
HETATM   27  C   UNL     1     -10.205  11.719  67.119  1.00  0.00    -0.212 C  
BRANCH  27  28
HETATM   28  O   UNL     1     -11.456  12.099  67.786  1.00  0.00    -0.287 OA 
BRANCH  28  29
HETATM   29  C   UNL     1     -11.810  13.420  67.866  1.00  0.00    -0.357 C  
HETATM   30  O   UNL     1     -12.290  14.049  66.928  1.00  0.00    -0.418 OA 
BRANCH  29  31
HETATM   31  C   UNL     1     -11.501  13.987  69.278  1.00  0.00    -0.295 C  
BRANCH  31  32
HETATM   32  N   UNL     1     -12.679  14.058  70.208  1.00  0.00    -0.280 NA 
BRANCH  32  33
HETATM   33  C   UNL     1     -12.646  13.023  71.252  1.00  0.00    -0.279 C  
HETATM   34  C   UNL     1     -13.750  13.094  72.302  1.00  0.00    -0.647 C  
ENDBRANCH  32  33
BRANCH  32  35
HETATM   35  C   UNL     1     -12.824  15.427  70.753  1.00  0.00    -0.466 C  
HETATM   36  C   UNL     1     -11.610  15.960  71.524  1.00  0.00    -0.537 C  
ENDBRANCH  32  35
ENDBRANCH  31  32
ENDBRANCH  29  31
ENDBRANCH  28  29
ENDBRANCH  27  28
ENDBRANCH  25  27
ENDBRANCH   4  25
TORSDOF 8
ENDMDL
MODEL       22
REMARK 921   NORMALIZED FREE ENERGY PREDICTED BY IDOCK:   -6.11 KCAL/MOL
REMARK 922        TOTAL FREE ENERGY PREDICTED BY IDOCK:   -9.11 KCAL/MOL
REMARK 923 INTER-LIGAND FREE ENERGY PREDICTED BY IDOCK:   -8.21 KCAL/MOL
REMARK 924 INTRA-LIGAND FREE ENERGY PREDICTED BY IDOCK:   -0.90 KCAL/MOL
REMARK 927      BINDING AFFINITY PREDICTED BY RF-SCORE:    0.00 PKD
ROOT
HETATM    1  C   UNL     1      -9.707  10.029  69.278  1.00  0.00    -0.227 C  
HETATM    2  C   UNL     1     -10.608   9.012  68.889  1.00  0.00    -0.203 C  
HETATM    3  C   UNL     1      -9.493   9.250  67.916  1.00  0.00    -0.154 C  
HETATM    4  C   UNL     1      -7.886  10.395  68.529  1.00  0.00    -0.107 C  
HETATM    5  C   UNL     1     -11.731  13.347  66.535  1.00  0.00    -0.415 C  
HETATM    6  O   UNL     1      -7.829  10.940  69.906  1.00  0.00    -0.346 OA 
HETATM    7  C   UNL     1      -8.159   9.069  68.603  1.00  0.00    -0.107 C  
HETATM    8  C   UNL     1      -7.792   9.338  66.719  1.00  0.00    -0.104 C  
HETATM    9  H   UNL     1      -7.090  11.467  70.188  1.00  0.00     0.000 HD 
HETATM   10  C   UNL     1     -12.645  13.983  65.776  1.00  0.00    -0.512 C  
HETATM   11  C   UNL     1     -12.351  14.150  64.341  1.00  0.00    -0.381 C  
HETATM   12  C   UNL     1      -7.672   7.948  69.502  1.00  0.00    -0.104 C  
HETATM   13  C   UNL     1      -8.383  10.930  66.195  1.00  0.00    -0.168 C  
HETATM   14  C   UNL     1     -11.730  12.958  63.693  1.00  0.00    -0.572 C  
HETATM   15  C   UNL     1      -9.429  14.075  66.171  1.00  0.00    -0.210 C  
HETATM   16  O   UNL     1      -7.341  11.854  66.555  1.00  0.00    -0.364 OA 
HETATM   17  C   UNL     1      -9.861  11.540  66.713  1.00  0.00    -0.227 C  
HETATM   18  C   UNL     1     -10.369  12.871  65.974  1.00  0.00    -0.294 C  
HETATM   19  C   UNL     1     -10.448  12.561  64.421  1.00  0.00    -0.384 C  
HETATM   20  H   UNL     1      -7.657  12.705  66.275  1.00  0.00     0.000 HD 
HETATM   21  C   UNL     1     -10.108  11.539  68.353  1.00  0.00    -0.207 C  
HETATM   22  C   UNL     1     -11.578  11.915  68.630  1.00  0.00    -0.366 C  
HETATM   23  O   UNL     1     -12.648  15.180  63.750  1.00  0.00    -0.752 OA 
HETATM   24  C   UNL     1     -11.971  13.256  68.022  1.00  0.00    -0.351 C  
ENDROOT
BRANCH   4  25
HETATM   25  C   UNL     1      -6.140  10.142  68.537  1.00  0.00    -0.044 C  
HETATM   26  O   UNL     1      -5.558   9.147  68.073  1.00  0.00    -0.038 OA 
BRANCH  25  27
HETATM   27  C   UNL     1      -5.208  11.190  69.201  1.00  0.00    -0.040 C  
BRANCH  27  28
HETATM   28  O   UNL     1      -5.767  12.529  68.983  1.00  0.00    -0.063 OA 
BRANCH  28  29
HETATM   29  C   UNL     1      -5.740  13.450  69.997  1.00  0.00    -0.124 C  
HETATM   30  O   UNL     1      -5.859  13.154  71.182  1.00  0.00    -0.291 OA 
BRANCH  29  31
HETATM   31  C   UNL     1      -5.561  14.885  69.432  1.00  0.00    -0.095 C  
BRANCH  31  32
HETATM   32  N   UNL     1      -6.675  15.364  68.546  1.00  0.00    -0.109 NA 
BRANCH  32  33
HETATM   33  C   UNL     1      -7.706  16.115  69.279  1.00  0.00    -0.210 C  
HETATM   34  C   UNL     1      -9.031  15.392  69.500  1.00  0.00    -0.229 C  
ENDBRANCH  32  33
BRANCH  32  35
HETATM   35  C   UNL     1      -6.129  16.108  67.387  1.00  0.00    -0.154 C  
HETATM   36  C   UNL     1      -7.070  17.155  66.777  1.00  0.00    -0.259 C  
ENDBRANCH  32  35
ENDBRANCH  31  32
ENDBRANCH  29  31
ENDBRANCH  28  29
ENDBRANCH  27  28
ENDBRANCH  25  27
ENDBRANCH   4  25
TORSDOF 8
ENDMDL
MODEL       23
REMARK 921   NORMALIZED FREE ENERGY PREDICTED BY IDOCK:   -6.10 KCAL/MOL
REMARK 922        TOTAL FREE ENERGY PREDICTED BY IDOCK:   -9.09 KCAL/MOL
REMARK 923 INTER-LIGAND FREE ENERGY PREDICTED BY IDOCK:   -9.11 KCAL/MOL
REMARK 924 INTRA-LIGAND FREE ENERGY PREDICTED BY IDOCK:    0.01 KCAL/MOL
REMARK 927      BINDING AFFINITY PREDICTED BY RF-SCORE:    0.00 PKD
ROOT
HETATM    1  C   UNL     1      -8.233   9.822  70.303  1.00  0.00    -0.178 C  
HETATM    2  C   UNL     1      -6.918   9.301  70.323  1.00  0.00    -0.076 C  
HETATM    3  C   UNL     1      -7.804   8.695  69.276  1.00  0.00    -0.101 C  
HETATM    4  C   UNL     1      -9.598   9.626  68.852  1.00  0.00    -0.161 C  
HETATM    5  C   UNL     1     -10.065   6.211  72.801  1.00  0.00    -0.195 C  
HETATM    6  O   UNL     1      -9.982  10.878  69.545  1.00  0.00    -0.418 OA 
HETATM    7  C   UNL     1      -8.342   9.773  68.365  1.00  0.00    -0.110 C  
HETATM    8  C   UNL     1      -8.906   8.073  67.623  1.00  0.00    -0.125 C  
HETATM    9  H   UNL     1     -10.808  11.306  69.350  1.00  0.00     0.000 HD 
HETATM   10  C   UNL     1     -10.143   5.138  73.612  1.00  0.00    -0.213 C  
HETATM   11  C   UNL     1     -10.548   3.853  73.016  1.00  0.00    -0.171 C  
HETATM   12  C   UNL     1      -7.616  10.906  67.664  1.00  0.00    -0.096 C  
HETATM   13  C   UNL     1      -9.937   7.205  68.780  1.00  0.00    -0.163 C  
HETATM   14  C   UNL     1      -9.950   3.574  71.678  1.00  0.00    -0.190 C  
HETATM   15  C   UNL     1     -11.970   6.482  71.297  1.00  0.00    -0.364 C  
HETATM   16  O   UNL     1     -11.254   7.751  68.591  1.00  0.00    -0.374 OA 
HETATM   17  C   UNL     1      -9.588   7.169  70.425  1.00  0.00    -0.169 C  
HETATM   18  C   UNL     1     -10.464   6.155  71.307  1.00  0.00    -0.274 C  
HETATM   19  C   UNL     1     -10.277   4.702  70.701  1.00  0.00    -0.211 C  
HETATM   20  H   UNL     1     -11.806   7.287  69.211  1.00  0.00     0.000 HD 
HETATM   21  C   UNL     1      -9.331   8.643  71.141  1.00  0.00    -0.274 C  
HETATM   22  C   UNL     1      -8.810   8.410  72.573  1.00  0.00    -0.296 C  
HETATM   23  O   UNL     1     -11.282   3.079  73.618  1.00  0.00    -0.224 OA 
HETATM   24  C   UNL     1      -9.749   7.553  73.414  1.00  0.00    -0.346 C  
ENDROOT
BRANCH   4  25
HETATM   25  C   UNL     1     -10.354  10.197  67.364  1.00  0.00    -0.238 C  
HETATM   26  O   UNL     1     -10.164   9.716  66.234  1.00  0.00    -0.260 OA 
BRANCH  25  27
HETATM   27  C   UNL     1     -11.308  11.421  67.397  1.00  0.00    -0.288 C  
BRANCH  27  28
HETATM   28  O   UNL     1     -11.678  11.772  66.022  1.00  0.00    -0.433 OA 
BRANCH  28  29
HETATM   29  C   UNL     1     -12.255  12.987  65.763  1.00  0.00    -0.453 C  
HETATM   30  O   UNL     1     -12.915  13.221  64.755  1.00  0.00    -0.710 OA 
BRANCH  29  31
HETATM   31  C   UNL     1     -11.939  14.000  66.897  1.00  0.00    -0.447 C  
BRANCH  31  32
HETATM   32  N   UNL     1     -10.989  15.100  66.522  1.00  0.00    -0.322 NA 
BRANCH  32  33
HETATM   33  C   UNL     1     -10.755  16.053  67.618  1.00  0.00    -0.320 C  
HETATM   34  C   UNL     1     -11.516  15.784  68.913  1.00  0.00    -0.381 C  
ENDBRANCH  32  33
BRANCH  32  35
HETATM   35  C   UNL     1      -9.737  14.535  65.968  1.00  0.00    -0.303 C  
HETATM   36  C   UNL     1      -8.573  14.419  66.961  1.00  0.00    -0.226 C  
ENDBRANCH  32  35
ENDBRANCH  31  32
ENDBRANCH  29  31
ENDBRANCH  28  29
ENDBRANCH  27  28
ENDBRANCH  25  27
ENDBRANCH   4  25
TORSDOF 8
ENDMDL
MODEL       24
REMARK 921   NORMALIZED FREE ENERGY PREDICTED BY IDOCK:   -6.06 KCAL/MOL
REMARK 922        TOTAL FREE ENERGY PREDICTED BY IDOCK:   -9.04 KCAL/MOL
REMARK 923 INTER-LIGAND FREE ENERGY PREDICTED BY IDOCK:   -8.84 KCAL/MOL
REMARK 924 INTRA-LIGAND FREE ENERGY PREDICTED BY IDOCK:   -0.20 KCAL/MOL
REMARK 927      BINDING AFFINITY PREDICTED BY RF-SCORE:    0.00 PKD
ROOT
HETATM    1  C   UNL     1     -11.405  12.095  67.533  1.00  0.00    -0.392 C  
HETATM    2  C   UNL     1     -11.638  12.129  66.139  1.00  0.00    -0.418 C  
HETATM    3  C   UNL     1     -10.204  11.909  66.518  1.00  0.00    -0.232 C  
HETATM    4  C   UNL     1      -9.771  11.428  68.479  1.00  0.00    -0.197 C  
HETATM    5  C   UNL     1      -9.931  16.614  67.740  1.00  0.00    -0.262 C  
HETATM    6  O   UNL     1     -10.857  11.274  69.476  1.00  0.00    -0.360 OA 
HETATM    7  C   UNL     1     -10.081  10.682  67.390  1.00  0.00    -0.231 C  
HETATM    8  C   UNL     1      -8.279  11.289  67.011  1.00  0.00    -0.151 C  
HETATM    9  H   UNL     1     -10.658  11.053  70.379  1.00  0.00     0.000 HD 
HETATM   10  C   UNL     1      -9.734  17.903  67.398  1.00  0.00    -0.288 C  
HETATM   11  C   UNL     1      -8.358  18.330  67.089  1.00  0.00    -0.245 C  
HETATM   12  C   UNL     1     -10.660   9.292  67.202  1.00  0.00    -0.286 C  
HETATM   13  C   UNL     1      -8.034  12.932  67.641  1.00  0.00    -0.167 C  
HETATM   14  C   UNL     1      -7.571  17.350  66.285  1.00  0.00    -0.348 C  
HETATM   15  C   UNL     1      -8.336  15.744  69.370  1.00  0.00    -0.215 C  
HETATM   16  O   UNL     1      -7.708  12.755  69.031  1.00  0.00    -0.320 OA 
HETATM   17  C   UNL     1      -9.216  14.119  67.501  1.00  0.00    -0.192 C  
HETATM   18  C   UNL     1      -8.766  15.608  67.897  1.00  0.00    -0.166 C  
HETATM   19  C   UNL     1      -7.526  15.996  66.989  1.00  0.00    -0.264 C  
HETATM   20  H   UNL     1      -7.577  13.634  69.368  1.00  0.00     0.000 HD 
HETATM   21  C   UNL     1     -10.727  13.702  68.042  1.00  0.00    -0.258 C  
HETATM   22  C   UNL     1     -11.719  14.810  67.636  1.00  0.00    -0.364 C  
HETATM   23  O   UNL     1      -7.942  19.427  67.440  1.00  0.00    -0.259 OA 
HETATM   24  C   UNL     1     -11.317  16.186  68.155  1.00  0.00    -0.270 C  
ENDROOT
BRANCH   4  25
HETATM   25  C   UNL     1      -8.861  10.124  69.243  1.00  0.00    -0.183 C  
HETATM   26  O   UNL     1      -7.857   9.573  68.760  1.00  0.00    -0.082 OA 
BRANCH  25  27
HETATM   27  C   UNL     1      -9.327   9.546  70.605  1.00  0.00    -0.199 C  
BRANCH  27  28
HETATM   28  O   UNL     1     -10.532   8.736  70.390  1.00  0.00    -0.197 OA 
BRANCH  28  29
HETATM   29  C   UNL     1     -11.475   8.644  71.380  1.00  0.00    -0.289 C  
HETATM   30  O   UNL     1     -12.007   9.620  71.900  1.00  0.00    -0.370 OA 
BRANCH  29  31
HETATM   31  C   UNL     1     -11.744   7.159  71.746  1.00  0.00    -0.290 C  
BRANCH  31  32
HETATM   32  N   UNL     1     -10.639   6.479  72.502  1.00  0.00    -0.206 NA 
BRANCH  32  33
HETATM   33  C   UNL     1     -10.332   7.138  73.781  1.00  0.00    -0.347 C  
HETATM   34  C   UNL     1      -8.912   7.673  73.936  1.00  0.00    -0.321 C  
ENDBRANCH  32  33
BRANCH  32  35
HETATM   35  C   UNL     1     -10.926   5.034  72.649  1.00  0.00    -0.216 C  
HETATM   36  C   UNL     1      -9.933   4.093  71.955  1.00  0.00    -0.250 C  
ENDBRANCH  32  35
ENDBRANCH  31  32
ENDBRANCH  29  31
ENDBRANCH  28  29
ENDBRANCH  27  28
ENDBRANCH  25  27
ENDBRANCH   4  25
TORSDOF 8
ENDMDL
MODEL       25
REMARK 921   NORMALIZED FREE ENERGY PREDICTED BY IDOCK:   -5.94 KCAL/MOL
REMARK 922        TOTAL FREE ENERGY PREDICTED BY IDOCK:   -8.86 KCAL/MOL
REMARK 923 INTER-LIGAND FREE ENERGY PREDICTED BY IDOCK:   -8.80 KCAL/MOL
REMARK 924 INTRA-LIGAND FREE ENERGY PREDICTED BY IDOCK:   -0.06 KCAL/MOL
REMARK 927      BINDING AFFINITY PREDICTED BY RF-SCORE:    0.00 PKD
ROOT
HETATM    1  C   UNL     1     -11.123  10.381  67.933  1.00  0.00    -0.363 C  
HETATM    2  C   UNL     1     -11.108  10.019  69.300  1.00  0.00    -0.248 C  
HETATM    3  C   UNL     1      -9.890  10.768  68.850  1.00  0.00    -0.209 C  
HETATM    4  C   UNL     1      -9.944  11.713  67.014  1.00  0.00    -0.204 C  
HETATM    5  C   UNL     1      -8.391   6.726  66.587  1.00  0.00    -0.118 C  
HETATM    6  O   UNL     1     -11.170  11.675  66.181  1.00  0.00    -0.305 OA 
HETATM    7  C   UNL     1     -10.289  12.103  68.266  1.00  0.00    -0.218 C  
HETATM    8  C   UNL     1      -8.351  12.071  68.332  1.00  0.00    -0.151 C  
HETATM    9  H   UNL     1     -11.194  12.110  65.336  1.00  0.00     0.000 HD 
HETATM   10  C   UNL     1      -7.758   5.536  66.612  1.00  0.00    -0.100 C  
HETATM   11  C   UNL     1      -6.287   5.542  66.689  1.00  0.00    -0.036 C  
HETATM   12  C   UNL     1     -11.228  13.162  68.812  1.00  0.00    -0.323 C  
HETATM   13  C   UNL     1      -7.720  10.746  67.330  1.00  0.00    -0.107 C  
HETATM   14  C   UNL     1      -5.718   6.565  67.616  1.00  0.00    -0.012 C  
HETATM   15  C   UNL     1      -7.420   8.357  65.052  1.00  0.00    -0.089 C  
HETATM   16  O   UNL     1      -7.690  11.271  65.991  1.00  0.00    -0.345 OA 
HETATM   17  C   UNL     1      -8.445   9.229  67.310  1.00  0.00    -0.125 C  
HETATM   18  C   UNL     1      -7.630   8.073  66.552  1.00  0.00    -0.092 C  
HETATM   19  C   UNL     1      -6.202   7.961  67.232  1.00  0.00    -0.054 C  
HETATM   20  H   UNL     1      -7.353  10.562  65.455  1.00  0.00     0.000 HD 
HETATM   21  C   UNL     1     -10.077   9.211  67.018  1.00  0.00    -0.316 C  
HETATM   22  C   UNL     1     -10.604   7.782  67.256  1.00  0.00    -0.376 C  
HETATM   23  O   UNL     1      -5.616   4.729  66.065  1.00  0.00    -0.016 OA 
HETATM   24  C   UNL     1      -9.889   6.737  66.408  1.00  0.00    -0.096 C  
ENDROOT
BRANCH   4  25
HETATM   25  C   UNL     1      -9.610  13.361  66.480  1.00  0.00    -0.272 C  
HETATM   26  O   UNL     1      -8.697  14.084  66.914  1.00  0.00    -0.220 OA 
BRANCH  25  27
HETATM   27  C   UNL     1     -10.521  14.033  65.419  1.00  0.00    -0.351 C  
BRANCH  27  28
HETATM   28  O   UNL     1     -11.107  15.248  65.996  1.00  0.00    -0.332 OA 
BRANCH  28  29
HETATM   29  C   UNL     1     -10.889  16.460  65.395  1.00  0.00    -0.239 C  
HETATM   30  O   UNL     1     -11.361  16.769  64.306  1.00  0.00    -1.170 OA 
BRANCH  29  31
HETATM   31  C   UNL     1      -9.963  17.348  66.270  1.00  0.00    -0.297 C  
BRANCH  31  32
HETATM   32  N   UNL     1     -10.665  18.146  67.332  1.00  0.00    -0.384 NA 
BRANCH  32  33
HETATM   33  C   UNL     1     -10.152  17.875  68.684  1.00  0.00    -0.394 C  
HETATM   34  C   UNL     1     -10.030  16.405  69.072  1.00  0.00    -0.267 C  
ENDBRANCH  32  33
BRANCH  32  35
HETATM   35  C   UNL     1     -10.655  19.587  66.986  1.00  0.00    -0.492 C  
HETATM   36  C   UNL     1      -9.269  20.192  66.733  1.00  0.00    -0.487 C  
ENDBRANCH  32  35
ENDBRANCH  31  32
ENDBRANCH  29  31
ENDBRANCH  28  29
ENDBRANCH  27  28
ENDBRANCH  25  27
ENDBRANCH   4  25
TORSDOF 8
ENDMDL
MODEL       26
REMARK 921   NORMALIZED FREE ENERGY PREDICTED BY IDOCK:   -5.93 KCAL/MOL
REMARK 922        TOTAL FREE ENERGY PREDICTED BY IDOCK:   -8.85 KCAL/MOL
REMARK 923 INTER-LIGAND FREE ENERGY PREDICTED BY IDOCK:   -8.65 KCAL/MOL
REMARK 924 INTRA-LIGAND FREE ENERGY PREDICTED BY IDOCK:   -0.20 KCAL/MOL
REMARK 927      BINDING AFFINITY PREDICTED BY RF-SCORE:    0.00 PKD
ROOT
HETATM    1  C   UNL     1      -7.859  10.115  68.858  1.00  0.00    -0.100 C  
HETATM    2  C   UNL     1      -7.166   9.103  68.154  1.00  0.00    -0.079 C  
HETATM    3  C   UNL     1      -8.651   9.087  67.950  1.00  0.00    -0.125 C  
HETATM    4  C   UNL     1      -9.743  10.728  68.568  1.00  0.00    -0.182 C  
HETATM    5  C   UNL     1      -9.126   7.236  72.428  1.00  0.00    -0.155 C  
HETATM    6  O   UNL     1      -9.067  11.902  69.170  1.00  0.00    -0.364 OA 
HETATM    7  C   UNL     1      -9.114  10.419  67.408  1.00  0.00    -0.144 C  
HETATM    8  C   UNL     1     -10.653   9.241  67.401  1.00  0.00    -0.324 C  
HETATM    9  H   UNL     1      -9.569  12.657  69.454  1.00  0.00     0.000 HD 
HETATM   10  C   UNL     1      -9.141   6.178  73.261  1.00  0.00    -0.129 C  
HETATM   11  C   UNL     1     -10.312   5.284  73.217  1.00  0.00    -0.207 C  
HETATM   12  C   UNL     1      -8.563  11.247  66.262  1.00  0.00    -0.172 C  
HETATM   13  C   UNL     1     -11.028   8.705  69.053  1.00  0.00     0.090 C  
HETATM   14  C   UNL     1     -10.821   4.997  71.843  1.00  0.00    -0.118 C  
HETATM   15  C   UNL     1     -11.214   8.499  72.357  1.00  0.00    -0.399 C  
HETATM   16  O   UNL     1     -11.814   9.768  69.622  1.00  0.00    -0.452 OA 
HETATM   17  C   UNL     1      -9.821   8.272  70.140  1.00  0.00    -0.184 C  
HETATM   18  C   UNL     1     -10.316   7.584  71.502  1.00  0.00    -0.216 C  
HETATM   19  C   UNL     1     -11.158   6.297  71.116  1.00  0.00    -0.356 C  
HETATM   20  H   UNL     1     -12.014   9.481  70.506  1.00  0.00     0.000 HD 
HETATM   21  C   UNL     1      -8.602   9.377  70.343  1.00  0.00    -0.266 C  
HETATM   22  C   UNL     1      -7.485   8.729  71.186  1.00  0.00    -0.115 C  
HETATM   23  O   UNL     1     -10.777   4.797  74.240  1.00  0.00    -0.289 OA 
HETATM   24  C   UNL     1      -7.982   8.215  72.532  1.00  0.00    -0.195 C  
ENDROOT
BRANCH   4  25
HETATM   25  C   UNL     1     -10.911  11.785  67.775  1.00  0.00    -0.225 C  
HETATM   26  O   UNL     1     -11.881  11.401  67.099  1.00  0.00    -0.566 OA 
BRANCH  25  27
HETATM   27  C   UNL     1     -10.743  13.325  67.854  1.00  0.00    -0.239 C  
BRANCH  27  28
HETATM   28  O   UNL     1     -11.307  13.800  69.123  1.00  0.00    -0.255 OA 
BRANCH  28  29
HETATM   29  C   UNL     1     -11.315  15.141  69.404  1.00  0.00    -0.294 C  
HETATM   30  O   UNL     1     -12.122  15.667  70.163  1.00  0.00    -0.366 OA 
BRANCH  29  31
HETATM   31  C   UNL     1     -10.191  15.873  68.621  1.00  0.00    -0.223 C  
BRANCH  31  32
HETATM   32  N   UNL     1     -10.600  17.171  67.985  1.00  0.00    -0.363 NA 
BRANCH  32  33
HETATM   33  C   UNL     1     -10.003  18.344  68.644  1.00  0.00    -0.387 C  
HETATM   34  C   UNL     1     -10.168  19.676  67.918  1.00  0.00    -0.574 C  
ENDBRANCH  32  33
BRANCH  32  35
HETATM   35  C   UNL     1     -10.347  17.134  66.526  1.00  0.00    -0.306 C  
HETATM   36  C   UNL     1      -9.164  16.261  66.088  1.00  0.00    -0.376 C  
ENDBRANCH  32  35
ENDBRANCH  31  32
ENDBRANCH  29  31
ENDBRANCH  28  29
ENDBRANCH  27  28
ENDBRANCH  25  27
ENDBRANCH   4  25
TORSDOF 8
ENDMDL
MODEL       27
REMARK 921   NORMALIZED FREE ENERGY PREDICTED BY IDOCK:   -5.93 KCAL/MOL
REMARK 922        TOTAL FREE ENERGY PREDICTED BY IDOCK:   -8.84 KCAL/MOL
REMARK 923 INTER-LIGAND FREE ENERGY PREDICTED BY IDOCK:   -8.64 KCAL/MOL
REMARK 924 INTRA-LIGAND FREE ENERGY PREDICTED BY IDOCK:   -0.21 KCAL/MOL
REMARK 927      BINDING AFFINITY PREDICTED BY RF-SCORE:    0.00 PKD
ROOT
HETATM    1  C   UNL     1      -8.567  14.456  68.061  1.00  0.00    -0.166 C  
HETATM    2  C   UNL     1      -8.063  15.326  67.066  1.00  0.00    -0.253 C  
HETATM    3  C   UNL     1      -9.503  14.954  66.884  1.00  0.00    -0.251 C  
HETATM    4  C   UNL     1     -10.486  14.040  68.455  1.00  0.00    -0.253 C  
HETATM    5  C   UNL     1      -8.054  10.553  65.389  1.00  0.00    -0.141 C  
HETATM    6  O   UNL     1      -9.788  13.789  69.738  1.00  0.00     0.166 OA 
HETATM    7  C   UNL     1     -10.297  15.338  68.111  1.00  0.00    -0.242 C  
HETATM    8  C   UNL     1     -11.569  14.713  66.788  1.00  0.00    -0.370 C  
HETATM    9  H   UNL     1     -10.240  13.368  70.460  1.00  0.00     0.000 HD 
HETATM   10  C   UNL     1      -7.628   9.731  64.411  1.00  0.00    -0.135 C  
HETATM   11  C   UNL     1      -8.610   9.292  63.404  1.00  0.00    -0.197 C  
HETATM   12  C   UNL     1     -10.317  16.641  68.888  1.00  0.00    -0.300 C  
HETATM   13  C   UNL     1     -11.237  13.021  66.363  1.00  0.00    -0.300 C  
HETATM   14  C   UNL     1      -9.550  10.359  62.949  1.00  0.00    -0.331 C  
HETATM   15  C   UNL     1     -10.161   9.885  66.426  1.00  0.00    -0.292 C  
HETATM   16  O   UNL     1     -11.883  12.243  67.387  1.00  0.00    -0.480 OA 
HETATM   17  C   UNL     1      -9.669  12.452  66.148  1.00  0.00    -0.254 C  
HETATM   18  C   UNL     1      -9.536  10.976  65.535  1.00  0.00    -0.250 C  
HETATM   19  C   UNL     1     -10.292  10.960  64.141  1.00  0.00    -0.432 C  
HETATM   20  H   UNL     1     -11.705  11.338  67.159  1.00  0.00     0.000 HD 
HETATM   21  C   UNL     1      -8.610  12.771  67.383  1.00  0.00    -0.194 C  
HETATM   22  C   UNL     1      -7.189  12.384  66.926  1.00  0.00     0.087 C  
HETATM   23  O   UNL     1      -8.599   8.150  62.963  1.00  0.00    -0.019 OA 
HETATM   24  C   UNL     1      -7.085  10.930  66.483  1.00  0.00    -0.139 C  
ENDROOT
BRANCH   4  25
HETATM   25  C   UNL     1     -11.987  14.379  69.317  1.00  0.00    -0.324 C  
HETATM   26  O   UNL     1     -12.783  15.291  69.038  1.00  0.00     0.181 OA 
BRANCH  25  27
HETATM   27  C   UNL     1     -12.378  13.532  70.557  1.00  0.00    -0.342 C  
BRANCH  27  28
HETATM   28  O   UNL     1     -12.056  12.125  70.292  1.00  0.00    -0.339 OA 
BRANCH  28  29
HETATM   29  C   UNL     1     -12.571  11.146  71.100  1.00  0.00    -0.409 C  
HETATM   30  O   UNL     1     -13.444  11.351  71.938  1.00  0.00    -0.360 OA 
BRANCH  29  31
HETATM   31  C   UNL     1     -11.886   9.782  70.816  1.00  0.00    -0.319 C  
BRANCH  31  32
HETATM   32  N   UNL     1     -12.054   8.749  71.893  1.00  0.00    -0.337 NA 
BRANCH  32  33
HETATM   33  C   UNL     1     -12.854   7.593  71.458  1.00  0.00    -0.344 C  
HETATM   34  C   UNL     1     -14.361   7.704  71.670  1.00  0.00    -0.613 C  
ENDBRANCH  32  33
BRANCH  32  35
HETATM   35  C   UNL     1     -10.736   8.364  72.450  1.00  0.00    -0.335 C  
HETATM   36  C   UNL     1      -9.520   8.845  71.649  1.00  0.00    -0.351 C  
ENDBRANCH  32  35
ENDBRANCH  31  32
ENDBRANCH  29  31
ENDBRANCH  28  29
ENDBRANCH  27  28
ENDBRANCH  25  27
ENDBRANCH   4  25
TORSDOF 8
ENDMDL
MODEL       28
REMARK 921   NORMALIZED FREE ENERGY PREDICTED BY IDOCK:   -5.89 KCAL/MOL
REMARK 922        TOTAL FREE ENERGY PREDICTED BY IDOCK:   -8.79 KCAL/MOL
REMARK 923 INTER-LIGAND FREE ENERGY PREDICTED BY IDOCK:   -8.48 KCAL/MOL
REMARK 924 INTRA-LIGAND FREE ENERGY PREDICTED BY IDOCK:   -0.30 KCAL/MOL
REMARK 927      BINDING AFFINITY PREDICTED BY RF-SCORE:    0.00 PKD
ROOT
HETATM    1  C   UNL     1      -7.097  13.092  68.481  1.00  0.00    -0.105 C  
HETATM    2  C   UNL     1      -6.229  12.637  67.462  1.00  0.00    -0.159 C  
HETATM    3  C   UNL     1      -7.627  12.919  66.999  1.00  0.00     0.057 C  
HETATM    4  C   UNL     1      -8.884  13.968  68.258  1.00  0.00    -0.184 C  
HETATM    5  C   UNL     1      -9.052   8.814  69.194  1.00  0.00    -0.141 C  
HETATM    6  O   UNL     1      -8.402  14.455  69.572  1.00  0.00    -0.363 OA 
HETATM    7  C   UNL     1      -7.996  14.351  67.307  1.00  0.00    -0.204 C  
HETATM    8  C   UNL     1      -9.455  13.601  66.272  1.00  0.00    -0.209 C  
HETATM    9  H   UNL     1      -8.980  14.937  70.152  1.00  0.00     0.000 HD 
HETATM   10  C   UNL     1      -9.224   7.477  69.180  1.00  0.00    -0.144 C  
HETATM   11  C   UNL     1     -10.324   6.933  68.364  1.00  0.00    -0.190 C  
HETATM   12  C   UNL     1      -7.226  15.632  67.049  1.00  0.00    -0.175 C  
HETATM   13  C   UNL     1     -10.180  12.226  67.132  1.00  0.00    -0.211 C  
HETATM   14  C   UNL     1     -10.495   7.593  67.036  1.00  0.00    -0.419 C  
HETATM   15  C   UNL     1     -11.109  10.094  69.495  1.00  0.00    -0.295 C  
HETATM   16  O   UNL     1     -11.109  12.813  68.061  1.00  0.00    -0.228 OA 
HETATM   17  C   UNL     1      -9.239  11.090  67.940  1.00  0.00    -0.155 C  
HETATM   18  C   UNL     1     -10.010   9.783  68.461  1.00  0.00    -0.177 C  
HETATM   19  C   UNL     1     -10.699   9.096  67.209  1.00  0.00    -0.224 C  
HETATM   20  H   UNL     1     -11.496  12.077  68.521  1.00  0.00     0.000 HD 
HETATM   21  C   UNL     1      -8.135  11.700  69.016  1.00  0.00     0.078 C  
HETATM   22  C   UNL     1      -7.221  10.552  69.488  1.00  0.00    -0.137 C  
HETATM   23  O   UNL     1     -10.994   5.986  68.755  1.00  0.00    -0.317 OA 
HETATM   24  C   UNL     1      -7.995   9.392  70.103  1.00  0.00    -0.158 C  
ENDROOT
BRANCH   4  25
HETATM   25  C   UNL     1      -9.874  15.415  68.065  1.00  0.00    -0.216 C  
HETATM   26  O   UNL     1     -10.501  15.723  67.037  1.00  0.00    -0.297 OA 
BRANCH  25  27
HETATM   27  C   UNL     1      -9.974  16.447  69.220  1.00  0.00    -0.259 C  
BRANCH  27  28
HETATM   28  O   UNL     1     -10.583  15.796  70.386  1.00  0.00    -0.313 OA 
BRANCH  28  29
HETATM   29  C   UNL     1     -11.923  15.514  70.384  1.00  0.00    -0.367 C  
HETATM   30  O   UNL     1     -12.526  15.104  69.397  1.00  0.00    -0.165 OA 
BRANCH  29  31
HETATM   31  C   UNL     1     -12.548  15.802  71.777  1.00  0.00    -0.462 C  
BRANCH  31  32
HETATM   32  N   UNL     1     -12.549  14.638  72.726  1.00  0.00    -0.352 NA 
BRANCH  32  33
HETATM   33  C   UNL     1     -12.459  15.051  74.136  1.00  0.00    -0.447 C  
HETATM   34  C   UNL     1     -12.319  16.549  74.388  1.00  0.00    -0.465 C  
ENDBRANCH  32  33
BRANCH  32  35
HETATM   35  C   UNL     1     -13.703  13.750  72.454  1.00  0.00    -0.591 C  
HETATM   36  C   UNL     1     -13.346  12.329  72.002  1.00  0.00    -0.491 C  
ENDBRANCH  32  35
ENDBRANCH  31  32
ENDBRANCH  29  31
ENDBRANCH  28  29
ENDBRANCH  27  28
ENDBRANCH  25  27
ENDBRANCH   4  25
TORSDOF 8
ENDMDL
MODEL       29
REMARK 921   NORMALIZED FREE ENERGY PREDICTED BY IDOCK:   -5.84 KCAL/MOL
REMARK 922        TOTAL FREE ENERGY PREDICTED BY IDOCK:   -8.71 KCAL/MOL
REMARK 923 INTER-LIGAND FREE ENERGY PREDICTED BY IDOCK:   -9.55 KCAL/MOL
REMARK 924 INTRA-LIGAND FREE ENERGY PREDICTED BY IDOCK:    0.84 KCAL/MOL
REMARK 927      BINDING AFFINITY PREDICTED BY RF-SCORE:    0.00 PKD
ROOT
HETATM    1  C   UNL     1     -12.069  14.539  69.511  1.00  0.00    -0.348 C  
HETATM    2  C   UNL     1     -11.530  14.970  70.745  1.00  0.00    -0.335 C  
HETATM    3  C   UNL     1     -10.500  14.593  69.722  1.00  0.00    -0.018 C  
HETATM    4  C   UNL     1     -11.110  14.343  67.764  1.00  0.00    -0.287 C  
HETATM    5  C   UNL     1     -11.588   9.916  70.529  1.00  0.00    -0.386 C  
HETATM    6  O   UNL     1     -12.524  14.563  67.380  1.00  0.00    -0.580 OA 
HETATM    7  C   UNL     1     -10.686  15.419  68.472  1.00  0.00    -0.256 C  
HETATM    8  C   UNL     1      -9.064  14.384  68.230  1.00  0.00    -0.193 C  
HETATM    9  H   UNL     1     -12.805  14.448  66.479  1.00  0.00     0.000 HD 
HETATM   10  C   UNL     1     -11.425   8.782  71.238  1.00  0.00    -0.355 C  
HETATM   11  C   UNL     1     -10.172   8.029  71.054  1.00  0.00    -0.190 C  
HETATM   12  C   UNL     1     -10.873  16.917  68.314  1.00  0.00    -0.357 C  
HETATM   13  C   UNL     1      -9.427  12.646  68.282  1.00  0.00    -0.203 C  
HETATM   14  C   UNL     1      -8.948   8.878  70.956  1.00  0.00    -0.298 C  
HETATM   15  C   UNL     1     -10.995   9.727  68.168  1.00  0.00    -0.228 C  
HETATM   16  O   UNL     1      -9.866  12.314  66.953  1.00  0.00    -0.203 OA 
HETATM   17  C   UNL     1     -10.510  12.000  69.395  1.00  0.00     0.203 C  
HETATM   18  C   UNL     1     -10.555  10.399  69.483  1.00  0.00    -0.274 C  
HETATM   19  C   UNL     1      -9.091   9.892  69.823  1.00  0.00    -0.249 C  
HETATM   20  H   UNL     1     -10.060  11.385  66.981  1.00  0.00     0.000 HD 
HETATM   21  C   UNL     1     -12.000  12.724  69.456  1.00  0.00    -0.338 C  
HETATM   22  C   UNL     1     -12.771  12.161  70.667  1.00  0.00    -0.150 C  
HETATM   23  O   UNL     1     -10.166   6.804  71.034  1.00  0.00    -0.197 OA 
HETATM   24  C   UNL     1     -12.906  10.644  70.631  1.00  0.00    -0.404 C  
ENDROOT
BRANCH   4  25
HETATM   25  C   UNL     1     -10.568  15.011  66.224  1.00  0.00    -0.307 C  
HETATM   26  O   UNL     1     -11.307  15.284  65.263  1.00  0.00    -0.338 OA 
BRANCH  25  27
HETATM   27  C   UNL     1      -9.057  15.258  65.973  1.00  0.00    -0.209 C  
BRANCH  27  28
HETATM   28  O   UNL     1      -8.847  16.686  65.707  1.00  0.00    -0.493 OA 
BRANCH  28  29
HETATM   29  C   UNL     1      -7.675  17.283  66.089  1.00  0.00    -0.282 C  
HETATM   30  O   UNL     1      -6.645  16.659  66.328  1.00  0.00    -0.170 OA 
BRANCH  29  31
HETATM   31  C   UNL     1      -7.849  18.823  66.188  1.00  0.00    -0.238 C  
BRANCH  31  32
HETATM   32  N   UNL     1      -8.424  19.316  67.485  1.00  0.00    -0.286 NA 
BRANCH  32  33
HETATM   33  C   UNL     1      -7.395  19.792  68.422  1.00  0.00    -0.313 C  
HETATM   34  C   UNL     1      -6.550  18.714  69.094  1.00  0.00    -0.289 C  
ENDBRANCH  32  33
BRANCH  32  35
HETATM   35  C   UNL     1      -9.485  20.318  67.232  1.00  0.00    -0.423 C  
HETATM   36  C   UNL     1     -10.368  20.045  66.007  1.00  0.00    -0.556 C  
ENDBRANCH  32  35
ENDBRANCH  31  32
ENDBRANCH  29  31
ENDBRANCH  28  29
ENDBRANCH  27  28
ENDBRANCH  25  27
ENDBRANCH   4  25
TORSDOF 8
ENDMDL
MODEL       30
REMARK 921   NORMALIZED FREE ENERGY PREDICTED BY IDOCK:   -5.83 KCAL/MOL
REMARK 922        TOTAL FREE ENERGY PREDICTED BY IDOCK:   -8.70 KCAL/MOL
REMARK 923 INTER-LIGAND FREE ENERGY PREDICTED BY IDOCK:   -9.01 KCAL/MOL
REMARK 924 INTRA-LIGAND FREE ENERGY PREDICTED BY IDOCK:    0.30 KCAL/MOL
REMARK 927      BINDING AFFINITY PREDICTED BY RF-SCORE:    0.00 PKD
ROOT
HETATM    1  C   UNL     1     -10.778   5.367  70.011  1.00  0.00    -0.296 C  
HETATM    2  C   UNL     1      -9.674   4.557  70.363  1.00  0.00    -0.287 C  
HETATM    3  C   UNL     1      -9.524   6.000  70.742  1.00  0.00    -0.189 C  
HETATM    4  C   UNL     1     -11.197   7.210  70.671  1.00  0.00    -0.280 C  
HETATM    5  C   UNL     1      -8.731   7.026  66.050  1.00  0.00    -0.156 C  
HETATM    6  O   UNL     1     -12.515   6.654  70.283  1.00  0.00    -0.509 OA 
HETATM    7  C   UNL     1     -10.666   6.421  71.637  1.00  0.00    -0.274 C  
HETATM    8  C   UNL     1      -9.430   7.913  71.558  1.00  0.00    -0.184 C  
HETATM    9  H   UNL     1     -13.284   7.211  70.251  1.00  0.00     0.000 HD 
HETATM   10  C   UNL     1      -7.894   7.125  64.998  1.00  0.00    -0.125 C  
HETATM   11  C   UNL     1      -6.947   8.254  64.977  1.00  0.00    -0.074 C  
HETATM   12  C   UNL     1     -11.239   5.743  72.868  1.00  0.00    -0.319 C  
HETATM   13  C   UNL     1      -9.268   8.493  69.887  1.00  0.00    -0.154 C  
HETATM   14  C   UNL     1      -6.322   8.564  66.297  1.00  0.00    -0.057 C  
HETATM   15  C   UNL     1      -9.819   9.119  66.678  1.00  0.00    -0.307 C  
HETATM   16  O   UNL     1     -10.386   9.378  69.688  1.00  0.00    -0.195 OA 
HETATM   17  C   UNL     1      -9.169   7.433  68.586  1.00  0.00    -0.143 C  
HETATM   18  C   UNL     1      -8.786   8.089  67.173  1.00  0.00    -0.134 C  
HETATM   19  C   UNL     1      -7.397   8.835  67.346  1.00  0.00    -0.081 C  
HETATM   20  H   UNL     1     -10.299   9.688  68.793  1.00  0.00     0.000 HD 
HETATM   21  C   UNL     1     -10.360   6.283  68.499  1.00  0.00    -0.238 C  
HETATM   22  C   UNL     1      -9.990   5.274  67.393  1.00  0.00    -0.206 C  
HETATM   23  O   UNL     1      -6.682   8.840  63.934  1.00  0.00    -0.086 OA 
HETATM   24  C   UNL     1      -9.773   5.934  66.037  1.00  0.00    -0.019 C  
ENDROOT
BRANCH   4  25
HETATM   25  C   UNL     1     -11.972   8.289  71.831  1.00  0.00    -0.330 C  
HETATM   26  O   UNL     1     -11.656   8.401  73.028  1.00  0.00    -0.186 OA 
BRANCH  25  27
HETATM   27  C   UNL     1     -13.179   9.161  71.394  1.00  0.00    -0.299 C  
BRANCH  27  28
HETATM   28  O   UNL     1     -13.127  10.439  72.114  1.00  0.00    -0.445 OA 
BRANCH  28  29
HETATM   29  C   UNL     1     -12.808  11.587  71.438  1.00  0.00    -0.384 C  
HETATM   30  O   UNL     1     -12.076  11.610  70.453  1.00  0.00    -0.355 OA 
BRANCH  29  31
HETATM   31  C   UNL     1     -13.480  12.820  72.101  1.00  0.00    -0.492 C  
BRANCH  31  32
HETATM   32  N   UNL     1     -12.664  14.081  72.074  1.00  0.00    -0.304 NA 
BRANCH  32  33
HETATM   33  C   UNL     1     -13.063  14.997  70.994  1.00  0.00    -0.422 C  
HETATM   34  C   UNL     1     -11.991  15.318  69.956  1.00  0.00    -0.375 C  
ENDBRANCH  32  33
BRANCH  32  35
HETATM   35  C   UNL     1     -12.662  14.723  73.408  1.00  0.00    -0.466 C  
HETATM   36  C   UNL     1     -12.195  16.184  73.432  1.00  0.00    -0.635 C  
ENDBRANCH  32  35
ENDBRANCH  31  32
ENDBRANCH  29  31
ENDBRANCH  28  29
ENDBRANCH  27  28
ENDBRANCH  25  27
ENDBRANCH   4  25
TORSDOF 8
ENDMDL
MODEL       31
REMARK 921   NORMALIZED FREE ENERGY PREDICTED BY IDOCK:   -5.83 KCAL/MOL
REMARK 922        TOTAL FREE ENERGY PREDICTED BY IDOCK:   -8.70 KCAL/MOL
REMARK 923 INTER-LIGAND FREE ENERGY PREDICTED BY IDOCK:   -8.41 KCAL/MOL
REMARK 924 INTRA-LIGAND FREE ENERGY PREDICTED BY IDOCK:   -0.29 KCAL/MOL
REMARK 927      BINDING AFFINITY PREDICTED BY RF-SCORE:    0.00 PKD
ROOT
HETATM    1  C   UNL     1     -10.915  13.485  69.356  1.00  0.00    -0.101 C  
HETATM    2  C   UNL     1     -12.228  13.901  69.672  1.00  0.00    -0.374 C  
HETATM    3  C   UNL     1     -12.013  13.597  68.220  1.00  0.00    -0.385 C  
HETATM    4  C   UNL     1     -10.291  12.594  67.674  1.00  0.00    -0.220 C  
HETATM    5  C   UNL     1      -9.554  17.781  67.831  1.00  0.00    -0.280 C  
HETATM    6  O   UNL     1      -9.312  12.162  68.699  1.00  0.00    -0.351 OA 
HETATM    7  C   UNL     1     -11.523  12.177  68.056  1.00  0.00    -0.380 C  
HETATM    8  C   UNL     1     -11.828  12.879  66.274  1.00  0.00    -0.477 C  
HETATM    9  H   UNL     1      -8.520  11.701  68.448  1.00  0.00     0.000 HD 
HETATM   10  C   UNL     1      -9.537  19.115  67.643  1.00  0.00    -0.375 C  
HETATM   11  C   UNL     1      -9.797  19.622  66.284  1.00  0.00    -0.447 C  
HETATM   12  C   UNL     1     -12.054  10.889  68.659  1.00  0.00    -0.065 C  
HETATM   13  C   UNL     1     -10.783  14.285  65.977  1.00  0.00    -0.304 C  
HETATM   14  C   UNL     1     -10.888  18.910  65.555  1.00  0.00     0.024 C  
HETATM   15  C   UNL     1      -8.328  16.506  66.148  1.00  0.00    -0.305 C  
HETATM   16  O   UNL     1      -9.519  13.732  65.569  1.00  0.00    -0.508 OA 
HETATM   17  C   UNL     1     -10.517  15.456  67.155  1.00  0.00    -0.290 C  
HETATM   18  C   UNL     1      -9.752  16.779  66.668  1.00  0.00    -0.281 C  
HETATM   19  C   UNL     1     -10.591  17.414  65.481  1.00  0.00    -0.115 C  
HETATM   20  H   UNL     1      -8.960  14.485  65.411  1.00  0.00     0.000 HD 
HETATM   21  C   UNL     1     -10.023  14.893  68.634  1.00  0.00    -0.224 C  
HETATM   22  C   UNL     1     -10.046  16.063  69.638  1.00  0.00    -0.244 C  
HETATM   23  O   UNL     1      -9.182  20.582  65.837  1.00  0.00    -0.041 OA 
HETATM   24  C   UNL     1      -9.191  17.243  69.193  1.00  0.00    -0.014 C  
ENDROOT
BRANCH   4  25
HETATM   25  C   UNL     1      -9.975  11.137  66.732  1.00  0.00    -0.208 C  
HETATM   26  O   UNL     1     -10.624  10.772  65.737  1.00  0.00    -0.217 OA 
BRANCH  25  27
HETATM   27  C   UNL     1      -8.838  10.170  67.155  1.00  0.00    -0.132 C  
BRANCH  27  28
HETATM   28  O   UNL     1      -9.408   9.100  67.982  1.00  0.00    -0.137 OA 
BRANCH  28  29
HETATM   29  C   UNL     1      -9.015   8.967  69.288  1.00  0.00    -0.144 C  
HETATM   30  O   UNL     1      -8.539   9.887  69.947  1.00  0.00    -0.194 OA 
BRANCH  29  31
HETATM   31  C   UNL     1      -9.238   7.513  69.784  1.00  0.00    -0.147 C  
BRANCH  31  32
HETATM   32  N   UNL     1     -10.651   7.182  70.171  1.00  0.00    -0.223 NA 
BRANCH  32  33
HETATM   33  C   UNL     1     -11.095   5.878  69.654  1.00  0.00    -0.343 C  
HETATM   34  C   UNL     1     -10.135   4.711  69.866  1.00  0.00    -0.257 C  
ENDBRANCH  32  33
BRANCH  32  35
HETATM   35  C   UNL     1     -10.832   7.318  71.634  1.00  0.00    -0.220 C  
HETATM   36  C   UNL     1     -11.361   8.677  72.107  1.00  0.00    -0.434 C  
ENDBRANCH  32  35
ENDBRANCH  31  32
ENDBRANCH  29  31
ENDBRANCH  28  29
ENDBRANCH  27  28
ENDBRANCH  25  27
ENDBRANCH   4  25
TORSDOF 8
ENDMDL
MODEL       32
REMARK 921   NORMALIZED FREE ENERGY PREDICTED BY IDOCK:   -5.83 KCAL/MOL
REMARK 922        TOTAL FREE ENERGY PREDICTED BY IDOCK:   -8.70 KCAL/MOL
REMARK 923 INTER-LIGAND FREE ENERGY PREDICTED BY IDOCK:   -8.34 KCAL/MOL
REMARK 924 INTRA-LIGAND FREE ENERGY PREDICTED BY IDOCK:   -0.36 KCAL/MOL
REMARK 927      BINDING AFFINITY PREDICTED BY RF-SCORE:    0.00 PKD
ROOT
HETATM    1  C   UNL     1      -9.867   9.918  68.852  1.00  0.00    -0.179 C  
HETATM    2  C   UNL     1      -8.775   9.994  69.747  1.00  0.00    -0.198 C  
HETATM    3  C   UNL     1      -8.390   9.683  68.332  1.00  0.00    -0.117 C  
HETATM    4  C   UNL     1      -9.805   9.944  66.850  1.00  0.00    -0.199 C  
HETATM    5  C   UNL     1     -10.088   5.167  68.989  1.00  0.00    -0.257 C  
HETATM    6  O   UNL     1     -11.157  10.456  67.179  1.00  0.00    -0.244 OA 
HETATM    7  C   UNL     1      -8.887  10.770  67.408  1.00  0.00    -0.129 C  
HETATM    8  C   UNL     1      -7.806   9.569  66.337  1.00  0.00    -0.097 C  
HETATM    9  H   UNL     1     -11.808  10.576  66.498  1.00  0.00     0.000 HD 
HETATM   10  C   UNL     1      -9.909   3.899  69.409  1.00  0.00    -0.058 C  
HETATM   11  C   UNL     1      -9.062   3.016  68.589  1.00  0.00    -0.155 C  
HETATM   12  C   UNL     1      -8.771  12.278  67.530  1.00  0.00    -0.177 C  
HETATM   13  C   UNL     1      -8.505   7.936  66.344  1.00  0.00    -0.138 C  
HETATM   14  C   UNL     1      -7.833   3.666  68.045  1.00  0.00    -0.068 C  
HETATM   15  C   UNL     1     -10.604   5.384  66.613  1.00  0.00    -0.359 C  
HETATM   16  O   UNL     1      -9.525   7.961  65.330  1.00  0.00    -0.305 OA 
HETATM   17  C   UNL     1      -9.136   7.249  67.743  1.00  0.00    -0.124 C  
HETATM   18  C   UNL     1      -9.509   5.691  67.653  1.00  0.00    -0.119 C  
HETATM   19  C   UNL     1      -8.200   4.903  67.229  1.00  0.00    -0.106 C  
HETATM   20  H   UNL     1      -9.899   7.087  65.335  1.00  0.00     0.000 HD 
HETATM   21  C   UNL     1     -10.250   8.166  68.559  1.00  0.00    -0.233 C  
HETATM   22  C   UNL     1     -10.548   7.490  69.913  1.00  0.00    -0.243 C  
HETATM   23  O   UNL     1      -9.348   1.837  68.424  1.00  0.00    -0.161 OA 
HETATM   24  C   UNL     1     -11.033   6.053  69.764  1.00  0.00    -0.471 C  
ENDROOT
BRANCH   4  25
HETATM   25  C   UNL     1      -9.824  10.825  65.322  1.00  0.00    -0.272 C  
HETATM   26  O   UNL     1      -8.844  10.984  64.575  1.00  0.00    -0.123 OA 
BRANCH  25  27
HETATM   27  C   UNL     1     -11.126  11.517  64.841  1.00  0.00    -0.215 C  
BRANCH  27  28
HETATM   28  O   UNL     1     -10.872  12.955  64.689  1.00  0.00    -0.306 OA 
BRANCH  28  29
HETATM   29  C   UNL     1     -11.926  13.828  64.627  1.00  0.00    -0.416 C  
HETATM   30  O   UNL     1     -12.423  14.214  63.574  1.00  0.00    -0.817 OA 
BRANCH  29  31
HETATM   31  C   UNL     1     -12.367  14.259  66.053  1.00  0.00    -0.395 C  
BRANCH  31  32
HETATM   32  N   UNL     1     -11.254  14.704  66.957  1.00  0.00    -0.334 NA 
BRANCH  32  33
HETATM   33  C   UNL     1     -10.591  15.930  66.486  1.00  0.00    -0.297 C  
HETATM   34  C   UNL     1      -9.114  15.798  66.127  1.00  0.00    -0.377 C  
ENDBRANCH  32  33
BRANCH  32  35
HETATM   35  C   UNL     1     -11.732  14.804  68.355  1.00  0.00    -0.314 C  
HETATM   36  C   UNL     1     -12.093  13.471  69.022  1.00  0.00    -0.330 C  
ENDBRANCH  32  35
ENDBRANCH  31  32
ENDBRANCH  29  31
ENDBRANCH  28  29
ENDBRANCH  27  28
ENDBRANCH  25  27
ENDBRANCH   4  25
TORSDOF 8
ENDMDL
MODEL       33
REMARK 921   NORMALIZED FREE ENERGY PREDICTED BY IDOCK:   -5.79 KCAL/MOL
REMARK 922        TOTAL FREE ENERGY PREDICTED BY IDOCK:   -8.65 KCAL/MOL
REMARK 923 INTER-LIGAND FREE ENERGY PREDICTED BY IDOCK:   -8.33 KCAL/MOL
REMARK 924 INTRA-LIGAND FREE ENERGY PREDICTED BY IDOCK:   -0.32 KCAL/MOL
REMARK 927      BINDING AFFINITY PREDICTED BY RF-SCORE:    0.00 PKD
ROOT
HETATM    1  C   UNL     1      -7.995  13.416  67.378  1.00  0.00    -0.170 C  
HETATM    2  C   UNL     1      -7.553  13.469  68.720  1.00  0.00    -0.066 C  
HETATM    3  C   UNL     1      -9.038  13.587  68.558  1.00  0.00    -0.092 C  
HETATM    4  C   UNL     1      -9.864  13.116  66.724  1.00  0.00    -0.251 C  
HETATM    5  C   UNL     1      -8.384  18.139  66.960  1.00  0.00    -0.250 C  
HETATM    6  O   UNL     1      -9.008  12.646  65.609  1.00  0.00    -0.338 OA 
HETATM    7  C   UNL     1      -9.576  12.380  67.825  1.00  0.00    -0.202 C  
HETATM    8  C   UNL     1     -11.107  13.430  68.385  1.00  0.00    -0.301 C  
HETATM    9  H   UNL     1      -9.388  12.430  64.765  1.00  0.00     0.000 HD 
HETATM   10  C   UNL     1      -8.219  19.453  67.206  1.00  0.00    -0.311 C  
HETATM   11  C   UNL     1      -9.394  20.222  67.655  1.00  0.00    -0.353 C  
HETATM   12  C   UNL     1      -9.317  10.904  68.060  1.00  0.00    -0.160 C  
HETATM   13  C   UNL     1     -11.053  15.045  67.645  1.00  0.00    -0.316 C  
HETATM   14  C   UNL     1     -10.258  19.511  68.643  1.00  0.00    -0.481 C  
HETATM   15  C   UNL     1     -10.367  17.596  65.643  1.00  0.00    -0.120 C  
HETATM   16  O   UNL     1     -11.618  14.875  66.333  1.00  0.00    -0.330 OA 
HETATM   17  C   UNL     1      -9.618  15.913  67.517  1.00  0.00    -0.221 C  
HETATM   18  C   UNL     1      -9.762  17.441  67.051  1.00  0.00    -0.276 C  
HETATM   19  C   UNL     1     -10.725  18.172  68.078  1.00  0.00    -0.297 C  
HETATM   20  H   UNL     1     -11.589  15.739  65.938  1.00  0.00     0.000 HD 
HETATM   21  C   UNL     1      -8.347  15.108  66.820  1.00  0.00    -0.225 C  
HETATM   22  C   UNL     1      -7.073  15.961  66.988  1.00  0.00    -0.207 C  
HETATM   23  O   UNL     1      -9.590  21.365  67.264  1.00  0.00    -0.101 OA 
HETATM   24  C   UNL     1      -7.216  17.361  66.404  1.00  0.00    -0.333 C  
ENDROOT
BRANCH   4  25
HETATM   25  C   UNL     1     -11.159  12.034  66.210  1.00  0.00    -0.317 C  
HETATM   26  O   UNL     1     -12.012  11.531  66.961  1.00  0.00    -0.556 OA 
BRANCH  25  27
HETATM   27  C   UNL     1     -11.268  11.605  64.723  1.00  0.00    -0.234 C  
BRANCH  27  28
HETATM   28  O   UNL     1     -10.359  10.478  64.487  1.00  0.00    -0.348 OA 
BRANCH  28  29
HETATM   29  C   UNL     1      -9.429  10.554  63.484  1.00  0.00    -0.312 C  
HETATM   30  O   UNL     1      -9.399  11.460  62.657  1.00  0.00    -0.361 OA 
BRANCH  29  31
HETATM   31  C   UNL     1      -8.458   9.343  63.540  1.00  0.00    -0.201 C  
BRANCH  31  32
HETATM   32  N   UNL     1      -7.918   9.023  64.905  1.00  0.00    -0.119 NA 
BRANCH  32  33
HETATM   33  C   UNL     1      -8.218   7.648  65.331  1.00  0.00    -0.136 C  
HETATM   34  C   UNL     1      -9.134   7.506  66.543  1.00  0.00    -0.201 C  
ENDBRANCH  32  33
BRANCH  32  35
HETATM   35  C   UNL     1      -6.475   9.352  64.979  1.00  0.00    -0.076 C  
HETATM   36  C   UNL     1      -6.050  10.169  66.205  1.00  0.00    -0.073 C  
ENDBRANCH  32  35
ENDBRANCH  31  32
ENDBRANCH  29  31
ENDBRANCH  28  29
ENDBRANCH  27  28
ENDBRANCH  25  27
ENDBRANCH   4  25
TORSDOF 8
ENDMDL
MODEL       34
REMARK 921   NORMALIZED FREE ENERGY PREDICTED BY IDOCK:   -5.76 KCAL/MOL
REMARK 922        TOTAL FREE ENERGY PREDICTED BY IDOCK:   -8.60 KCAL/MOL
REMARK 923 INTER-LIGAND FREE ENERGY PREDICTED BY IDOCK:   -8.99 KCAL/MOL
REMARK 924 INTRA-LIGAND FREE ENERGY PREDICTED BY IDOCK:    0.39 KCAL/MOL
REMARK 927      BINDING AFFINITY PREDICTED BY RF-SCORE:    0.00 PKD
ROOT
HETATM    1  C   UNL     1     -11.754  15.321  65.834  1.00  0.00     0.102 C  
HETATM    2  C   UNL     1     -11.447  15.586  64.479  1.00  0.00    -0.311 C  
HETATM    3  C   UNL     1     -10.576  14.544  65.114  1.00  0.00    -0.429 C  
HETATM    4  C   UNL     1     -11.157  13.759  66.935  1.00  0.00    -0.302 C  
HETATM    5  C   UNL     1      -8.278  18.100  67.518  1.00  0.00    -0.236 C  
HETATM    6  O   UNL     1     -12.418  14.196  67.578  1.00  0.00    -0.542 OA 
HETATM    7  C   UNL     1     -11.426  13.416  65.651  1.00  0.00    -0.335 C  
HETATM    8  C   UNL     1      -9.575  12.882  65.870  1.00  0.00    -0.133 C  
HETATM    9  H   UNL     1     -12.685  13.835  68.415  1.00  0.00     0.000 HD 
HETATM   10  C   UNL     1      -7.326  19.052  67.570  1.00  0.00    -0.245 C  
HETATM   11  C   UNL     1      -5.925  18.616  67.710  1.00  0.00    -0.188 C  
HETATM   12  C   UNL     1     -12.551  12.644  64.987  1.00  0.00    -0.504 C  
HETATM   13  C   UNL     1      -8.725  14.022  66.936  1.00  0.00    -0.164 C  
HETATM   14  C   UNL     1      -5.561  17.423  66.891  1.00  0.00    -0.201 C  
HETATM   15  C   UNL     1      -8.049  16.346  69.201  1.00  0.00    -0.198 C  
HETATM   16  O   UNL     1      -9.034  13.587  68.272  1.00  0.00    -0.183 OA 
HETATM   17  C   UNL     1      -8.966  15.683  66.829  1.00  0.00    -0.291 C  
HETATM   18  C   UNL     1      -7.960  16.594  67.683  1.00  0.00    -0.188 C  
HETATM   19  C   UNL     1      -6.483  16.250  67.219  1.00  0.00    -0.223 C  
HETATM   20  H   UNL     1      -8.580  14.197  68.842  1.00  0.00     0.000 HD 
HETATM   21  C   UNL     1     -10.545  16.188  66.877  1.00  0.00    -0.283 C  
HETATM   22  C   UNL     1     -10.591  17.693  66.545  1.00  0.00    -0.207 C  
HETATM   23  O   UNL     1      -5.137  19.234  68.415  1.00  0.00    -0.182 OA 
HETATM   24  C   UNL     1      -9.723  18.532  67.475  1.00  0.00    -0.318 C  
ENDROOT
BRANCH   4  25
HETATM   25  C   UNL     1     -11.399  12.117  67.534  1.00  0.00    -0.326 C  
HETATM   26  O   UNL     1     -11.039  11.081  66.950  1.00  0.00    -0.280 OA 
BRANCH  25  27
HETATM   27  C   UNL     1     -12.154  11.882  68.869  1.00  0.00    -0.155 C  
BRANCH  27  28
HETATM   28  O   UNL     1     -11.275  11.152  69.790  1.00  0.00    -0.259 OA 
BRANCH  28  29
HETATM   29  C   UNL     1     -11.810  10.239  70.659  1.00  0.00    -0.347 C  
HETATM   30  O   UNL     1     -12.952  10.314  71.101  1.00  0.00    -0.364 OA 
BRANCH  29  31
HETATM   31  C   UNL     1     -10.772   9.136  71.005  1.00  0.00    -0.293 C  
BRANCH  31  32
HETATM   32  N   UNL     1     -11.358   7.814  71.410  1.00  0.00    -0.247 NA 
BRANCH  32  33
HETATM   33  C   UNL     1     -11.049   6.737  70.457  1.00  0.00    -0.298 C  
HETATM   34  C   UNL     1     -10.151   7.116  69.284  1.00  0.00    -0.178 C  
ENDBRANCH  32  33
BRANCH  32  35
HETATM   35  C   UNL     1     -10.977   7.484  72.802  1.00  0.00    -0.359 C  
HETATM   36  C   UNL     1      -9.609   8.013  73.251  1.00  0.00    -0.322 C  
ENDBRANCH  32  35
ENDBRANCH  31  32
ENDBRANCH  29  31
ENDBRANCH  28  29
ENDBRANCH  27  28
ENDBRANCH  25  27
ENDBRANCH   4  25
TORSDOF 8
ENDMDL
MODEL       35
REMARK 921   NORMALIZED FREE ENERGY PREDICTED BY IDOCK:   -5.72 KCAL/MOL
REMARK 922        TOTAL FREE ENERGY PREDICTED BY IDOCK:   -8.55 KCAL/MOL
REMARK 923 INTER-LIGAND FREE ENERGY PREDICTED BY IDOCK:   -8.49 KCAL/MOL
REMARK 924 INTRA-LIGAND FREE ENERGY PREDICTED BY IDOCK:   -0.06 KCAL/MOL
REMARK 927      BINDING AFFINITY PREDICTED BY RF-SCORE:    0.00 PKD
ROOT
HETATM    1  C   UNL     1      -8.785   9.109  66.779  1.00  0.00    -0.138 C  
HETATM    2  C   UNL     1      -9.623   8.305  65.973  1.00  0.00    -0.151 C  
HETATM    3  C   UNL     1     -10.352   9.341  66.774  1.00  0.00    -0.296 C  
HETATM    4  C   UNL     1      -9.251  10.842  67.668  1.00  0.00    -0.152 C  
HETATM    5  C   UNL     1      -9.625   6.612  70.740  1.00  0.00    -0.183 C  
HETATM    6  O   UNL     1      -7.780  10.906  67.493  1.00  0.00    -0.105 OA 
HETATM    7  C   UNL     1      -9.823  10.717  66.445  1.00  0.00    -0.259 C  
HETATM    8  C   UNL     1     -11.345  10.963  67.620  1.00  0.00    -0.345 C  
HETATM    9  H   UNL     1      -7.274  11.597  67.905  1.00  0.00     0.000 HD 
HETATM   10  C   UNL     1      -9.996   5.600  71.549  1.00  0.00    -0.230 C  
HETATM   11  C   UNL     1     -11.172   5.806  72.412  1.00  0.00    -0.290 C  
HETATM   12  C   UNL     1      -9.566  11.364  65.097  1.00  0.00    -0.258 C  
HETATM   13  C   UNL     1     -11.049  10.180  69.187  1.00  0.00    -0.212 C  
HETATM   14  C   UNL     1     -12.307   6.519  71.755  1.00  0.00    -0.340 C  
HETATM   15  C   UNL     1      -9.574   8.803  71.818  1.00  0.00    -0.371 C  
HETATM   16  O   UNL     1     -10.281  11.134  69.943  1.00  0.00    -0.372 OA 
HETATM   17  C   UNL     1     -10.315   8.671  69.300  1.00  0.00    -0.228 C  
HETATM   18  C   UNL     1     -10.332   7.989  70.751  1.00  0.00    -0.214 C  
HETATM   19  C   UNL     1     -11.845   7.870  71.213  1.00  0.00    -0.321 C  
HETATM   20  H   UNL     1     -10.122  10.714  70.781  1.00  0.00     0.000 HD 
HETATM   21  C   UNL     1      -8.879   8.505  68.489  1.00  0.00    -0.139 C  
HETATM   22  C   UNL     1      -8.469   7.018  68.513  1.00  0.00    -0.121 C  
HETATM   23  O   UNL     1     -11.201   5.372  73.558  1.00  0.00    -0.274 OA 
HETATM   24  C   UNL     1      -8.365   6.455  69.925  1.00  0.00    -0.130 C  
ENDROOT
BRANCH   4  25
HETATM   25  C   UNL     1      -9.348  12.604  67.648  1.00  0.00    -0.190 C  
HETATM   26  O   UNL     1     -10.399  13.264  67.708  1.00  0.00    -0.226 OA 
BRANCH  25  27
HETATM   27  C   UNL     1      -8.057  13.451  67.502  1.00  0.00    -0.181 C  
BRANCH  27  28
HETATM   28  O   UNL     1      -8.388  14.707  66.820  1.00  0.00    -0.184 OA 
BRANCH  28  29
HETATM   29  C   UNL     1      -7.688  15.847  67.117  1.00  0.00    -0.212 C  
HETATM   30  O   UNL     1      -6.482  15.970  66.921  1.00  0.00    -0.295 OA 
BRANCH  29  31
HETATM   31  C   UNL     1      -8.622  16.920  67.738  1.00  0.00    -0.208 C  
BRANCH  31  32
HETATM   32  N   UNL     1      -9.975  17.036  67.096  1.00  0.00    -0.273 NA 
BRANCH  32  33
HETATM   33  C   UNL     1     -11.075  16.717  68.018  1.00  0.00    -0.255 C  
HETATM   34  C   UNL     1     -10.678  16.433  69.464  1.00  0.00    -0.325 C  
ENDBRANCH  32  33
BRANCH  32  35
HETATM   35  C   UNL     1     -10.127  18.359  66.447  1.00  0.00    -0.403 C  
HETATM   36  C   UNL     1     -10.574  19.496  67.373  1.00  0.00    -0.607 C  
ENDBRANCH  32  35
ENDBRANCH  31  32
ENDBRANCH  29  31
ENDBRANCH  28  29
ENDBRANCH  27  28
ENDBRANCH  25  27
ENDBRANCH   4  25
TORSDOF 8
ENDMDL
MODEL       36
REMARK 921   NORMALIZED FREE ENERGY PREDICTED BY IDOCK:   -5.70 KCAL/MOL
REMARK 922        TOTAL FREE ENERGY PREDICTED BY IDOCK:   -8.52 KCAL/MOL
REMARK 923 INTER-LIGAND FREE ENERGY PREDICTED BY IDOCK:   -8.43 KCAL/MOL
REMARK 924 INTRA-LIGAND FREE ENERGY PREDICTED BY IDOCK:   -0.08 KCAL/MOL
REMARK 927      BINDING AFFINITY PREDICTED BY RF-SCORE:    0.00 PKD
ROOT
HETATM    1  C   UNL     1     -11.017  12.117  65.738  1.00  0.00    -0.338 C  
HETATM    2  C   UNL     1     -10.314  11.911  64.529  1.00  0.00    -0.334 C  
HETATM    3  C   UNL     1      -9.465  11.801  65.760  1.00  0.00    -0.232 C  
HETATM    4  C   UNL     1     -10.411  11.666  67.592  1.00  0.00    -0.189 C  
HETATM    5  C   UNL     1      -9.636  16.649  66.165  1.00  0.00    -0.323 C  
HETATM    6  O   UNL     1     -11.890  11.648  67.679  1.00  0.00    -0.575 OA 
HETATM    7  C   UNL     1     -10.023  10.740  66.680  1.00  0.00    -0.251 C  
HETATM    8  C   UNL     1      -8.344  11.330  67.450  1.00  0.00    -0.137 C  
HETATM    9  H   UNL     1     -12.325  11.586  68.522  1.00  0.00     0.000 HD 
HETATM   10  C   UNL     1      -9.162  17.869  65.842  1.00  0.00     0.122 C  
HETATM   11  C   UNL     1      -7.871  18.280  66.421  1.00  0.00    -0.260 C  
HETATM   12  C   UNL     1     -10.467   9.322  66.374  1.00  0.00    -0.157 C  
HETATM   13  C   UNL     1      -8.418  13.061  67.841  1.00  0.00    -0.185 C  
HETATM   14  C   UNL     1      -6.837  17.204  66.457  1.00  0.00    -0.295 C  
HETATM   15  C   UNL     1      -9.509  16.112  68.544  1.00  0.00    -0.216 C  
HETATM   16  O   UNL     1      -9.059  13.128  69.127  1.00  0.00    -0.207 OA 
HETATM   17  C   UNL     1      -9.142  14.173  66.808  1.00  0.00    -0.266 C  
HETATM   18  C   UNL     1      -8.921  15.719  67.174  1.00  0.00    -0.233 C  
HETATM   19  C   UNL     1      -7.359  15.988  67.218  1.00  0.00    -0.243 C  
HETATM   20  H   UNL     1      -9.098  14.054  69.336  1.00  0.00     0.000 HD 
HETATM   21  C   UNL     1     -10.683  13.806  66.317  1.00  0.00    -0.285 C  
HETATM   22  C   UNL     1     -11.099  14.800  65.215  1.00  0.00    -0.374 C  
HETATM   23  O   UNL     1      -7.680  19.432  66.790  1.00  0.00    -0.240 OA 
HETATM   24  C   UNL     1     -11.003  16.254  65.661  1.00  0.00    -0.109 C  
ENDROOT
BRANCH   4  25
HETATM   25  C   UNL     1     -10.300  10.535  68.942  1.00  0.00    -0.208 C  
HETATM   26  O   UNL     1      -9.249  10.021  69.361  1.00  0.00    -0.191 OA 
BRANCH  25  27
HETATM   27  C   UNL     1     -11.587  10.074  69.675  1.00  0.00    -0.096 C  
BRANCH  27  28
HETATM   28  O   UNL     1     -11.319  10.021  71.117  1.00  0.00    -0.360 OA 
BRANCH  28  29
HETATM   29  C   UNL     1     -11.973   9.105  71.897  1.00  0.00    -0.373 C  
HETATM   30  O   UNL     1     -13.184   9.125  72.092  1.00  0.00    -0.390 OA 
BRANCH  29  31
HETATM   31  C   UNL     1     -10.973   8.078  72.496  1.00  0.00    -0.364 C  
BRANCH  31  32
HETATM   32  N   UNL     1     -10.230   7.250  71.487  1.00  0.00    -0.194 NA 
BRANCH  32  33
HETATM   33  C   UNL     1      -8.773   7.282  71.682  1.00  0.00    -0.117 C  
HETATM   34  C   UNL     1      -8.261   8.235  72.757  1.00  0.00    -0.221 C  
ENDBRANCH  32  33
BRANCH  32  35
HETATM   35  C   UNL     1     -10.779   5.875  71.443  1.00  0.00    -0.260 C  
HETATM   36  C   UNL     1     -11.517   5.422  72.710  1.00  0.00    -0.333 C  
ENDBRANCH  32  35
ENDBRANCH  31  32
ENDBRANCH  29  31
ENDBRANCH  28  29
ENDBRANCH  27  28
ENDBRANCH  25  27
ENDBRANCH   4  25
TORSDOF 8
ENDMDL
MODEL       37
REMARK 921   NORMALIZED FREE ENERGY PREDICTED BY IDOCK:   -5.67 KCAL/MOL
REMARK 922        TOTAL FREE ENERGY PREDICTED BY IDOCK:   -8.47 KCAL/MOL
REMARK 923 INTER-LIGAND FREE ENERGY PREDICTED BY IDOCK:   -8.08 KCAL/MOL
REMARK 924 INTRA-LIGAND FREE ENERGY PREDICTED BY IDOCK:   -0.39 KCAL/MOL
REMARK 927      BINDING AFFINITY PREDICTED BY RF-SCORE:    0.00 PKD
ROOT
HETATM    1  C   UNL     1      -9.234   9.172  65.003  1.00  0.00    -0.180 C  
HETATM    2  C   UNL     1      -8.199   9.865  64.335  1.00  0.00    -0.164 C  
HETATM    3  C   UNL     1      -7.968   9.685  65.805  1.00  0.00    -0.109 C  
HETATM    4  C   UNL     1      -9.169   8.353  66.829  1.00  0.00    -0.171 C  
HETATM    5  C   UNL     1     -11.301  13.137  66.628  1.00  0.00    -0.361 C  
HETATM    6  O   UNL     1     -10.211   7.575  66.118  1.00  0.00    -0.433 OA 
HETATM    7  C   UNL     1      -7.999   8.217  66.158  1.00  0.00    -0.102 C  
HETATM    8  C   UNL     1      -7.478   9.173  67.762  1.00  0.00    -0.085 C  
HETATM    9  H   UNL     1     -10.764   6.962  66.590  1.00  0.00     0.000 HD 
HETATM   10  C   UNL     1     -11.635  14.437  66.751  1.00  0.00    -0.399 C  
HETATM   11  C   UNL     1     -11.203  15.146  67.968  1.00  0.00    -0.323 C  
HETATM   12  C   UNL     1      -7.301   7.042  65.499  1.00  0.00    -0.079 C  
HETATM   13  C   UNL     1      -8.762  10.297  68.256  1.00  0.00    -0.126 C  
HETATM   14  C   UNL     1      -9.818  14.817  68.418  1.00  0.00    -0.220 C  
HETATM   15  C   UNL     1     -11.694  11.798  68.631  1.00  0.00    -0.389 C  
HETATM   16  O   UNL     1      -9.692   9.496  69.007  1.00  0.00    -0.162 OA 
HETATM   17  C   UNL     1      -9.611  11.220  67.137  1.00  0.00    -0.194 C  
HETATM   18  C   UNL     1     -10.566  12.357  67.744  1.00  0.00    -0.236 C  
HETATM   19  C   UNL     1      -9.671  13.314  68.638  1.00  0.00    -0.074 C  
HETATM   20  H   UNL     1     -10.379  10.098  69.271  1.00  0.00     0.000 HD 
HETATM   21  C   UNL     1     -10.274  10.385  65.867  1.00  0.00    -0.302 C  
HETATM   22  C   UNL     1     -10.811  11.400  64.837  1.00  0.00    -0.323 C  
HETATM   23  O   UNL     1     -11.929  15.966  68.515  1.00  0.00    -0.306 OA 
HETATM   24  C   UNL     1     -11.822  12.372  65.435  1.00  0.00    -0.460 C  
ENDROOT
BRANCH   4  25
HETATM   25  C   UNL     1      -8.842   6.981  67.889  1.00  0.00    -0.124 C  
HETATM   26  O   UNL     1      -7.730   6.690  68.360  1.00  0.00    -0.102 OA 
BRANCH  25  27
HETATM   27  C   UNL     1      -9.984   6.000  68.263  1.00  0.00    -0.147 C  
BRANCH  27  28
HETATM   28  O   UNL     1     -11.047   6.746  68.947  1.00  0.00    -0.233 OA 
BRANCH  28  29
HETATM   29  C   UNL     1     -11.447   6.364  70.200  1.00  0.00    -0.417 C  
HETATM   30  O   UNL     1     -12.463   6.786  70.743  1.00  0.00    -0.351 OA 
BRANCH  29  31
HETATM   31  C   UNL     1     -10.436   5.360  70.818  1.00  0.00    -0.247 C  
BRANCH  31  32
HETATM   32  N   UNL     1      -9.708   5.857  72.035  1.00  0.00    -0.153 NA 
BRANCH  32  33
HETATM   33  C   UNL     1      -9.157   7.210  71.858  1.00  0.00    -0.134 C  
HETATM   34  C   UNL     1      -9.289   8.149  73.053  1.00  0.00    -0.335 C  
ENDBRANCH  32  33
BRANCH  32  35
HETATM   35  C   UNL     1     -10.566   5.733  73.236  1.00  0.00    -0.254 C  
HETATM   36  C   UNL     1     -11.284   4.387  73.394  1.00  0.00    -0.386 C  
ENDBRANCH  32  35
ENDBRANCH  31  32
ENDBRANCH  29  31
ENDBRANCH  28  29
ENDBRANCH  27  28
ENDBRANCH  25  27
ENDBRANCH   4  25
TORSDOF 8
ENDMDL
MODEL       38
REMARK 921   NORMALIZED FREE ENERGY PREDICTED BY IDOCK:   -5.57 KCAL/MOL
REMARK 922        TOTAL FREE ENERGY PREDICTED BY IDOCK:   -8.31 KCAL/MOL
REMARK 923 INTER-LIGAND FREE ENERGY PREDICTED BY IDOCK:   -8.99 KCAL/MOL
REMARK 924 INTRA-LIGAND FREE ENERGY PREDICTED BY IDOCK:    0.68 KCAL/MOL
REMARK 927      BINDING AFFINITY PREDICTED BY RF-SCORE:    0.00 PKD
ROOT
HETATM    1  C   UNL     1     -11.537  11.297  68.036  1.00  0.00    -0.343 C  
HETATM    2  C   UNL     1     -11.076  11.264  69.372  1.00  0.00    -0.316 C  
HETATM    3  C   UNL     1     -10.151  11.960  68.420  1.00  0.00    -0.206 C  
HETATM    4  C   UNL     1     -10.862  12.449  66.544  1.00  0.00    -0.250 C  
HETATM    5  C   UNL     1      -8.874   7.601  66.666  1.00  0.00    -0.159 C  
HETATM    6  O   UNL     1     -12.263  12.145  66.164  1.00  0.00    -0.611 OA 
HETATM    7  C   UNL     1     -10.872  13.096  67.735  1.00  0.00    -0.261 C  
HETATM    8  C   UNL     1      -9.013  13.198  67.193  1.00  0.00    -0.228 C  
HETATM    9  H   UNL     1     -12.590  12.371  65.301  1.00  0.00     0.000 HD 
HETATM   10  C   UNL     1      -8.113   6.491  66.730  1.00  0.00    -0.109 C  
HETATM   11  C   UNL     1      -6.698   6.602  66.337  1.00  0.00    -0.053 C  
HETATM   12  C   UNL     1     -11.737  14.195  68.323  1.00  0.00    -0.383 C  
HETATM   13  C   UNL     1      -8.538  11.718  66.333  1.00  0.00    -0.113 C  
HETATM   14  C   UNL     1      -6.019   7.845  66.812  1.00  0.00    -0.048 C  
HETATM   15  C   UNL     1      -8.614   8.888  64.607  1.00  0.00    -0.169 C  
HETATM   16  O   UNL     1      -8.970  11.919  64.975  1.00  0.00    -0.393 OA 
HETATM   17  C   UNL     1      -9.035  10.196  66.848  1.00  0.00    -0.146 C  
HETATM   18  C   UNL     1      -8.337   8.947  66.122  1.00  0.00    -0.125 C  
HETATM   19  C   UNL     1      -6.770   9.082  66.326  1.00  0.00    -0.070 C  
HETATM   20  H   UNL     1      -8.716  11.126  64.516  1.00  0.00     0.000 HD 
HETATM   21  C   UNL     1     -10.664  10.013  67.094  1.00  0.00    -0.279 C  
HETATM   22  C   UNL     1     -10.910   8.648  67.770  1.00  0.00    -0.075 C  
HETATM   23  O   UNL     1      -6.141   5.709  65.711  1.00  0.00    -0.027 OA 
HETATM   24  C   UNL     1     -10.347   7.481  66.968  1.00  0.00    -0.395 C  
ENDROOT
BRANCH   4  25
HETATM   25  C   UNL     1     -10.915  13.946  65.611  1.00  0.00    -0.290 C  
HETATM   26  O   UNL     1     -11.704  14.183  64.681  1.00  0.00    -0.377 OA 
BRANCH  25  27
HETATM   27  C   UNL     1      -9.892  15.076  65.899  1.00  0.00    -0.338 C  
BRANCH  27  28
HETATM   28  O   UNL     1     -10.211  16.232  65.054  1.00  0.00    -0.553 OA 
BRANCH  28  29
HETATM   29  C   UNL     1     -10.493  17.441  65.635  1.00  0.00    -0.165 C  
HETATM   30  O   UNL     1     -11.024  18.371  65.035  1.00  0.00    -0.644 OA 
BRANCH  29  31
HETATM   31  C   UNL     1     -10.033  17.460  67.118  1.00  0.00    -0.291 C  
BRANCH  31  32
HETATM   32  N   UNL     1      -8.761  18.214  67.380  1.00  0.00    -0.243 NA 
BRANCH  32  33
HETATM   33  C   UNL     1      -8.986  19.493  68.070  1.00  0.00    -0.327 C  
HETATM   34  C   UNL     1      -9.834  20.518  67.322  1.00  0.00    -0.581 C  
ENDBRANCH  32  33
BRANCH  32  35
HETATM   35  C   UNL     1      -7.780  17.347  68.072  1.00  0.00    -0.202 C  
HETATM   36  C   UNL     1      -8.377  16.346  69.069  1.00  0.00    -0.225 C  
ENDBRANCH  32  35
ENDBRANCH  31  32
ENDBRANCH  29  31
ENDBRANCH  28  29
ENDBRANCH  27  28
ENDBRANCH  25  27
ENDBRANCH   4  25
TORSDOF 8
ENDMDL
MODEL       39
REMARK 921   NORMALIZED FREE ENERGY PREDICTED BY IDOCK:   -5.56 KCAL/MOL
REMARK 922        TOTAL FREE ENERGY PREDICTED BY IDOCK:   -8.30 KCAL/MOL
REMARK 923 INTER-LIGAND FREE ENERGY PREDICTED BY IDOCK:   -8.06 KCAL/MOL
REMARK 924 INTRA-LIGAND FREE ENERGY PREDICTED BY IDOCK:   -0.24 KCAL/MOL
REMARK 927      BINDING AFFINITY PREDICTED BY RF-SCORE:    0.00 PKD
ROOT
HETATM    1  C   UNL     1     -11.112   8.655  70.168  1.00  0.00    -0.199 C  
HETATM    2  C   UNL     1     -11.025   8.922  71.553  1.00  0.00    -0.398 C  
HETATM    3  C   UNL     1      -9.834   9.376  70.764  1.00  0.00    -0.348 C  
HETATM    4  C   UNL     1      -9.987   9.431  68.704  1.00  0.00    -0.173 C  
HETATM    5  C   UNL     1      -8.445   4.723  70.414  1.00  0.00    -0.102 C  
HETATM    6  O   UNL     1     -11.254   9.060  68.031  1.00  0.00    -0.481 OA 
HETATM    7  C   UNL     1     -10.267  10.333  69.678  1.00  0.00    -0.268 C  
HETATM    8  C   UNL     1      -8.328  10.293  69.657  1.00  0.00    -0.139 C  
HETATM    9  H   UNL     1     -11.324   9.086  67.084  1.00  0.00     0.000 HD 
HETATM   10  C   UNL     1      -7.809   3.650  70.923  1.00  0.00    -0.047 C  
HETATM   11  C   UNL     1      -6.335   3.658  70.919  1.00  0.00    -0.019 C  
HETATM   12  C   UNL     1     -11.178  11.543  69.754  1.00  0.00    -0.237 C  
HETATM   13  C   UNL     1      -7.747   8.652  69.302  1.00  0.00    -0.096 C  
HETATM   14  C   UNL     1      -5.722   4.970  71.280  1.00  0.00    -0.012 C  
HETATM   15  C   UNL     1      -7.560   5.505  68.277  1.00  0.00    -0.081 C  
HETATM   16  O   UNL     1      -7.788   8.543  67.868  1.00  0.00    -0.101 OA 
HETATM   17  C   UNL     1      -8.467   7.292  69.978  1.00  0.00    -0.139 C  
HETATM   18  C   UNL     1      -7.691   5.905  69.760  1.00  0.00    -0.089 C  
HETATM   19  C   UNL     1      -6.229   6.070  70.351  1.00  0.00    -0.031 C  
HETATM   20  H   UNL     1      -7.478   7.665  67.679  1.00  0.00     0.000 HD 
HETATM   21  C   UNL     1     -10.112   7.183  69.802  1.00  0.00    -0.200 C  
HETATM   22  C   UNL     1     -10.623   6.010  70.664  1.00  0.00    -0.322 C  
HETATM   23  O   UNL     1      -5.696   2.641  70.679  1.00  0.00    -0.015 OA 
HETATM   24  C   UNL     1      -9.951   4.686  70.320  1.00  0.00    -0.309 C  
ENDROOT
BRANCH   4  25
HETATM   25  C   UNL     1      -9.686  10.677  67.492  1.00  0.00    -0.166 C  
HETATM   26  O   UNL     1      -8.826  11.569  67.580  1.00  0.00    -0.146 OA 
BRANCH  25  27
HETATM   27  C   UNL     1     -10.561  10.742  66.213  1.00  0.00    -0.192 C  
BRANCH  27  28
HETATM   28  O   UNL     1     -11.706  11.625  66.465  1.00  0.00    -0.498 OA 
BRANCH  28  29
HETATM   29  C   UNL     1     -12.075  12.547  65.521  1.00  0.00    -0.419 C  
HETATM   30  O   UNL     1     -13.150  12.516  64.931  1.00  0.00    -0.833 OA 
BRANCH  29  31
HETATM   31  C   UNL     1     -10.948  13.594  65.304  1.00  0.00    -0.310 C  
BRANCH  31  32
HETATM   32  N   UNL     1     -11.067  14.838  66.136  1.00  0.00    -0.336 NA 
BRANCH  32  33
HETATM   33  C   UNL     1     -10.727  14.614  67.550  1.00  0.00    -0.268 C  
HETATM   34  C   UNL     1     -11.636  15.290  68.573  1.00  0.00    -0.368 C  
ENDBRANCH  32  33
BRANCH  32  35
HETATM   35  C   UNL     1     -10.297  15.945  65.523  1.00  0.00    -0.400 C  
HETATM   36  C   UNL     1      -8.853  16.093  66.018  1.00  0.00    -0.313 C  
ENDBRANCH  32  35
ENDBRANCH  31  32
ENDBRANCH  29  31
ENDBRANCH  28  29
ENDBRANCH  27  28
ENDBRANCH  25  27
ENDBRANCH   4  25
TORSDOF 8
ENDMDL
MODEL       40
REMARK 921   NORMALIZED FREE ENERGY PREDICTED BY IDOCK:   -5.53 KCAL/MOL
REMARK 922        TOTAL FREE ENERGY PREDICTED BY IDOCK:   -8.27 KCAL/MOL
REMARK 923 INTER-LIGAND FREE ENERGY PREDICTED BY IDOCK:   -7.97 KCAL/MOL
REMARK 924 INTRA-LIGAND FREE ENERGY PREDICTED BY IDOCK:   -0.30 KCAL/MOL
REMARK 927      BINDING AFFINITY PREDICTED BY RF-SCORE:    0.00 PKD
ROOT
HETATM    1  C   UNL     1      -7.598  13.475  67.550  1.00  0.00    -0.176 C  
HETATM    2  C   UNL     1      -7.126  13.645  68.872  1.00  0.00    -0.102 C  
HETATM    3  C   UNL     1      -8.620  13.653  68.747  1.00  0.00     0.063 C  
HETATM    4  C   UNL     1      -9.458  13.011  66.971  1.00  0.00    -0.237 C  
HETATM    5  C   UNL     1      -8.316  18.125  66.846  1.00  0.00    -0.258 C  
HETATM    6  O   UNL     1      -8.600  12.527  65.863  1.00  0.00    -0.249 OA 
HETATM    7  C   UNL     1      -9.093  12.369  68.108  1.00  0.00    -0.200 C  
HETATM    8  C   UNL     1     -10.677  13.350  68.645  1.00  0.00    -0.275 C  
HETATM    9  H   UNL     1      -8.986  12.232  65.046  1.00  0.00     0.000 HD 
HETATM   10  C   UNL     1      -8.235  19.461  67.003  1.00  0.00    -0.297 C  
HETATM   11  C   UNL     1      -9.447  20.178  67.437  1.00  0.00    -0.400 C  
HETATM   12  C   UNL     1      -8.728  10.931  68.428  1.00  0.00    -0.147 C  
HETATM   13  C   UNL     1     -10.751  14.913  67.804  1.00  0.00    -0.271 C  
HETATM   14  C   UNL     1     -10.236  19.477  68.493  1.00  0.00    -0.517 C  
HETATM   15  C   UNL     1     -10.290  17.368  65.624  1.00  0.00    -0.161 C  
HETATM   16  O   UNL     1     -11.337  14.621  66.522  1.00  0.00    -0.341 OA 
HETATM   17  C   UNL     1      -9.382  15.863  67.579  1.00  0.00    -0.217 C  
HETATM   18  C   UNL     1      -9.641  17.345  67.021  1.00  0.00    -0.273 C  
HETATM   19  C   UNL     1     -10.625  18.076  68.028  1.00  0.00    -0.361 C  
HETATM   20  H   UNL     1     -11.375  15.458  66.072  1.00  0.00     0.000 HD 
HETATM   21  C   UNL     1      -8.078  15.101  66.897  1.00  0.00    -0.194 C  
HETATM   22  C   UNL     1      -6.861  16.045  66.973  1.00  0.00    -0.180 C  
HETATM   23  O   UNL     1      -9.730  21.278  66.981  1.00  0.00    -0.053 OA 
HETATM   24  C   UNL     1      -7.113  17.392  66.306  1.00  0.00    -0.330 C  
ENDROOT
BRANCH   4  25
HETATM   25  C   UNL     1     -10.689  11.815  66.566  1.00  0.00    -0.265 C  
HETATM   26  O   UNL     1     -11.673  11.532  67.271  1.00  0.00    -0.576 OA 
BRANCH  25  27
HETATM   27  C   UNL     1     -10.566  10.987  65.259  1.00  0.00    -0.214 C  
BRANCH  27  28
HETATM   28  O   UNL     1     -10.097   9.637  65.595  1.00  0.00    -0.296 OA 
BRANCH  28  29
HETATM   29  C   UNL     1      -8.817   9.265  65.280  1.00  0.00    -0.198 C  
HETATM   30  O   UNL     1      -8.016  10.006  64.717  1.00  0.00    -0.134 OA 
BRANCH  29  31
HETATM   31  C   UNL     1      -8.548   7.799  65.715  1.00  0.00    -0.143 C  
BRANCH  31  32
HETATM   32  N   UNL     1      -9.120   7.415  67.050  1.00  0.00    -0.131 NA 
BRANCH  32  33
HETATM   33  C   UNL     1     -10.356   6.626  66.936  1.00  0.00    -0.254 C  
HETATM   34  C   UNL     1     -11.149   6.432  68.225  1.00  0.00    -0.359 C  
ENDBRANCH  32  33
BRANCH  32  35
HETATM   35  C   UNL     1      -8.088   6.759  67.885  1.00  0.00    -0.114 C  
HETATM   36  C   UNL     1      -7.784   7.453  69.219  1.00  0.00    -0.107 C  
ENDBRANCH  32  35
ENDBRANCH  31  32
ENDBRANCH  29  31
ENDBRANCH  28  29
ENDBRANCH  27  28
ENDBRANCH  25  27
ENDBRANCH   4  25
TORSDOF 8
ENDMDL
MODEL       41
REMARK 921   NORMALIZED FREE ENERGY PREDICTED BY IDOCK:   -5.51 KCAL/MOL
REMARK 922        TOTAL FREE ENERGY PREDICTED BY IDOCK:   -8.24 KCAL/MOL
REMARK 923 INTER-LIGAND FREE ENERGY PREDICTED BY IDOCK:   -8.29 KCAL/MOL
REMARK 924 INTRA-LIGAND FREE ENERGY PREDICTED BY IDOCK:    0.06 KCAL/MOL
REMARK 927      BINDING AFFINITY PREDICTED BY RF-SCORE:    0.00 PKD
ROOT
HETATM    1  C   UNL     1     -11.242   7.495  71.423  1.00  0.00    -0.267 C  
HETATM    2  C   UNL     1     -11.263   7.822  72.799  1.00  0.00    -0.456 C  
HETATM    3  C   UNL     1     -10.061   8.334  72.064  1.00  0.00    -0.331 C  
HETATM    4  C   UNL     1     -10.086   8.297  69.998  1.00  0.00    -0.196 C  
HETATM    5  C   UNL     1      -8.314   3.790  72.001  1.00  0.00    -0.090 C  
HETATM    6  O   UNL     1     -11.278   7.805  69.266  1.00  0.00    -0.439 OA 
HETATM    7  C   UNL     1     -10.492   9.212  70.913  1.00  0.00    -0.347 C  
HETATM    8  C   UNL     1      -8.559   9.320  71.011  1.00  0.00    -0.166 C  
HETATM    9  H   UNL     1     -11.289   7.789  68.316  1.00  0.00     0.000 HD 
HETATM   10  C   UNL     1      -7.634   2.789  72.594  1.00  0.00    -0.049 C  
HETATM   11  C   UNL     1      -6.168   2.909  72.678  1.00  0.00    -0.009 C  
HETATM   12  C   UNL     1     -11.494  10.352  70.881  1.00  0.00    -0.385 C  
HETATM   13  C   UNL     1      -7.838   7.715  70.763  1.00  0.00    -0.096 C  
HETATM   14  C   UNL     1      -5.677   4.277  73.018  1.00  0.00    -0.008 C  
HETATM   15  C   UNL     1      -7.356   4.553  69.889  1.00  0.00    -0.050 C  
HETATM   16  O   UNL     1      -7.780   7.547  69.335  1.00  0.00    -0.106 OA 
HETATM   17  C   UNL     1      -8.498   6.331  71.453  1.00  0.00    -0.127 C  
HETATM   18  C   UNL     1      -7.609   4.999  71.342  1.00  0.00    -0.088 C  
HETATM   19  C   UNL     1      -6.204   5.298  72.013  1.00  0.00    -0.031 C  
HETATM   20  H   UNL     1      -7.394   6.688  69.203  1.00  0.00     0.000 HD 
HETATM   21  C   UNL     1     -10.116   6.090  71.183  1.00  0.00    -0.241 C  
HETATM   22  C   UNL     1     -10.592   4.916  72.062  1.00  0.00    -0.210 C  
HETATM   23  O   UNL     1      -5.442   1.935  72.521  1.00  0.00     0.000 OA 
HETATM   24  C   UNL     1      -9.804   3.635  71.818  1.00  0.00    -0.235 C  
ENDROOT
BRANCH   4  25
HETATM   25  C   UNL     1      -9.801   9.514  68.753  1.00  0.00    -0.169 C  
HETATM   26  O   UNL     1      -8.892  10.361  68.774  1.00  0.00    -0.139 OA 
BRANCH  25  27
HETATM   27  C   UNL     1     -10.754   9.613  67.532  1.00  0.00    -0.256 C  
BRANCH  27  28
HETATM   28  O   UNL     1     -11.773  10.632  67.807  1.00  0.00    -0.503 OA 
BRANCH  28  29
HETATM   29  C   UNL     1     -11.523  11.944  67.501  1.00  0.00    -0.326 C  
HETATM   30  O   UNL     1     -11.561  12.850  68.328  1.00  0.00    -0.291 OA 
BRANCH  29  31
HETATM   31  C   UNL     1     -11.214  12.106  65.988  1.00  0.00    -0.336 C  
BRANCH  31  32
HETATM   32  N   UNL     1     -12.372  12.562  65.146  1.00  0.00    -0.573 NA 
BRANCH  32  33
HETATM   33  C   UNL     1     -12.525  14.025  65.129  1.00  0.00    -0.452 C  
HETATM   34  C   UNL     1     -11.232  14.834  65.078  1.00  0.00    -0.399 C  
ENDBRANCH  32  33
BRANCH  32  35
HETATM   35  C   UNL     1     -12.288  11.971  63.791  1.00  0.00    -0.496 C  
HETATM   36  C   UNL     1     -10.880  11.572  63.334  1.00  0.00    -0.423 C  
ENDBRANCH  32  35
ENDBRANCH  31  32
ENDBRANCH  29  31
ENDBRANCH  28  29
ENDBRANCH  27  28
ENDBRANCH  25  27
ENDBRANCH   4  25
TORSDOF 8
ENDMDL
MODEL       42
REMARK 921   NORMALIZED FREE ENERGY PREDICTED BY IDOCK:   -5.50 KCAL/MOL
REMARK 922        TOTAL FREE ENERGY PREDICTED BY IDOCK:   -8.21 KCAL/MOL
REMARK 923 INTER-LIGAND FREE ENERGY PREDICTED BY IDOCK:   -7.72 KCAL/MOL
REMARK 924 INTRA-LIGAND FREE ENERGY PREDICTED BY IDOCK:   -0.50 KCAL/MOL
REMARK 927      BINDING AFFINITY PREDICTED BY RF-SCORE:    0.00 PKD
ROOT
HETATM    1  C   UNL     1     -10.889  11.308  69.246  1.00  0.00    -0.259 C  
HETATM    2  C   UNL     1     -12.258  11.194  68.910  1.00  0.00    -0.144 C  
HETATM    3  C   UNL     1     -11.322  10.985  67.757  1.00  0.00    -0.365 C  
HETATM    4  C   UNL     1      -9.315  10.712  68.162  1.00  0.00    -0.151 C  
HETATM    5  C   UNL     1     -10.529  15.788  67.686  1.00  0.00    -0.282 C  
HETATM    6  O   UNL     1      -8.822  10.693  69.560  1.00  0.00    -0.375 OA 
HETATM    7  C   UNL     1     -10.364   9.859  68.066  1.00  0.00    -0.244 C  
HETATM    8  C   UNL     1     -10.050  10.379  66.225  1.00  0.00    -0.292 C  
HETATM    9  H   UNL     1      -7.899  10.567  69.746  1.00  0.00     0.000 HD 
HETATM   10  C   UNL     1     -10.881  17.027  67.288  1.00  0.00    -0.123 C  
HETATM   11  C   UNL     1     -10.655  17.387  65.878  1.00  0.00    -0.200 C  
HETATM   12  C   UNL     1     -10.639   8.470  68.613  1.00  0.00    -0.154 C  
HETATM   13  C   UNL     1      -9.528  12.075  66.143  1.00  0.00    -0.232 C  
HETATM   14  C   UNL     1     -10.986  16.307  64.902  1.00  0.00    -0.321 C  
HETATM   15  C   UNL     1      -8.326  15.067  66.919  1.00  0.00    -0.247 C  
HETATM   16  O   UNL     1      -8.113  12.044  66.401  1.00  0.00    -0.381 OA 
HETATM   17  C   UNL     1     -10.234  13.267  67.096  1.00  0.00    -0.246 C  
HETATM   18  C   UNL     1      -9.830  14.779  66.744  1.00  0.00    -0.263 C  
HETATM   19  C   UNL     1     -10.202  15.037  65.224  1.00  0.00    -0.409 C  
HETATM   20  H   UNL     1      -7.833  12.952  66.358  1.00  0.00     0.000 HD 
HETATM   21  C   UNL     1     -10.303  12.945  68.721  1.00  0.00    -0.143 C  
HETATM   22  C   UNL     1     -11.170  14.025  69.401  1.00  0.00    -0.283 C  
HETATM   23  O   UNL     1     -10.269  18.506  65.563  1.00  0.00    -0.493 OA 
HETATM   24  C   UNL     1     -10.661  15.439  69.148  1.00  0.00    -0.246 C  
ENDROOT
BRANCH   4  25
HETATM   25  C   UNL     1      -8.137   9.479  67.711  1.00  0.00    -0.106 C  
HETATM   26  O   UNL     1      -8.118   8.868  66.629  1.00  0.00    -0.105 OA 
BRANCH  25  27
HETATM   27  C   UNL     1      -7.038   9.049  68.719  1.00  0.00    -0.070 C  
BRANCH  27  28
HETATM   28  O   UNL     1      -7.427   7.773  69.329  1.00  0.00    -0.088 OA 
BRANCH  28  29
HETATM   29  C   UNL     1      -7.767   7.729  70.655  1.00  0.00    -0.091 C  
HETATM   30  O   UNL     1      -7.719   8.704  71.398  1.00  0.00    -0.105 OA 
BRANCH  29  31
HETATM   31  C   UNL     1      -8.191   6.292  71.067  1.00  0.00    -0.123 C  
BRANCH  31  32
HETATM   32  N   UNL     1      -9.582   5.898  70.662  1.00  0.00    -0.170 NA 
BRANCH  32  33
HETATM   33  C   UNL     1      -9.620   4.649  69.886  1.00  0.00    -0.191 C  
HETATM   34  C   UNL     1      -9.705   4.804  68.370  1.00  0.00    -0.209 C  
ENDBRANCH  32  33
BRANCH  32  35
HETATM   35  C   UNL     1     -10.477   5.875  71.842  1.00  0.00    -0.220 C  
HETATM   36  C   UNL     1     -11.852   6.523  71.637  1.00  0.00    -0.384 C  
ENDBRANCH  32  35
ENDBRANCH  31  32
ENDBRANCH  29  31
ENDBRANCH  28  29
ENDBRANCH  27  28
ENDBRANCH  25  27
ENDBRANCH   4  25
TORSDOF 8
ENDMDL
MODEL       43
REMARK 921   NORMALIZED FREE ENERGY PREDICTED BY IDOCK:   -5.48 KCAL/MOL
REMARK 922        TOTAL FREE ENERGY PREDICTED BY IDOCK:   -8.18 KCAL/MOL
REMARK 923 INTER-LIGAND FREE ENERGY PREDICTED BY IDOCK:   -8.37 KCAL/MOL
REMARK 924 INTRA-LIGAND FREE ENERGY PREDICTED BY IDOCK:    0.18 KCAL/MOL
REMARK 927      BINDING AFFINITY PREDICTED BY RF-SCORE:    0.00 PKD
ROOT
HETATM    1  C   UNL     1     -10.157  13.583  68.339  1.00  0.00    -0.240 C  
HETATM    2  C   UNL     1     -11.256  13.943  69.152  1.00  0.00    -0.311 C  
HETATM    3  C   UNL     1     -11.447  14.237  67.695  1.00  0.00    -0.370 C  
HETATM    4  C   UNL     1     -10.125  13.403  66.345  1.00  0.00    -0.292 C  
HETATM    5  C   UNL     1      -8.393  17.998  68.178  1.00  0.00    -0.273 C  
HETATM    6  O   UNL     1      -9.035  12.512  66.808  1.00  0.00    -0.209 OA 
HETATM    7  C   UNL     1     -11.291  12.971  66.886  1.00  0.00    -0.352 C  
HETATM    8  C   UNL     1     -11.862  14.359  65.658  1.00  0.00    -0.355 C  
HETATM    9  H   UNL     1      -8.427  12.129  66.186  1.00  0.00     0.000 HD 
HETATM   10  C   UNL     1      -8.165  19.287  68.498  1.00  0.00    -0.401 C  
HETATM   11  C   UNL     1      -8.633  20.322  67.559  1.00  0.00    -0.314 C  
HETATM   12  C   UNL     1     -11.902  11.599  67.098  1.00  0.00    -0.090 C  
HETATM   13  C   UNL     1     -10.666  15.672  65.610  1.00  0.00    -0.364 C  
HETATM   14  C   UNL     1      -9.979  20.061  66.969  1.00  0.00    -0.582 C  
HETATM   15  C   UNL     1      -7.860  17.419  65.866  1.00  0.00    -0.077 C  
HETATM   16  O   UNL     1      -9.662  15.230  64.680  1.00  0.00    -0.275 OA 
HETATM   17  C   UNL     1      -9.914  16.237  67.004  1.00  0.00    -0.255 C  
HETATM   18  C   UNL     1      -9.045  17.576  66.839  1.00  0.00    -0.265 C  
HETATM   19  C   UNL     1     -10.000  18.705  66.267  1.00  0.00    -0.398 C  
HETATM   20  H   UNL     1      -9.022  15.932  64.655  1.00  0.00     0.000 HD 
HETATM   21  C   UNL     1      -9.205  15.083  67.960  1.00  0.00    -0.183 C  
HETATM   22  C   UNL     1      -8.769  15.741  69.285  1.00  0.00    -0.261 C  
HETATM   23  O   UNL     1      -7.967  21.326  67.339  1.00  0.00    -0.258 OA 
HETATM   24  C   UNL     1      -7.832  16.925  69.078  1.00  0.00    -0.184 C  
ENDROOT
BRANCH   4  25
HETATM   25  C   UNL     1     -10.322  12.434  64.884  1.00  0.00    -0.293 C  
HETATM   26  O   UNL     1     -10.715  12.864  63.786  1.00  0.00    -0.397 OA 
BRANCH  25  27
HETATM   27  C   UNL     1     -10.041  10.908  64.922  1.00  0.00    -0.312 C  
BRANCH  27  28
HETATM   28  O   UNL     1      -8.790  10.638  64.205  1.00  0.00    -0.184 OA 
BRANCH  28  29
HETATM   29  C   UNL     1      -8.432   9.346  63.924  1.00  0.00    -0.197 C  
HETATM   30  O   UNL     1      -8.151   8.952  62.796  1.00  0.00    -0.150 OA 
BRANCH  29  31
HETATM   31  C   UNL     1      -8.457   8.476  65.211  1.00  0.00    -0.174 C  
BRANCH  31  32
HETATM   32  N   UNL     1      -7.112   8.212  65.826  1.00  0.00    -0.063 NA 
BRANCH  32  33
HETATM   33  C   UNL     1      -7.098   8.423  67.282  1.00  0.00    -0.079 C  
HETATM   34  C   UNL     1      -7.054   9.875  67.748  1.00  0.00    -0.087 C  
ENDBRANCH  32  33
BRANCH  32  35
HETATM   35  C   UNL     1      -6.617   6.874  65.429  1.00  0.00    -0.051 C  
HETATM   36  C   UNL     1      -7.080   5.712  66.317  1.00  0.00    -0.072 C  
ENDBRANCH  32  35
ENDBRANCH  31  32
ENDBRANCH  29  31
ENDBRANCH  28  29
ENDBRANCH  27  28
ENDBRANCH  25  27
ENDBRANCH   4  25
TORSDOF 8
ENDMDL
MODEL       44
REMARK 921   NORMALIZED FREE ENERGY PREDICTED BY IDOCK:   -5.38 KCAL/MOL
REMARK 922        TOTAL FREE ENERGY PREDICTED BY IDOCK:   -8.05 KCAL/MOL
REMARK 923 INTER-LIGAND FREE ENERGY PREDICTED BY IDOCK:   -7.74 KCAL/MOL
REMARK 924 INTRA-LIGAND FREE ENERGY PREDICTED BY IDOCK:   -0.30 KCAL/MOL
REMARK 927      BINDING AFFINITY PREDICTED BY RF-SCORE:    0.00 PKD
ROOT
HETATM    1  C   UNL     1     -11.214  10.207  70.606  1.00  0.00    -0.418 C  
HETATM    2  C   UNL     1     -12.582   9.852  70.596  1.00  0.00    -0.250 C  
HETATM    3  C   UNL     1     -11.775   9.218  69.503  1.00  0.00     0.445 C  
HETATM    4  C   UNL     1      -9.715   9.307  69.630  1.00  0.00    -0.182 C  
HETATM    5  C   UNL     1     -11.699  13.520  67.226  1.00  0.00    -0.423 C  
HETATM    6  O   UNL     1      -9.057   9.955  70.790  1.00  0.00    -0.340 OA 
HETATM    7  C   UNL     1     -10.634   8.426  70.097  1.00  0.00    -0.235 C  
HETATM    8  C   UNL     1     -10.625   8.085  68.188  1.00  0.00    -0.174 C  
HETATM    9  H   UNL     1      -8.109   9.996  70.848  1.00  0.00     0.000 HD 
HETATM   10  C   UNL     1     -12.271  14.418  66.400  1.00  0.00    -0.363 C  
HETATM   11  C   UNL     1     -12.274  14.121  64.957  1.00  0.00    -0.441 C  
HETATM   12  C   UNL     1     -10.636   7.415  71.229  1.00  0.00    -0.231 C  
HETATM   13  C   UNL     1     -10.368   9.597  67.292  1.00  0.00    -0.249 C  
HETATM   14  C   UNL     1     -12.563  12.696  64.617  1.00  0.00    -0.517 C  
HETATM   15  C   UNL     1      -9.525  12.698  66.476  1.00  0.00    -0.247 C  
HETATM   16  O   UNL     1      -8.942   9.791  67.287  1.00  0.00    -0.134 OA 
HETATM   17  C   UNL     1     -11.117  11.033  67.743  1.00  0.00    -0.356 C  
HETATM   18  C   UNL     1     -10.981  12.251  66.707  1.00  0.00    -0.321 C  
HETATM   19  C   UNL     1     -11.570  11.770  65.315  1.00  0.00    -0.193 C  
HETATM   20  H   UNL     1      -8.805  10.600  66.808  1.00  0.00     0.000 HD 
HETATM   21  C   UNL     1     -10.938  11.472  69.332  1.00  0.00    -0.233 C  
HETATM   22  C   UNL     1     -11.863  12.674  69.617  1.00  0.00    -0.379 C  
HETATM   23  O   UNL     1     -12.096  15.004  64.127  1.00  0.00    -0.524 OA 
HETATM   24  C   UNL     1     -11.599  13.857  68.693  1.00  0.00    -0.363 C  
ENDROOT
BRANCH   4  25
HETATM   25  C   UNL     1      -8.435   8.095  69.559  1.00  0.00    -0.127 C  
HETATM   26  O   UNL     1      -8.442   7.087  68.832  1.00  0.00    -0.125 OA 
BRANCH  25  27
HETATM   27  C   UNL     1      -7.197   8.218  70.486  1.00  0.00    -0.045 C  
BRANCH  27  28
HETATM   28  O   UNL     1      -7.412   7.391  71.679  1.00  0.00    -0.081 OA 
BRANCH  28  29
HETATM   29  C   UNL     1      -7.160   7.911  72.921  1.00  0.00    -0.089 C  
HETATM   30  O   UNL     1      -6.864   9.087  73.114  1.00  0.00    -0.324 OA 
BRANCH  29  31
HETATM   31  C   UNL     1      -7.283   6.813  74.012  1.00  0.00    -0.089 C  
BRANCH  31  32
HETATM   32  N   UNL     1      -8.207   5.679  73.673  1.00  0.00    -0.112 NA 
BRANCH  32  33
HETATM   33  C   UNL     1      -7.600   4.359  73.900  1.00  0.00    -0.081 C  
HETATM   34  C   UNL     1      -6.216   4.359  74.542  1.00  0.00    -0.047 C  
ENDBRANCH  32  33
BRANCH  32  35
HETATM   35  C   UNL     1      -9.506   5.847  74.365  1.00  0.00    -0.164 C  
HETATM   36  C   UNL     1     -10.507   4.701  74.171  1.00  0.00    -0.333 C  
ENDBRANCH  32  35
ENDBRANCH  31  32
ENDBRANCH  29  31
ENDBRANCH  28  29
ENDBRANCH  27  28
ENDBRANCH  25  27
ENDBRANCH   4  25
TORSDOF 8
ENDMDL
MODEL       45
REMARK 921   NORMALIZED FREE ENERGY PREDICTED BY IDOCK:   -5.35 KCAL/MOL
REMARK 922        TOTAL FREE ENERGY PREDICTED BY IDOCK:   -7.99 KCAL/MOL
REMARK 923 INTER-LIGAND FREE ENERGY PREDICTED BY IDOCK:   -7.07 KCAL/MOL
REMARK 924 INTRA-LIGAND FREE ENERGY PREDICTED BY IDOCK:   -0.92 KCAL/MOL
REMARK 927      BINDING AFFINITY PREDICTED BY RF-SCORE:    0.00 PKD
ROOT
HETATM    1  C   UNL     1     -12.245   7.855  72.194  1.00  0.00    -0.353 C  
HETATM    2  C   UNL     1     -13.452   7.443  71.585  1.00  0.00    -0.437 C  
HETATM    3  C   UNL     1     -12.217   6.928  70.910  1.00  0.00    -0.404 C  
HETATM    4  C   UNL     1     -10.414   7.096  71.905  1.00  0.00    -0.197 C  
HETATM    5  C   UNL     1     -11.494  11.389  69.099  1.00  0.00    -0.365 C  
HETATM    6  O   UNL     1     -10.354   7.683  73.264  1.00  0.00    -0.323 OA 
HETATM    7  C   UNL     1     -11.379   6.143  71.891  1.00  0.00    -0.350 C  
HETATM    8  C   UNL     1     -10.543   5.948  70.153  1.00  0.00    -0.362 C  
HETATM    9  H   UNL     1      -9.525   7.760  73.722  1.00  0.00     0.000 HD 
HETATM   10  C   UNL     1     -11.727  12.321  68.154  1.00  0.00    -0.408 C  
HETATM   11  C   UNL     1     -11.100  12.134  66.834  1.00  0.00    -0.297 C  
HETATM   12  C   UNL     1     -11.786   5.051  72.863  1.00  0.00    -0.127 C  
HETATM   13  C   UNL     1     -10.040   7.533  69.528  1.00  0.00    -0.189 C  
HETATM   14  C   UNL     1     -11.118  10.728  66.333  1.00  0.00    -0.013 C  
HETATM   15  C   UNL     1      -9.154  10.720  69.304  1.00  0.00    -0.056 C  
HETATM   16  O   UNL     1      -8.763   7.789  70.140  1.00  0.00    -0.138 OA 
HETATM   17  C   UNL     1     -11.009   8.898  69.689  1.00  0.00    -0.132 C  
HETATM   18  C   UNL     1     -10.536  10.195  68.871  1.00  0.00    -0.237 C  
HETATM   19  C   UNL     1     -10.448   9.795  67.339  1.00  0.00    -0.319 C  
HETATM   20  H   UNL     1      -8.494   8.637  69.806  1.00  0.00     0.000 HD 
HETATM   21  C   UNL     1     -11.549   9.223  71.223  1.00  0.00    -0.419 C  
HETATM   22  C   UNL     1     -12.590  10.358  71.148  1.00  0.00    -0.512 C  
HETATM   23  O   UNL     1     -10.652  13.084  66.204  1.00  0.00    -0.271 OA 
HETATM   24  C   UNL     1     -12.046  11.618  70.485  1.00  0.00    -0.458 C  
ENDROOT
BRANCH   4  25
HETATM   25  C   UNL     1      -9.141   5.949  72.324  1.00  0.00    -0.141 C  
HETATM   26  O   UNL     1      -9.118   4.752  71.992  1.00  0.00    -0.125 OA 
BRANCH  25  27
HETATM   27  C   UNL     1      -7.952   6.400  73.213  1.00  0.00    -0.104 C  
BRANCH  27  28
HETATM   28  O   UNL     1      -6.973   7.102  72.375  1.00  0.00    -0.064 OA 
BRANCH  28  29
HETATM   29  C   UNL     1      -5.897   6.420  71.871  1.00  0.00    -0.037 C  
HETATM   30  O   UNL     1      -5.521   5.335  72.305  1.00  0.00    -0.015 OA 
BRANCH  29  31
HETATM   31  C   UNL     1      -5.233   7.217  70.715  1.00  0.00    -0.023 C  
BRANCH  31  32
HETATM   32  N   UNL     1      -6.025   7.269  69.441  1.00  0.00    -0.029 NA 
BRANCH  32  33
HETATM   33  C   UNL     1      -5.773   8.490  68.660  1.00  0.00    -0.037 C  
HETATM   34  C   UNL     1      -6.543   8.619  67.349  1.00  0.00    -0.058 C  
ENDBRANCH  32  33
BRANCH  32  35
HETATM   35  C   UNL     1      -5.825   6.028  68.658  1.00  0.00    -0.012 C  
HETATM   36  C   UNL     1      -7.037   5.090  68.594  1.00  0.00    -0.057 C  
ENDBRANCH  32  35
ENDBRANCH  31  32
ENDBRANCH  29  31
ENDBRANCH  28  29
ENDBRANCH  27  28
ENDBRANCH  25  27
ENDBRANCH   4  25
TORSDOF 8
ENDMDL
MODEL       46
REMARK 921   NORMALIZED FREE ENERGY PREDICTED BY IDOCK:   -5.34 KCAL/MOL
REMARK 922        TOTAL FREE ENERGY PREDICTED BY IDOCK:   -7.98 KCAL/MOL
REMARK 923 INTER-LIGAND FREE ENERGY PREDICTED BY IDOCK:   -8.05 KCAL/MOL
REMARK 924 INTRA-LIGAND FREE ENERGY PREDICTED BY IDOCK:    0.07 KCAL/MOL
REMARK 927      BINDING AFFINITY PREDICTED BY RF-SCORE:    0.00 PKD
ROOT
HETATM    1  C   UNL     1     -11.541   8.000  71.068  1.00  0.00    -0.303 C  
HETATM    2  C   UNL     1     -11.684   8.714  72.280  1.00  0.00    -0.428 C  
HETATM    3  C   UNL     1     -10.339   8.861  71.634  1.00  0.00    -0.416 C  
HETATM    4  C   UNL     1     -10.115   8.227  69.681  1.00  0.00    -0.199 C  
HETATM    5  C   UNL     1      -9.275   4.341  73.096  1.00  0.00    -0.122 C  
HETATM    6  O   UNL     1     -11.266   7.669  68.932  1.00  0.00    -0.415 OA 
HETATM    7  C   UNL     1     -10.494   9.406  70.234  1.00  0.00    -0.298 C  
HETATM    8  C   UNL     1      -8.592   9.335  70.605  1.00  0.00    -0.270 C  
HETATM    9  H   UNL     1     -11.163   7.378  68.033  1.00  0.00     0.000 HD 
HETATM   10  C   UNL     1      -8.826   3.491  74.040  1.00  0.00    -0.088 C  
HETATM   11  C   UNL     1      -7.379   3.477  74.321  1.00  0.00    -0.053 C  
HETATM   12  C   UNL     1     -11.308  10.584  69.732  1.00  0.00    -0.367 C  
HETATM   13  C   UNL     1      -8.086   7.663  70.924  1.00  0.00    -0.103 C  
HETATM   14  C   UNL     1      -6.740   4.826  74.348  1.00  0.00    -0.070 C  
HETATM   15  C   UNL     1      -7.964   4.351  71.037  1.00  0.00    -0.072 C  
HETATM   16  O   UNL     1      -7.878   7.080  69.625  1.00  0.00    -0.113 OA 
HETATM   17  C   UNL     1      -9.019   6.616  71.852  1.00  0.00    -0.136 C  
HETATM   18  C   UNL     1      -8.327   5.226  72.252  1.00  0.00    -0.122 C  
HETATM   19  C   UNL     1      -6.986   5.559  73.031  1.00  0.00    -0.080 C  
HETATM   20  H   UNL     1      -7.608   6.185  69.796  1.00  0.00     0.000 HD 
HETATM   21  C   UNL     1     -10.610   6.477  71.404  1.00  0.00    -0.266 C  
HETATM   22  C   UNL     1     -11.356   5.666  72.483  1.00  0.00    -0.349 C  
HETATM   23  O   UNL     1      -6.788   2.430  74.554  1.00  0.00    -0.028 OA 
HETATM   24  C   UNL     1     -10.738   4.295  72.727  1.00  0.00    -0.217 C  
ENDROOT
BRANCH   4  25
HETATM   25  C   UNL     1      -9.506   8.991  68.212  1.00  0.00    -0.146 C  
HETATM   26  O   UNL     1      -8.396   9.539  68.097  1.00  0.00    -0.117 OA 
BRANCH  25  27
HETATM   27  C   UNL     1     -10.397   9.056  66.944  1.00  0.00    -0.254 C  
BRANCH  27  28
HETATM   28  O   UNL     1      -9.538   9.237  65.768  1.00  0.00    -0.254 OA 
BRANCH  28  29
HETATM   29  C   UNL     1      -9.769  10.280  64.911  1.00  0.00    -0.320 C  
HETATM   30  O   UNL     1      -9.759  10.166  63.689  1.00  0.00    -0.280 OA 
BRANCH  29  31
HETATM   31  C   UNL     1     -10.020  11.594  65.699  1.00  0.00    -0.240 C  
BRANCH  31  32
HETATM   32  N   UNL     1     -10.706  12.681  64.923  1.00  0.00    -0.288 NA 
BRANCH  32  33
HETATM   33  C   UNL     1     -12.168  12.523  64.887  1.00  0.00    -0.470 C  
HETATM   34  C   UNL     1     -12.771  12.169  63.530  1.00  0.00    -0.553 C  
ENDBRANCH  32  33
BRANCH  32  35
HETATM   35  C   UNL     1     -10.279  14.013  65.411  1.00  0.00    -0.347 C  
HETATM   36  C   UNL     1     -10.202  14.160  66.936  1.00  0.00    -0.267 C  
ENDBRANCH  32  35
ENDBRANCH  31  32
ENDBRANCH  29  31
ENDBRANCH  28  29
ENDBRANCH  27  28
ENDBRANCH  25  27
ENDBRANCH   4  25
TORSDOF 8
ENDMDL
MODEL       47
REMARK 921   NORMALIZED FREE ENERGY PREDICTED BY IDOCK:   -5.34 KCAL/MOL
REMARK 922        TOTAL FREE ENERGY PREDICTED BY IDOCK:   -7.98 KCAL/MOL
REMARK 923 INTER-LIGAND FREE ENERGY PREDICTED BY IDOCK:   -8.00 KCAL/MOL
REMARK 924 INTRA-LIGAND FREE ENERGY PREDICTED BY IDOCK:    0.02 KCAL/MOL
REMARK 927      BINDING AFFINITY PREDICTED BY RF-SCORE:    0.00 PKD
ROOT
HETATM    1  C   UNL     1      -8.399  10.358  69.460  1.00  0.00    -0.126 C  
HETATM    2  C   UNL     1      -6.989  10.271  69.420  1.00  0.00    -0.083 C  
HETATM    3  C   UNL     1      -7.638  10.349  68.071  1.00  0.00    -0.091 C  
HETATM    4  C   UNL     1      -9.629  10.890  67.972  1.00  0.00    -0.162 C  
HETATM    5  C   UNL     1      -9.048   5.721  68.617  1.00  0.00    -0.116 C  
HETATM    6  O   UNL     1     -10.384  11.222  69.204  1.00  0.00    -0.311 OA 
HETATM    7  C   UNL     1      -8.476  11.602  67.971  1.00  0.00    -0.151 C  
HETATM    8  C   UNL     1      -8.485  10.775  66.217  1.00  0.00    -0.161 C  
HETATM    9  H   UNL     1     -11.300  11.470  69.159  1.00  0.00     0.000 HD 
HETATM   10  C   UNL     1      -8.797   4.401  68.516  1.00  0.00    -0.133 C  
HETATM   11  C   UNL     1      -8.784   3.804  67.169  1.00  0.00    -0.113 C  
HETATM   12  C   UNL     1      -8.129  13.035  68.329  1.00  0.00    -0.151 C  
HETATM   13  C   UNL     1      -9.207   9.154  66.303  1.00  0.00    -0.194 C  
HETATM   14  C   UNL     1      -8.120   4.641  66.126  1.00  0.00    -0.103 C  
HETATM   15  C   UNL     1     -10.935   6.497  67.275  1.00  0.00    -0.475 C  
HETATM   16  O   UNL     1     -10.627   9.372  66.233  1.00  0.00    -0.106 OA 
HETATM   17  C   UNL     1      -8.874   8.101  67.571  1.00  0.00    -0.137 C  
HETATM   18  C   UNL     1      -9.401   6.597  67.391  1.00  0.00    -0.136 C  
HETATM   19  C   UNL     1      -8.773   6.020  66.055  1.00  0.00    -0.154 C  
HETATM   20  H   UNL     1     -11.013   8.505  66.279  1.00  0.00     0.000 HD 
HETATM   21  C   UNL     1      -9.087   8.717  69.095  1.00  0.00    -0.142 C  
HETATM   22  C   UNL     1      -8.528   7.706  70.117  1.00  0.00    -0.138 C  
HETATM   23  O   UNL     1      -9.248   2.689  66.966  1.00  0.00    -0.159 OA 
HETATM   24  C   UNL     1      -9.164   6.326  69.995  1.00  0.00    -0.157 C  
ENDROOT
BRANCH   4  25
HETATM   25  C   UNL     1     -10.515  12.124  67.076  1.00  0.00    -0.220 C  
HETATM   26  O   UNL     1     -10.193  12.571  65.962  1.00  0.00    -0.242 OA 
BRANCH  25  27
HETATM   27  C   UNL     1     -11.781  12.774  67.694  1.00  0.00    -0.367 C  
BRANCH  27  28
HETATM   28  O   UNL     1     -11.792  14.203  67.361  1.00  0.00    -0.374 OA 
BRANCH  28  29
HETATM   29  C   UNL     1     -11.483  15.128  68.323  1.00  0.00    -0.336 C  
HETATM   30  O   UNL     1     -11.275  16.313  68.080  1.00  0.00    -0.350 OA 
BRANCH  29  31
HETATM   31  C   UNL     1     -11.417  14.462  69.725  1.00  0.00    -0.276 C  
BRANCH  31  32
HETATM   32  N   UNL     1     -12.734  14.347  70.438  1.00  0.00    -0.342 NA 
BRANCH  32  33
HETATM   33  C   UNL     1     -12.838  13.127  71.252  1.00  0.00    -0.296 C  
HETATM   34  C   UNL     1     -13.893  13.145  72.354  1.00  0.00    -0.583 C  
ENDBRANCH  32  33
BRANCH  32  35
HETATM   35  C   UNL     1     -13.016  15.582  71.205  1.00  0.00    -0.496 C  
HETATM   36  C   UNL     1     -11.838  16.132  72.020  1.00  0.00    -0.615 C  
ENDBRANCH  32  35
ENDBRANCH  31  32
ENDBRANCH  29  31
ENDBRANCH  28  29
ENDBRANCH  27  28
ENDBRANCH  25  27
ENDBRANCH   4  25
TORSDOF 8
ENDMDL
MODEL       48
REMARK 921   NORMALIZED FREE ENERGY PREDICTED BY IDOCK:   -5.32 KCAL/MOL
REMARK 922        TOTAL FREE ENERGY PREDICTED BY IDOCK:   -7.96 KCAL/MOL
REMARK 923 INTER-LIGAND FREE ENERGY PREDICTED BY IDOCK:   -8.86 KCAL/MOL
REMARK 924 INTRA-LIGAND FREE ENERGY PREDICTED BY IDOCK:    0.90 KCAL/MOL
REMARK 927      BINDING AFFINITY PREDICTED BY RF-SCORE:    0.00 PKD
ROOT
HETATM    1  C   UNL     1     -11.313  15.257  69.102  1.00  0.00    -0.307 C  
HETATM    2  C   UNL     1     -10.918  15.424  70.449  1.00  0.00    -0.347 C  
HETATM    3  C   UNL     1      -9.777  15.316  69.483  1.00  0.00    -0.224 C  
HETATM    4  C   UNL     1     -10.183  15.484  67.465  1.00  0.00    -0.254 C  
HETATM    5  C   UNL     1     -10.673  10.543  69.143  1.00  0.00    -0.266 C  
HETATM    6  O   UNL     1     -11.565  15.735  66.991  1.00  0.00     0.009 OA 
HETATM    7  C   UNL     1      -9.888  16.391  68.428  1.00  0.00    -0.233 C  
HETATM    8  C   UNL     1      -8.196  15.490  68.139  1.00  0.00    -0.144 C  
HETATM    9  H   UNL     1     -11.752  15.812  66.062  1.00  0.00     0.000 HD 
HETATM   10  C   UNL     1     -10.516   9.286  69.603  1.00  0.00    -0.234 C  
HETATM   11  C   UNL     1      -9.211   8.635  69.393  1.00  0.00    -0.150 C  
HETATM   12  C   UNL     1     -10.144  17.879  68.578  1.00  0.00    -0.392 C  
HETATM   13  C   UNL     1      -8.465  13.772  67.777  1.00  0.00    -0.181 C  
HETATM   14  C   UNL     1      -8.032   9.525  69.609  1.00  0.00    -0.120 C  
HETATM   15  C   UNL     1      -9.850  10.899  66.872  1.00  0.00    -0.222 C  
HETATM   16  O   UNL     1      -8.757  13.727  66.369  1.00  0.00    -0.446 OA 
HETATM   17  C   UNL     1      -9.611  12.861  68.604  1.00  0.00    -0.025 C  
HETATM   18  C   UNL     1      -9.574  11.279  68.339  1.00  0.00    -0.195 C  
HETATM   19  C   UNL     1      -8.124  10.759  68.713  1.00  0.00    -0.143 C  
HETATM   20  H   UNL     1      -8.901  12.808  66.175  1.00  0.00     0.000 HD 
HETATM   21  C   UNL     1     -11.138  13.503  68.664  1.00  0.00    -0.299 C  
HETATM   22  C   UNL     1     -11.988  12.661  69.638  1.00  0.00    -0.352 C  
HETATM   23  O   UNL     1      -9.134   7.446  69.110  1.00  0.00    -0.135 OA 
HETATM   24  C   UNL     1     -12.034  11.185  69.261  1.00  0.00    -0.421 C  
ENDROOT
BRANCH   4  25
HETATM   25  C   UNL     1      -9.536  16.493  66.170  1.00  0.00    -0.315 C  
HETATM   26  O   UNL     1     -10.195  16.945  65.218  1.00  0.00    -0.607 OA 
BRANCH  25  27
HETATM   27  C   UNL     1      -8.025  16.840  66.138  1.00  0.00    -0.238 C  
BRANCH  27  28
HETATM   28  O   UNL     1      -7.874  18.287  65.944  1.00  0.00    -0.491 OA 
BRANCH  28  29
HETATM   29  C   UNL     1      -6.681  18.793  65.500  1.00  0.00    -0.250 C  
HETATM   30  O   UNL     1      -6.475  19.112  64.333  1.00  0.00    -0.421 OA 
BRANCH  29  31
HETATM   31  C   UNL     1      -5.653  18.878  66.661  1.00  0.00    -0.153 C  
BRANCH  31  32
HETATM   32  N   UNL     1      -6.238  18.755  68.039  1.00  0.00    -0.202 NA 
BRANCH  32  33
HETATM   33  C   UNL     1      -5.465  17.856  68.909  1.00  0.00    -0.182 C  
HETATM   34  C   UNL     1      -5.594  18.100  70.410  1.00  0.00    -0.220 C  
ENDBRANCH  32  33
BRANCH  32  35
HETATM   35  C   UNL     1      -6.448  20.096  68.632  1.00  0.00    -0.306 C  
HETATM   36  C   UNL     1      -5.742  21.251  67.912  1.00  0.00    -0.394 C  
ENDBRANCH  32  35
ENDBRANCH  31  32
ENDBRANCH  29  31
ENDBRANCH  28  29
ENDBRANCH  27  28
ENDBRANCH  25  27
ENDBRANCH   4  25
TORSDOF 8
ENDMDL
MODEL       49
REMARK 921   NORMALIZED FREE ENERGY PREDICTED BY IDOCK:   -5.28 KCAL/MOL
REMARK 922        TOTAL FREE ENERGY PREDICTED BY IDOCK:   -7.90 KCAL/MOL
REMARK 923 INTER-LIGAND FREE ENERGY PREDICTED BY IDOCK:   -7.26 KCAL/MOL
REMARK 924 INTRA-LIGAND FREE ENERGY PREDICTED BY IDOCK:   -0.64 KCAL/MOL
REMARK 927      BINDING AFFINITY PREDICTED BY RF-SCORE:    0.00 PKD
ROOT
HETATM    1  C   UNL     1     -10.800   5.363  69.786  1.00  0.00    -0.180 C  
HETATM    2  C   UNL     1      -9.832   4.413  70.187  1.00  0.00    -0.288 C  
HETATM    3  C   UNL     1      -9.469   5.832  70.505  1.00  0.00    -0.201 C  
HETATM    4  C   UNL     1     -10.939   7.276  70.361  1.00  0.00    -0.252 C  
HETATM    5  C   UNL     1      -8.505   6.516  65.782  1.00  0.00    -0.149 C  
HETATM    6  O   UNL     1     -12.324   6.908  69.983  1.00  0.00    -0.619 OA 
HETATM    7  C   UNL     1     -10.538   6.460  71.367  1.00  0.00    -0.274 C  
HETATM    8  C   UNL     1      -9.091   7.744  71.238  1.00  0.00    -0.153 C  
HETATM    9  H   UNL     1     -13.000   7.572  69.916  1.00  0.00     0.000 HD 
HETATM   10  C   UNL     1      -7.657   6.441  64.737  1.00  0.00    -0.098 C  
HETATM   11  C   UNL     1      -6.551   7.413  64.678  1.00  0.00    -0.040 C  
HETATM   12  C   UNL     1     -11.213   5.932  72.619  1.00  0.00    -0.335 C  
HETATM   13  C   UNL     1      -8.835   8.218  69.545  1.00  0.00    -0.149 C  
HETATM   14  C   UNL     1      -5.893   7.683  65.991  1.00  0.00    -0.037 C  
HETATM   15  C   UNL     1      -9.268   8.776  66.306  1.00  0.00    -0.261 C  
HETATM   16  O   UNL     1      -9.805   9.251  69.295  1.00  0.00    -0.164 OA 
HETATM   17  C   UNL     1      -8.890   7.097  68.293  1.00  0.00    -0.127 C  
HETATM   18  C   UNL     1      -8.405   7.625  66.857  1.00  0.00    -0.124 C  
HETATM   19  C   UNL     1      -6.920   8.160  67.014  1.00  0.00    -0.074 C  
HETATM   20  H   UNL     1      -9.668   9.504  68.389  1.00  0.00     0.000 HD 
HETATM   21  C   UNL     1     -10.241   6.137  68.241  1.00  0.00    -0.207 C  
HETATM   22  C   UNL     1     -10.022   5.036  67.185  1.00  0.00    -0.226 C  
HETATM   23  O   UNL     1      -6.195   7.905  63.615  1.00  0.00    -0.061 OA 
HETATM   24  C   UNL     1      -9.700   5.594  65.804  1.00  0.00     0.052 C  
ENDROOT
BRANCH   4  25
HETATM   25  C   UNL     1     -11.549   8.510  71.464  1.00  0.00    -0.292 C  
HETATM   26  O   UNL     1     -11.141   8.700  72.623  1.00  0.00    -0.260 OA 
BRANCH  25  27
HETATM   27  C   UNL     1     -12.716   9.434  71.027  1.00  0.00    -0.201 C  
BRANCH  27  28
HETATM   28  O   UNL     1     -12.193  10.464  70.123  1.00  0.00    -0.273 OA 
BRANCH  28  29
HETATM   29  C   UNL     1     -12.212  11.779  70.507  1.00  0.00    -0.347 C  
HETATM   30  O   UNL     1     -12.589  12.155  71.613  1.00  0.00    -0.225 OA 
BRANCH  29  31
HETATM   31  C   UNL     1     -11.716  12.696  69.355  1.00  0.00    -0.325 C  
BRANCH  31  32
HETATM   32  N   UNL     1     -10.753  12.053  68.399  1.00  0.00    -0.220 NA 
BRANCH  32  33
HETATM   33  C   UNL     1     -11.362  11.739  67.098  1.00  0.00    -0.322 C  
HETATM   34  C   UNL     1     -11.992  12.912  66.352  1.00  0.00    -0.462 C  
ENDBRANCH  32  33
BRANCH  32  35
HETATM   35  C   UNL     1      -9.521  12.867  68.282  1.00  0.00    -0.206 C  
HETATM   36  C   UNL     1      -8.338  12.173  67.596  1.00  0.00    -0.163 C  
ENDBRANCH  32  35
ENDBRANCH  31  32
ENDBRANCH  29  31
ENDBRANCH  28  29
ENDBRANCH  27  28
ENDBRANCH  25  27
ENDBRANCH   4  25
TORSDOF 8
ENDMDL
MODEL       50
REMARK 921   NORMALIZED FREE ENERGY PREDICTED BY IDOCK:   -5.28 KCAL/MOL
REMARK 922        TOTAL FREE ENERGY PREDICTED BY IDOCK:   -7.90 KCAL/MOL
REMARK 923 INTER-LIGAND FREE ENERGY PREDICTED BY IDOCK:   -6.76 KCAL/MOL
REMARK 924 INTRA-LIGAND FREE ENERGY PREDICTED BY IDOCK:   -1.14 KCAL/MOL
REMARK 927      BINDING AFFINITY PREDICTED BY RF-SCORE:    0.00 PKD
ROOT
HETATM    1  C   UNL     1      -7.679   7.979  71.094  1.00  0.00    -0.087 C  
HETATM    2  C   UNL     1      -7.240   8.807  72.153  1.00  0.00     0.000 C  
HETATM    3  C   UNL     1      -8.683   8.413  72.239  1.00  0.00    -0.277 C  
HETATM    4  C   UNL     1      -9.359   6.893  71.014  1.00  0.00    -0.156 C  
HETATM    5  C   UNL     1      -9.633  11.564  68.651  1.00  0.00    -0.159 C  
HETATM    6  O   UNL     1      -8.429   6.193  70.096  1.00  0.00    -0.128 OA 
HETATM    7  C   UNL     1      -8.810   6.908  72.253  1.00  0.00    -0.141 C  
HETATM    8  C   UNL     1     -10.586   7.626  72.550  1.00  0.00    -0.336 C  
HETATM    9  H   UNL     1      -8.740   5.494  69.533  1.00  0.00     0.000 HD 
HETATM   10  C   UNL     1      -9.910  12.815  68.235  1.00  0.00    -0.224 C  
HETATM   11  C   UNL     1     -11.259  13.345  68.497  1.00  0.00    -0.283 C  
HETATM   12  C   UNL     1      -8.065   5.877  73.081  1.00  0.00    -0.116 C  
HETATM   13  C   UNL     1     -11.095   8.610  71.161  1.00  0.00    -0.266 C  
HETATM   14  C   UNL     1     -11.807  13.007  69.844  1.00  0.00    -0.377 C  
HETATM   15  C   UNL     1     -11.360   9.919  68.127  1.00  0.00    -0.027 C  
HETATM   16  O   UNL     1     -11.611   7.667  70.204  1.00  0.00    -0.472 OA 
HETATM   17  C   UNL     1     -10.037   9.660  70.384  1.00  0.00    -0.336 C  
HETATM   18  C   UNL     1     -10.696  10.652  69.309  1.00  0.00    -0.275 C  
HETATM   19  C   UNL     1     -11.817  11.494  70.051  1.00  0.00    -0.435 C  
HETATM   20  H   UNL     1     -11.883   8.194  69.461  1.00  0.00     0.000 HD 
HETATM   21  C   UNL     1      -8.592   9.004  69.903  1.00  0.00    -0.143 C  
HETATM   22  C   UNL     1      -7.671  10.143  69.420  1.00  0.00    -0.138 C  
HETATM   23  O   UNL     1     -11.838  14.043  67.673  1.00  0.00    -0.357 OA 
HETATM   24  C   UNL     1      -8.290  10.971  68.301  1.00  0.00    -0.133 C  
ENDROOT
BRANCH   4  25
HETATM   25  C   UNL     1     -10.234   5.389  71.305  1.00  0.00    -0.223 C  
HETATM   26  O   UNL     1     -11.215   5.265  72.058  1.00  0.00    -0.153 OA 
BRANCH  25  27
HETATM   27  C   UNL     1      -9.762   4.074  70.631  1.00  0.00    -0.196 C  
BRANCH  27  28
HETATM   28  O   UNL     1     -10.031   4.155  69.190  1.00  0.00    -0.118 OA 
BRANCH  28  29
HETATM   29  C   UNL     1      -9.305   3.388  68.319  1.00  0.00    -0.180 C  
HETATM   30  O   UNL     1      -8.939   2.243  68.569  1.00  0.00    -0.094 OA 
BRANCH  29  31
HETATM   31  C   UNL     1      -9.007   4.172  67.012  1.00  0.00    -0.127 C  
BRANCH  31  32
HETATM   32  N   UNL     1      -8.561   5.592  67.209  1.00  0.00    -0.110 NA 
BRANCH  32  33
HETATM   33  C   UNL     1      -7.139   5.795  66.889  1.00  0.00    -0.070 C  
HETATM   34  C   UNL     1      -6.536   7.126  67.326  1.00  0.00    -0.059 C  
ENDBRANCH  32  33
BRANCH  32  35
HETATM   35  C   UNL     1      -9.457   6.521  66.483  1.00  0.00    -0.154 C  
HETATM   36  C   UNL     1     -10.929   6.482  66.910  1.00  0.00    -0.408 C  
ENDBRANCH  32  35
ENDBRANCH  31  32
ENDBRANCH  29  31
ENDBRANCH  28  29
ENDBRANCH  27  28
ENDBRANCH  25  27
ENDBRANCH   4  25
TORSDOF 8
ENDMDL
MODEL       51
REMARK 921   NORMALIZED FREE ENERGY PREDICTED BY IDOCK:   -5.21 KCAL/MOL
REMARK 922        TOTAL FREE ENERGY PREDICTED BY IDOCK:   -7.79 KCAL/MOL
REMARK 923 INTER-LIGAND FREE ENERGY PREDICTED BY IDOCK:   -7.88 KCAL/MOL
REMARK 924 INTRA-LIGAND FREE ENERGY PREDICTED BY IDOCK:    0.08 KCAL/MOL
REMARK 927      BINDING AFFINITY PREDICTED BY RF-SCORE:    0.00 PKD
ROOT
HETATM    1  C   UNL     1     -10.818  13.136  65.426  1.00  0.00    -0.299 C  
HETATM    2  C   UNL     1     -11.957  12.384  65.795  1.00  0.00    -0.437 C  
HETATM    3  C   UNL     1     -10.777  12.195  66.700  1.00  0.00    -0.281 C  
HETATM    4  C   UNL     1      -9.199  13.519  66.541  1.00  0.00    -0.173 C  
HETATM    5  C   UNL     1      -8.698   9.489  63.227  1.00  0.00    -0.238 C  
HETATM    6  O   UNL     1      -9.251  14.643  65.576  1.00  0.00    -0.437 OA 
HETATM    7  C   UNL     1     -10.343  13.526  67.269  1.00  0.00    -0.241 C  
HETATM    8  C   UNL     1      -9.274  12.163  68.140  1.00  0.00    -0.197 C  
HETATM    9  H   UNL     1      -8.525  15.252  65.503  1.00  0.00     0.000 HD 
HETATM   10  C   UNL     1      -8.527   8.302  62.613  1.00  0.00    -0.072 C  
HETATM   11  C   UNL     1      -7.732   7.275  63.311  1.00  0.00    -0.120 C  
HETATM   12  C   UNL     1     -11.168  14.624  67.913  1.00  0.00    -0.318 C  
HETATM   13  C   UNL     1      -8.304  11.279  66.943  1.00  0.00    -0.155 C  
HETATM   14  C   UNL     1      -7.991   7.181  64.778  1.00  0.00    -0.122 C  
HETATM   15  C   UNL     1      -6.662  10.433  64.190  1.00  0.00     0.006 C  
HETATM   16  O   UNL     1      -7.137  12.093  66.732  1.00  0.00    -0.363 OA 
HETATM   17  C   UNL     1      -8.934  10.826  65.452  1.00  0.00    -0.211 C  
HETATM   18  C   UNL     1      -8.027   9.832  64.579  1.00  0.00    -0.144 C  
HETATM   19  C   UNL     1      -7.757   8.533  65.448  1.00  0.00    -0.095 C  
HETATM   20  H   UNL     1      -6.618  11.621  66.092  1.00  0.00     0.000 HD 
HETATM   21  C   UNL     1      -9.652  12.035  64.574  1.00  0.00     0.003 C  
HETATM   22  C   UNL     1     -10.362  11.406  63.358  1.00  0.00    -0.458 C  
HETATM   23  O   UNL     1      -6.965   6.544  62.698  1.00  0.00    -0.038 OA 
HETATM   24  C   UNL     1      -9.423  10.584  62.483  1.00  0.00    -0.288 C  
ENDROOT
BRANCH   4  25
HETATM   25  C   UNL     1      -8.333  14.529  67.699  1.00  0.00    -0.180 C  
HETATM   26  O   UNL     1      -8.304  14.346  68.928  1.00  0.00    -0.148 OA 
BRANCH  25  27
HETATM   27  C   UNL     1      -7.564  15.785  67.211  1.00  0.00    -0.210 C  
BRANCH  27  28
HETATM   28  O   UNL     1      -8.251  16.984  67.706  1.00  0.00    -0.187 OA 
BRANCH  28  29
HETATM   29  C   UNL     1      -7.562  17.901  68.455  1.00  0.00    -0.282 C  
HETATM   30  O   UNL     1      -6.904  17.606  69.448  1.00  0.00    -0.232 OA 
BRANCH  29  31
HETATM   31  C   UNL     1      -7.752  19.332  67.883  1.00  0.00    -0.283 C  
BRANCH  31  32
HETATM   32  N   UNL     1      -8.290  19.392  66.482  1.00  0.00    -0.312 NA 
BRANCH  32  33
HETATM   33  C   UNL     1      -9.584  20.086  66.395  1.00  0.00    -0.421 C  
HETATM   34  C   UNL     1     -10.757  19.257  65.881  1.00  0.00    -0.463 C  
ENDBRANCH  32  33
BRANCH  32  35
HETATM   35  C   UNL     1      -7.271  19.946  65.561  1.00  0.00    -0.281 C  
HETATM   36  C   UNL     1      -5.923  20.292  66.204  1.00  0.00    -0.202 C  
ENDBRANCH  32  35
ENDBRANCH  31  32
ENDBRANCH  29  31
ENDBRANCH  28  29
ENDBRANCH  27  28
ENDBRANCH  25  27
ENDBRANCH   4  25
TORSDOF 8
ENDMDL
MODEL       52
REMARK 921   NORMALIZED FREE ENERGY PREDICTED BY IDOCK:   -5.21 KCAL/MOL
REMARK 922        TOTAL FREE ENERGY PREDICTED BY IDOCK:   -7.79 KCAL/MOL
REMARK 923 INTER-LIGAND FREE ENERGY PREDICTED BY IDOCK:   -7.55 KCAL/MOL
REMARK 924 INTRA-LIGAND FREE ENERGY PREDICTED BY IDOCK:   -0.24 KCAL/MOL
REMARK 927      BINDING AFFINITY PREDICTED BY RF-SCORE:    0.00 PKD
ROOT
HETATM    1  C   UNL     1     -10.895  13.520  69.270  1.00  0.00    -0.107 C  
HETATM    2  C   UNL     1     -12.220  13.873  69.617  1.00  0.00    -0.374 C  
HETATM    3  C   UNL     1     -11.979  13.765  68.141  1.00  0.00    -0.394 C  
HETATM    4  C   UNL     1     -10.234  12.866  67.497  1.00  0.00    -0.213 C  
HETATM    5  C   UNL     1      -9.580  17.997  68.343  1.00  0.00    -0.338 C  
HETATM    6  O   UNL     1      -9.263  12.316  68.473  1.00  0.00    -0.311 OA 
HETATM    7  C   UNL     1     -11.465  12.385  67.801  1.00  0.00    -0.383 C  
HETATM    8  C   UNL     1     -11.754  13.311  66.122  1.00  0.00    -0.416 C  
HETATM    9  H   UNL     1      -8.460  11.903  68.177  1.00  0.00     0.000 HD 
HETATM   10  C   UNL     1      -9.581  19.344  68.332  1.00  0.00    -0.460 C  
HETATM   11  C   UNL     1      -9.829  20.021  67.047  1.00  0.00    -0.430 C  
HETATM   12  C   UNL     1     -11.983  11.023  68.221  1.00  0.00    -0.113 C  
HETATM   13  C   UNL     1     -10.727  14.757  66.028  1.00  0.00    -0.312 C  
HETATM   14  C   UNL     1     -10.898  19.396  66.213  1.00  0.00    -0.414 C  
HETATM   15  C   UNL     1      -8.309  16.970  66.528  1.00  0.00    -0.313 C  
HETATM   16  O   UNL     1      -9.449  14.280  65.572  1.00  0.00    -0.534 OA 
HETATM   17  C   UNL     1     -10.496  15.767  67.353  1.00  0.00    -0.297 C  
HETATM   18  C   UNL     1      -9.745  17.154  67.056  1.00  0.00    -0.265 C  
HETATM   19  C   UNL     1     -10.577  17.927  65.948  1.00  0.00    -0.216 C  
HETATM   20  H   UNL     1      -8.900  15.054  65.523  1.00  0.00     0.000 HD 
HETATM   21  C   UNL     1     -10.015  15.022  68.753  1.00  0.00    -0.228 C  
HETATM   22  C   UNL     1     -10.071  16.050  69.902  1.00  0.00    -0.142 C  
HETATM   23  O   UNL     1      -9.223  21.040  66.739  1.00  0.00     0.007 OA 
HETATM   24  C   UNL     1      -9.228  17.290  69.629  1.00  0.00     0.719 C  
ENDROOT
BRANCH   4  25
HETATM   25  C   UNL     1      -9.881  11.549  66.377  1.00  0.00    -0.205 C  
HETATM   26  O   UNL     1     -10.523  11.297  65.343  1.00  0.00    -0.259 OA 
BRANCH  25  27
HETATM   27  C   UNL     1      -8.717  10.567  66.676  1.00  0.00    -0.133 C  
BRANCH  27  28
HETATM   28  O   UNL     1      -9.251   9.400  67.388  1.00  0.00    -0.126 OA 
BRANCH  28  29
HETATM   29  C   UNL     1      -8.685   9.010  68.573  1.00  0.00    -0.133 C  
HETATM   30  O   UNL     1      -8.611   9.737  69.559  1.00  0.00    -0.148 OA 
BRANCH  29  31
HETATM   31  C   UNL     1      -8.150   7.555  68.474  1.00  0.00    -0.125 C  
BRANCH  31  32
HETATM   32  N   UNL     1      -8.750   6.588  69.455  1.00  0.00    -0.133 NA 
BRANCH  32  33
HETATM   33  C   UNL     1      -9.614   5.585  68.813  1.00  0.00    -0.135 C  
HETATM   34  C   UNL     1     -10.835   6.126  68.074  1.00  0.00    -0.398 C  
ENDBRANCH  32  33
BRANCH  32  35
HETATM   35  C   UNL     1      -7.693   5.987  70.299  1.00  0.00    -0.097 C  
HETATM   36  C   UNL     1      -8.150   5.508  71.683  1.00  0.00    -0.118 C  
ENDBRANCH  32  35
ENDBRANCH  31  32
ENDBRANCH  29  31
ENDBRANCH  28  29
ENDBRANCH  27  28
ENDBRANCH  25  27
ENDBRANCH   4  25
TORSDOF 8
ENDMDL
MODEL       53
REMARK 921   NORMALIZED FREE ENERGY PREDICTED BY IDOCK:   -5.20 KCAL/MOL
REMARK 922        TOTAL FREE ENERGY PREDICTED BY IDOCK:   -7.78 KCAL/MOL
REMARK 923 INTER-LIGAND FREE ENERGY PREDICTED BY IDOCK:   -8.71 KCAL/MOL
REMARK 924 INTRA-LIGAND FREE ENERGY PREDICTED BY IDOCK:    0.93 KCAL/MOL
REMARK 927      BINDING AFFINITY PREDICTED BY RF-SCORE:    0.00 PKD
ROOT
HETATM    1  C   UNL     1      -9.082  11.092  64.612  1.00  0.00    -0.082 C  
HETATM    2  C   UNL     1     -10.140  10.896  63.695  1.00  0.00    -0.414 C  
HETATM    3  C   UNL     1     -10.566  10.905  65.132  1.00  0.00    -0.268 C  
HETATM    4  C   UNL     1      -9.224  11.585  66.547  1.00  0.00    -0.194 C  
HETATM    5  C   UNL     1      -8.634   6.462  65.610  1.00  0.00    -0.138 C  
HETATM    6  O   UNL     1      -7.886  12.078  66.144  1.00  0.00    -0.339 OA 
HETATM    7  C   UNL     1     -10.158  12.205  65.785  1.00  0.00    -0.272 C  
HETATM    8  C   UNL     1     -11.222  11.233  67.080  1.00  0.00    -0.344 C  
HETATM    9  H   UNL     1      -7.268  12.391  66.795  1.00  0.00     0.000 HD 
HETATM   10  C   UNL     1      -8.735   5.123  65.498  1.00  0.00    -0.147 C  
HETATM   11  C   UNL     1      -9.572   4.413  66.480  1.00  0.00    -0.197 C  
HETATM   12  C   UNL     1     -10.339  13.634  65.306  1.00  0.00    -0.362 C  
HETATM   13  C   UNL     1     -10.448   9.684  67.479  1.00  0.00    -0.262 C  
HETATM   14  C   UNL     1     -10.851   5.104  66.820  1.00  0.00    -0.047 C  
HETATM   15  C   UNL     1      -8.222   7.260  67.880  1.00  0.00    -0.119 C  
HETATM   16  O   UNL     1      -9.471  10.003  68.486  1.00  0.00    -0.142 OA 
HETATM   17  C   UNL     1      -9.730   8.723  66.301  1.00  0.00    -0.342 C  
HETATM   18  C   UNL     1      -9.288   7.253  66.768  1.00  0.00    -0.203 C  
HETATM   19  C   UNL     1     -10.575   6.516  67.330  1.00  0.00    -0.383 C  
HETATM   20  H   UNL     1      -9.056   9.174  68.699  1.00  0.00     0.000 HD 
HETATM   21  C   UNL     1      -8.629   9.483  65.321  1.00  0.00    -0.175 C  
HETATM   22  C   UNL     1      -8.247   8.525  64.175  1.00  0.00    -0.141 C  
HETATM   23  O   UNL     1      -9.238   3.323  66.927  1.00  0.00    -0.162 OA 
HETATM   24  C   UNL     1      -7.702   7.192  64.673  1.00  0.00    -0.112 C  
ENDROOT
BRANCH   4  25
HETATM   25  C   UNL     1      -9.307  12.801  67.823  1.00  0.00    -0.199 C  
HETATM   26  O   UNL     1      -8.349  13.175  68.520  1.00  0.00    -0.141 OA 
BRANCH  25  27
HETATM   27  C   UNL     1     -10.666  13.460  68.179  1.00  0.00    -0.253 C  
BRANCH  27  28
HETATM   28  O   UNL     1     -10.504  14.250  69.405  1.00  0.00    -0.160 OA 
BRANCH  28  29
HETATM   29  C   UNL     1     -11.603  14.802  70.009  1.00  0.00    -0.286 C  
HETATM   30  O   UNL     1     -11.680  15.987  70.318  1.00  0.00    -0.338 OA 
BRANCH  29  31
HETATM   31  C   UNL     1     -12.695  13.725  70.253  1.00  0.00    -0.144 C  
BRANCH  31  32
HETATM   32  N   UNL     1     -13.132  13.574  71.682  1.00  0.00    -0.372 NA 
BRANCH  32  33
HETATM   33  C   UNL     1     -14.344  14.346  71.994  1.00  0.00    -0.553 C  
HETATM   34  C   UNL     1     -14.123  15.705  72.650  1.00  0.00    -0.527 C  
ENDBRANCH  32  33
BRANCH  32  35
HETATM   35  C   UNL     1     -13.250  12.141  72.037  1.00  0.00    -0.391 C  
HETATM   36  C   UNL     1     -12.421  11.180  71.176  1.00  0.00    -0.498 C  
ENDBRANCH  32  35
ENDBRANCH  31  32
ENDBRANCH  29  31
ENDBRANCH  28  29
ENDBRANCH  27  28
ENDBRANCH  25  27
ENDBRANCH   4  25
TORSDOF 8
ENDMDL
MODEL       54
REMARK 921   NORMALIZED FREE ENERGY PREDICTED BY IDOCK:   -5.18 KCAL/MOL
REMARK 922        TOTAL FREE ENERGY PREDICTED BY IDOCK:   -7.75 KCAL/MOL
REMARK 923 INTER-LIGAND FREE ENERGY PREDICTED BY IDOCK:   -7.69 KCAL/MOL
REMARK 924 INTRA-LIGAND FREE ENERGY PREDICTED BY IDOCK:   -0.06 KCAL/MOL
REMARK 927      BINDING AFFINITY PREDICTED BY RF-SCORE:    0.00 PKD
ROOT
HETATM    1  C   UNL     1     -11.359   7.559  71.352  1.00  0.00    -0.284 C  
HETATM    2  C   UNL     1     -11.484   7.922  72.713  1.00  0.00    -0.428 C  
HETATM    3  C   UNL     1     -10.246   8.444  72.050  1.00  0.00    -0.364 C  
HETATM    4  C   UNL     1     -10.125   8.353  69.990  1.00  0.00    -0.192 C  
HETATM    5  C   UNL     1      -8.394   3.945  72.235  1.00  0.00    -0.093 C  
HETATM    6  O   UNL     1     -11.250   7.813  69.190  1.00  0.00    -0.425 OA 
HETATM    7  C   UNL     1     -10.615   9.281  70.848  1.00  0.00    -0.366 C  
HETATM    8  C   UNL     1      -8.697   9.439  71.078  1.00  0.00    -0.064 C  
HETATM    9  H   UNL     1     -11.194   7.771  68.243  1.00  0.00     0.000 HD 
HETATM   10  C   UNL     1      -7.735   2.977  72.901  1.00  0.00    -0.051 C  
HETATM   11  C   UNL     1      -6.281   3.136  73.084  1.00  0.00    -0.009 C  
HETATM   12  C   UNL     1     -11.638  10.394  70.715  1.00  0.00    -0.450 C  
HETATM   13  C   UNL     1      -7.923   7.847  70.925  1.00  0.00    -0.093 C  
HETATM   14  C   UNL     1      -5.847   4.524  73.420  1.00  0.00    -0.009 C  
HETATM   15  C   UNL     1      -7.307   4.677  70.175  1.00  0.00    -0.050 C  
HETATM   16  O   UNL     1      -7.761   7.644  69.510  1.00  0.00    -0.098 OA 
HETATM   17  C   UNL     1      -8.597   6.465  71.606  1.00  0.00    -0.129 C  
HETATM   18  C   UNL     1      -7.673   5.154  71.594  1.00  0.00    -0.107 C  
HETATM   19  C   UNL     1      -6.325   5.505  72.353  1.00  0.00    -0.051 C  
HETATM   20  H   UNL     1      -7.347   6.792  69.429  1.00  0.00     0.000 HD 
HETATM   21  C   UNL     1     -10.186   6.177  71.230  1.00  0.00    -0.252 C  
HETATM   22  C   UNL     1     -10.696   5.015  72.106  1.00  0.00    -0.227 C  
HETATM   23  O   UNL     1      -5.524   2.176  73.005  1.00  0.00     0.000 OA 
HETATM   24  C   UNL     1      -9.864   3.748  71.953  1.00  0.00    -0.248 C  
ENDROOT
BRANCH   4  25
HETATM   25  C   UNL     1      -9.781   9.544  68.734  1.00  0.00    -0.159 C  
HETATM   26  O   UNL     1      -8.950  10.463  68.827  1.00  0.00    -0.141 OA 
BRANCH  25  27
HETATM   27  C   UNL     1     -10.579   9.521  67.404  1.00  0.00    -0.271 C  
BRANCH  27  28
HETATM   28  O   UNL     1     -11.310  10.786  67.267  1.00  0.00    -0.397 OA 
BRANCH  28  29
HETATM   29  C   UNL     1     -10.893  11.716  66.351  1.00  0.00    -0.287 C  
HETATM   30  O   UNL     1      -9.764  11.733  65.870  1.00  0.00    -0.227 OA 
BRANCH  29  31
HETATM   31  C   UNL     1     -12.029  12.729  66.040  1.00  0.00    -0.432 C  
BRANCH  31  32
HETATM   32  N   UNL     1     -11.815  14.112  66.583  1.00  0.00    -0.406 NA 
BRANCH  32  33
HETATM   33  C   UNL     1     -11.150  14.115  67.895  1.00  0.00    -0.268 C  
HETATM   34  C   UNL     1     -12.056  13.914  69.106  1.00  0.00    -0.377 C  
ENDBRANCH  32  33
BRANCH  32  35
HETATM   35  C   UNL     1     -11.126  14.959  65.582  1.00  0.00    -0.348 C  
HETATM   36  C   UNL     1      -9.674  15.323  65.918  1.00  0.00    -0.390 C  
ENDBRANCH  32  35
ENDBRANCH  31  32
ENDBRANCH  29  31
ENDBRANCH  28  29
ENDBRANCH  27  28
ENDBRANCH  25  27
ENDBRANCH   4  25
TORSDOF 8
ENDMDL
MODEL       55
REMARK 921   NORMALIZED FREE ENERGY PREDICTED BY IDOCK:   -5.18 KCAL/MOL
REMARK 922        TOTAL FREE ENERGY PREDICTED BY IDOCK:   -7.75 KCAL/MOL
REMARK 923 INTER-LIGAND FREE ENERGY PREDICTED BY IDOCK:   -6.67 KCAL/MOL
REMARK 924 INTRA-LIGAND FREE ENERGY PREDICTED BY IDOCK:   -1.08 KCAL/MOL
REMARK 927      BINDING AFFINITY PREDICTED BY RF-SCORE:    0.00 PKD
ROOT
HETATM    1  C   UNL     1      -7.522   8.344  70.633  1.00  0.00    -0.065 C  
HETATM    2  C   UNL     1      -7.200   9.070  71.803  1.00  0.00     0.049 C  
HETATM    3  C   UNL     1      -8.607   8.552  71.768  1.00  0.00    -0.254 C  
HETATM    4  C   UNL     1      -9.097   7.143  70.339  1.00  0.00    -0.156 C  
HETATM    5  C   UNL     1      -9.676  12.028  68.530  1.00  0.00    -0.165 C  
HETATM    6  O   UNL     1      -8.072   6.637  69.395  1.00  0.00    -0.115 OA 
HETATM    7  C   UNL     1      -8.603   7.051  71.598  1.00  0.00    -0.116 C  
HETATM    8  C   UNL     1     -10.445   7.582  71.885  1.00  0.00    -0.235 C  
HETATM    9  H   UNL     1      -8.297   5.989  68.738  1.00  0.00     0.000 HD 
HETATM   10  C   UNL     1     -10.042  13.294  68.250  1.00  0.00    -0.250 C  
HETATM   11  C   UNL     1     -11.442  13.678  68.503  1.00  0.00    -0.312 C  
HETATM   12  C   UNL     1      -7.807   5.991  72.336  1.00  0.00    -0.102 C  
HETATM   13  C   UNL     1     -10.979   8.682  70.597  1.00  0.00    -0.240 C  
HETATM   14  C   UNL     1     -12.014  13.135  69.770  1.00  0.00    -0.382 C  
HETATM   15  C   UNL     1     -11.230  10.324  67.728  1.00  0.00    -0.262 C  
HETATM   16  O   UNL     1     -11.371   7.824  69.510  1.00  0.00    -0.451 OA 
HETATM   17  C   UNL     1      -9.985   9.901  70.004  1.00  0.00    -0.302 C  
HETATM   18  C   UNL     1     -10.682  10.960  69.020  1.00  0.00    -0.262 C  
HETATM   19  C   UNL     1     -11.901  11.612  69.797  1.00  0.00    -0.428 C  
HETATM   20  H   UNL     1     -11.656   8.413  68.821  1.00  0.00     0.000 HD 
HETATM   21  C   UNL     1      -8.469   9.428  69.526  1.00  0.00    -0.152 C  
HETATM   22  C   UNL     1      -7.631  10.688  69.228  1.00  0.00    -0.138 C  
HETATM   23  O   UNL     1     -12.044  14.421  67.738  1.00  0.00    -0.356 OA 
HETATM   24  C   UNL     1      -8.273  11.594  68.183  1.00  0.00    -0.151 C  
ENDROOT
BRANCH   4  25
HETATM   25  C   UNL     1      -9.849   5.549  70.406  1.00  0.00    -0.197 C  
HETATM   26  O   UNL     1     -10.366   5.042  71.416  1.00  0.00    -0.209 OA 
BRANCH  25  27
HETATM   27  C   UNL     1      -9.858   4.642  69.147  1.00  0.00    -0.172 C  
BRANCH  27  28
HETATM   28  O   UNL     1     -10.409   5.401  68.018  1.00  0.00    -0.183 OA 
BRANCH  28  29
HETATM   29  C   UNL     1     -10.157   4.991  66.736  1.00  0.00    -0.239 C  
HETATM   30  O   UNL     1     -11.028   4.879  65.879  1.00  0.00    -0.248 OA 
BRANCH  29  31
HETATM   31  C   UNL     1      -8.647   4.680  66.544  1.00  0.00    -0.112 C  
BRANCH  31  32
HETATM   32  N   UNL     1      -7.737   5.872  66.627  1.00  0.00    -0.099 NA 
BRANCH  32  33
HETATM   33  C   UNL     1      -6.313   5.507  66.574  1.00  0.00    -0.039 C  
HETATM   34  C   UNL     1      -5.430   6.380  65.686  1.00  0.00    -0.017 C  
ENDBRANCH  32  33
BRANCH  32  35
HETATM   35  C   UNL     1      -8.115   6.883  65.614  1.00  0.00    -0.129 C  
HETATM   36  C   UNL     1      -8.690   8.190  66.173  1.00  0.00    -0.179 C  
ENDBRANCH  32  35
ENDBRANCH  31  32
ENDBRANCH  29  31
ENDBRANCH  28  29
ENDBRANCH  27  28
ENDBRANCH  25  27
ENDBRANCH   4  25
TORSDOF 8
ENDMDL
MODEL       56
REMARK 921   NORMALIZED FREE ENERGY PREDICTED BY IDOCK:   -5.13 KCAL/MOL
REMARK 922        TOTAL FREE ENERGY PREDICTED BY IDOCK:   -7.68 KCAL/MOL
REMARK 923 INTER-LIGAND FREE ENERGY PREDICTED BY IDOCK:   -7.53 KCAL/MOL
REMARK 924 INTRA-LIGAND FREE ENERGY PREDICTED BY IDOCK:   -0.15 KCAL/MOL
REMARK 927      BINDING AFFINITY PREDICTED BY RF-SCORE:    0.00 PKD
ROOT
HETATM    1  C   UNL     1      -9.357   9.348  64.891  1.00  0.00    -0.218 C  
HETATM    2  C   UNL     1      -8.194   9.606  64.129  1.00  0.00    -0.158 C  
HETATM    3  C   UNL     1      -8.067   9.955  65.581  1.00  0.00    -0.128 C  
HETATM    4  C   UNL     1      -9.511   9.262  66.885  1.00  0.00    -0.161 C  
HETATM    5  C   UNL     1     -10.854  13.862  64.762  1.00  0.00    -0.430 C  
HETATM    6  O   UNL     1     -10.626   8.416  66.397  1.00  0.00    -0.314 OA 
HETATM    7  C   UNL     1      -8.346   8.739  66.432  1.00  0.00    -0.117 C  
HETATM    8  C   UNL     1      -7.761  10.145  67.632  1.00  0.00    -0.091 C  
HETATM    9  H   UNL     1     -11.291   8.097  66.997  1.00  0.00     0.000 HD 
HETATM   10  C   UNL     1     -10.985  15.146  64.375  1.00  0.00    -0.044 C  
HETATM   11  C   UNL     1     -10.508  16.194  65.295  1.00  0.00    -0.331 C  
HETATM   12  C   UNL     1      -7.808   7.324  66.314  1.00  0.00    -0.106 C  
HETATM   13  C   UNL     1      -8.875  11.527  67.554  1.00  0.00    -0.155 C  
HETATM   14  C   UNL     1      -9.215  15.881  65.973  1.00  0.00    -0.372 C  
HETATM   15  C   UNL     1     -11.550  13.421  67.060  1.00  0.00    -0.396 C  
HETATM   16  O   UNL     1      -9.955  11.187  68.442  1.00  0.00    -0.173 OA 
HETATM   17  C   UNL     1      -9.512  12.070  66.096  1.00  0.00    -0.241 C  
HETATM   18  C   UNL     1     -10.306  13.464  66.153  1.00  0.00    -0.295 C  
HETATM   19  C   UNL     1      -9.317  14.560  66.732  1.00  0.00    -0.278 C  
HETATM   20  H   UNL     1     -10.551  11.926  68.400  1.00  0.00     0.000 HD 
HETATM   21  C   UNL     1     -10.235  10.917  65.149  1.00  0.00    -0.360 C  
HETATM   22  C   UNL     1     -10.555  11.539  63.775  1.00  0.00    -0.465 C  
HETATM   23  O   UNL     1     -11.123  17.244  65.433  1.00  0.00    -0.210 OA 
HETATM   24  C   UNL     1     -11.429  12.784  63.876  1.00  0.00    -0.505 C  
ENDROOT
BRANCH   4  25
HETATM   25  C   UNL     1      -9.456   8.350  68.394  1.00  0.00    -0.139 C  
HETATM   26  O   UNL     1      -8.655   8.550  69.323  1.00  0.00    -0.126 OA 
BRANCH  25  27
HETATM   27  C   UNL     1     -10.430   7.164  68.620  1.00  0.00    -0.197 C  
BRANCH  27  28
HETATM   28  O   UNL     1     -11.074   7.321  69.930  1.00  0.00    -0.256 OA 
BRANCH  28  29
HETATM   29  C   UNL     1     -10.998   6.309  70.850  1.00  0.00    -0.286 C  
HETATM   30  O   UNL     1     -11.525   6.362  71.957  1.00  0.00    -0.275 OA 
BRANCH  29  31
HETATM   31  C   UNL     1     -10.153   5.128  70.301  1.00  0.00    -0.268 C  
BRANCH  31  32
HETATM   32  N   UNL     1      -9.141   4.569  71.260  1.00  0.00    -0.126 NA 
BRANCH  32  33
HETATM   33  C   UNL     1      -8.677   3.225  70.883  1.00  0.00    -0.075 C  
HETATM   34  C   UNL     1      -7.821   2.497  71.915  1.00  0.00    -0.052 C  
ENDBRANCH  32  33
BRANCH  32  35
HETATM   35  C   UNL     1      -8.033   5.530  71.460  1.00  0.00    -0.116 C  
HETATM   36  C   UNL     1      -7.145   5.773  70.233  1.00  0.00    -0.070 C  
ENDBRANCH  32  35
ENDBRANCH  31  32
ENDBRANCH  29  31
ENDBRANCH  28  29
ENDBRANCH  27  28
ENDBRANCH  25  27
ENDBRANCH   4  25
TORSDOF 8
ENDMDL
MODEL       57
REMARK 921   NORMALIZED FREE ENERGY PREDICTED BY IDOCK:   -5.11 KCAL/MOL
REMARK 922        TOTAL FREE ENERGY PREDICTED BY IDOCK:   -7.64 KCAL/MOL
REMARK 923 INTER-LIGAND FREE ENERGY PREDICTED BY IDOCK:   -7.74 KCAL/MOL
REMARK 924 INTRA-LIGAND FREE ENERGY PREDICTED BY IDOCK:    0.10 KCAL/MOL
REMARK 927      BINDING AFFINITY PREDICTED BY RF-SCORE:    0.00 PKD
ROOT
HETATM    1  C   UNL     1     -10.998   7.092  69.135  1.00  0.00    -0.142 C  
HETATM    2  C   UNL     1     -10.662   6.195  70.174  1.00  0.00    -0.366 C  
HETATM    3  C   UNL     1      -9.603   7.212  69.874  1.00  0.00    -0.163 C  
HETATM    4  C   UNL     1     -10.103   8.826  68.686  1.00  0.00    -0.189 C  
HETATM    5  C   UNL     1      -8.529   4.723  65.830  1.00  0.00    -0.117 C  
HETATM    6  O   UNL     1     -11.484   8.986  68.171  1.00  0.00    -0.112 OA 
HETATM    7  C   UNL     1     -10.166   8.606  70.022  1.00  0.00    -0.201 C  
HETATM    8  C   UNL     1      -8.265   8.798  69.696  1.00  0.00    -0.113 C  
HETATM    9  H   UNL     1     -11.714   9.728  67.624  1.00  0.00     0.000 HD 
HETATM   10  C   UNL     1      -7.869   3.725  65.210  1.00  0.00    -0.086 C  
HETATM   11  C   UNL     1      -6.419   3.885  65.000  1.00  0.00    -0.035 C  
HETATM   12  C   UNL     1     -10.990   9.208  71.145  1.00  0.00    -0.390 C  
HETATM   13  C   UNL     1      -7.836   8.109  68.116  1.00  0.00    -0.122 C  
HETATM   14  C   UNL     1      -5.688   4.488  66.153  1.00  0.00    -0.022 C  
HETATM   15  C   UNL     1      -7.985   6.958  65.010  1.00  0.00    -0.125 C  
HETATM   16  O   UNL     1      -8.128   9.147  67.164  1.00  0.00    -0.108 OA 
HETATM   17  C   UNL     1      -8.497   6.661  67.571  1.00  0.00    -0.121 C  
HETATM   18  C   UNL     1      -7.840   6.046  66.244  1.00  0.00    -0.104 C  
HETATM   19  C   UNL     1      -6.292   5.841  66.520  1.00  0.00    -0.038 C  
HETATM   20  H   UNL     1      -7.899   8.778  66.318  1.00  0.00     0.000 HD 
HETATM   21  C   UNL     1     -10.151   6.560  67.619  1.00  0.00    -0.180 C  
HETATM   22  C   UNL     1     -10.564   5.108  67.303  1.00  0.00    -0.139 C  
HETATM   23  O   UNL     1      -5.883   3.503  63.967  1.00  0.00    -0.013 OA 
HETATM   24  C   UNL     1     -10.028   4.618  65.963  1.00  0.00    -0.262 C  
ENDROOT
BRANCH   4  25
HETATM   25  C   UNL     1      -9.952  10.574  68.875  1.00  0.00    -0.204 C  
HETATM   26  O   UNL     1      -8.894  11.217  68.775  1.00  0.00    -0.162 OA 
BRANCH  25  27
HETATM   27  C   UNL     1     -11.197  11.425  69.239  1.00  0.00    -0.277 C  
BRANCH  27  28
HETATM   28  O   UNL     1     -11.972  11.679  68.020  1.00  0.00    -0.577 OA 
BRANCH  28  29
HETATM   29  C   UNL     1     -11.826  12.870  67.357  1.00  0.00    -0.360 C  
HETATM   30  O   UNL     1     -12.058  13.961  67.869  1.00  0.00    -0.366 OA 
BRANCH  29  31
HETATM   31  C   UNL     1     -11.356  12.632  65.896  1.00  0.00    -0.334 C  
BRANCH  31  32
HETATM   32  N   UNL     1     -12.327  13.068  64.836  1.00  0.00    -0.441 NA 
BRANCH  32  33
HETATM   33  C   UNL     1     -12.206  14.495  64.502  1.00  0.00    -0.465 C  
HETATM   34  C   UNL     1     -10.871  15.152  64.837  1.00  0.00    -0.437 C  
ENDBRANCH  32  33
BRANCH  32  35
HETATM   35  C   UNL     1     -12.228  12.185  63.652  1.00  0.00    -0.562 C  
HETATM   36  C   UNL     1     -10.921  11.391  63.531  1.00  0.00    -0.406 C  
ENDBRANCH  32  35
ENDBRANCH  31  32
ENDBRANCH  29  31
ENDBRANCH  28  29
ENDBRANCH  27  28
ENDBRANCH  25  27
ENDBRANCH   4  25
TORSDOF 8
ENDMDL
MODEL       58
REMARK 921   NORMALIZED FREE ENERGY PREDICTED BY IDOCK:   -5.10 KCAL/MOL
REMARK 922        TOTAL FREE ENERGY PREDICTED BY IDOCK:   -7.63 KCAL/MOL
REMARK 923 INTER-LIGAND FREE ENERGY PREDICTED BY IDOCK:   -7.88 KCAL/MOL
REMARK 924 INTRA-LIGAND FREE ENERGY PREDICTED BY IDOCK:    0.25 KCAL/MOL
REMARK 927      BINDING AFFINITY PREDICTED BY RF-SCORE:    0.00 PKD
ROOT
HETATM    1  C   UNL     1      -6.917  14.710  68.597  1.00  0.00    -0.111 C  
HETATM    2  C   UNL     1      -5.863  14.494  67.680  1.00  0.00    -0.017 C  
HETATM    3  C   UNL     1      -7.163  14.886  67.042  1.00  0.00     0.196 C  
HETATM    4  C   UNL     1      -8.663  15.628  68.252  1.00  0.00    -0.174 C  
HETATM    5  C   UNL     1      -8.820  10.398  67.946  1.00  0.00    -0.125 C  
HETATM    6  O   UNL     1      -8.445  15.796  69.709  1.00  0.00    -0.125 OA 
HETATM    7  C   UNL     1      -7.632  16.211  67.594  1.00  0.00    -0.165 C  
HETATM    8  C   UNL     1      -8.851  15.731  66.165  1.00  0.00    -0.346 C  
HETATM    9  H   UNL     1      -9.135  16.137  70.265  1.00  0.00     0.000 HD 
HETATM   10  C   UNL     1      -8.939   9.102  67.598  1.00  0.00    -0.130 C  
HETATM   11  C   UNL     1      -9.853   8.768  66.491  1.00  0.00    -0.279 C  
HETATM   12  C   UNL     1      -6.872  17.511  67.780  1.00  0.00    -0.183 C  
HETATM   13  C   UNL     1      -9.672  14.201  66.541  1.00  0.00    -0.295 C  
HETATM   14  C   UNL     1      -9.803   9.716  65.339  1.00  0.00    -0.322 C  
HETATM   15  C   UNL     1     -10.940  11.591  68.145  1.00  0.00    -0.279 C  
HETATM   16  O   UNL     1     -10.774  14.567  67.391  1.00  0.00    -0.274 OA 
HETATM   17  C   UNL     1      -8.854  12.903  67.229  1.00  0.00    -0.206 C  
HETATM   18  C   UNL     1      -9.661  11.517  67.289  1.00  0.00    -0.197 C  
HETATM   19  C   UNL     1     -10.087  11.141  65.808  1.00  0.00    -0.299 C  
HETATM   20  H   UNL     1     -11.213  13.748  67.592  1.00  0.00     0.000 HD 
HETATM   21  C   UNL     1      -7.986  13.241  68.600  1.00  0.00    -0.042 C  
HETATM   22  C   UNL     1      -7.133  12.007  68.960  1.00  0.00    -0.077 C  
HETATM   23  O   UNL     1     -10.550   7.762  66.525  1.00  0.00    -0.179 OA 
HETATM   24  C   UNL     1      -7.966  10.744  69.142  1.00  0.00    -0.135 C  
ENDROOT
BRANCH   4  25
HETATM   25  C   UNL     1      -9.651  17.089  68.213  1.00  0.00    -0.273 C  
HETATM   26  O   UNL     1      -9.662  17.922  67.292  1.00  0.00    -0.276 OA 
BRANCH  25  27
HETATM   27  C   UNL     1     -10.568  17.438  69.416  1.00  0.00     0.006 C  
BRANCH  27  28
HETATM   28  O   UNL     1     -10.786  16.226  70.214  1.00  0.00    -0.319 OA 
BRANCH  28  29
HETATM   29  C   UNL     1     -11.891  15.450  69.983  1.00  0.00    -0.343 C  
HETATM   30  O   UNL     1     -12.624  15.590  69.008  1.00  0.00     0.035 OA 
BRANCH  29  31
HETATM   31  C   UNL     1     -12.080  14.409  71.120  1.00  0.00    -0.341 C  
BRANCH  31  32
HETATM   32  N   UNL     1     -13.433  14.417  71.772  1.00  0.00    -0.348 NA 
BRANCH  32  33
HETATM   33  C   UNL     1     -13.763  13.137  72.418  1.00  0.00    -0.540 C  
HETATM   34  C   UNL     1     -13.176  11.888  71.770  1.00  0.00    -0.426 C  
ENDBRANCH  32  33
BRANCH  32  35
HETATM   35  C   UNL     1     -13.560  15.577  72.684  1.00  0.00    -0.564 C  
HETATM   36  C   UNL     1     -12.439  15.722  73.722  1.00  0.00    -0.727 C  
ENDBRANCH  32  35
ENDBRANCH  31  32
ENDBRANCH  29  31
ENDBRANCH  28  29
ENDBRANCH  27  28
ENDBRANCH  25  27
ENDBRANCH   4  25
TORSDOF 8
ENDMDL
MODEL       59
REMARK 921   NORMALIZED FREE ENERGY PREDICTED BY IDOCK:   -5.09 KCAL/MOL
REMARK 922        TOTAL FREE ENERGY PREDICTED BY IDOCK:   -7.62 KCAL/MOL
REMARK 923 INTER-LIGAND FREE ENERGY PREDICTED BY IDOCK:   -7.41 KCAL/MOL
REMARK 924 INTRA-LIGAND FREE ENERGY PREDICTED BY IDOCK:   -0.21 KCAL/MOL
REMARK 927      BINDING AFFINITY PREDICTED BY RF-SCORE:    0.00 PKD
ROOT
HETATM    1  C   UNL     1      -6.328  10.408  69.414  1.00  0.00    -0.053 C  
HETATM    2  C   UNL     1      -5.684   9.324  68.774  1.00  0.00    -0.040 C  
HETATM    3  C   UNL     1      -6.980   9.729  68.139  1.00  0.00    -0.077 C  
HETATM    4  C   UNL     1      -7.821  11.533  68.694  1.00  0.00    -0.137 C  
HETATM    5  C   UNL     1      -9.321   7.631  71.856  1.00  0.00    -0.181 C  
HETATM    6  O   UNL     1      -7.141  12.413  69.674  1.00  0.00    -0.331 OA 
HETATM    7  C   UNL     1      -6.926  11.185  67.737  1.00  0.00    -0.078 C  
HETATM    8  C   UNL     1      -8.597  10.473  67.058  1.00  0.00    -0.127 C  
HETATM    9  H   UNL     1      -7.528  13.243  69.929  1.00  0.00     0.000 HD 
HETATM   10  C   UNL     1      -9.849   6.537  72.439  1.00  0.00    -0.169 C  
HETATM   11  C   UNL     1     -11.106   6.001  71.886  1.00  0.00    -0.277 C  
HETATM   12  C   UNL     1      -5.855  11.946  66.978  1.00  0.00    -0.153 C  
HETATM   13  C   UNL     1      -9.611   9.893  68.397  1.00  0.00    -0.148 C  
HETATM   14  C   UNL     1     -11.177   6.003  70.395  1.00  0.00    -0.380 C  
HETATM   15  C   UNL     1     -10.929   9.411  71.400  1.00  0.00    -0.443 C  
HETATM   16  O   UNL     1     -10.284  11.065  68.891  1.00  0.00    -0.195 OA 
HETATM   17  C   UNL     1      -8.964   9.042  69.695  1.00  0.00    -0.153 C  
HETATM   18  C   UNL     1     -10.025   8.379  70.699  1.00  0.00    -0.212 C  
HETATM   19  C   UNL     1     -10.954   7.413  69.852  1.00  0.00    -0.239 C  
HETATM   20  H   UNL     1     -10.826  10.754  69.608  1.00  0.00     0.000 HD 
HETATM   21  C   UNL     1      -7.668   9.751  70.449  1.00  0.00    -0.159 C  
HETATM   22  C   UNL     1      -7.072   8.744  71.453  1.00  0.00    -0.099 C  
HETATM   23  O   UNL     1     -11.982   5.557  72.617  1.00  0.00    -0.245 OA 
HETATM   24  C   UNL     1      -8.091   8.249  72.473  1.00  0.00    -0.209 C  
ENDROOT
BRANCH   4  25
HETATM   25  C   UNL     1      -8.391  12.940  67.797  1.00  0.00    -0.178 C  
HETATM   26  O   UNL     1      -8.437  13.030  66.559  1.00  0.00     0.023 OA 
BRANCH  25  27
HETATM   27  C   UNL     1      -8.843  14.215  68.558  1.00  0.00    -0.173 C  
BRANCH  27  28
HETATM   28  O   UNL     1     -10.059  14.739  67.926  1.00  0.00    -0.219 OA 
BRANCH  28  29
HETATM   29  C   UNL     1     -11.273  14.173  68.215  1.00  0.00    -0.272 C  
HETATM   30  O   UNL     1     -11.600  13.813  69.341  1.00  0.00    -0.274 OA 
BRANCH  29  31
HETATM   31  C   UNL     1     -12.138  14.043  66.931  1.00  0.00    -0.430 C  
BRANCH  31  32
HETATM   32  N   UNL     1     -11.394  13.600  65.704  1.00  0.00    -0.298 NA 
BRANCH  32  33
HETATM   33  C   UNL     1     -11.599  12.176  65.396  1.00  0.00    -0.330 C  
HETATM   34  C   UNL     1     -11.249  11.741  63.976  1.00  0.00    -0.461 C  
ENDBRANCH  32  33
BRANCH  32  35
HETATM   35  C   UNL     1     -11.704  14.491  64.562  1.00  0.00    -0.410 C  
HETATM   36  C   UNL     1     -11.402  15.977  64.789  1.00  0.00    -0.285 C  
ENDBRANCH  32  35
ENDBRANCH  31  32
ENDBRANCH  29  31
ENDBRANCH  28  29
ENDBRANCH  27  28
ENDBRANCH  25  27
ENDBRANCH   4  25
TORSDOF 8
ENDMDL
MODEL       60
REMARK 921   NORMALIZED FREE ENERGY PREDICTED BY IDOCK:   -5.08 KCAL/MOL
REMARK 922        TOTAL FREE ENERGY PREDICTED BY IDOCK:   -7.60 KCAL/MOL
REMARK 923 INTER-LIGAND FREE ENERGY PREDICTED BY IDOCK:   -7.94 KCAL/MOL
REMARK 924 INTRA-LIGAND FREE ENERGY PREDICTED BY IDOCK:    0.34 KCAL/MOL
REMARK 927      BINDING AFFINITY PREDICTED BY RF-SCORE:    0.00 PKD
ROOT
HETATM    1  C   UNL     1     -10.706  10.327  70.433  1.00  0.00    -0.270 C  
HETATM    2  C   UNL     1     -12.031   9.850  70.554  1.00  0.00    -0.320 C  
HETATM    3  C   UNL     1     -11.259   9.239  69.424  1.00  0.00     0.030 C  
HETATM    4  C   UNL     1      -9.213   9.519  69.370  1.00  0.00    -0.176 C  
HETATM    5  C   UNL     1     -11.773  13.415  66.974  1.00  0.00    -0.426 C  
HETATM    6  O   UNL     1      -8.527  10.280  70.441  1.00  0.00    -0.349 OA 
HETATM    7  C   UNL     1     -10.004   8.583  69.949  1.00  0.00    -0.189 C  
HETATM    8  C   UNL     1     -10.120   8.152  68.062  1.00  0.00    -0.241 C  
HETATM    9  H   UNL     1      -7.586  10.409  70.417  1.00  0.00     0.000 HD 
HETATM   10  C   UNL     1     -12.493  14.216  66.165  1.00  0.00    -0.426 C  
HETATM   11  C   UNL     1     -12.586  13.851  64.740  1.00  0.00    -0.295 C  
HETATM   12  C   UNL     1      -9.819   7.632  71.117  1.00  0.00    -0.184 C  
HETATM   13  C   UNL     1     -10.079   9.636  67.086  1.00  0.00    -0.218 C  
HETATM   14  C   UNL     1     -12.766  12.391  64.485  1.00  0.00    -0.404 C  
HETATM   15  C   UNL     1      -9.601  12.757  66.075  1.00  0.00    -0.182 C  
HETATM   16  O   UNL     1      -8.683   9.957  66.952  1.00  0.00    -0.128 OA 
HETATM   17  C   UNL     1     -10.920  11.019  67.541  1.00  0.00    -0.338 C  
HETATM   18  C   UNL     1     -10.985  12.192  66.448  1.00  0.00    -0.327 C  
HETATM   19  C   UNL     1     -11.637  11.593  65.133  1.00  0.00    -0.122 C  
HETATM   20  H   UNL     1      -8.662  10.751  66.430  1.00  0.00     0.000 HD 
HETATM   21  C   UNL     1     -10.655  11.549  69.089  1.00  0.00    -0.174 C  
HETATM   22  C   UNL     1     -11.662  12.674  69.403  1.00  0.00    -0.387 C  
HETATM   23  O   UNL     1     -12.559  14.705  63.863  1.00  0.00    -0.834 OA 
HETATM   24  C   UNL     1     -11.586  13.830  68.413  1.00  0.00    -0.369 C  
ENDROOT
BRANCH   4  25
HETATM   25  C   UNL     1      -7.835   8.426  69.239  1.00  0.00    -0.104 C  
HETATM   26  O   UNL     1      -6.653   8.733  69.466  1.00  0.00    -0.043 OA 
BRANCH  25  27
HETATM   27  C   UNL     1      -8.047   6.964  68.766  1.00  0.00    -0.121 C  
BRANCH  27  28
HETATM   28  O   UNL     1      -6.990   6.616  67.809  1.00  0.00    -0.077 OA 
BRANCH  28  29
HETATM   29  C   UNL     1      -7.285   6.525  66.474  1.00  0.00    -0.073 C  
HETATM   30  O   UNL     1      -7.222   7.476  65.701  1.00  0.00    -0.063 OA 
BRANCH  29  31
HETATM   31  C   UNL     1      -7.717   5.080  66.104  1.00  0.00    -0.091 C  
BRANCH  31  32
HETATM   32  N   UNL     1      -9.113   4.952  65.565  1.00  0.00    -0.151 NA 
BRANCH  32  33
HETATM   33  C   UNL     1      -9.198   4.046  64.408  1.00  0.00    -0.151 C  
HETATM   34  C   UNL     1     -10.593   3.827  63.829  1.00  0.00    -0.267 C  
ENDBRANCH  32  33
BRANCH  32  35
HETATM   35  C   UNL     1     -10.056   4.595  66.650  1.00  0.00    -0.234 C  
HETATM   36  C   UNL     1      -9.531   3.573  67.666  1.00  0.00    -0.233 C  
ENDBRANCH  32  35
ENDBRANCH  31  32
ENDBRANCH  29  31
ENDBRANCH  28  29
ENDBRANCH  27  28
ENDBRANCH  25  27
ENDBRANCH   4  25
TORSDOF 8
ENDMDL
MODEL       61
REMARK 921   NORMALIZED FREE ENERGY PREDICTED BY IDOCK:   -5.06 KCAL/MOL
REMARK 922        TOTAL FREE ENERGY PREDICTED BY IDOCK:   -7.57 KCAL/MOL
REMARK 923 INTER-LIGAND FREE ENERGY PREDICTED BY IDOCK:   -7.40 KCAL/MOL
REMARK 924 INTRA-LIGAND FREE ENERGY PREDICTED BY IDOCK:   -0.17 KCAL/MOL
REMARK 927      BINDING AFFINITY PREDICTED BY RF-SCORE:    0.00 PKD
ROOT
HETATM    1  C   UNL     1     -11.094  10.280  70.502  1.00  0.00    -0.381 C  
HETATM    2  C   UNL     1     -12.452   9.885  70.514  1.00  0.00    -0.191 C  
HETATM    3  C   UNL     1     -11.643   9.272  69.411  1.00  0.00     0.379 C  
HETATM    4  C   UNL     1      -9.585   9.421  69.505  1.00  0.00    -0.180 C  
HETATM    5  C   UNL     1     -11.727  13.568  67.122  1.00  0.00    -0.419 C  
HETATM    6  O   UNL     1      -8.928  10.092  70.653  1.00  0.00    -0.327 OA 
HETATM    7  C   UNL     1     -10.470   8.515  69.988  1.00  0.00    -0.226 C  
HETATM    8  C   UNL     1     -10.482   8.169  68.080  1.00  0.00    -0.225 C  
HETATM    9  H   UNL     1      -7.981  10.160  70.696  1.00  0.00     0.000 HD 
HETATM   10  C   UNL     1     -12.338  14.447  66.303  1.00  0.00    -0.325 C  
HETATM   11  C   UNL     1     -12.355  14.146  64.861  1.00  0.00    -0.430 C  
HETATM   12  C   UNL     1     -10.425   7.508  71.122  1.00  0.00    -0.216 C  
HETATM   13  C   UNL     1     -10.282   9.686  67.176  1.00  0.00    -0.243 C  
HETATM   14  C   UNL     1     -12.608  12.712  64.530  1.00  0.00    -0.491 C  
HETATM   15  C   UNL     1      -9.543  12.808  66.341  1.00  0.00    -0.254 C  
HETATM   16  O   UNL     1      -8.863   9.921  67.149  1.00  0.00    -0.137 OA 
HETATM   17  C   UNL     1     -11.065  11.101  67.636  1.00  0.00    -0.348 C  
HETATM   18  C   UNL     1     -10.982  12.319  66.595  1.00  0.00    -0.321 C  
HETATM   19  C   UNL     1     -11.578  11.817  65.214  1.00  0.00    -0.193 C  
HETATM   20  H   UNL     1      -8.756  10.733  66.666  1.00  0.00     0.000 HD 
HETATM   21  C   UNL     1     -10.875  11.549  69.221  1.00  0.00    -0.217 C  
HETATM   22  C   UNL     1     -11.829  12.724  69.518  1.00  0.00    -0.379 C  
HETATM   23  O   UNL     1     -12.215  15.032  64.027  1.00  0.00    -0.607 OA 
HETATM   24  C   UNL     1     -11.614  13.912  68.587  1.00  0.00    -0.363 C  
ENDROOT
BRANCH   4  25
HETATM   25  C   UNL     1      -8.271   8.246  69.417  1.00  0.00    -0.117 C  
HETATM   26  O   UNL     1      -8.056   7.483  68.460  1.00  0.00    -0.121 OA 
BRANCH  25  27
HETATM   27  C   UNL     1      -7.301   8.076  70.615  1.00  0.00    -0.056 C  
BRANCH  27  28
HETATM   28  O   UNL     1      -6.896   6.668  70.702  1.00  0.00    -0.059 OA 
BRANCH  28  29
HETATM   29  C   UNL     1      -7.373   5.885  71.719  1.00  0.00    -0.093 C  
HETATM   30  O   UNL     1      -7.468   6.270  72.881  1.00  0.00    -0.094 OA 
BRANCH  29  31
HETATM   31  C   UNL     1      -7.745   4.470  71.197  1.00  0.00    -0.076 C  
BRANCH  31  32
HETATM   32  N   UNL     1      -9.208   4.252  70.937  1.00  0.00    -0.126 NA 
BRANCH  32  33
HETATM   33  C   UNL     1      -9.542   4.268  69.504  1.00  0.00    -0.204 C  
HETATM   34  C   UNL     1      -8.368   4.133  68.540  1.00  0.00    -0.092 C  
ENDBRANCH  32  33
BRANCH  32  35
HETATM   35  C   UNL     1      -9.678   3.029  71.628  1.00  0.00    -0.158 C  
HETATM   36  C   UNL     1      -9.271   2.910  73.102  1.00  0.00    -0.109 C  
ENDBRANCH  32  35
ENDBRANCH  31  32
ENDBRANCH  29  31
ENDBRANCH  28  29
ENDBRANCH  27  28
ENDBRANCH  25  27
ENDBRANCH   4  25
TORSDOF 8
ENDMDL
MODEL       62
REMARK 921   NORMALIZED FREE ENERGY PREDICTED BY IDOCK:   -5.04 KCAL/MOL
REMARK 922        TOTAL FREE ENERGY PREDICTED BY IDOCK:   -7.54 KCAL/MOL
REMARK 923 INTER-LIGAND FREE ENERGY PREDICTED BY IDOCK:   -7.94 KCAL/MOL
REMARK 924 INTRA-LIGAND FREE ENERGY PREDICTED BY IDOCK:    0.40 KCAL/MOL
REMARK 927      BINDING AFFINITY PREDICTED BY RF-SCORE:    0.00 PKD
ROOT
HETATM    1  C   UNL     1     -10.509  13.302  68.872  1.00  0.00    -0.123 C  
HETATM    2  C   UNL     1     -11.636  13.712  69.622  1.00  0.00    -0.342 C  
HETATM    3  C   UNL     1     -11.813  13.820  68.137  1.00  0.00    -0.411 C  
HETATM    4  C   UNL     1     -10.434  12.884  66.915  1.00  0.00    -0.246 C  
HETATM    5  C   UNL     1      -8.919  17.735  68.198  1.00  0.00    -0.271 C  
HETATM    6  O   UNL     1      -9.318  12.101  67.498  1.00  0.00    -0.173 OA 
HETATM    7  C   UNL     1     -11.591  12.473  67.490  1.00  0.00    -0.424 C  
HETATM    8  C   UNL     1     -12.195  13.677  66.095  1.00  0.00    -0.490 C  
HETATM    9  H   UNL     1      -8.684  11.671  66.936  1.00  0.00     0.000 HD 
HETATM   10  C   UNL     1      -8.747  19.061  68.362  1.00  0.00    -0.381 C  
HETATM   11  C   UNL     1      -9.239  19.955  67.298  1.00  0.00    -0.348 C  
HETATM   12  C   UNL     1     -12.152  11.112  67.860  1.00  0.00     0.231 C  
HETATM   13  C   UNL     1     -11.051  15.023  65.903  1.00  0.00    -0.334 C  
HETATM   14  C   UNL     1     -10.563  19.568  66.727  1.00  0.00    -0.597 C  
HETATM   15  C   UNL     1      -8.322  16.903  65.982  1.00  0.00    -0.180 C  
HETATM   16  O   UNL     1     -10.014  14.513  65.047  1.00  0.00    -0.490 OA 
HETATM   17  C   UNL     1     -10.347  15.783  67.228  1.00  0.00    -0.290 C  
HETATM   18  C   UNL     1      -9.529  17.127  66.912  1.00  0.00    -0.267 C  
HETATM   19  C   UNL     1     -10.517  18.138  66.195  1.00  0.00    -0.377 C  
HETATM   20  H   UNL     1      -9.402  15.233  64.945  1.00  0.00     0.000 HD 
HETATM   21  C   UNL     1      -9.611  14.783  68.327  1.00  0.00    -0.215 C  
HETATM   22  C   UNL     1      -9.225  15.615  69.567  1.00  0.00    -0.259 C  
HETATM   23  O   UNL     1      -8.610  20.951  66.966  1.00  0.00    -0.162 OA 
HETATM   24  C   UNL     1      -8.332  16.803  69.229  1.00  0.00     0.031 C  
ENDROOT
BRANCH   4  25
HETATM   25  C   UNL     1     -10.567  11.737  65.581  1.00  0.00    -0.268 C  
HETATM   26  O   UNL     1     -11.343  11.847  64.617  1.00  0.00    -0.317 OA 
BRANCH  25  27
HETATM   27  C   UNL     1      -9.704  10.448  65.578  1.00  0.00    -0.249 C  
BRANCH  27  28
HETATM   28  O   UNL     1     -10.276   9.491  66.531  1.00  0.00    -0.254 OA 
BRANCH  28  29
HETATM   29  C   UNL     1      -9.586   8.350  66.846  1.00  0.00    -0.202 C  
HETATM   30  O   UNL     1     -10.037   7.464  67.566  1.00  0.00    -0.161 OA 
BRANCH  29  31
HETATM   31  C   UNL     1      -8.179   8.358  66.188  1.00  0.00    -0.113 C  
BRANCH  31  32
HETATM   32  N   UNL     1      -7.541   7.008  66.033  1.00  0.00    -0.093 NA 
BRANCH  32  33
HETATM   33  C   UNL     1      -7.070   6.752  64.663  1.00  0.00    -0.060 C  
HETATM   34  C   UNL     1      -8.154   6.556  63.607  1.00  0.00    -0.014 C  
ENDBRANCH  32  33
BRANCH  32  35
HETATM   35  C   UNL     1      -6.485   6.816  67.054  1.00  0.00    -0.043 C  
HETATM   36  C   UNL     1      -6.614   5.543  67.900  1.00  0.00    -0.053 C  
ENDBRANCH  32  35
ENDBRANCH  31  32
ENDBRANCH  29  31
ENDBRANCH  28  29
ENDBRANCH  27  28
ENDBRANCH  25  27
ENDBRANCH   4  25
TORSDOF 8
ENDMDL
MODEL       63
REMARK 921   NORMALIZED FREE ENERGY PREDICTED BY IDOCK:   -4.98 KCAL/MOL
REMARK 922        TOTAL FREE ENERGY PREDICTED BY IDOCK:   -7.46 KCAL/MOL
REMARK 923 INTER-LIGAND FREE ENERGY PREDICTED BY IDOCK:   -6.99 KCAL/MOL
REMARK 924 INTRA-LIGAND FREE ENERGY PREDICTED BY IDOCK:   -0.47 KCAL/MOL
REMARK 927      BINDING AFFINITY PREDICTED BY RF-SCORE:    0.00 PKD
ROOT
HETATM    1  C   UNL     1      -9.090   4.483  70.803  1.00  0.00    -0.182 C  
HETATM    2  C   UNL     1      -7.836   3.832  70.841  1.00  0.00    -0.051 C  
HETATM    3  C   UNL     1      -7.751   5.327  70.776  1.00  0.00    -0.088 C  
HETATM    4  C   UNL     1      -9.466   6.422  71.129  1.00  0.00    -0.167 C  
HETATM    5  C   UNL     1      -9.022   5.077  66.083  1.00  0.00    -0.131 C  
HETATM    6  O   UNL     1     -10.739   5.743  71.468  1.00  0.00    -0.243 OA 
HETATM    7  C   UNL     1      -8.494   5.939  71.941  1.00  0.00    -0.126 C  
HETATM    8  C   UNL     1      -7.609   7.391  71.009  1.00  0.00    -0.086 C  
HETATM    9  H   UNL     1     -11.529   6.247  71.630  1.00  0.00     0.000 HD 
HETATM   10  C   UNL     1      -8.690   4.915  64.787  1.00  0.00    -0.154 C  
HETATM   11  C   UNL     1      -7.995   6.025  64.112  1.00  0.00    -0.119 C  
HETATM   12  C   UNL     1      -8.434   5.600  73.419  1.00  0.00    -0.116 C  
HETATM   13  C   UNL     1      -8.201   7.505  69.339  1.00  0.00    -0.130 C  
HETATM   14  C   UNL     1      -6.949   6.697  64.939  1.00  0.00    -0.058 C  
HETATM   15  C   UNL     1     -10.053   7.229  66.603  1.00  0.00    -0.238 C  
HETATM   16  O   UNL     1      -9.417   8.269  69.424  1.00  0.00    -0.158 OA 
HETATM   17  C   UNL     1      -8.476   6.137  68.400  1.00  0.00    -0.114 C  
HETATM   18  C   UNL     1      -8.777   6.401  66.847  1.00  0.00    -0.115 C  
HETATM   19  C   UNL     1      -7.550   7.208  66.246  1.00  0.00    -0.091 C  
HETATM   20  H   UNL     1      -9.734   8.330  68.530  1.00  0.00     0.000 HD 
HETATM   21  C   UNL     1      -9.434   4.971  69.087  1.00  0.00    -0.196 C  
HETATM   22  C   UNL     1      -9.394   3.713  68.196  1.00  0.00    -0.236 C  
HETATM   23  O   UNL     1      -8.247   6.317  62.949  1.00  0.00    -0.104 OA 
HETATM   24  C   UNL     1      -9.822   3.991  66.760  1.00  0.00    -0.163 C  
ENDROOT
BRANCH   4  25
HETATM   25  C   UNL     1      -9.863   7.750  72.222  1.00  0.00    -0.192 C  
HETATM   26  O   UNL     1      -9.144   8.741  72.435  1.00  0.00    -0.366 OA 
BRANCH  25  27
HETATM   27  C   UNL     1     -11.179   7.712  73.043  1.00  0.00    -0.333 C  
BRANCH  27  28
HETATM   28  O   UNL     1     -12.067   8.778  72.566  1.00  0.00    -0.347 OA 
BRANCH  28  29
HETATM   29  C   UNL     1     -12.846   8.569  71.459  1.00  0.00    -0.311 C  
HETATM   30  O   UNL     1     -13.065   7.457  70.987  1.00  0.00    -0.259 OA 
BRANCH  29  31
HETATM   31  C   UNL     1     -13.379   9.916  70.899  1.00  0.00    -0.195 C  
BRANCH  31  32
HETATM   32  N   UNL     1     -12.542  11.118  71.229  1.00  0.00    -0.401 NA 
BRANCH  32  33
HETATM   33  C   UNL     1     -11.883  11.697  70.048  1.00  0.00    -0.355 C  
HETATM   34  C   UNL     1     -11.751  10.779  68.837  1.00  0.00    -0.338 C  
ENDBRANCH  32  33
BRANCH  32  35
HETATM   35  C   UNL     1     -13.337  12.108  71.992  1.00  0.00    -0.365 C  
HETATM   36  C   UNL     1     -13.055  13.577  71.655  1.00  0.00    -0.459 C  
ENDBRANCH  32  35
ENDBRANCH  31  32
ENDBRANCH  29  31
ENDBRANCH  28  29
ENDBRANCH  27  28
ENDBRANCH  25  27
ENDBRANCH   4  25
TORSDOF 8
ENDMDL
MODEL       64
REMARK 921   NORMALIZED FREE ENERGY PREDICTED BY IDOCK:   -4.98 KCAL/MOL
REMARK 922        TOTAL FREE ENERGY PREDICTED BY IDOCK:   -7.45 KCAL/MOL
REMARK 923 INTER-LIGAND FREE ENERGY PREDICTED BY IDOCK:   -8.47 KCAL/MOL
REMARK 924 INTRA-LIGAND FREE ENERGY PREDICTED BY IDOCK:    1.02 KCAL/MOL
REMARK 927      BINDING AFFINITY PREDICTED BY RF-SCORE:    0.00 PKD
ROOT
HETATM    1  C   UNL     1     -10.989  13.017  64.767  1.00  0.00    -0.349 C  
HETATM    2  C   UNL     1     -12.239  12.374  64.618  1.00  0.00    -0.499 C  
HETATM    3  C   UNL     1     -11.507  12.012  65.875  1.00  0.00    -0.392 C  
HETATM    4  C   UNL     1      -9.884  13.163  66.431  1.00  0.00    -0.279 C  
HETATM    5  C   UNL     1      -8.498   9.282  63.192  1.00  0.00    -0.212 C  
HETATM    6  O   UNL     1      -9.477  14.335  65.620  1.00  0.00    -0.523 OA 
HETATM    7  C   UNL     1     -11.214  13.255  66.681  1.00  0.00    -0.332 C  
HETATM    8  C   UNL     1     -10.667  11.741  67.761  1.00  0.00    -0.244 C  
HETATM    9  H   UNL     1      -8.731  14.865  65.876  1.00  0.00     0.000 HD 
HETATM   10  C   UNL     1      -8.205   8.117  62.581  1.00  0.00    -0.142 C  
HETATM   11  C   UNL     1      -7.818   6.975  63.428  1.00  0.00    -0.107 C  
HETATM   12  C   UNL     1     -12.129  14.401  67.070  1.00  0.00    -0.374 C  
HETATM   13  C   UNL     1      -9.391  10.821  66.934  1.00  0.00    -0.160 C  
HETATM   14  C   UNL     1      -8.618   6.833  64.681  1.00  0.00     0.244 C  
HETATM   15  C   UNL     1      -6.907   9.948  64.920  1.00  0.00    -0.127 C  
HETATM   16  O   UNL     1      -8.169  11.514  67.244  1.00  0.00    -0.141 OA 
HETATM   17  C   UNL     1      -9.447  10.518  65.281  1.00  0.00    -0.281 C  
HETATM   18  C   UNL     1      -8.361   9.479  64.721  1.00  0.00    -0.155 C  
HETATM   19  C   UNL     1      -8.545   8.115  65.508  1.00  0.00    -0.173 C  
HETATM   20  H   UNL     1      -7.487  11.022  66.801  1.00  0.00     0.000 HD 
HETATM   21  C   UNL     1      -9.680  11.843  64.311  1.00  0.00    -0.142 C  
HETATM   22  C   UNL     1      -9.928  11.359  62.868  1.00  0.00    -0.278 C  
HETATM   23  O   UNL     1      -6.938   6.198  63.081  1.00  0.00    -0.042 OA 
HETATM   24  C   UNL     1      -8.799  10.486  62.333  1.00  0.00    -0.299 C  
ENDROOT
BRANCH   4  25
HETATM   25  C   UNL     1      -9.440  14.011  67.913  1.00  0.00    -0.210 C  
HETATM   26  O   UNL     1      -8.437  13.767  68.604  1.00  0.00    -0.141 OA 
BRANCH  25  27
HETATM   27  C   UNL     1     -10.358  15.130  68.472  1.00  0.00    -0.230 C  
BRANCH  27  28
HETATM   28  O   UNL     1     -10.449  14.986  69.929  1.00  0.00    -0.225 OA 
BRANCH  28  29
HETATM   29  C   UNL     1     -11.238  15.844  70.649  1.00  0.00    -0.378 C  
HETATM   30  O   UNL     1     -11.434  17.012  70.328  1.00  0.00     0.400 OA 
BRANCH  29  31
HETATM   31  C   UNL     1     -11.813  15.138  71.907  1.00  0.00    -0.404 C  
BRANCH  31  32
HETATM   32  N   UNL     1     -13.258  15.427  72.195  1.00  0.00    -0.389 NA 
BRANCH  32  33
HETATM   33  C   UNL     1     -14.130  14.266  71.960  1.00  0.00    -0.526 C  
HETATM   34  C   UNL     1     -13.555  12.906  72.345  1.00  0.00    -0.577 C  
ENDBRANCH  32  33
BRANCH  32  35
HETATM   35  C   UNL     1     -13.410  16.002  73.551  1.00  0.00    -0.396 C  
HETATM   36  C   UNL     1     -12.118  16.523  74.192  1.00  0.00    -0.390 C  
ENDBRANCH  32  35
ENDBRANCH  31  32
ENDBRANCH  29  31
ENDBRANCH  28  29
ENDBRANCH  27  28
ENDBRANCH  25  27
ENDBRANCH   4  25
TORSDOF 8
ENDMDL
MODEL       65
REMARK 921   NORMALIZED FREE ENERGY PREDICTED BY IDOCK:   -4.97 KCAL/MOL
REMARK 922        TOTAL FREE ENERGY PREDICTED BY IDOCK:   -7.44 KCAL/MOL
REMARK 923 INTER-LIGAND FREE ENERGY PREDICTED BY IDOCK:   -8.26 KCAL/MOL
REMARK 924 INTRA-LIGAND FREE ENERGY PREDICTED BY IDOCK:    0.83 KCAL/MOL
REMARK 927      BINDING AFFINITY PREDICTED BY RF-SCORE:    0.00 PKD
ROOT
HETATM    1  C   UNL     1     -11.675  14.895  65.890  1.00  0.00    -0.175 C  
HETATM    2  C   UNL     1     -11.422  15.420  64.602  1.00  0.00    -0.339 C  
HETATM    3  C   UNL     1     -10.455  14.358  65.034  1.00  0.00    -0.454 C  
HETATM    4  C   UNL     1     -10.928  13.218  66.690  1.00  0.00    -0.283 C  
HETATM    5  C   UNL     1      -8.398  17.613  68.014  1.00  0.00    -0.246 C  
HETATM    6  O   UNL     1     -12.206  13.427  67.411  1.00  0.00    -0.326 OA 
HETATM    7  C   UNL     1     -11.198  13.086  65.368  1.00  0.00    -0.317 C  
HETATM    8  C   UNL     1      -9.305  12.679  65.473  1.00  0.00     0.183 C  
HETATM    9  H   UNL     1     -12.423  12.902  68.173  1.00  0.00     0.000 HD 
HETATM   10  C   UNL     1      -7.526  18.617  68.227  1.00  0.00    -0.302 C  
HETATM   11  C   UNL     1      -6.091  18.283  68.276  1.00  0.00    -0.180 C  
HETATM   12  C   UNL     1     -12.272  12.353  64.586  1.00  0.00    -0.499 C  
HETATM   13  C   UNL     1      -8.527  13.680  66.718  1.00  0.00     0.035 C  
HETATM   14  C   UNL     1      -5.651  17.288  67.254  1.00  0.00    -0.160 C  
HETATM   15  C   UNL     1      -7.990  15.615  69.356  1.00  0.00    -0.226 C  
HETATM   16  O   UNL     1      -8.768  12.991  67.957  1.00  0.00    -0.171 OA 
HETATM   17  C   UNL     1      -8.904  15.307  66.911  1.00  0.00    -0.281 C  
HETATM   18  C   UNL     1      -7.956  16.134  67.906  1.00  0.00    -0.150 C  
HETATM   19  C   UNL     1      -6.467  16.003  67.375  1.00  0.00    -0.214 C  
HETATM   20  H   UNL     1      -8.352  13.526  68.623  1.00  0.00     0.000 HD 
HETATM   21  C   UNL     1     -10.517  15.661  67.061  1.00  0.00    -0.303 C  
HETATM   22  C   UNL     1     -10.692  17.192  67.003  1.00  0.00    -0.149 C  
HETATM   23  O   UNL     1      -5.340  18.831  69.074  1.00  0.00    -0.192 OA 
HETATM   24  C   UNL     1      -9.875  17.923  68.061  1.00  0.00    -0.320 C  
ENDROOT
BRANCH   4  25
HETATM   25  C   UNL     1     -11.022  11.481  66.989  1.00  0.00    -0.294 C  
HETATM   26  O   UNL     1     -10.625  10.598  66.210  1.00  0.00    -0.229 OA 
BRANCH  25  27
HETATM   27  C   UNL     1     -11.682  10.953  68.289  1.00  0.00    -0.184 C  
BRANCH  27  28
HETATM   28  O   UNL     1     -11.060   9.674  68.651  1.00  0.00    -0.153 OA 
BRANCH  28  29
HETATM   29  C   UNL     1     -11.116   9.234  69.948  1.00  0.00    -0.181 C  
HETATM   30  O   UNL     1     -11.111   8.047  70.259  1.00  0.00    -0.257 OA 
BRANCH  29  31
HETATM   31  C   UNL     1     -11.203  10.432  70.932  1.00  0.00    -0.125 C  
BRANCH  31  32
HETATM   32  N   UNL     1     -12.573  10.706  71.482  1.00  0.00    -0.407 NA 
BRANCH  32  33
HETATM   33  C   UNL     1     -13.089  12.029  71.100  1.00  0.00    -0.032 C  
HETATM   34  C   UNL     1     -13.477  12.955  72.249  1.00  0.00    -0.631 C  
ENDBRANCH  32  33
BRANCH  32  35
HETATM   35  C   UNL     1     -13.498   9.601  71.137  1.00  0.00    -0.226 C  
HETATM   36  C   UNL     1     -14.182   8.921  72.329  1.00  0.00    -0.474 C  
ENDBRANCH  32  35
ENDBRANCH  31  32
ENDBRANCH  29  31
ENDBRANCH  28  29
ENDBRANCH  27  28
ENDBRANCH  25  27
ENDBRANCH   4  25
TORSDOF 8
ENDMDL
MODEL       66
REMARK 921   NORMALIZED FREE ENERGY PREDICTED BY IDOCK:   -4.93 KCAL/MOL
REMARK 922        TOTAL FREE ENERGY PREDICTED BY IDOCK:   -7.39 KCAL/MOL
REMARK 923 INTER-LIGAND FREE ENERGY PREDICTED BY IDOCK:   -7.52 KCAL/MOL
REMARK 924 INTRA-LIGAND FREE ENERGY PREDICTED BY IDOCK:    0.13 KCAL/MOL
REMARK 927      BINDING AFFINITY PREDICTED BY RF-SCORE:    0.00 PKD
ROOT
HETATM    1  C   UNL     1     -11.335  11.990  67.302  1.00  0.00    -0.394 C  
HETATM    2  C   UNL     1     -11.578  12.122  65.916  1.00  0.00    -0.425 C  
HETATM    3  C   UNL     1     -10.131  11.956  66.273  1.00  0.00    -0.249 C  
HETATM    4  C   UNL     1      -9.659  11.345  68.189  1.00  0.00    -0.190 C  
HETATM    5  C   UNL     1     -10.122  16.555  67.869  1.00  0.00    -0.256 C  
HETATM    6  O   UNL     1     -10.729  11.049  69.172  1.00  0.00    -0.214 OA 
HETATM    7  C   UNL     1      -9.932  10.672  67.044  1.00  0.00    -0.243 C  
HETATM    8  C   UNL     1      -8.171  11.410  66.712  1.00  0.00    -0.160 C  
HETATM    9  H   UNL     1     -10.512  10.768  70.054  1.00  0.00     0.000 HD 
HETATM   10  C   UNL     1     -10.002  17.877  67.632  1.00  0.00    -0.324 C  
HETATM   11  C   UNL     1      -8.654  18.406  67.357  1.00  0.00    -0.257 C  
HETATM   12  C   UNL     1     -10.432   9.271  66.746  1.00  0.00    -0.263 C  
HETATM   13  C   UNL     1      -8.017  13.009  67.472  1.00  0.00    -0.177 C  
HETATM   14  C   UNL     1      -7.816  17.541  66.475  1.00  0.00    -0.312 C  
HETATM   15  C   UNL     1      -8.469  15.652  69.422  1.00  0.00    -0.244 C  
HETATM   16  O   UNL     1      -7.673  12.740  68.843  1.00  0.00    -0.297 OA 
HETATM   17  C   UNL     1      -9.266  14.134  67.430  1.00  0.00    -0.204 C  
HETATM   18  C   UNL     1      -8.900  15.609  67.944  1.00  0.00    -0.171 C  
HETATM   19  C   UNL     1      -7.690  16.139  67.068  1.00  0.00    -0.256 C  
HETATM   20  H   UNL     1      -7.591  13.595  69.250  1.00  0.00     0.000 HD 
HETATM   21  C   UNL     1     -10.747  13.587  67.938  1.00  0.00    -0.258 C  
HETATM   22  C   UNL     1     -11.804  14.666  67.623  1.00  0.00    -0.366 C  
HETATM   23  O   UNL     1      -8.299  19.494  67.794  1.00  0.00    -0.295 OA 
HETATM   24  C   UNL     1     -11.478  16.016  68.251  1.00  0.00    -0.291 C  
ENDROOT
BRANCH   4  25
HETATM   25  C   UNL     1      -8.671  10.038  68.844  1.00  0.00    -0.146 C  
HETATM   26  O   UNL     1      -7.464   9.866  68.607  1.00  0.00    -0.073 OA 
BRANCH  25  27
HETATM   27  C   UNL     1      -9.314   8.963  69.760  1.00  0.00    -0.166 C  
BRANCH  27  28
HETATM   28  O   UNL     1      -8.478   7.758  69.736  1.00  0.00    -0.130 OA 
BRANCH  28  29
HETATM   29  C   UNL     1      -8.771   6.711  70.570  1.00  0.00    -0.144 C  
HETATM   30  O   UNL     1      -8.215   6.531  71.649  1.00  0.00    -0.111 OA 
BRANCH  29  31
HETATM   31  C   UNL     1      -9.866   5.802  69.948  1.00  0.00    -0.179 C  
BRANCH  31  32
HETATM   32  N   UNL     1      -9.411   4.952  68.797  1.00  0.00    -0.126 NA 
BRANCH  32  33
HETATM   33  C   UNL     1      -9.111   3.567  69.193  1.00  0.00    -0.140 C  
HETATM   34  C   UNL     1      -9.595   3.146  70.577  1.00  0.00    -0.201 C  
ENDBRANCH  32  33
BRANCH  32  35
HETATM   35  C   UNL     1     -10.376   5.039  67.677  1.00  0.00    -0.068 C  
HETATM   36  C   UNL     1      -9.827   5.653  66.383  1.00  0.00    -0.184 C  
ENDBRANCH  32  35
ENDBRANCH  31  32
ENDBRANCH  29  31
ENDBRANCH  28  29
ENDBRANCH  27  28
ENDBRANCH  25  27
ENDBRANCH   4  25
TORSDOF 8
ENDMDL
MODEL       67
REMARK 921   NORMALIZED FREE ENERGY PREDICTED BY IDOCK:   -4.80 KCAL/MOL
REMARK 922        TOTAL FREE ENERGY PREDICTED BY IDOCK:   -7.20 KCAL/MOL
REMARK 923 INTER-LIGAND FREE ENERGY PREDICTED BY IDOCK:   -7.11 KCAL/MOL
REMARK 924 INTRA-LIGAND FREE ENERGY PREDICTED BY IDOCK:   -0.08 KCAL/MOL
REMARK 927      BINDING AFFINITY PREDICTED BY RF-SCORE:    0.00 PKD
ROOT
HETATM    1  C   UNL     1     -11.286   8.299  69.040  1.00  0.00     0.379 C  
HETATM    2  C   UNL     1     -11.009   7.618  70.247  1.00  0.00    -0.261 C  
HETATM    3  C   UNL     1      -9.952   8.601  69.840  1.00  0.00    -0.189 C  
HETATM    4  C   UNL     1     -10.398   9.954  68.344  1.00  0.00    -0.198 C  
HETATM    5  C   UNL     1      -8.523   5.460  66.406  1.00  0.00    -0.114 C  
HETATM    6  O   UNL     1     -11.740   9.968  67.714  1.00  0.00    -0.525 OA 
HETATM    7  C   UNL     1     -10.556   9.977  69.690  1.00  0.00    -0.278 C  
HETATM    8  C   UNL     1      -8.640  10.174  69.469  1.00  0.00    -0.177 C  
HETATM    9  H   UNL     1     -11.944  10.591  67.026  1.00  0.00     0.000 HD 
HETATM   10  C   UNL     1      -7.797   4.390  66.027  1.00  0.00    -0.095 C  
HETATM   11  C   UNL     1      -6.339   4.561  65.892  1.00  0.00    -0.036 C  
HETATM   12  C   UNL     1     -11.475  10.744  70.624  1.00  0.00    -0.314 C  
HETATM   13  C   UNL     1      -8.079   9.226  68.075  1.00  0.00    -0.104 C  
HETATM   14  C   UNL     1      -5.710   5.388  66.964  1.00  0.00    -0.017 C  
HETATM   15  C   UNL     1      -7.969   7.527  65.230  1.00  0.00    -0.126 C  
HETATM   16  O   UNL     1      -8.321  10.063  66.930  1.00  0.00    -0.124 OA 
HETATM   17  C   UNL     1      -8.665   7.681  67.760  1.00  0.00    -0.127 C  
HETATM   18  C   UNL     1      -7.897   6.859  66.617  1.00  0.00    -0.107 C  
HETATM   19  C   UNL     1      -6.369   6.763  67.033  1.00  0.00    -0.041 C  
HETATM   20  H   UNL     1      -8.021   9.555  66.185  1.00  0.00     0.000 HD 
HETATM   21  C   UNL     1     -10.315   7.532  67.710  1.00  0.00    -0.278 C  
HETATM   22  C   UNL     1     -10.672   6.033  67.637  1.00  0.00    -0.377 C  
HETATM   23  O   UNL     1      -5.719   4.017  64.987  1.00  0.00    -0.013 OA 
HETATM   24  C   UNL     1     -10.026   5.327  66.451  1.00  0.00    -0.227 C  
ENDROOT
BRANCH   4  25
HETATM   25  C   UNL     1     -10.301  11.711  68.220  1.00  0.00    -0.200 C  
HETATM   26  O   UNL     1      -9.346  12.405  68.610  1.00  0.00    -0.127 OA 
BRANCH  25  27
HETATM   27  C   UNL     1     -11.488  12.514  67.627  1.00  0.00    -0.334 C  
BRANCH  27  28
HETATM   28  O   UNL     1     -11.056  13.145  66.374  1.00  0.00    -0.282 OA 
BRANCH  28  29
HETATM   29  C   UNL     1     -11.827  14.124  65.805  1.00  0.00    -0.380 C  
HETATM   30  O   UNL     1     -12.976  13.939  65.416  1.00  0.00    -0.722 OA 
BRANCH  29  31
HETATM   31  C   UNL     1     -11.040  15.459  65.712  1.00  0.00    -0.260 C  
BRANCH  31  32
HETATM   32  N   UNL     1     -10.062  15.700  66.826  1.00  0.00    -0.265 NA 
BRANCH  32  33
HETATM   33  C   UNL     1      -8.698  15.965  66.341  1.00  0.00    -0.327 C  
HETATM   34  C   UNL     1      -7.572  15.259  67.090  1.00  0.00    -0.224 C  
ENDBRANCH  32  33
BRANCH  32  35
HETATM   35  C   UNL     1     -10.567  16.752  67.738  1.00  0.00    -0.341 C  
HETATM   36  C   UNL     1     -10.754  16.320  69.198  1.00  0.00    -0.305 C  
ENDBRANCH  32  35
ENDBRANCH  31  32
ENDBRANCH  29  31
ENDBRANCH  28  29
ENDBRANCH  27  28
ENDBRANCH  25  27
ENDBRANCH   4  25
TORSDOF 8
ENDMDL
MODEL       68
REMARK 921   NORMALIZED FREE ENERGY PREDICTED BY IDOCK:   -4.80 KCAL/MOL
REMARK 922        TOTAL FREE ENERGY PREDICTED BY IDOCK:   -7.19 KCAL/MOL
REMARK 923 INTER-LIGAND FREE ENERGY PREDICTED BY IDOCK:   -6.86 KCAL/MOL
REMARK 924 INTRA-LIGAND FREE ENERGY PREDICTED BY IDOCK:   -0.33 KCAL/MOL
REMARK 927      BINDING AFFINITY PREDICTED BY RF-SCORE:    0.00 PKD
ROOT
HETATM    1  C   UNL     1     -12.621  13.674  66.220  1.00  0.00    -0.346 C  
HETATM    2  C   UNL     1     -13.128  14.652  65.333  1.00  0.00     0.260 C  
HETATM    3  C   UNL     1     -11.814  14.064  64.914  1.00  0.00    -0.402 C  
HETATM    4  C   UNL     1     -11.156  12.355  65.870  1.00  0.00    -0.313 C  
HETATM    5  C   UNL     1      -9.663  16.696  68.400  1.00  0.00    -0.243 C  
HETATM    6  O   UNL     1     -11.980  11.713  66.921  1.00  0.00    -0.567 OA 
HETATM    7  C   UNL     1     -11.936  12.564  64.781  1.00  0.00    -0.469 C  
HETATM    8  C   UNL     1     -10.166  13.045  64.153  1.00  0.00    -0.263 C  
HETATM    9  H   UNL     1     -11.677  10.926  67.361  1.00  0.00     0.000 HD 
HETATM   10  C   UNL     1      -9.111  17.850  68.823  1.00  0.00    -0.213 C  
HETATM   11  C   UNL     1      -7.776  18.203  68.309  1.00  0.00    -0.283 C  
HETATM   12  C   UNL     1     -12.989  11.733  64.071  1.00  0.00    -0.067 C  
HETATM   13  C   UNL     1      -9.234  13.810  65.457  1.00  0.00     0.574 C  
HETATM   14  C   UNL     1      -7.575  17.917  66.858  1.00  0.00    -0.236 C  
HETATM   15  C   UNL     1      -8.152  14.778  68.438  1.00  0.00    -0.144 C  
HETATM   16  O   UNL     1      -8.693  12.718  66.222  1.00  0.00    -0.422 OA 
HETATM   17  C   UNL     1      -9.930  14.924  66.508  1.00  0.00    -0.277 C  
HETATM   18  C   UNL     1      -8.916  15.706  67.474  1.00  0.00    -0.199 C  
HETATM   19  C   UNL     1      -7.850  16.444  66.561  1.00  0.00    -0.323 C  
HETATM   20  H   UNL     1      -8.195  13.128  66.920  1.00  0.00     0.000 HD 
HETATM   21  C   UNL     1     -11.334  14.441  67.246  1.00  0.00    -0.357 C  
HETATM   22  C   UNL     1     -11.942  15.650  67.985  1.00  0.00     0.115 C  
HETATM   23  O   UNL     1      -6.938  18.730  69.031  1.00  0.00    -0.293 OA 
HETATM   24  C   UNL     1     -10.984  16.272  68.994  1.00  0.00    -0.325 C  
ENDROOT
BRANCH   4  25
HETATM   25  C   UNL     1     -10.611  10.775  65.306  1.00  0.00    -0.160 C  
HETATM   26  O   UNL     1     -10.329  10.493  64.129  1.00  0.00    -0.313 OA 
BRANCH  25  27
HETATM   27  C   UNL     1     -10.498   9.591  66.302  1.00  0.00    -0.067 C  
BRANCH  27  28
HETATM   28  O   UNL     1      -9.706  10.020  67.460  1.00  0.00    -0.154 OA 
BRANCH  28  29
HETATM   29  C   UNL     1      -8.491   9.435  67.707  1.00  0.00    -0.116 C  
HETATM   30  O   UNL     1      -7.419  10.003  67.525  1.00  0.00    -0.090 OA 
BRANCH  29  31
HETATM   31  C   UNL     1      -8.674   7.980  68.217  1.00  0.00    -0.130 C  
BRANCH  31  32
HETATM   32  N   UNL     1      -9.456   7.847  69.492  1.00  0.00    -0.160 NA 
BRANCH  32  33
HETATM   33  C   UNL     1     -10.756   7.186  69.300  1.00  0.00    -0.215 C  
HETATM   34  C   UNL     1     -10.954   5.866  70.039  1.00  0.00    -0.430 C  
ENDBRANCH  32  33
BRANCH  32  35
HETATM   35  C   UNL     1      -8.629   7.205  70.540  1.00  0.00    -0.144 C  
HETATM   36  C   UNL     1      -7.289   6.634  70.061  1.00  0.00    -0.089 C  
ENDBRANCH  32  35
ENDBRANCH  31  32
ENDBRANCH  29  31
ENDBRANCH  28  29
ENDBRANCH  27  28
ENDBRANCH  25  27
ENDBRANCH   4  25
TORSDOF 8
ENDMDL
MODEL       69
REMARK 921   NORMALIZED FREE ENERGY PREDICTED BY IDOCK:   -4.79 KCAL/MOL
REMARK 922        TOTAL FREE ENERGY PREDICTED BY IDOCK:   -7.17 KCAL/MOL
REMARK 923 INTER-LIGAND FREE ENERGY PREDICTED BY IDOCK:   -8.20 KCAL/MOL
REMARK 924 INTRA-LIGAND FREE ENERGY PREDICTED BY IDOCK:    1.03 KCAL/MOL
REMARK 927      BINDING AFFINITY PREDICTED BY RF-SCORE:    0.00 PKD
ROOT
HETATM    1  C   UNL     1     -10.037   9.652  66.252  1.00  0.00    -0.322 C  
HETATM    2  C   UNL     1      -8.840   9.645  65.498  1.00  0.00    -0.204 C  
HETATM    3  C   UNL     1      -8.732  10.349  66.817  1.00  0.00    -0.132 C  
HETATM    4  C   UNL     1     -10.250  10.090  68.194  1.00  0.00    -0.175 C  
HETATM    5  C   UNL     1     -11.254  14.051  64.912  1.00  0.00    -0.362 C  
HETATM    6  O   UNL     1     -11.400   9.205  67.892  1.00  0.00    -0.370 OA 
HETATM    7  C   UNL     1      -9.106   9.408  67.939  1.00  0.00    -0.136 C  
HETATM    8  C   UNL     1      -8.470  11.044  68.762  1.00  0.00    -0.144 C  
HETATM    9  H   UNL     1     -12.099   9.087  68.526  1.00  0.00     0.000 HD 
HETATM   10  C   UNL     1     -11.297  15.198  64.205  1.00  0.00    -0.092 C  
HETATM   11  C   UNL     1     -10.783  16.421  64.846  1.00  0.00    -0.191 C  
HETATM   12  C   UNL     1      -8.652   7.986  68.208  1.00  0.00    -0.130 C  
HETATM   13  C   UNL     1      -9.496  12.414  68.288  1.00  0.00    -0.203 C  
HETATM   14  C   UNL     1      -9.530  16.227  65.635  1.00  0.00    -0.097 C  
HETATM   15  C   UNL     1     -12.038  14.254  67.216  1.00  0.00    -0.390 C  
HETATM   16  O   UNL     1     -10.618  12.370  69.187  1.00  0.00    -0.410 OA 
HETATM   17  C   UNL     1     -10.060  12.597  66.714  1.00  0.00    -0.243 C  
HETATM   18  C   UNL     1     -10.769  13.997  66.381  1.00  0.00    -0.278 C  
HETATM   19  C   UNL     1      -9.732  15.153  66.701  1.00  0.00    -0.274 C  
HETATM   20  H   UNL     1     -11.168  13.103  68.933  1.00  0.00     0.000 HD 
HETATM   21  C   UNL     1     -10.825  11.278  66.064  1.00  0.00    -0.273 C  
HETATM   22  C   UNL     1     -11.070  11.540  64.564  1.00  0.00    -0.340 C  
HETATM   23  O   UNL     1     -11.336  17.501  64.686  1.00  0.00    -0.810 OA 
HETATM   24  C   UNL     1     -11.869  12.813  64.308  1.00  0.00    -0.460 C  
ENDROOT
BRANCH   4  25
HETATM   25  C   UNL     1     -10.291   9.596  69.887  1.00  0.00    -0.249 C  
HETATM   26  O   UNL     1     -11.322   9.405  70.553  1.00  0.00    -0.256 OA 
BRANCH  25  27
HETATM   27  C   UNL     1      -8.966   9.411  70.673  1.00  0.00    -0.228 C  
BRANCH  27  28
HETATM   28  O   UNL     1      -9.189   8.450  71.760  1.00  0.00    -0.175 OA 
BRANCH  28  29
HETATM   29  C   UNL     1      -8.189   8.201  72.663  1.00  0.00    -0.170 C  
HETATM   30  O   UNL     1      -7.142   8.840  72.706  1.00  0.00    -0.319 OA 
BRANCH  29  31
HETATM   31  C   UNL     1      -8.565   7.009  73.585  1.00  0.00    -0.138 C  
BRANCH  31  32
HETATM   32  N   UNL     1      -8.311   5.649  73.000  1.00  0.00    -0.118 NA 
BRANCH  32  33
HETATM   33  C   UNL     1      -7.917   4.656  74.013  1.00  0.00    -0.101 C  
HETATM   34  C   UNL     1      -8.499   3.257  73.842  1.00  0.00    -0.074 C  
ENDBRANCH  32  33
BRANCH  32  35
HETATM   35  C   UNL     1      -9.466   5.214  72.182  1.00  0.00    -0.140 C  
HETATM   36  C   UNL     1      -9.190   5.070  70.680  1.00  0.00    -0.195 C  
ENDBRANCH  32  35
ENDBRANCH  31  32
ENDBRANCH  29  31
ENDBRANCH  28  29
ENDBRANCH  27  28
ENDBRANCH  25  27
ENDBRANCH   4  25
TORSDOF 8
ENDMDL
MODEL       70
REMARK 921   NORMALIZED FREE ENERGY PREDICTED BY IDOCK:   -4.77 KCAL/MOL
REMARK 922        TOTAL FREE ENERGY PREDICTED BY IDOCK:   -7.14 KCAL/MOL
REMARK 923 INTER-LIGAND FREE ENERGY PREDICTED BY IDOCK:   -6.89 KCAL/MOL
REMARK 924 INTRA-LIGAND FREE ENERGY PREDICTED BY IDOCK:   -0.25 KCAL/MOL
REMARK 927      BINDING AFFINITY PREDICTED BY RF-SCORE:    0.00 PKD
ROOT
HETATM    1  C   UNL     1      -9.656  14.388  69.415  1.00  0.00     0.210 C  
HETATM    2  C   UNL     1     -10.428  15.059  70.391  1.00  0.00    -0.013 C  
HETATM    3  C   UNL     1     -10.951  15.195  68.992  1.00  0.00    -0.245 C  
HETATM    4  C   UNL     1     -10.184  13.950  67.534  1.00  0.00    -0.245 C  
HETATM    5  C   UNL     1      -7.326  18.311  68.068  1.00  0.00    -0.244 C  
HETATM    6  O   UNL     1      -9.164  12.928  67.873  1.00  0.00    -0.192 OA 
HETATM    7  C   UNL     1     -11.217  13.829  68.404  1.00  0.00    -0.300 C  
HETATM    8  C   UNL     1     -11.868  15.132  67.124  1.00  0.00    -0.052 C  
HETATM    9  H   UNL     1      -8.811  12.356  67.201  1.00  0.00     0.000 HD 
HETATM   10  C   UNL     1      -6.821  19.560  68.093  1.00  0.00    -0.306 C  
HETATM   11  C   UNL     1      -7.353  20.537  67.127  1.00  0.00    -0.325 C  
HETATM   12  C   UNL     1     -11.958  12.643  68.992  1.00  0.00    -0.282 C  
HETATM   13  C   UNL     1     -10.536  16.167  66.563  1.00  0.00    -0.268 C  
HETATM   14  C   UNL     1      -8.831  20.472  66.929  1.00  0.00    -0.304 C  
HETATM   15  C   UNL     1      -7.524  17.345  65.834  1.00  0.00    -0.121 C  
HETATM   16  O   UNL     1      -9.898  15.419  65.513  1.00  0.00    -0.342 OA 
HETATM   17  C   UNL     1      -9.361  16.747  67.617  1.00  0.00    -0.228 C  
HETATM   18  C   UNL     1      -8.368  17.856  67.018  1.00  0.00    -0.248 C  
HETATM   19  C   UNL     1      -9.250  19.067  66.501  1.00  0.00    -0.357 C  
HETATM   20  H   UNL     1      -9.186  15.972  65.214  1.00  0.00     0.000 HD 
HETATM   21  C   UNL     1      -8.615  15.609  68.564  1.00  0.00    -0.180 C  
HETATM   22  C   UNL     1      -7.744  16.334  69.610  1.00  0.00     0.196 C  
HETATM   23  O   UNL     1      -6.620  21.353  66.582  1.00  0.00    -0.404 OA 
HETATM   24  C   UNL     1      -6.722  17.273  68.982  1.00  0.00    -0.238 C  
ENDROOT
BRANCH   4  25
HETATM   25  C   UNL     1     -10.912  12.858  66.355  1.00  0.00    -0.285 C  
HETATM   26  O   UNL     1     -11.820  13.161  65.562  1.00  0.00    -0.341 OA 
BRANCH  25  27
HETATM   27  C   UNL     1     -10.457  11.376  66.285  1.00  0.00    -0.255 C  
BRANCH  27  28
HETATM   28  O   UNL     1      -9.186  11.304  65.555  1.00  0.00    -0.215 OA 
BRANCH  28  29
HETATM   29  C   UNL     1      -9.173  10.875  64.254  1.00  0.00    -0.197 C  
HETATM   30  O   UNL     1      -9.416  11.607  63.299  1.00  0.00    -0.310 OA 
BRANCH  29  31
HETATM   31  C   UNL     1      -8.833   9.362  64.177  1.00  0.00    -0.182 C  
BRANCH  31  32
HETATM   32  N   UNL     1      -7.964   8.847  65.288  1.00  0.00    -0.110 NA 
BRANCH  32  33
HETATM   33  C   UNL     1      -8.415   7.549  65.813  1.00  0.00    -0.144 C  
HETATM   34  C   UNL     1      -9.421   7.602  66.959  1.00  0.00    -0.209 C  
ENDBRANCH  32  33
BRANCH  32  35
HETATM   35  C   UNL     1      -6.543   8.842  64.872  1.00  0.00    -0.069 C  
HETATM   36  C   UNL     1      -6.301   8.701  63.364  1.00  0.00    -0.085 C  
ENDBRANCH  32  35
ENDBRANCH  31  32
ENDBRANCH  29  31
ENDBRANCH  28  29
ENDBRANCH  27  28
ENDBRANCH  25  27
ENDBRANCH   4  25
TORSDOF 8
ENDMDL
MODEL       71
REMARK 921   NORMALIZED FREE ENERGY PREDICTED BY IDOCK:   -4.75 KCAL/MOL
REMARK 922        TOTAL FREE ENERGY PREDICTED BY IDOCK:   -7.12 KCAL/MOL
REMARK 923 INTER-LIGAND FREE ENERGY PREDICTED BY IDOCK:   -7.12 KCAL/MOL
REMARK 924 INTRA-LIGAND FREE ENERGY PREDICTED BY IDOCK:   -0.01 KCAL/MOL
REMARK 927      BINDING AFFINITY PREDICTED BY RF-SCORE:    0.00 PKD
ROOT
HETATM    1  C   UNL     1     -11.010  10.214  70.649  1.00  0.00    -0.357 C  
HETATM    2  C   UNL     1     -12.366   9.817  70.706  1.00  0.00    -0.321 C  
HETATM    3  C   UNL     1     -11.583   9.174  69.601  1.00  0.00     0.295 C  
HETATM    4  C   UNL     1      -9.523   9.330  69.641  1.00  0.00    -0.179 C  
HETATM    5  C   UNL     1     -11.735  13.403  67.194  1.00  0.00    -0.424 C  
HETATM    6  O   UNL     1      -8.841  10.035  70.752  1.00  0.00    -0.305 OA 
HETATM    7  C   UNL     1     -10.394   8.436  70.171  1.00  0.00    -0.214 C  
HETATM    8  C   UNL     1     -10.451   8.036  68.275  1.00  0.00    -0.210 C  
HETATM    9  H   UNL     1      -7.893  10.106  70.771  1.00  0.00     0.000 HD 
HETATM   10  C   UNL     1     -12.369  14.256  66.366  1.00  0.00    -0.378 C  
HETATM   11  C   UNL     1     -12.420  13.914  64.933  1.00  0.00    -0.391 C  
HETATM   12  C   UNL     1     -10.318   7.462  71.332  1.00  0.00    -0.208 C  
HETATM   13  C   UNL     1     -10.278   9.526  67.323  1.00  0.00    -0.234 C  
HETATM   14  C   UNL     1     -12.676  12.471  64.649  1.00  0.00    -0.434 C  
HETATM   15  C   UNL     1      -9.568  12.625  66.381  1.00  0.00    -0.248 C  
HETATM   16  O   UNL     1      -8.860   9.764  67.255  1.00  0.00    -0.131 OA 
HETATM   17  C   UNL     1     -11.054  10.952  67.761  1.00  0.00    -0.371 C  
HETATM   18  C   UNL     1     -10.999  12.140  66.685  1.00  0.00    -0.325 C  
HETATM   19  C   UNL     1     -11.627  11.598  65.333  1.00  0.00    -0.095 C  
HETATM   20  H   UNL     1      -8.768  10.562  66.746  1.00  0.00     0.000 HD 
HETATM   21  C   UNL     1     -10.826  11.446  69.328  1.00  0.00    -0.242 C  
HETATM   22  C   UNL     1     -11.777  12.627  69.614  1.00  0.00    -0.373 C  
HETATM   23  O   UNL     1     -12.303  14.776  64.071  1.00  0.00    -0.712 OA 
HETATM   24  C   UNL     1     -11.588  13.788  68.646  1.00  0.00    -0.369 C  
ENDROOT
BRANCH   4  25
HETATM   25  C   UNL     1      -8.209   8.156  69.554  1.00  0.00    -0.121 C  
HETATM   26  O   UNL     1      -8.341   6.924  69.646  1.00  0.00    -0.129 OA 
BRANCH  25  27
HETATM   27  C   UNL     1      -6.744   8.642  69.395  1.00  0.00    -0.049 C  
BRANCH  27  28
HETATM   28  O   UNL     1      -6.082   7.827  68.370  1.00  0.00    -0.034 OA 
BRANCH  28  29
HETATM   29  C   UNL     1      -5.755   8.387  67.163  1.00  0.00    -0.039 C  
HETATM   30  O   UNL     1      -5.750   9.597  66.959  1.00  0.00    -0.049 OA 
BRANCH  29  31
HETATM   31  C   UNL     1      -5.421   7.287  66.119  1.00  0.00    -0.027 C  
BRANCH  31  32
HETATM   32  N   UNL     1      -6.431   7.125  65.020  1.00  0.00    -0.040 NA 
BRANCH  32  33
HETATM   33  C   UNL     1      -7.794   6.901  65.524  1.00  0.00    -0.112 C  
HETATM   34  C   UNL     1      -8.077   5.518  66.102  1.00  0.00    -0.107 C  
ENDBRANCH  32  33
BRANCH  32  35
HETATM   35  C   UNL     1      -6.343   8.256  64.068  1.00  0.00    -0.067 C  
HETATM   36  C   UNL     1      -7.584   8.477  63.194  1.00  0.00    -0.115 C  
ENDBRANCH  32  35
ENDBRANCH  31  32
ENDBRANCH  29  31
ENDBRANCH  28  29
ENDBRANCH  27  28
ENDBRANCH  25  27
ENDBRANCH   4  25
TORSDOF 8
ENDMDL
MODEL       72
REMARK 921   NORMALIZED FREE ENERGY PREDICTED BY IDOCK:   -4.73 KCAL/MOL
REMARK 922        TOTAL FREE ENERGY PREDICTED BY IDOCK:   -7.08 KCAL/MOL
REMARK 923 INTER-LIGAND FREE ENERGY PREDICTED BY IDOCK:   -7.36 KCAL/MOL
REMARK 924 INTRA-LIGAND FREE ENERGY PREDICTED BY IDOCK:    0.28 KCAL/MOL
REMARK 927      BINDING AFFINITY PREDICTED BY RF-SCORE:    0.00 PKD
ROOT
HETATM    1  C   UNL     1      -9.885  14.656  67.284  1.00  0.00    -0.231 C  
HETATM    2  C   UNL     1     -10.702  14.443  68.418  1.00  0.00    -0.250 C  
HETATM    3  C   UNL     1      -9.248  14.157  68.646  1.00  0.00    -0.146 C  
HETATM    4  C   UNL     1      -7.889  14.806  67.232  1.00  0.00    -0.194 C  
HETATM    5  C   UNL     1      -9.778  10.055  66.077  1.00  0.00    -0.301 C  
HETATM    6  O   UNL     1      -8.342  15.562  66.040  1.00  0.00    -0.288 OA 
HETATM    7  C   UNL     1      -8.424  15.384  68.335  1.00  0.00    -0.160 C  
HETATM    8  C   UNL     1      -7.213  14.063  69.074  1.00  0.00    -0.092 C  
HETATM    9  H   UNL     1      -7.716  15.860  65.390  1.00  0.00     0.000 HD 
HETATM   10  C   UNL     1     -10.113   8.752  66.008  1.00  0.00    -0.031 C  
HETATM   11  C   UNL     1      -9.187   7.771  66.601  1.00  0.00    -0.177 C  
HETATM   12  C   UNL     1      -8.619  16.824  68.773  1.00  0.00    -0.255 C  
HETATM   13  C   UNL     1      -7.181  12.612  68.048  1.00  0.00    -0.112 C  
HETATM   14  C   UNL     1      -8.593   8.189  67.905  1.00  0.00    -0.132 C  
HETATM   15  C   UNL     1      -7.460  10.537  65.478  1.00  0.00    -0.111 C  
HETATM   16  O   UNL     1      -6.246  12.917  66.998  1.00  0.00    -0.481 OA 
HETATM   17  C   UNL     1      -8.582  11.976  67.370  1.00  0.00    -0.171 C  
HETATM   18  C   UNL     1      -8.434  10.539  66.672  1.00  0.00    -0.129 C  
HETATM   19  C   UNL     1      -7.874   9.529  67.759  1.00  0.00    -0.095 C  
HETATM   20  H   UNL     1      -6.230  12.141  66.449  1.00  0.00     0.000 HD 
HETATM   21  C   UNL     1      -9.525  13.046  66.524  1.00  0.00    -0.246 C  
HETATM   22  C   UNL     1     -10.858  12.355  66.171  1.00  0.00    -0.308 C  
HETATM   23  O   UNL     1      -8.979   6.691  66.064  1.00  0.00    -0.154 OA 
HETATM   24  C   UNL     1     -10.666  11.062  65.387  1.00  0.00    -0.222 C  
ENDROOT
BRANCH   4  25
HETATM   25  C   UNL     1      -6.417  15.775  67.309  1.00  0.00    -0.104 C  
HETATM   26  O   UNL     1      -5.266  15.321  67.426  1.00  0.00    -0.334 OA 
BRANCH  25  27
HETATM   27  C   UNL     1      -6.504  17.324  67.279  1.00  0.00    -0.157 C  
BRANCH  27  28
HETATM   28  O   UNL     1      -6.352  17.781  65.892  1.00  0.00    -0.231 OA 
BRANCH  28  29
HETATM   29  C   UNL     1      -7.007  18.908  65.473  1.00  0.00    -0.183 C  
HETATM   30  O   UNL     1      -6.589  19.640  64.580  1.00  0.00    -0.362 OA 
BRANCH  29  31
HETATM   31  C   UNL     1      -8.310  19.124  66.289  1.00  0.00    -0.299 C  
BRANCH  31  32
HETATM   32  N   UNL     1      -8.543  20.532  66.756  1.00  0.00    -0.182 NA 
BRANCH  32  33
HETATM   33  C   UNL     1      -9.842  20.705  67.425  1.00  0.00    -0.387 C  
HETATM   34  C   UNL     1     -10.727  19.465  67.502  1.00  0.00    -0.570 C  
ENDBRANCH  32  33
BRANCH  32  35
HETATM   35  C   UNL     1      -7.402  21.000  67.576  1.00  0.00    -0.218 C  
HETATM   36  C   UNL     1      -7.211  20.270  68.912  1.00  0.00    -0.050 C  
ENDBRANCH  32  35
ENDBRANCH  31  32
ENDBRANCH  29  31
ENDBRANCH  28  29
ENDBRANCH  27  28
ENDBRANCH  25  27
ENDBRANCH   4  25
TORSDOF 8
ENDMDL
MODEL       73
REMARK 921   NORMALIZED FREE ENERGY PREDICTED BY IDOCK:   -4.70 KCAL/MOL
REMARK 922        TOTAL FREE ENERGY PREDICTED BY IDOCK:   -7.05 KCAL/MOL
REMARK 923 INTER-LIGAND FREE ENERGY PREDICTED BY IDOCK:   -6.36 KCAL/MOL
REMARK 924 INTRA-LIGAND FREE ENERGY PREDICTED BY IDOCK:   -0.69 KCAL/MOL
REMARK 927      BINDING AFFINITY PREDICTED BY RF-SCORE:    0.00 PKD
ROOT
HETATM    1  C   UNL     1      -7.434   8.201  70.366  1.00  0.00    -0.067 C  
HETATM    2  C   UNL     1      -7.030   8.976  71.477  1.00  0.00    -0.045 C  
HETATM    3  C   UNL     1      -8.445   8.487  71.550  1.00  0.00    -0.221 C  
HETATM    4  C   UNL     1      -9.045   7.020  70.225  1.00  0.00    -0.156 C  
HETATM    5  C   UNL     1      -9.642  11.822  68.210  1.00  0.00    -0.199 C  
HETATM    6  O   UNL     1      -8.087   6.447  69.249  1.00  0.00    -0.108 OA 
HETATM    7  C   UNL     1      -8.478   6.980  71.456  1.00  0.00    -0.116 C  
HETATM    8  C   UNL     1     -10.291   7.562  71.824  1.00  0.00    -0.221 C  
HETATM    9  H   UNL     1      -8.363   5.772  68.640  1.00  0.00     0.000 HD 
HETATM   10  C   UNL     1     -10.001  13.080  67.889  1.00  0.00    -0.230 C  
HETATM   11  C   UNL     1     -11.377  13.505  68.204  1.00  0.00    -0.286 C  
HETATM   12  C   UNL     1      -7.659   5.941  72.199  1.00  0.00    -0.101 C  
HETATM   13  C   UNL     1     -10.881   8.609  70.515  1.00  0.00    -0.228 C  
HETATM   14  C   UNL     1     -11.882  13.037  69.528  1.00  0.00    -0.385 C  
HETATM   15  C   UNL     1     -11.272  10.114  67.587  1.00  0.00    -0.169 C  
HETATM   16  O   UNL     1     -11.352   7.708  69.498  1.00  0.00    -0.454 OA 
HETATM   17  C   UNL     1      -9.901   9.777  69.804  1.00  0.00    -0.262 C  
HETATM   18  C   UNL     1     -10.637  10.800  68.812  1.00  0.00    -0.229 C  
HETATM   19  C   UNL     1     -11.795  11.515  69.625  1.00  0.00    -0.421 C  
HETATM   20  H   UNL     1     -11.667   8.268  68.798  1.00  0.00     0.000 HD 
HETATM   21  C   UNL     1      -8.426   9.249  69.263  1.00  0.00    -0.137 C  
HETATM   22  C   UNL     1      -7.584  10.475  68.854  1.00  0.00    -0.108 C  
HETATM   23  O   UNL     1     -12.010  14.222  67.439  1.00  0.00    -0.395 OA 
HETATM   24  C   UNL     1      -8.271  11.341  67.804  1.00  0.00    -0.120 C  
ENDROOT
BRANCH   4  25
HETATM   25  C   UNL     1      -9.820   5.447  70.415  1.00  0.00    -0.205 C  
HETATM   26  O   UNL     1     -10.748   5.197  71.204  1.00  0.00    -0.181 OA 
BRANCH  25  27
HETATM   27  C   UNL     1      -9.320   4.230  69.593  1.00  0.00    -0.165 C  
BRANCH  27  28
HETATM   28  O   UNL     1      -9.828   4.343  68.221  1.00  0.00    -0.138 OA 
BRANCH  28  29
HETATM   29  C   UNL     1      -9.057   3.913  67.174  1.00  0.00    -0.156 C  
HETATM   30  O   UNL     1      -8.020   3.272  67.316  1.00  0.00    -0.077 OA 
BRANCH  29  31
HETATM   31  C   UNL     1      -9.669   4.365  65.819  1.00  0.00    -0.209 C  
BRANCH  31  32
HETATM   32  N   UNL     1      -8.799   5.274  65.000  1.00  0.00    -0.141 NA 
BRANCH  32  33
HETATM   33  C   UNL     1      -8.140   6.314  65.805  1.00  0.00    -0.126 C  
HETATM   34  C   UNL     1      -8.960   7.572  66.075  1.00  0.00    -0.164 C  
ENDBRANCH  32  33
BRANCH  32  35
HETATM   35  C   UNL     1      -7.848   4.482  64.185  1.00  0.00    -0.086 C  
HETATM   36  C   UNL     1      -7.360   5.162  62.900  1.00  0.00    -0.044 C  
ENDBRANCH  32  35
ENDBRANCH  31  32
ENDBRANCH  29  31
ENDBRANCH  28  29
ENDBRANCH  27  28
ENDBRANCH  25  27
ENDBRANCH   4  25
TORSDOF 8
ENDMDL
MODEL       74
REMARK 921   NORMALIZED FREE ENERGY PREDICTED BY IDOCK:   -4.69 KCAL/MOL
REMARK 922        TOTAL FREE ENERGY PREDICTED BY IDOCK:   -7.02 KCAL/MOL
REMARK 923 INTER-LIGAND FREE ENERGY PREDICTED BY IDOCK:   -7.10 KCAL/MOL
REMARK 924 INTRA-LIGAND FREE ENERGY PREDICTED BY IDOCK:    0.08 KCAL/MOL
REMARK 927      BINDING AFFINITY PREDICTED BY RF-SCORE:    0.00 PKD
ROOT
HETATM    1  C   UNL     1      -7.832   9.385  69.018  1.00  0.00    -0.079 C  
HETATM    2  C   UNL     1      -7.337   9.725  70.297  1.00  0.00    -0.165 C  
HETATM    3  C   UNL     1      -8.816   9.487  70.254  1.00  0.00    -0.281 C  
HETATM    4  C   UNL     1      -9.616   8.592  68.573  1.00  0.00    -0.151 C  
HETATM    5  C   UNL     1      -9.322  13.798  68.049  1.00  0.00    -0.199 C  
HETATM    6  O   UNL     1      -8.741   8.168  67.454  1.00  0.00    -0.123 OA 
HETATM    7  C   UNL     1      -9.103   8.101  69.728  1.00  0.00    -0.148 C  
HETATM    8  C   UNL     1     -10.800   8.856  70.285  1.00  0.00    -0.265 C  
HETATM    9  H   UNL     1      -9.109   7.756  66.681  1.00  0.00     0.000 HD 
HETATM   10  C   UNL     1      -9.451  15.138  68.113  1.00  0.00    -0.201 C  
HETATM   11  C   UNL     1     -10.742  15.684  68.565  1.00  0.00    -0.264 C  
HETATM   12  C   UNL     1      -8.497   6.766  70.121  1.00  0.00    -0.139 C  
HETATM   13  C   UNL     1     -11.162  10.321  69.349  1.00  0.00    -0.239 C  
HETATM   14  C   UNL     1     -11.361  14.948  69.707  1.00  0.00    -0.314 C  
HETATM   15  C   UNL     1     -11.199  12.651  66.990  1.00  0.00    -0.348 C  
HETATM   16  O   UNL     1     -11.748   9.847  68.123  1.00  0.00    -0.557 OA 
HETATM   17  C   UNL     1      -9.976  11.457  68.987  1.00  0.00    -0.087 C  
HETATM   18  C   UNL     1     -10.495  12.834  68.348  1.00  0.00    -0.253 C  
HETATM   19  C   UNL     1     -11.539  13.472  69.357  1.00  0.00    -0.369 C  
HETATM   20  H   UNL     1     -11.941  10.631  67.622  1.00  0.00     0.000 HD 
HETATM   21  C   UNL     1      -8.596  10.862  68.286  1.00  0.00    -0.139 C  
HETATM   22  C   UNL     1      -7.545  11.989  68.233  1.00  0.00    -0.117 C  
HETATM   23  O   UNL     1     -11.220  16.689  68.053  1.00  0.00    -0.306 OA 
HETATM   24  C   UNL     1      -8.041  13.226  67.493  1.00  0.00    -0.187 C  
ENDROOT
BRANCH   4  25
HETATM   25  C   UNL     1     -10.655   7.189  68.316  1.00  0.00    -0.188 C  
HETATM   26  O   UNL     1     -11.338   6.633  69.192  1.00  0.00    -0.264 OA 
BRANCH  25  27
HETATM   27  C   UNL     1     -10.728   6.525  66.915  1.00  0.00    -0.333 C  
BRANCH  27  28
HETATM   28  O   UNL     1     -10.339   5.115  67.037  1.00  0.00    -0.218 OA 
BRANCH  28  29
HETATM   29  C   UNL     1      -9.076   4.726  66.677  1.00  0.00    -0.117 C  
HETATM   30  O   UNL     1      -8.060   5.320  67.025  1.00  0.00    -0.104 OA 
BRANCH  29  31
HETATM   31  C   UNL     1      -9.127   3.465  65.770  1.00  0.00    -0.152 C  
BRANCH  31  32
HETATM   32  N   UNL     1      -9.279   3.743  64.302  1.00  0.00    -0.133 NA 
BRANCH  32  33
HETATM   33  C   UNL     1     -10.675   3.661  63.846  1.00  0.00    -0.255 C  
HETATM   34  C   UNL     1     -11.030   2.449  62.990  1.00  0.00    -0.231 C  
ENDBRANCH  32  33
BRANCH  32  35
HETATM   35  C   UNL     1      -8.628   5.026  63.949  1.00  0.00    -0.113 C  
HETATM   36  C   UNL     1      -7.694   4.976  62.734  1.00  0.00    -0.066 C  
ENDBRANCH  32  35
ENDBRANCH  31  32
ENDBRANCH  29  31
ENDBRANCH  28  29
ENDBRANCH  27  28
ENDBRANCH  25  27
ENDBRANCH   4  25
TORSDOF 8
ENDMDL
MODEL       75
REMARK 921   NORMALIZED FREE ENERGY PREDICTED BY IDOCK:   -4.69 KCAL/MOL
REMARK 922        TOTAL FREE ENERGY PREDICTED BY IDOCK:   -7.02 KCAL/MOL
REMARK 923 INTER-LIGAND FREE ENERGY PREDICTED BY IDOCK:   -7.79 KCAL/MOL
REMARK 924 INTRA-LIGAND FREE ENERGY PREDICTED BY IDOCK:    0.77 KCAL/MOL
REMARK 927      BINDING AFFINITY PREDICTED BY RF-SCORE:    0.00 PKD
ROOT
HETATM    1  C   UNL     1      -8.749   7.026  66.930  1.00  0.00    -0.122 C  
HETATM    2  C   UNL     1      -9.829   6.336  66.333  1.00  0.00    -0.128 C  
HETATM    3  C   UNL     1     -10.229   7.570  67.083  1.00  0.00    -0.350 C  
HETATM    4  C   UNL     1      -8.749   8.894  67.652  1.00  0.00    -0.124 C  
HETATM    5  C   UNL     1      -9.481   5.141  71.236  1.00  0.00    -0.203 C  
HETATM    6  O   UNL     1      -7.333   8.641  67.297  1.00  0.00    -0.086 OA 
HETATM    7  C   UNL     1      -9.501   8.772  66.530  1.00  0.00    -0.281 C  
HETATM    8  C   UNL     1     -10.768   9.433  67.839  1.00  0.00    -0.269 C  
HETATM    9  H   UNL     1      -6.652   9.251  67.559  1.00  0.00     0.000 HD 
HETATM   10  C   UNL     1      -9.919   4.307  72.199  1.00  0.00    -0.246 C  
HETATM   11  C   UNL     1     -10.902   4.828  73.166  1.00  0.00    -0.270 C  
HETATM   12  C   UNL     1      -9.318   9.222  65.093  1.00  0.00    -0.239 C  
HETATM   13  C   UNL     1     -10.409   8.759  69.443  1.00  0.00    -0.214 C  
HETATM   14  C   UNL     1     -11.962   5.691  72.566  1.00  0.00    -0.130 C  
HETATM   15  C   UNL     1      -8.866   7.367  72.027  1.00  0.00    -0.141 C  
HETATM   16  O   UNL     1      -9.376   9.604  69.981  1.00  0.00    -0.213 OA 
HETATM   17  C   UNL     1      -9.965   7.150  69.649  1.00  0.00    -0.176 C  
HETATM   18  C   UNL     1      -9.907   6.627  71.165  1.00  0.00    -0.195 C  
HETATM   19  C   UNL     1     -11.334   6.862  71.813  1.00  0.00    -0.295 C  
HETATM   20  H   UNL     1      -9.183   9.243  70.839  1.00  0.00     0.000 HD 
HETATM   21  C   UNL     1      -8.714   6.619  68.700  1.00  0.00    -0.124 C  
HETATM   22  C   UNL     1      -8.594   5.089  68.854  1.00  0.00    -0.091 C  
HETATM   23  O   UNL     1     -10.852   4.520  74.350  1.00  0.00    -0.303 OA 
HETATM   24  C   UNL     1      -8.401   4.653  70.302  1.00  0.00    -0.082 C  
ENDROOT
BRANCH   4  25
HETATM   25  C   UNL     1      -8.514  10.629  67.431  1.00  0.00    -0.122 C  
HETATM   26  O   UNL     1      -7.783  11.347  68.133  1.00  0.00    -0.105 OA 
BRANCH  25  27
HETATM   27  C   UNL     1      -9.288  11.381  66.316  1.00  0.00    -0.212 C  
BRANCH  27  28
HETATM   28  O   UNL     1      -9.569  12.747  66.773  1.00  0.00    -0.230 OA 
BRANCH  28  29
HETATM   29  C   UNL     1     -10.815  13.060  67.251  1.00  0.00    -0.252 C  
HETATM   30  O   UNL     1     -11.066  13.199  68.444  1.00  0.00    -0.242 OA 
BRANCH  29  31
HETATM   31  C   UNL     1     -11.834  13.191  66.086  1.00  0.00    -0.401 C  
BRANCH  31  32
HETATM   32  N   UNL     1     -11.283  13.785  64.822  1.00  0.00    -0.350 NA 
BRANCH  32  33
HETATM   33  C   UNL     1     -11.557  12.959  63.635  1.00  0.00    -0.485 C  
HETATM   34  C   UNL     1     -12.573  11.836  63.820  1.00  0.00    -0.413 C  
ENDBRANCH  32  33
BRANCH  32  35
HETATM   35  C   UNL     1     -11.737  15.187  64.670  1.00  0.00    -0.348 C  
HETATM   36  C   UNL     1     -10.784  16.250  65.229  1.00  0.00    -0.349 C  
ENDBRANCH  32  35
ENDBRANCH  31  32
ENDBRANCH  29  31
ENDBRANCH  28  29
ENDBRANCH  27  28
ENDBRANCH  25  27
ENDBRANCH   4  25
TORSDOF 8
ENDMDL
MODEL       76
REMARK 921   NORMALIZED FREE ENERGY PREDICTED BY IDOCK:   -4.68 KCAL/MOL
REMARK 922        TOTAL FREE ENERGY PREDICTED BY IDOCK:   -7.02 KCAL/MOL
REMARK 923 INTER-LIGAND FREE ENERGY PREDICTED BY IDOCK:   -7.16 KCAL/MOL
REMARK 924 INTRA-LIGAND FREE ENERGY PREDICTED BY IDOCK:    0.14 KCAL/MOL
REMARK 927      BINDING AFFINITY PREDICTED BY RF-SCORE:    0.00 PKD
ROOT
HETATM    1  C   UNL     1     -11.562   9.856  69.591  1.00  0.00    -0.095 C  
HETATM    2  C   UNL     1     -11.514  10.695  70.728  1.00  0.00    -0.307 C  
HETATM    3  C   UNL     1     -10.174  10.202  70.270  1.00  0.00    -0.180 C  
HETATM    4  C   UNL     1     -10.038   9.319  68.408  1.00  0.00    -0.191 C  
HETATM    5  C   UNL     1     -11.280   5.838  72.124  1.00  0.00    -0.327 C  
HETATM    6  O   UNL     1     -11.232   9.206  67.537  1.00  0.00    -0.405 OA 
HETATM    7  C   UNL     1      -9.938  10.603  68.833  1.00  0.00    -0.213 C  
HETATM    8  C   UNL     1      -8.294   9.797  69.472  1.00  0.00    -0.165 C  
HETATM    9  H   UNL     1     -11.170   8.800  66.680  1.00  0.00     0.000 HD 
HETATM   10  C   UNL     1     -11.333   4.990  73.169  1.00  0.00    -0.397 C  
HETATM   11  C   UNL     1     -10.065   4.412  73.651  1.00  0.00    -0.157 C  
HETATM   12  C   UNL     1     -10.120  11.948  68.156  1.00  0.00    -0.200 C  
HETATM   13  C   UNL     1      -8.579   8.111  69.954  1.00  0.00    -0.130 C  
HETATM   14  C   UNL     1      -8.922   5.372  73.690  1.00  0.00    -0.124 C  
HETATM   15  C   UNL     1      -9.881   5.079  70.273  1.00  0.00    -0.304 C  
HETATM   16  O   UNL     1      -8.504   7.354  68.733  1.00  0.00    -0.128 OA 
HETATM   17  C   UNL     1      -9.958   7.652  70.800  1.00  0.00    -0.181 C  
HETATM   18  C   UNL     1      -9.964   6.154  71.373  1.00  0.00    -0.218 C  
HETATM   19  C   UNL     1      -8.697   5.990  72.312  1.00  0.00    -0.131 C  
HETATM   20  H   UNL     1      -8.657   6.453  68.991  1.00  0.00     0.000 HD 
HETATM   21  C   UNL     1     -11.402   8.132  70.142  1.00  0.00    -0.071 C  
HETATM   22  C   UNL     1     -12.529   7.826  71.150  1.00  0.00    -0.245 C  
HETATM   23  O   UNL     1     -10.001   3.248  74.024  1.00  0.00    -0.108 OA 
HETATM   24  C   UNL     1     -12.578   6.359  71.556  1.00  0.00    -0.026 C  
ENDROOT
BRANCH   4  25
HETATM   25  C   UNL     1      -9.014   9.596  66.998  1.00  0.00    -0.134 C  
HETATM   26  O   UNL     1      -7.788   9.793  67.031  1.00  0.00    -0.101 OA 
BRANCH  25  27
HETATM   27  C   UNL     1      -9.643   9.654  65.581  1.00  0.00    -0.271 C  
BRANCH  27  28
HETATM   28  O   UNL     1      -9.293  10.935  64.958  1.00  0.00    -0.210 OA 
BRANCH  28  29
HETATM   29  C   UNL     1     -10.255  11.658  64.303  1.00  0.00    -0.311 C  
HETATM   30  O   UNL     1     -11.179  11.145  63.679  1.00  0.00    -0.273 OA 
BRANCH  29  31
HETATM   31  C   UNL     1      -9.993  13.182  64.450  1.00  0.00    -0.067 C  
BRANCH  31  32
HETATM   32  N   UNL     1     -10.559  13.808  65.692  1.00  0.00    -0.290 NA 
BRANCH  32  33
HETATM   33  C   UNL     1      -9.827  15.015  66.108  1.00  0.00    -0.301 C  
HETATM   34  C   UNL     1     -10.610  16.016  66.951  1.00  0.00    -0.300 C  
ENDBRANCH  32  33
BRANCH  32  35
HETATM   35  C   UNL     1     -12.014  14.037  65.538  1.00  0.00    -0.384 C  
HETATM   36  C   UNL     1     -12.455  14.559  64.165  1.00  0.00    -0.215 C  
ENDBRANCH  32  35
ENDBRANCH  31  32
ENDBRANCH  29  31
ENDBRANCH  28  29
ENDBRANCH  27  28
ENDBRANCH  25  27
ENDBRANCH   4  25
TORSDOF 8
ENDMDL
MODEL       77
REMARK 921   NORMALIZED FREE ENERGY PREDICTED BY IDOCK:   -4.66 KCAL/MOL
REMARK 922        TOTAL FREE ENERGY PREDICTED BY IDOCK:   -6.98 KCAL/MOL
REMARK 923 INTER-LIGAND FREE ENERGY PREDICTED BY IDOCK:   -6.79 KCAL/MOL
REMARK 924 INTRA-LIGAND FREE ENERGY PREDICTED BY IDOCK:   -0.19 KCAL/MOL
REMARK 927      BINDING AFFINITY PREDICTED BY RF-SCORE:    0.00 PKD
ROOT
HETATM    1  C   UNL     1     -10.737   6.509  69.029  1.00  0.00    -0.324 C  
HETATM    2  C   UNL     1     -10.408   5.426  69.877  1.00  0.00    -0.377 C  
HETATM    3  C   UNL     1      -9.293   6.407  69.672  1.00  0.00    -0.148 C  
HETATM    4  C   UNL     1      -9.739   8.230  68.809  1.00  0.00    -0.157 C  
HETATM    5  C   UNL     1      -8.671   4.581  65.202  1.00  0.00    -0.135 C  
HETATM    6  O   UNL     1     -11.132   8.567  68.432  1.00  0.00    -0.431 OA 
HETATM    7  C   UNL     1      -9.736   7.789  70.091  1.00  0.00    -0.183 C  
HETATM    8  C   UNL     1      -7.849   7.907  69.661  1.00  0.00    -0.105 C  
HETATM    9  H   UNL     1     -11.337   9.406  68.035  1.00  0.00     0.000 HD 
HETATM   10  C   UNL     1      -8.131   3.662  64.377  1.00  0.00    -0.086 C  
HETATM   11  C   UNL     1      -6.689   3.759  64.088  1.00  0.00    -0.044 C  
HETATM   12  C   UNL     1     -10.438   8.244  71.357  1.00  0.00    -0.276 C  
HETATM   13  C   UNL     1      -7.574   7.471  67.960  1.00  0.00    -0.110 C  
HETATM   14  C   UNL     1      -5.843   4.105  65.268  1.00  0.00    -0.022 C  
HETATM   15  C   UNL     1      -8.006   6.882  64.726  1.00  0.00    -0.119 C  
HETATM   16  O   UNL     1      -7.843   8.674  67.218  1.00  0.00    -0.096 OA 
HETATM   17  C   UNL     1      -8.379   6.186  67.233  1.00  0.00    -0.105 C  
HETATM   18  C   UNL     1      -7.856   5.764  65.777  1.00  0.00    -0.102 C  
HETATM   19  C   UNL     1      -6.314   5.413  65.898  1.00  0.00    -0.035 C  
HETATM   20  H   UNL     1      -7.696   8.441  66.308  1.00  0.00     0.000 HD 
HETATM   21  C   UNL     1     -10.030   6.188  67.387  1.00  0.00    -0.166 C  
HETATM   22  C   UNL     1     -10.574   4.843  66.865  1.00  0.00    -0.119 C  
HETATM   23  O   UNL     1      -6.249   3.524  62.970  1.00  0.00    -0.014 OA 
HETATM   24  C   UNL     1     -10.163   4.554  65.427  1.00  0.00    -0.224 C  
ENDROOT
BRANCH   4  25
HETATM   25  C   UNL     1      -9.440   9.906  69.274  1.00  0.00    -0.209 C  
HETATM   26  O   UNL     1      -8.325  10.390  69.533  1.00  0.00    -0.162 OA 
BRANCH  25  27
HETATM   27  C   UNL     1     -10.629  10.891  69.433  1.00  0.00    -0.197 C  
BRANCH  27  28
HETATM   28  O   UNL     1     -10.497  11.958  68.434  1.00  0.00    -0.203 OA 
BRANCH  28  29
HETATM   29  C   UNL     1     -11.343  11.989  67.357  1.00  0.00    -0.327 C  
HETATM   30  O   UNL     1     -11.638  10.995  66.701  1.00  0.00    -0.263 OA 
BRANCH  29  31
HETATM   31  C   UNL     1     -11.840  13.436  67.090  1.00  0.00    -0.382 C  
BRANCH  31  32
HETATM   32  N   UNL     1     -10.922  14.523  67.570  1.00  0.00    -0.285 NA 
BRANCH  32  33
HETATM   33  C   UNL     1     -10.446  15.392  66.483  1.00  0.00    -0.294 C  
HETATM   34  C   UNL     1     -10.843  14.975  65.070  1.00  0.00    -0.439 C  
ENDBRANCH  32  33
BRANCH  32  35
HETATM   35  C   UNL     1     -11.551  15.276  68.680  1.00  0.00    -0.354 C  
HETATM   36  C   UNL     1     -10.772  15.271  70.001  1.00  0.00    -0.297 C  
ENDBRANCH  32  35
ENDBRANCH  31  32
ENDBRANCH  29  31
ENDBRANCH  28  29
ENDBRANCH  27  28
ENDBRANCH  25  27
ENDBRANCH   4  25
TORSDOF 8
ENDMDL
MODEL       78
REMARK 921   NORMALIZED FREE ENERGY PREDICTED BY IDOCK:   -4.65 KCAL/MOL
REMARK 922        TOTAL FREE ENERGY PREDICTED BY IDOCK:   -6.98 KCAL/MOL
REMARK 923 INTER-LIGAND FREE ENERGY PREDICTED BY IDOCK:   -6.91 KCAL/MOL
REMARK 924 INTRA-LIGAND FREE ENERGY PREDICTED BY IDOCK:   -0.07 KCAL/MOL
REMARK 927      BINDING AFFINITY PREDICTED BY RF-SCORE:    0.00 PKD
ROOT
HETATM    1  C   UNL     1      -8.343   7.960  69.608  1.00  0.00    -0.131 C  
HETATM    2  C   UNL     1      -6.946   7.748  69.654  1.00  0.00    -0.048 C  
HETATM    3  C   UNL     1      -7.441   8.292  68.348  1.00  0.00    -0.096 C  
HETATM    4  C   UNL     1      -9.367   9.036  68.264  1.00  0.00    -0.139 C  
HETATM    5  C   UNL     1      -9.232   3.880  67.328  1.00  0.00    -0.200 C  
HETATM    6  O   UNL     1     -10.221   9.057  69.475  1.00  0.00    -0.191 OA 
HETATM    7  C   UNL     1      -8.171   9.595  68.573  1.00  0.00    -0.105 C  
HETATM    8  C   UNL     1      -8.054   9.338  66.655  1.00  0.00    -0.108 C  
HETATM    9  H   UNL     1     -11.107   9.399  69.436  1.00  0.00     0.000 HD 
HETATM   10  C   UNL     1      -9.067   2.633  66.845  1.00  0.00    -0.161 C  
HETATM   11  C   UNL     1      -8.955   2.469  65.385  1.00  0.00    -0.131 C  
HETATM   12  C   UNL     1      -7.762  10.812  69.382  1.00  0.00    -0.107 C  
HETATM   13  C   UNL     1      -8.896   7.847  66.179  1.00  0.00    -0.166 C  
HETATM   14  C   UNL     1      -8.126   3.509  64.707  1.00  0.00    -0.090 C  
HETATM   15  C   UNL     1     -10.905   5.210  66.146  1.00  0.00    -0.163 C  
HETATM   16  O   UNL     1     -10.282   8.219  66.069  1.00  0.00    -0.410 OA 
HETATM   17  C   UNL     1      -8.776   6.434  67.083  1.00  0.00    -0.110 C  
HETATM   18  C   UNL     1      -9.389   5.115  66.408  1.00  0.00    -0.149 C  
HETATM   19  C   UNL     1      -8.666   4.905  65.012  1.00  0.00    -0.149 C  
HETATM   20  H   UNL     1     -10.732   7.421  65.815  1.00  0.00     0.000 HD 
HETATM   21  C   UNL     1      -9.105   6.583  68.702  1.00  0.00    -0.128 C  
HETATM   22  C   UNL     1      -8.732   5.261  69.403  1.00  0.00    -0.109 C  
HETATM   23  O   UNL     1      -9.474   1.520  64.812  1.00  0.00    -0.126 OA 
HETATM   24  C   UNL     1      -9.449   4.053  68.811  1.00  0.00    -0.226 C  
ENDROOT
BRANCH   4  25
HETATM   25  C   UNL     1     -10.061  10.565  67.725  1.00  0.00    -0.175 C  
HETATM   26  O   UNL     1      -9.717  11.189  66.707  1.00  0.00    -0.188 OA 
BRANCH  25  27
HETATM   27  C   UNL     1     -11.162  11.258  68.570  1.00  0.00    -0.252 C  
BRANCH  27  28
HETATM   28  O   UNL     1     -10.800  12.668  68.757  1.00  0.00    -0.237 OA 
BRANCH  28  29
HETATM   29  C   UNL     1     -11.774  13.631  68.722  1.00  0.00    -0.348 C  
HETATM   30  O   UNL     1     -12.406  13.989  69.711  1.00  0.00    -0.336 OA 
BRANCH  29  31
HETATM   31  C   UNL     1     -11.965  14.168  67.277  1.00  0.00    -0.414 C  
BRANCH  31  32
HETATM   32  N   UNL     1     -10.735  14.759  66.650  1.00  0.00    -0.303 NA 
BRANCH  32  33
HETATM   33  C   UNL     1     -10.770  14.726  65.180  1.00  0.00    -0.415 C  
HETATM   34  C   UNL     1     -12.091  14.292  64.550  1.00  0.00    -0.499 C  
ENDBRANCH  32  33
BRANCH  32  35
HETATM   35  C   UNL     1     -10.479  16.113  67.193  1.00  0.00    -0.305 C  
HETATM   36  C   UNL     1      -9.195  16.257  68.019  1.00  0.00    -0.196 C  
ENDBRANCH  32  35
ENDBRANCH  31  32
ENDBRANCH  29  31
ENDBRANCH  28  29
ENDBRANCH  27  28
ENDBRANCH  25  27
ENDBRANCH   4  25
TORSDOF 8
ENDMDL
MODEL       79
REMARK 921   NORMALIZED FREE ENERGY PREDICTED BY IDOCK:   -4.64 KCAL/MOL
REMARK 922        TOTAL FREE ENERGY PREDICTED BY IDOCK:   -6.96 KCAL/MOL
REMARK 923 INTER-LIGAND FREE ENERGY PREDICTED BY IDOCK:   -8.05 KCAL/MOL
REMARK 924 INTRA-LIGAND FREE ENERGY PREDICTED BY IDOCK:    1.09 KCAL/MOL
REMARK 927      BINDING AFFINITY PREDICTED BY RF-SCORE:    0.00 PKD
ROOT
HETATM    1  C   UNL     1     -10.120  12.091  64.522  1.00  0.00    -0.293 C  
HETATM    2  C   UNL     1     -11.254  11.623  63.818  1.00  0.00    -0.498 C  
HETATM    3  C   UNL     1     -11.130  11.084  65.211  1.00  0.00    -0.008 C  
HETATM    4  C   UNL     1      -9.778  11.979  66.492  1.00  0.00    -0.216 C  
HETATM    5  C   UNL     1      -7.543   8.189  63.644  1.00  0.00    -0.132 C  
HETATM    6  O   UNL     1      -8.976  13.144  66.048  1.00  0.00    -0.436 OA 
HETATM    7  C   UNL     1     -11.081  12.222  66.204  1.00  0.00    -0.349 C  
HETATM    8  C   UNL     1     -11.154  10.579  67.231  1.00  0.00    -0.284 C  
HETATM    9  H   UNL     1      -8.354  13.556  66.637  1.00  0.00     0.000 HD 
HETATM   10  C   UNL     1      -7.131   7.041  63.071  1.00  0.00    -0.061 C  
HETATM   11  C   UNL     1      -7.223   5.803  63.865  1.00  0.00    -0.055 C  
HETATM   12  C   UNL     1     -11.971  13.444  66.327  1.00  0.00    -0.460 C  
HETATM   13  C   UNL     1      -9.739   9.565  66.877  1.00  0.00    -0.182 C  
HETATM   14  C   UNL     1      -8.471   5.677  64.673  1.00  0.00    -0.085 C  
HETATM   15  C   UNL     1      -6.738   8.526  65.925  1.00  0.00    -0.057 C  
HETATM   16  O   UNL     1      -8.693  10.074  67.722  1.00  0.00    -0.125 OA 
HETATM   17  C   UNL     1      -9.146   9.387  65.314  1.00  0.00    -0.287 C  
HETATM   18  C   UNL     1      -8.021   8.260  65.114  1.00  0.00    -0.128 C  
HETATM   19  C   UNL     1      -8.629   6.878  65.603  1.00  0.00    -0.119 C  
HETATM   20  H   UNL     1      -7.936   9.532  67.532  1.00  0.00     0.000 HD 
HETATM   21  C   UNL     1      -8.848  10.794  64.490  1.00  0.00    -0.143 C  
HETATM   22  C   UNL     1      -8.530  10.447  63.021  1.00  0.00    -0.180 C  
HETATM   23  O   UNL     1      -6.349   4.947  63.807  1.00  0.00    -0.025 OA 
HETATM   24  C   UNL     1      -7.362   9.478  62.881  1.00  0.00    -0.103 C  
ENDROOT
BRANCH   4  25
HETATM   25  C   UNL     1      -9.901  12.659  68.115  1.00  0.00    -0.226 C  
HETATM   26  O   UNL     1      -9.361  13.712  68.493  1.00  0.00    -0.194 OA 
BRANCH  25  27
HETATM   27  C   UNL     1     -10.698  11.906  69.213  1.00  0.00    -0.045 C  
BRANCH  27  28
HETATM   28  O   UNL     1     -11.500  12.876  69.967  1.00  0.00    -0.162 OA 
BRANCH  28  29
HETATM   29  C   UNL     1     -12.502  12.435  70.791  1.00  0.00    -0.267 C  
HETATM   30  O   UNL     1     -12.784  11.249  70.937  1.00  0.00    -0.347 OA 
BRANCH  29  31
HETATM   31  C   UNL     1     -13.216  13.631  71.477  1.00  0.00    -0.331 C  
BRANCH  31  32
HETATM   32  N   UNL     1     -12.302  14.677  72.047  1.00  0.00    -0.337 NA 
BRANCH  32  33
HETATM   33  C   UNL     1     -12.291  15.918  71.257  1.00  0.00    -0.408 C  
HETATM   34  C   UNL     1     -11.071  16.137  70.368  1.00  0.00    -0.362 C  
ENDBRANCH  32  33
BRANCH  32  35
HETATM   35  C   UNL     1     -12.605  14.904  73.478  1.00  0.00    -0.493 C  
HETATM   36  C   UNL     1     -12.310  16.317  73.996  1.00  0.00    -0.650 C  
ENDBRANCH  32  35
ENDBRANCH  31  32
ENDBRANCH  29  31
ENDBRANCH  28  29
ENDBRANCH  27  28
ENDBRANCH  25  27
ENDBRANCH   4  25
TORSDOF 8
ENDMDL
MODEL       80
REMARK 921   NORMALIZED FREE ENERGY PREDICTED BY IDOCK:   -4.60 KCAL/MOL
REMARK 922        TOTAL FREE ENERGY PREDICTED BY IDOCK:   -6.90 KCAL/MOL
REMARK 923 INTER-LIGAND FREE ENERGY PREDICTED BY IDOCK:   -6.08 KCAL/MOL
REMARK 924 INTRA-LIGAND FREE ENERGY PREDICTED BY IDOCK:   -0.82 KCAL/MOL
REMARK 927      BINDING AFFINITY PREDICTED BY RF-SCORE:    0.00 PKD
ROOT
HETATM    1  C   UNL     1      -7.038   7.625  68.910  1.00  0.00    -0.079 C  
HETATM    2  C   UNL     1      -5.714   7.581  68.418  1.00  0.00    -0.027 C  
HETATM    3  C   UNL     1      -6.706   8.164  67.458  1.00  0.00    -0.062 C  
HETATM    4  C   UNL     1      -8.577   8.672  68.172  1.00  0.00    -0.141 C  
HETATM    5  C   UNL     1      -8.375   3.664  66.639  1.00  0.00    -0.104 C  
HETATM    6  O   UNL     1      -8.914   8.492  69.604  1.00  0.00    -0.142 OA 
HETATM    7  C   UNL     1      -7.404   9.346  68.089  1.00  0.00    -0.078 C  
HETATM    8  C   UNL     1      -7.994   9.260  66.244  1.00  0.00    -0.107 C  
HETATM    9  H   UNL     1      -9.775   8.726  69.932  1.00  0.00     0.000 HD 
HETATM   10  C   UNL     1      -8.300   2.489  65.984  1.00  0.00    -0.093 C  
HETATM   11  C   UNL     1      -8.731   2.458  64.575  1.00  0.00    -0.102 C  
HETATM   12  C   UNL     1      -6.824  10.535  68.832  1.00  0.00    -0.063 C  
HETATM   13  C   UNL     1      -8.826   7.722  65.932  1.00  0.00    -0.142 C  
HETATM   14  C   UNL     1      -8.306   3.643  63.772  1.00  0.00    -0.090 C  
HETATM   15  C   UNL     1     -10.473   4.871  66.317  1.00  0.00    -0.349 C  
HETATM   16  O   UNL     1     -10.177   7.929  66.380  1.00  0.00    -0.470 OA 
HETATM   17  C   UNL     1      -8.258   6.266  66.554  1.00  0.00    -0.112 C  
HETATM   18  C   UNL     1      -8.968   4.940  65.995  1.00  0.00    -0.129 C  
HETATM   19  C   UNL     1      -8.806   4.933  64.418  1.00  0.00    -0.119 C  
HETATM   20  H   UNL     1     -10.622   7.106  66.214  1.00  0.00     0.000 HD 
HETATM   21  C   UNL     1      -7.967   6.242  68.186  1.00  0.00    -0.108 C  
HETATM   22  C   UNL     1      -7.250   4.924  68.539  1.00  0.00    -0.062 C  
HETATM   23  O   UNL     1      -9.346   1.502  64.121  1.00  0.00    -0.114 OA 
HETATM   24  C   UNL     1      -8.033   3.689  68.109  1.00  0.00    -0.071 C  
ENDROOT
BRANCH   4  25
HETATM   25  C   UNL     1      -9.548  10.144  68.110  1.00  0.00    -0.139 C  
HETATM   26  O   UNL     1      -9.172  11.231  67.638  1.00  0.00    -0.153 OA 
BRANCH  25  27
HETATM   27  C   UNL     1     -10.976  10.158  68.717  1.00  0.00    -0.223 C  
BRANCH  27  28
HETATM   28  O   UNL     1     -10.870  10.241  70.178  1.00  0.00    -0.281 OA 
BRANCH  28  29
HETATM   29  C   UNL     1     -11.960   9.953  70.956  1.00  0.00    -0.365 C  
HETATM   30  O   UNL     1     -13.067  10.453  70.780  1.00  0.00    -0.385 OA 
BRANCH  29  31
HETATM   31  C   UNL     1     -11.587   8.943  72.074  1.00  0.00    -0.364 C  
BRANCH  31  32
HETATM   32  N   UNL     1     -10.868   7.710  71.605  1.00  0.00    -0.225 NA 
BRANCH  32  33
HETATM   33  C   UNL     1     -10.075   7.072  72.666  1.00  0.00    -0.181 C  
HETATM   34  C   UNL     1      -9.037   6.052  72.206  1.00  0.00    -0.141 C  
ENDBRANCH  32  33
BRANCH  32  35
HETATM   35  C   UNL     1     -11.814   6.779  70.948  1.00  0.00    -0.385 C  
HETATM   36  C   UNL     1     -11.406   6.307  69.547  1.00  0.00    -0.475 C  
ENDBRANCH  32  35
ENDBRANCH  31  32
ENDBRANCH  29  31
ENDBRANCH  28  29
ENDBRANCH  27  28
ENDBRANCH  25  27
ENDBRANCH   4  25
TORSDOF 8
ENDMDL
MODEL       81
REMARK 921   NORMALIZED FREE ENERGY PREDICTED BY IDOCK:   -4.58 KCAL/MOL
REMARK 922        TOTAL FREE ENERGY PREDICTED BY IDOCK:   -6.87 KCAL/MOL
REMARK 923 INTER-LIGAND FREE ENERGY PREDICTED BY IDOCK:   -7.15 KCAL/MOL
REMARK 924 INTRA-LIGAND FREE ENERGY PREDICTED BY IDOCK:    0.28 KCAL/MOL
REMARK 927      BINDING AFFINITY PREDICTED BY RF-SCORE:    0.00 PKD
ROOT
HETATM    1  C   UNL     1      -7.436  13.283  67.721  1.00  0.00    -0.154 C  
HETATM    2  C   UNL     1      -7.021  13.542  69.047  1.00  0.00    -0.091 C  
HETATM    3  C   UNL     1      -8.508  13.471  68.872  1.00  0.00     0.194 C  
HETATM    4  C   UNL     1      -9.250  12.701  67.105  1.00  0.00    -0.214 C  
HETATM    5  C   UNL     1      -8.344  17.852  66.753  1.00  0.00    -0.273 C  
HETATM    6  O   UNL     1      -8.332  12.204  66.053  1.00  0.00    -0.369 OA 
HETATM    7  C   UNL     1      -8.897  12.135  68.285  1.00  0.00    -0.182 C  
HETATM    8  C   UNL     1     -10.543  13.064  68.717  1.00  0.00    -0.218 C  
HETATM    9  H   UNL     1      -8.674  11.850  65.240  1.00  0.00     0.000 HD 
HETATM   10  C   UNL     1      -8.331  19.196  66.843  1.00  0.00    -0.300 C  
HETATM   11  C   UNL     1      -9.590  19.874  67.199  1.00  0.00    -0.381 C  
HETATM   12  C   UNL     1      -8.477  10.735  68.690  1.00  0.00    -0.143 C  
HETATM   13  C   UNL     1     -10.660  14.577  67.794  1.00  0.00    -0.250 C  
HETATM   14  C   UNL     1     -10.383  19.190  68.263  1.00  0.00    -0.448 C  
HETATM   15  C   UNL     1     -10.236  16.940  65.507  1.00  0.00    -0.149 C  
HETATM   16  O   UNL     1     -11.185  14.194  66.510  1.00  0.00    -0.315 OA 
HETATM   17  C   UNL     1      -9.330  15.581  67.566  1.00  0.00    -0.207 C  
HETATM   18  C   UNL     1      -9.637  17.018  66.924  1.00  0.00    -0.263 C  
HETATM   19  C   UNL     1     -10.689  17.750  67.858  1.00  0.00    -0.327 C  
HETATM   20  H   UNL     1     -11.246  15.004  66.017  1.00  0.00     0.000 HD 
HETATM   21  C   UNL     1      -7.967  14.849  66.968  1.00  0.00    -0.170 C  
HETATM   22  C   UNL     1      -6.799  15.853  67.036  1.00  0.00    -0.130 C  
HETATM   23  O   UNL     1      -9.908  20.935  66.677  1.00  0.00    -0.162 OA 
HETATM   24  C   UNL     1      -7.089  17.151  66.292  1.00  0.00    -0.280 C  
ENDROOT
BRANCH   4  25
HETATM   25  C   UNL     1     -10.409  11.428  66.720  1.00  0.00    -0.234 C  
HETATM   26  O   UNL     1     -11.467  11.213  67.335  1.00  0.00    -0.466 OA 
BRANCH  25  27
HETATM   27  C   UNL     1     -10.118  10.438  65.562  1.00  0.00    -0.283 C  
BRANCH  27  28
HETATM   28  O   UNL     1      -9.245   9.369  66.058  1.00  0.00    -0.169 OA 
BRANCH  28  29
HETATM   29  C   UNL     1      -9.795   8.250  66.627  1.00  0.00    -0.267 C  
HETATM   30  O   UNL     1     -10.908   8.233  67.145  1.00  0.00    -0.244 OA 
BRANCH  29  31
HETATM   31  C   UNL     1      -8.816   7.048  66.536  1.00  0.00    -0.141 C  
BRANCH  31  32
HETATM   32  N   UNL     1      -8.873   6.277  65.249  1.00  0.00    -0.006 NA 
BRANCH  32  33
HETATM   33  C   UNL     1      -7.680   6.474  64.411  1.00  0.00    -0.109 C  
HETATM   34  C   UNL     1      -6.459   7.062  65.111  1.00  0.00    -0.043 C  
ENDBRANCH  32  33
BRANCH  32  35
HETATM   35  C   UNL     1      -9.166   4.849  65.515  1.00  0.00    -0.157 C  
HETATM   36  C   UNL     1     -10.188   4.585  66.627  1.00  0.00    -0.200 C  
ENDBRANCH  32  35
ENDBRANCH  31  32
ENDBRANCH  29  31
ENDBRANCH  28  29
ENDBRANCH  27  28
ENDBRANCH  25  27
ENDBRANCH   4  25
TORSDOF 8
ENDMDL
MODEL       82
REMARK 921   NORMALIZED FREE ENERGY PREDICTED BY IDOCK:   -4.58 KCAL/MOL
REMARK 922        TOTAL FREE ENERGY PREDICTED BY IDOCK:   -6.87 KCAL/MOL
REMARK 923 INTER-LIGAND FREE ENERGY PREDICTED BY IDOCK:   -7.75 KCAL/MOL
REMARK 924 INTRA-LIGAND FREE ENERGY PREDICTED BY IDOCK:    0.89 KCAL/MOL
REMARK 927      BINDING AFFINITY PREDICTED BY RF-SCORE:    0.00 PKD
ROOT
HETATM    1  C   UNL     1     -11.210  14.524  65.790  1.00  0.00    -0.334 C  
HETATM    2  C   UNL     1     -10.306  14.213  64.748  1.00  0.00    -0.387 C  
HETATM    3  C   UNL     1      -9.798  13.887  66.120  1.00  0.00    -0.316 C  
HETATM    4  C   UNL     1     -11.140  13.896  67.691  1.00  0.00    -0.277 C  
HETATM    5  C   UNL     1      -9.090  18.647  66.858  1.00  0.00    -0.295 C  
HETATM    6  O   UNL     1     -12.574  14.187  67.456  1.00  0.00    -0.480 OA 
HETATM    7  C   UNL     1     -10.748  12.939  66.813  1.00  0.00    -0.276 C  
HETATM    8  C   UNL     1      -9.204  13.136  67.969  1.00  0.00    -0.211 C  
HETATM    9  H   UNL     1     -13.192  14.191  68.178  1.00  0.00     0.000 HD 
HETATM   10  C   UNL     1      -8.323  19.748  66.740  1.00  0.00    -0.354 C  
HETATM   11  C   UNL     1      -7.141  19.859  67.613  1.00  0.00    -0.262 C  
HETATM   12  C   UNL     1     -11.384  11.656  66.309  1.00  0.00    -0.293 C  
HETATM   13  C   UNL     1      -9.019  14.830  68.469  1.00  0.00    -0.182 C  
HETATM   14  C   UNL     1      -6.376  18.589  67.786  1.00  0.00    -0.198 C  
HETATM   15  C   UNL     1      -9.613  18.019  69.158  1.00  0.00    -0.061 C  
HETATM   16  O   UNL     1      -9.908  14.990  69.590  1.00  0.00    -0.389 OA 
HETATM   17  C   UNL     1      -9.256  16.102  67.395  1.00  0.00    -0.213 C  
HETATM   18  C   UNL     1      -8.821  17.555  67.921  1.00  0.00    -0.247 C  
HETATM   19  C   UNL     1      -7.288  17.486  68.320  1.00  0.00    -0.223 C  
HETATM   20  H   UNL     1      -9.809  15.896  69.857  1.00  0.00     0.000 HD 
HETATM   21  C   UNL     1     -10.687  16.084  66.559  1.00  0.00    -0.238 C  
HETATM   22  C   UNL     1     -10.637  17.179  65.474  1.00  0.00    -0.160 C  
HETATM   23  O   UNL     1      -6.814  20.933  68.103  1.00  0.00    -0.246 OA 
HETATM   24  C   UNL     1     -10.358  18.565  66.043  1.00  0.00    -0.423 C  
ENDROOT
BRANCH   4  25
HETATM   25  C   UNL     1     -11.564  12.724  68.940  1.00  0.00    -0.316 C  
HETATM   26  O   UNL     1     -11.699  12.983  70.148  1.00  0.00    -0.271 OA 
BRANCH  25  27
HETATM   27  C   UNL     1     -11.753  11.229  68.570  1.00  0.00    -0.308 C  
BRANCH  27  28
HETATM   28  O   UNL     1     -10.863  10.417  69.408  1.00  0.00    -0.215 OA 
BRANCH  28  29
HETATM   29  C   UNL     1     -10.539   9.144  69.020  1.00  0.00    -0.199 C  
HETATM   30  O   UNL     1     -11.241   8.465  68.276  1.00  0.00     0.279 OA 
BRANCH  29  31
HETATM   31  C   UNL     1      -9.197   8.697  69.662  1.00  0.00    -0.157 C  
BRANCH  31  32
HETATM   32  N   UNL     1      -7.966   9.292  69.042  1.00  0.00    -0.095 NA 
BRANCH  32  33
HETATM   33  C   UNL     1      -8.101   9.506  67.593  1.00  0.00    -0.110 C  
HETATM   34  C   UNL     1      -7.828   8.293  66.708  1.00  0.00    -0.095 C  
ENDBRANCH  32  33
BRANCH  32  35
HETATM   35  C   UNL     1      -7.559  10.515  69.773  1.00  0.00    -0.092 C  
HETATM   36  C   UNL     1      -6.062  10.624  70.089  1.00  0.00    -0.110 C  
ENDBRANCH  32  35
ENDBRANCH  31  32
ENDBRANCH  29  31
ENDBRANCH  28  29
ENDBRANCH  27  28
ENDBRANCH  25  27
ENDBRANCH   4  25
TORSDOF 8
ENDMDL
MODEL       83
REMARK 921   NORMALIZED FREE ENERGY PREDICTED BY IDOCK:   -4.57 KCAL/MOL
REMARK 922        TOTAL FREE ENERGY PREDICTED BY IDOCK:   -6.86 KCAL/MOL
REMARK 923 INTER-LIGAND FREE ENERGY PREDICTED BY IDOCK:   -6.49 KCAL/MOL
REMARK 924 INTRA-LIGAND FREE ENERGY PREDICTED BY IDOCK:   -0.37 KCAL/MOL
REMARK 927      BINDING AFFINITY PREDICTED BY RF-SCORE:    0.00 PKD
ROOT
HETATM    1  C   UNL     1      -6.952  11.589  67.746  1.00  0.00    -0.078 C  
HETATM    2  C   UNL     1      -6.909  11.562  69.159  1.00  0.00    -0.112 C  
HETATM    3  C   UNL     1      -8.256  11.253  68.580  1.00  0.00    -0.150 C  
HETATM    4  C   UNL     1      -8.385  10.851  66.558  1.00  0.00    -0.155 C  
HETATM    5  C   UNL     1      -8.764  15.984  67.548  1.00  0.00    -0.193 C  
HETATM    6  O   UNL     1      -7.168  10.839  65.711  1.00  0.00    -0.249 OA 
HETATM    7  C   UNL     1      -8.159  10.071  67.643  1.00  0.00    -0.110 C  
HETATM    8  C   UNL     1     -10.040  10.513  67.802  1.00  0.00    -0.205 C  
HETATM    9  H   UNL     1      -7.227  10.655  64.781  1.00  0.00     0.000 HD 
HETATM   10  C   UNL     1      -9.112  17.232  67.918  1.00  0.00    -0.239 C  
HETATM   11  C   UNL     1     -10.548  17.533  68.056  1.00  0.00    -0.384 C  
HETATM   12  C   UNL     1      -7.494   8.723  67.845  1.00  0.00    -0.093 C  
HETATM   13  C   UNL     1     -10.338  12.165  67.220  1.00  0.00    -0.212 C  
HETATM   14  C   UNL     1     -11.349  16.450  68.701  1.00  0.00    -0.289 C  
HETATM   15  C   UNL     1     -10.051  15.086  65.678  1.00  0.00    -0.390 C  
HETATM   16  O   UNL     1     -10.463  12.042  65.792  1.00  0.00    -0.239 OA 
HETATM   17  C   UNL     1      -9.290  13.432  67.573  1.00  0.00    -0.218 C  
HETATM   18  C   UNL     1      -9.808  14.900  67.188  1.00  0.00    -0.231 C  
HETATM   19  C   UNL     1     -11.186  15.139  67.936  1.00  0.00    -0.334 C  
HETATM   20  H   UNL     1     -10.621  12.926  65.480  1.00  0.00     0.000 HD 
HETATM   21  C   UNL     1      -7.691  13.164  67.224  1.00  0.00    -0.107 C  
HETATM   22  C   UNL     1      -6.859  14.322  67.812  1.00  0.00    -0.189 C  
HETATM   23  O   UNL     1     -11.006  18.612  67.702  1.00  0.00    -0.365 OA 
HETATM   24  C   UNL     1      -7.304  15.689  67.306  1.00  0.00    -0.255 C  
ENDROOT
BRANCH   4  25
HETATM   25  C   UNL     1      -9.073   9.525  65.619  1.00  0.00    -0.201 C  
HETATM   26  O   UNL     1     -10.047   8.835  65.962  1.00  0.00    -0.228 OA 
BRANCH  25  27
HETATM   27  C   UNL     1      -8.427   9.113  64.269  1.00  0.00    -0.187 C  
BRANCH  27  28
HETATM   28  O   UNL     1      -7.358   8.143  64.532  1.00  0.00    -0.080 OA 
BRANCH  28  29
HETATM   29  C   UNL     1      -7.484   6.855  64.083  1.00  0.00    -0.101 C  
HETATM   30  O   UNL     1      -7.901   6.566  62.965  1.00  0.00    -0.097 OA 
BRANCH  29  31
HETATM   31  C   UNL     1      -7.049   5.845  65.180  1.00  0.00    -0.064 C  
BRANCH  31  32
HETATM   32  N   UNL     1      -8.104   5.518  66.198  1.00  0.00    -0.105 NA 
BRANCH  32  33
HETATM   33  C   UNL     1      -9.393   5.154  65.589  1.00  0.00    -0.138 C  
HETATM   34  C   UNL     1     -10.613   5.238  66.501  1.00  0.00    -0.348 C  
ENDBRANCH  32  33
BRANCH  32  35
HETATM   35  C   UNL     1      -7.605   4.500  67.151  1.00  0.00    -0.086 C  
HETATM   36  C   UNL     1      -7.202   5.034  68.531  1.00  0.00    -0.062 C  
ENDBRANCH  32  35
ENDBRANCH  31  32
ENDBRANCH  29  31
ENDBRANCH  28  29
ENDBRANCH  27  28
ENDBRANCH  25  27
ENDBRANCH   4  25
TORSDOF 8
ENDMDL
MODEL       84
REMARK 921   NORMALIZED FREE ENERGY PREDICTED BY IDOCK:   -4.56 KCAL/MOL
REMARK 922        TOTAL FREE ENERGY PREDICTED BY IDOCK:   -6.84 KCAL/MOL
REMARK 923 INTER-LIGAND FREE ENERGY PREDICTED BY IDOCK:   -6.34 KCAL/MOL
REMARK 924 INTRA-LIGAND FREE ENERGY PREDICTED BY IDOCK:   -0.50 KCAL/MOL
REMARK 927      BINDING AFFINITY PREDICTED BY RF-SCORE:    0.00 PKD
ROOT
HETATM    1  C   UNL     1      -8.498   9.905  65.702  1.00  0.00    -0.152 C  
HETATM    2  C   UNL     1      -9.423  10.228  64.683  1.00  0.00    -0.351 C  
HETATM    3  C   UNL     1     -10.043   9.618  65.904  1.00  0.00    -0.304 C  
HETATM    4  C   UNL     1      -8.898   9.477  67.617  1.00  0.00    -0.118 C  
HETATM    5  C   UNL     1      -8.264   5.307  64.506  1.00  0.00    -0.135 C  
HETATM    6  O   UNL     1      -7.509   9.995  67.642  1.00  0.00    -0.089 OA 
HETATM    7  C   UNL     1      -9.708  10.445  67.123  1.00  0.00    -0.206 C  
HETATM    8  C   UNL     1     -10.956   9.076  67.695  1.00  0.00     0.008 C  
HETATM    9  H   UNL     1      -6.982   9.930  68.431  1.00  0.00     0.000 HD 
HETATM   10  C   UNL     1      -8.370   4.176  63.780  1.00  0.00    -0.097 C  
HETATM   11  C   UNL     1      -9.345   3.164  64.223  1.00  0.00    -0.137 C  
HETATM   12  C   UNL     1      -9.799  11.944  67.336  1.00  0.00    -0.192 C  
HETATM   13  C   UNL     1     -10.268   7.460  67.423  1.00  0.00    -0.246 C  
HETATM   14  C   UNL     1     -10.648   3.722  64.693  1.00  0.00    -0.120 C  
HETATM   15  C   UNL     1      -8.156   4.954  66.919  1.00  0.00    -0.107 C  
HETATM   16  O   UNL     1      -9.433   7.212  68.569  1.00  0.00    -0.140 OA 
HETATM   17  C   UNL     1      -9.410   7.086  66.027  1.00  0.00    -0.019 C  
HETATM   18  C   UNL     1      -9.059   5.535  65.814  1.00  0.00    -0.152 C  
HETATM   19  C   UNL     1     -10.422   4.725  65.822  1.00  0.00    -0.275 C  
HETATM   20  H   UNL     1      -9.065   6.348  68.423  1.00  0.00     0.000 HD 
HETATM   21  C   UNL     1      -8.173   8.119  65.640  1.00  0.00    -0.133 C  
HETATM   22  C   UNL     1      -7.651   7.759  64.234  1.00  0.00    -0.111 C  
HETATM   23  O   UNL     1      -9.093   1.968  64.154  1.00  0.00    -0.100 OA 
HETATM   24  C   UNL     1      -7.200   6.307  64.124  1.00  0.00    -0.061 C  
ENDROOT
BRANCH   4  25
HETATM   25  C   UNL     1      -9.137   9.985  69.290  1.00  0.00    -0.200 C  
HETATM   26  O   UNL     1     -10.077  10.688  69.697  1.00  0.00    -0.189 OA 
BRANCH  25  27
HETATM   27  C   UNL     1      -8.102   9.591  70.376  1.00  0.00    -0.183 C  
BRANCH  27  28
HETATM   28  O   UNL     1      -8.556   8.364  71.042  1.00  0.00    -0.131 OA 
BRANCH  28  29
HETATM   29  C   UNL     1      -8.879   8.394  72.373  1.00  0.00    -0.224 C  
HETATM   30  O   UNL     1      -8.097   8.747  73.251  1.00  0.00    -0.407 OA 
BRANCH  29  31
HETATM   31  C   UNL     1     -10.337   7.907  72.596  1.00  0.00    -0.308 C  
BRANCH  31  32
HETATM   32  N   UNL     1     -10.970   7.230  71.414  1.00  0.00    -0.231 NA 
BRANCH  32  33
HETATM   33  C   UNL     1     -11.078   5.772  71.581  1.00  0.00    -0.226 C  
HETATM   34  C   UNL     1      -9.955   4.942  70.967  1.00  0.00    -0.282 C  
ENDBRANCH  32  33
BRANCH  32  35
HETATM   35  C   UNL     1     -12.262   7.872  71.082  1.00  0.00    -0.255 C  
HETATM   36  C   UNL     1     -12.777   8.884  72.113  1.00  0.00    -0.470 C  
ENDBRANCH  32  35
ENDBRANCH  31  32
ENDBRANCH  29  31
ENDBRANCH  28  29
ENDBRANCH  27  28
ENDBRANCH  25  27
ENDBRANCH   4  25
TORSDOF 8
ENDMDL
MODEL       85
REMARK 921   NORMALIZED FREE ENERGY PREDICTED BY IDOCK:   -4.53 KCAL/MOL
REMARK 922        TOTAL FREE ENERGY PREDICTED BY IDOCK:   -6.80 KCAL/MOL
REMARK 923 INTER-LIGAND FREE ENERGY PREDICTED BY IDOCK:   -7.76 KCAL/MOL
REMARK 924 INTRA-LIGAND FREE ENERGY PREDICTED BY IDOCK:    0.96 KCAL/MOL
REMARK 927      BINDING AFFINITY PREDICTED BY RF-SCORE:    0.00 PKD
ROOT
HETATM    1  C   UNL     1      -9.383   7.133  67.248  1.00  0.00    -0.156 C  
HETATM    2  C   UNL     1     -10.582   6.599  66.722  1.00  0.00    -0.315 C  
HETATM    3  C   UNL     1     -10.784   7.730  67.684  1.00  0.00    -0.227 C  
HETATM    4  C   UNL     1      -9.145   8.871  68.212  1.00  0.00    -0.140 C  
HETATM    5  C   UNL     1      -9.675   4.679  71.313  1.00  0.00    -0.251 C  
HETATM    6  O   UNL     1      -7.812   8.594  67.627  1.00  0.00    -0.101 OA 
HETATM    7  C   UNL     1     -10.046   8.957  67.203  1.00  0.00    -0.316 C  
HETATM    8  C   UNL     1     -11.074   9.489  68.759  1.00  0.00    -0.044 C  
HETATM    9  H   UNL     1      -7.058   9.119  67.870  1.00  0.00     0.000 HD 
HETATM   10  C   UNL     1     -10.042   3.739  72.206  1.00  0.00    -0.228 C  
HETATM   11  C   UNL     1     -10.845   4.167  73.365  1.00  0.00    -0.244 C  
HETATM   12  C   UNL     1     -10.024   9.603  65.830  1.00  0.00    -0.342 C  
HETATM   13  C   UNL     1     -10.555   8.568  70.187  1.00  0.00    -0.232 C  
HETATM   14  C   UNL     1     -11.907   5.168  73.048  1.00  0.00    -0.141 C  
HETATM   15  C   UNL     1      -8.792   6.728  72.307  1.00  0.00    -0.135 C  
HETATM   16  O   UNL     1      -9.399   9.266  70.682  1.00  0.00    -0.236 OA 
HETATM   17  C   UNL     1     -10.212   6.924  70.104  1.00  0.00    -0.208 C  
HETATM   18  C   UNL     1      -9.992   6.182  71.509  1.00  0.00    -0.211 C  
HETATM   19  C   UNL     1     -11.298   6.399  72.381  1.00  0.00    -0.324 C  
HETATM   20  H   UNL     1      -9.121   8.772  71.446  1.00  0.00     0.000 HD 
HETATM   21  C   UNL     1      -9.143   6.468  68.921  1.00  0.00    -0.131 C  
HETATM   22  C   UNL     1      -9.120   4.928  68.845  1.00  0.00    -0.149 C  
HETATM   23  O   UNL     1     -10.660   3.687  74.476  1.00  0.00    -0.203 OA 
HETATM   24  C   UNL     1      -8.769   4.274  70.176  1.00  0.00    -0.115 C  
ENDROOT
BRANCH   4  25
HETATM   25  C   UNL     1      -8.810  10.603  68.200  1.00  0.00    -0.134 C  
HETATM   26  O   UNL     1      -7.772  11.129  67.764  1.00  0.00    -0.106 OA 
BRANCH  25  27
HETATM   27  C   UNL     1      -9.835  11.596  68.810  1.00  0.00    -0.116 C  
BRANCH  27  28
HETATM   28  O   UNL     1     -10.075  12.679  67.849  1.00  0.00    -0.210 OA 
BRANCH  28  29
HETATM   29  C   UNL     1     -10.379  13.936  68.304  1.00  0.00    -0.249 C  
HETATM   30  O   UNL     1      -9.635  14.902  68.167  1.00  0.00    -0.202 OA 
BRANCH  29  31
HETATM   31  C   UNL     1     -11.760  13.944  69.014  1.00  0.00    -0.338 C  
BRANCH  31  32
HETATM   32  N   UNL     1     -11.722  14.292  70.475  1.00  0.00    -0.273 NA 
BRANCH  32  33
HETATM   33  C   UNL     1     -11.788  15.741  70.720  1.00  0.00    -0.404 C  
HETATM   34  C   UNL     1     -12.042  16.166  72.163  1.00  0.00    -0.593 C  
ENDBRANCH  32  33
BRANCH  32  35
HETATM   35  C   UNL     1     -12.756  13.531  71.214  1.00  0.00    -0.348 C  
HETATM   36  C   UNL     1     -12.720  12.011  71.015  1.00  0.00    -0.337 C  
ENDBRANCH  32  35
ENDBRANCH  31  32
ENDBRANCH  29  31
ENDBRANCH  28  29
ENDBRANCH  27  28
ENDBRANCH  25  27
ENDBRANCH   4  25
TORSDOF 8
ENDMDL
MODEL       86
REMARK 921   NORMALIZED FREE ENERGY PREDICTED BY IDOCK:   -4.53 KCAL/MOL
REMARK 922        TOTAL FREE ENERGY PREDICTED BY IDOCK:   -6.79 KCAL/MOL
REMARK 923 INTER-LIGAND FREE ENERGY PREDICTED BY IDOCK:   -6.58 KCAL/MOL
REMARK 924 INTRA-LIGAND FREE ENERGY PREDICTED BY IDOCK:   -0.22 KCAL/MOL
REMARK 927      BINDING AFFINITY PREDICTED BY RF-SCORE:    0.00 PKD
ROOT
HETATM    1  C   UNL     1      -7.935   9.313  69.020  1.00  0.00    -0.097 C  
HETATM    2  C   UNL     1      -7.251   9.728  70.185  1.00  0.00    -0.146 C  
HETATM    3  C   UNL     1      -8.727   9.543  70.372  1.00  0.00    -0.265 C  
HETATM    4  C   UNL     1      -9.785   8.554  68.899  1.00  0.00    -0.170 C  
HETATM    5  C   UNL     1      -9.437  13.693  67.928  1.00  0.00    -0.213 C  
HETATM    6  O   UNL     1      -9.093   8.017  67.704  1.00  0.00    -0.137 OA 
HETATM    7  C   UNL     1      -9.122   8.132  70.004  1.00  0.00    -0.151 C  
HETATM    8  C   UNL     1     -10.700   8.988  70.737  1.00  0.00    -0.301 C  
HETATM    9  H   UNL     1      -9.579   7.562  67.026  1.00  0.00     0.000 HD 
HETATM   10  C   UNL     1      -9.521  15.038  67.904  1.00  0.00    -0.195 C  
HETATM   11  C   UNL     1     -10.719  15.663  68.491  1.00  0.00    -0.264 C  
HETATM   12  C   UNL     1      -8.500   6.809  70.411  1.00  0.00    -0.135 C  
HETATM   13  C   UNL     1     -11.157  10.392  69.748  1.00  0.00    -0.295 C  
HETATM   14  C   UNL     1     -11.184  15.037  69.765  1.00  0.00    -0.301 C  
HETATM   15  C   UNL     1     -11.477  12.539  67.243  1.00  0.00    -0.416 C  
HETATM   16  O   UNL     1     -11.927   9.850  68.661  1.00  0.00    -0.345 OA 
HETATM   17  C   UNL     1     -10.007  11.453  69.132  1.00  0.00    -0.005 C  
HETATM   18  C   UNL     1     -10.578  12.797  68.467  1.00  0.00    -0.270 C  
HETATM   19  C   UNL     1     -11.448  13.547  69.561  1.00  0.00    -0.318 C  
HETATM   20  H   UNL     1     -12.171  10.601  68.132  1.00  0.00     0.000 HD 
HETATM   21  C   UNL     1      -8.760  10.758  68.290  1.00  0.00    -0.136 C  
HETATM   22  C   UNL     1      -7.700  11.839  67.999  1.00  0.00    -0.123 C  
HETATM   23  O   UNL     1     -11.240  16.644  67.976  1.00  0.00    -0.306 OA 
HETATM   24  C   UNL     1      -8.265  13.035  67.242  1.00  0.00    -0.174 C  
ENDROOT
BRANCH   4  25
HETATM   25  C   UNL     1     -10.885   7.175  68.904  1.00  0.00    -0.129 C  
HETATM   26  O   UNL     1     -11.560   6.801  69.878  1.00  0.00    -0.322 OA 
BRANCH  25  27
HETATM   27  C   UNL     1     -11.031   6.294  67.635  1.00  0.00    -0.342 C  
BRANCH  27  28
HETATM   28  O   UNL     1     -10.085   5.176  67.722  1.00  0.00    -0.163 OA 
BRANCH  28  29
HETATM   29  C   UNL     1      -9.765   4.467  66.594  1.00  0.00    -0.215 C  
HETATM   30  O   UNL     1     -10.373   4.574  65.534  1.00  0.00    -0.254 OA 
BRANCH  29  31
HETATM   31  C   UNL     1      -8.563   3.521  66.862  1.00  0.00    -0.112 C  
BRANCH  31  32
HETATM   32  N   UNL     1      -7.337   3.801  66.040  1.00  0.00    -0.071 NA 
BRANCH  32  33
HETATM   33  C   UNL     1      -7.445   3.295  64.663  1.00  0.00    -0.075 C  
HETATM   34  C   UNL     1      -6.186   2.660  64.081  1.00  0.00    -0.018 C  
ENDBRANCH  32  33
BRANCH  32  35
HETATM   35  C   UNL     1      -6.990   5.239  66.104  1.00  0.00    -0.063 C  
HETATM   36  C   UNL     1      -6.468   5.729  67.460  1.00  0.00    -0.047 C  
ENDBRANCH  32  35
ENDBRANCH  31  32
ENDBRANCH  29  31
ENDBRANCH  28  29
ENDBRANCH  27  28
ENDBRANCH  25  27
ENDBRANCH   4  25
TORSDOF 8
ENDMDL
MODEL       87
REMARK 921   NORMALIZED FREE ENERGY PREDICTED BY IDOCK:   -4.50 KCAL/MOL
REMARK 922        TOTAL FREE ENERGY PREDICTED BY IDOCK:   -6.75 KCAL/MOL
REMARK 923 INTER-LIGAND FREE ENERGY PREDICTED BY IDOCK:   -6.57 KCAL/MOL
REMARK 924 INTRA-LIGAND FREE ENERGY PREDICTED BY IDOCK:   -0.19 KCAL/MOL
REMARK 927      BINDING AFFINITY PREDICTED BY RF-SCORE:    0.00 PKD
ROOT
HETATM    1  C   UNL     1      -7.859  10.605  69.658  1.00  0.00    -0.048 C  
HETATM    2  C   UNL     1      -6.961   9.797  70.392  1.00  0.00    -0.139 C  
HETATM    3  C   UNL     1      -6.388  10.357  69.126  1.00  0.00    -0.046 C  
HETATM    4  C   UNL     1      -7.420  11.869  68.168  1.00  0.00    -0.100 C  
HETATM    5  C   UNL     1      -9.050   7.130  66.636  1.00  0.00    -0.175 C  
HETATM    6  O   UNL     1      -8.679  12.404  68.741  1.00  0.00    -0.369 OA 
HETATM    7  C   UNL     1      -6.475  11.865  69.141  1.00  0.00    -0.098 C  
HETATM    8  C   UNL     1      -5.476  11.373  67.553  1.00  0.00    -0.051 C  
HETATM    9  H   UNL     1      -9.153  13.099  68.300  1.00  0.00     0.000 HD 
HETATM   10  C   UNL     1      -9.211   5.895  66.119  1.00  0.00    -0.164 C  
HETATM   11  C   UNL     1      -8.420   5.539  64.928  1.00  0.00    -0.139 C  
HETATM   12  C   UNL     1      -6.084  12.852  70.225  1.00  0.00    -0.068 C  
HETATM   13  C   UNL     1      -6.477  10.374  66.479  1.00  0.00    -0.089 C  
HETATM   14  C   UNL     1      -7.006   6.017  64.958  1.00  0.00    -0.059 C  
HETATM   15  C   UNL     1      -9.059   8.927  64.983  1.00  0.00    -0.110 C  
HETATM   16  O   UNL     1      -7.264  11.311  65.722  1.00  0.00    -0.368 OA 
HETATM   17  C   UNL     1      -7.484   9.166  67.074  1.00  0.00    -0.091 C  
HETATM   18  C   UNL     1      -8.139   8.194  65.979  1.00  0.00    -0.112 C  
HETATM   19  C   UNL     1      -6.958   7.530  65.153  1.00  0.00    -0.058 C  
HETATM   20  H   UNL     1      -7.800  10.776  65.147  1.00  0.00     0.000 HD 
HETATM   21  C   UNL     1      -8.524   9.623  68.282  1.00  0.00    -0.118 C  
HETATM   22  C   UNL     1      -9.199   8.360  68.855  1.00  0.00    -0.147 C  
HETATM   23  O   UNL     1      -8.901   4.865  64.026  1.00  0.00    -0.141 OA 
HETATM   24  C   UNL     1      -9.925   7.543  67.793  1.00  0.00    -0.214 C  
ENDROOT
BRANCH   4  25
HETATM   25  C   UNL     1      -6.975  13.478  67.597  1.00  0.00    -0.167 C  
HETATM   26  O   UNL     1      -5.843  13.813  67.209  1.00  0.00    -0.326 OA 
BRANCH  25  27
HETATM   27  C   UNL     1      -8.026  14.620  67.597  1.00  0.00    -0.179 C  
BRANCH  27  28
HETATM   28  O   UNL     1      -9.090  14.285  66.644  1.00  0.00    -0.257 OA 
BRANCH  28  29
HETATM   29  C   UNL     1     -10.042  15.220  66.332  1.00  0.00    -0.274 C  
HETATM   30  O   UNL     1     -11.032  14.975  65.649  1.00  0.00    -0.331 OA 
BRANCH  29  31
HETATM   31  C   UNL     1      -9.676  16.601  66.940  1.00  0.00    -0.254 C  
BRANCH  31  32
HETATM   32  N   UNL     1     -10.708  17.183  67.864  1.00  0.00    -0.372 NA 
BRANCH  32  33
HETATM   33  C   UNL     1     -10.725  16.532  69.184  1.00  0.00    -0.335 C  
HETATM   34  C   UNL     1     -11.880  15.571  69.443  1.00  0.00    -0.392 C  
ENDBRANCH  32  33
BRANCH  32  35
HETATM   35  C   UNL     1     -10.558  18.654  67.945  1.00  0.00    -0.349 C  
HETATM   36  C   UNL     1      -9.274  19.147  68.622  1.00  0.00    -0.429 C  
ENDBRANCH  32  35
ENDBRANCH  31  32
ENDBRANCH  29  31
ENDBRANCH  28  29
ENDBRANCH  27  28
ENDBRANCH  25  27
ENDBRANCH   4  25
TORSDOF 8
ENDMDL
MODEL       88
REMARK 921   NORMALIZED FREE ENERGY PREDICTED BY IDOCK:   -4.50 KCAL/MOL
REMARK 922        TOTAL FREE ENERGY PREDICTED BY IDOCK:   -6.75 KCAL/MOL
REMARK 923 INTER-LIGAND FREE ENERGY PREDICTED BY IDOCK:   -7.56 KCAL/MOL
REMARK 924 INTRA-LIGAND FREE ENERGY PREDICTED BY IDOCK:    0.81 KCAL/MOL
REMARK 927      BINDING AFFINITY PREDICTED BY RF-SCORE:    0.00 PKD
ROOT
HETATM    1  C   UNL     1      -7.922   8.358  66.229  1.00  0.00    -0.099 C  
HETATM    2  C   UNL     1      -8.584   7.242  65.667  1.00  0.00    -0.123 C  
HETATM    3  C   UNL     1      -9.496   8.221  66.342  1.00  0.00    -0.287 C  
HETATM    4  C   UNL     1      -8.743  10.079  66.841  1.00  0.00    -0.128 C  
HETATM    5  C   UNL     1      -7.909   6.558  70.633  1.00  0.00    -0.106 C  
HETATM    6  O   UNL     1      -7.344  10.440  66.510  1.00  0.00    -0.107 OA 
HETATM    7  C   UNL     1      -9.335   9.590  65.724  1.00  0.00    -0.293 C  
HETATM    8  C   UNL     1     -10.803   9.709  66.985  1.00  0.00    -0.148 C  
HETATM    9  H   UNL     1      -6.997  11.294  66.740  1.00  0.00     0.000 HD 
HETATM   10  C   UNL     1      -7.978   5.666  71.641  1.00  0.00    -0.117 C  
HETATM   11  C   UNL     1      -9.118   5.764  72.569  1.00  0.00    -0.136 C  
HETATM   12  C   UNL     1      -9.318  10.003  64.264  1.00  0.00    -0.345 C  
HETATM   13  C   UNL     1     -10.239   9.336  68.627  1.00  0.00    -0.199 C  
HETATM   14  C   UNL     1     -10.427   6.059  71.914  1.00  0.00    -0.263 C  
HETATM   15  C   UNL     1      -8.329   8.870  71.297  1.00  0.00    -0.223 C  
HETATM   16  O   UNL     1      -9.683  10.567  69.122  1.00  0.00    -0.203 OA 
HETATM   17  C   UNL     1      -9.157   8.084  68.929  1.00  0.00    -0.144 C  
HETATM   18  C   UNL     1      -8.926   7.713  70.473  1.00  0.00    -0.151 C  
HETATM   19  C   UNL     1     -10.337   7.346  71.098  1.00  0.00    -0.209 C  
HETATM   20  H   UNL     1      -9.381  10.367  70.000  1.00  0.00     0.000 HD 
HETATM   21  C   UNL     1      -7.770   8.093  68.020  1.00  0.00    -0.114 C  
HETATM   22  C   UNL     1      -7.013   6.772  68.264  1.00  0.00    -0.080 C  
HETATM   23  O   UNL     1      -8.977   5.567  73.770  1.00  0.00    -0.124 OA 
HETATM   24  C   UNL     1      -6.696   6.534  69.736  1.00  0.00    -0.050 C  
ENDROOT
BRANCH   4  25
HETATM   25  C   UNL     1      -9.264  11.733  66.521  1.00  0.00    -0.201 C  
HETATM   26  O   UNL     1      -8.708  12.756  66.955  1.00  0.00    -0.207 OA 
BRANCH  25  27
HETATM   27  C   UNL     1     -10.538  11.996  65.674  1.00  0.00    -0.265 C  
BRANCH  27  28
HETATM   28  O   UNL     1     -10.768  13.443  65.599  1.00  0.00    -0.270 OA 
BRANCH  28  29
HETATM   29  C   UNL     1     -12.014  13.947  65.865  1.00  0.00    -0.407 C  
HETATM   30  O   UNL     1     -12.947  13.897  65.069  1.00  0.00    -0.731 OA 
BRANCH  29  31
HETATM   31  C   UNL     1     -12.056  14.591  67.278  1.00  0.00    -0.264 C  
BRANCH  31  32
HETATM   32  N   UNL     1     -10.767  15.212  67.733  1.00  0.00    -0.271 NA 
BRANCH  32  33
HETATM   33  C   UNL     1     -10.579  16.579  67.222  1.00  0.00    -0.285 C  
HETATM   34  C   UNL     1     -10.309  17.655  68.269  1.00  0.00    -0.384 C  
ENDBRANCH  32  33
BRANCH  32  35
HETATM   35  C   UNL     1     -10.642  15.122  69.206  1.00  0.00    -0.253 C  
HETATM   36  C   UNL     1     -11.714  14.277  69.905  1.00  0.00    -0.373 C  
ENDBRANCH  32  35
ENDBRANCH  31  32
ENDBRANCH  29  31
ENDBRANCH  28  29
ENDBRANCH  27  28
ENDBRANCH  25  27
ENDBRANCH   4  25
TORSDOF 8
ENDMDL
MODEL       89
REMARK 921   NORMALIZED FREE ENERGY PREDICTED BY IDOCK:   -4.46 KCAL/MOL
REMARK 922        TOTAL FREE ENERGY PREDICTED BY IDOCK:   -6.69 KCAL/MOL
REMARK 923 INTER-LIGAND FREE ENERGY PREDICTED BY IDOCK:   -6.81 KCAL/MOL
REMARK 924 INTRA-LIGAND FREE ENERGY PREDICTED BY IDOCK:    0.12 KCAL/MOL
REMARK 927      BINDING AFFINITY PREDICTED BY RF-SCORE:    0.00 PKD
ROOT
HETATM    1  C   UNL     1      -9.854   8.724  68.253  1.00  0.00    -0.185 C  
HETATM    2  C   UNL     1     -10.854   7.880  67.718  1.00  0.00    -0.094 C  
HETATM    3  C   UNL     1      -9.766   8.232  66.750  1.00  0.00    -0.307 C  
HETATM    4  C   UNL     1      -8.043   9.103  67.486  1.00  0.00    -0.104 C  
HETATM    5  C   UNL     1     -11.707  12.681  66.370  1.00  0.00    -0.466 C  
HETATM    6  O   UNL     1      -7.880   9.343  68.940  1.00  0.00    -0.081 OA 
HETATM    7  C   UNL     1      -8.424   7.815  67.305  1.00  0.00    -0.118 C  
HETATM    8  C   UNL     1      -8.117   8.442  65.496  1.00  0.00    -0.129 C  
HETATM    9  H   UNL     1      -7.088   9.744  69.278  1.00  0.00     0.000 HD 
HETATM   10  C   UNL     1     -12.595  13.527  65.812  1.00  0.00    -0.490 C  
HETATM   11  C   UNL     1     -12.351  13.967  64.428  1.00  0.00    -0.367 C  
HETATM   12  C   UNL     1      -7.995   6.498  67.925  1.00  0.00    -0.109 C  
HETATM   13  C   UNL     1      -8.593  10.147  65.344  1.00  0.00    -0.155 C  
HETATM   14  C   UNL     1     -11.862  12.893  63.513  1.00  0.00    -0.605 C  
HETATM   15  C   UNL     1      -9.370  13.297  66.025  1.00  0.00    -0.016 C  
HETATM   16  O   UNL     1      -7.462  10.896  65.822  1.00  0.00    -0.297 OA 
HETATM   17  C   UNL     1      -9.991  10.744  66.064  1.00  0.00    -0.295 C  
HETATM   18  C   UNL     1     -10.416  12.233  65.644  1.00  0.00    -0.293 C  
HETATM   19  C   UNL     1     -10.587  12.260  64.067  1.00  0.00    -0.434 C  
HETATM   20  H   UNL     1      -7.717  11.808  65.741  1.00  0.00     0.000 HD 
HETATM   21  C   UNL     1     -10.166  10.420  67.680  1.00  0.00    -0.240 C  
HETATM   22  C   UNL     1     -11.585  10.838  68.116  1.00  0.00    -0.276 C  
HETATM   23  O   UNL     1     -12.585  15.117  64.077  1.00  0.00    -0.791 OA 
HETATM   24  C   UNL     1     -11.889  12.301  67.819  1.00  0.00    -0.341 C  
ENDROOT
BRANCH   4  25
HETATM   25  C   UNL     1      -6.326   8.726  67.338  1.00  0.00    -0.057 C  
HETATM   26  O   UNL     1      -5.744   8.441  66.277  1.00  0.00    -0.041 OA 
BRANCH  25  27
HETATM   27  C   UNL     1      -5.428   8.688  68.602  1.00  0.00    -0.037 C  
BRANCH  27  28
HETATM   28  O   UNL     1      -5.226   7.289  68.999  1.00  0.00    -0.014 OA 
BRANCH  28  29
HETATM   29  C   UNL     1      -5.517   6.897  70.279  1.00  0.00    -0.023 C  
HETATM   30  O   UNL     1      -5.811   5.745  70.582  1.00  0.00    -0.022 OA 
BRANCH  29  31
HETATM   31  C   UNL     1      -5.438   8.102  71.255  1.00  0.00    -0.033 C  
BRANCH  31  32
HETATM   32  N   UNL     1      -6.242   7.954  72.515  1.00  0.00    -0.052 NA 
BRANCH  32  33
HETATM   33  C   UNL     1      -5.493   8.340  73.720  1.00  0.00    -0.064 C  
HETATM   34  C   UNL     1      -5.242   9.834  73.904  1.00  0.00    -0.034 C  
ENDBRANCH  32  33
BRANCH  32  35
HETATM   35  C   UNL     1      -7.537   8.661  72.386  1.00  0.00     0.030 C  
HETATM   36  C   UNL     1      -8.573   8.336  73.470  1.00  0.00    -0.269 C  
ENDBRANCH  32  35
ENDBRANCH  31  32
ENDBRANCH  29  31
ENDBRANCH  28  29
ENDBRANCH  27  28
ENDBRANCH  25  27
ENDBRANCH   4  25
TORSDOF 8
ENDMDL
MODEL       90
REMARK 921   NORMALIZED FREE ENERGY PREDICTED BY IDOCK:   -4.46 KCAL/MOL
REMARK 922        TOTAL FREE ENERGY PREDICTED BY IDOCK:   -6.69 KCAL/MOL
REMARK 923 INTER-LIGAND FREE ENERGY PREDICTED BY IDOCK:   -7.68 KCAL/MOL
REMARK 924 INTRA-LIGAND FREE ENERGY PREDICTED BY IDOCK:    1.00 KCAL/MOL
REMARK 927      BINDING AFFINITY PREDICTED BY RF-SCORE:    0.00 PKD
ROOT
HETATM    1  C   UNL     1      -7.218  14.320  68.937  1.00  0.00    -0.125 C  
HETATM    2  C   UNL     1      -6.043  14.444  68.160  1.00  0.00    -0.139 C  
HETATM    3  C   UNL     1      -7.308  14.748  67.415  1.00  0.00    -0.214 C  
HETATM    4  C   UNL     1      -9.046  15.012  68.501  1.00  0.00    -0.188 C  
HETATM    5  C   UNL     1      -8.248   9.973  67.302  1.00  0.00    -0.117 C  
HETATM    6  O   UNL     1      -9.030  14.932  69.981  1.00  0.00    -0.404 OA 
HETATM    7  C   UNL     1      -8.063  15.859  68.108  1.00  0.00    -0.145 C  
HETATM    8  C   UNL     1      -9.005  15.480  66.456  1.00  0.00    -0.348 C  
HETATM    9  H   UNL     1      -9.830  15.053  70.481  1.00  0.00     0.000 HD 
HETATM   10  C   UNL     1      -8.097   8.763  66.727  1.00  0.00    -0.104 C  
HETATM   11  C   UNL     1      -8.804   8.512  65.458  1.00  0.00    -0.154 C  
HETATM   12  C   UNL     1      -7.569  17.200  68.618  1.00  0.00    -0.258 C  
HETATM   13  C   UNL     1      -9.584  13.800  66.446  1.00  0.00    -0.272 C  
HETATM   14  C   UNL     1      -8.788   9.658  64.502  1.00  0.00    -0.257 C  
HETATM   15  C   UNL     1     -10.553  10.773  67.387  1.00  0.00    -0.287 C  
HETATM   16  O   UNL     1     -10.824  13.827  67.176  1.00  0.00    -0.279 OA 
HETATM   17  C   UNL     1      -8.637  12.534  67.018  1.00  0.00    -0.188 C  
HETATM   18  C   UNL     1      -9.191  11.057  66.726  1.00  0.00    -0.174 C  
HETATM   19  C   UNL     1      -9.370  10.908  65.157  1.00  0.00    -0.252 C  
HETATM   20  H   UNL     1     -11.133  12.928  67.171  1.00  0.00     0.000 HD 
HETATM   21  C   UNL     1      -8.006  12.733  68.538  1.00  0.00    -0.095 C  
HETATM   22  C   UNL     1      -6.998  11.597  68.806  1.00  0.00    -0.098 C  
HETATM   23  O   UNL     1      -9.314   7.424  65.222  1.00  0.00     0.408 OA 
HETATM   24  C   UNL     1      -7.612  10.211  68.649  1.00  0.00    -0.086 C  
ENDROOT
BRANCH   4  25
HETATM   25  C   UNL     1     -10.263  16.287  68.565  1.00  0.00    -0.247 C  
HETATM   26  O   UNL     1     -10.987  16.539  69.543  1.00  0.00    -0.318 OA 
BRANCH  25  27
HETATM   27  C   UNL     1     -10.528  17.170  67.317  1.00  0.00    -0.313 C  
BRANCH  27  28
HETATM   28  O   UNL     1     -10.411  18.582  67.700  1.00  0.00    -0.369 OA 
BRANCH  28  29
HETATM   29  C   UNL     1      -9.958  19.499  66.788  1.00  0.00    -0.395 C  
HETATM   30  O   UNL     1     -10.397  19.589  65.646  1.00  0.00    -0.453 OA 
BRANCH  29  31
HETATM   31  C   UNL     1      -8.824  20.367  67.398  1.00  0.00    -0.325 C  
BRANCH  31  32
HETATM   32  N   UNL     1      -7.578  20.464  66.564  1.00  0.00    -0.245 NA 
BRANCH  32  33
HETATM   33  C   UNL     1      -6.449  21.064  67.291  1.00  0.00    -0.351 C  
HETATM   34  C   UNL     1      -6.166  20.494  68.678  1.00  0.00    -0.351 C  
ENDBRANCH  32  33
BRANCH  32  35
HETATM   35  C   UNL     1      -7.252  19.148  65.969  1.00  0.00    -0.274 C  
HETATM   36  C   UNL     1      -5.868  19.048  65.314  1.00  0.00    -0.265 C  
ENDBRANCH  32  35
ENDBRANCH  31  32
ENDBRANCH  29  31
ENDBRANCH  28  29
ENDBRANCH  27  28
ENDBRANCH  25  27
ENDBRANCH   4  25
TORSDOF 8
ENDMDL
MODEL       91
REMARK 921   NORMALIZED FREE ENERGY PREDICTED BY IDOCK:   -4.44 KCAL/MOL
REMARK 922        TOTAL FREE ENERGY PREDICTED BY IDOCK:   -6.66 KCAL/MOL
REMARK 923 INTER-LIGAND FREE ENERGY PREDICTED BY IDOCK:   -7.70 KCAL/MOL
REMARK 924 INTRA-LIGAND FREE ENERGY PREDICTED BY IDOCK:    1.04 KCAL/MOL
REMARK 927      BINDING AFFINITY PREDICTED BY RF-SCORE:    0.00 PKD
ROOT
HETATM    1  C   UNL     1     -10.895  11.095  65.591  1.00  0.00    -0.206 C  
HETATM    2  C   UNL     1      -9.955  10.950  64.544  1.00  0.00    -0.376 C  
HETATM    3  C   UNL     1      -9.342  11.170  65.895  1.00  0.00    -0.235 C  
HETATM    4  C   UNL     1     -10.550  10.987  67.561  1.00  0.00    -0.227 C  
HETATM    5  C   UNL     1     -10.664  15.847  65.601  1.00  0.00    -0.350 C  
HETATM    6  O   UNL     1     -11.978  10.617  67.421  1.00  0.00    -0.291 OA 
HETATM    7  C   UNL     1      -9.806  10.100  66.854  1.00  0.00    -0.244 C  
HETATM    8  C   UNL     1      -8.470  11.153  67.785  1.00  0.00    -0.124 C  
HETATM    9  H   UNL     1     -12.534  10.533  68.187  1.00  0.00     0.000 HD 
HETATM   10  C   UNL     1     -10.424  17.108  65.190  1.00  0.00     0.119 C  
HETATM   11  C   UNL     1      -9.385  17.876  65.898  1.00  0.00     0.126 C  
HETATM   12  C   UNL     1      -9.858   8.593  66.681  1.00  0.00    -0.336 C  
HETATM   13  C   UNL     1      -8.999  12.843  67.919  1.00  0.00    -0.193 C  
HETATM   14  C   UNL     1      -8.160  17.093  66.240  1.00  0.00    -0.325 C  
HETATM   15  C   UNL     1     -10.854  15.590  68.021  1.00  0.00    -0.300 C  
HETATM   16  O   UNL     1      -9.861  12.876  69.070  1.00  0.00    -0.406 OA 
HETATM   17  C   UNL     1      -9.753  13.640  66.644  1.00  0.00    -0.287 C  
HETATM   18  C   UNL     1      -9.955  15.221  66.825  1.00  0.00    -0.249 C  
HETATM   19  C   UNL     1      -8.527  15.865  67.072  1.00  0.00    -0.248 C  
HETATM   20  H   UNL     1     -10.144  13.781  69.141  1.00  0.00     0.000 HD 
HETATM   21  C   UNL     1     -11.058  12.862  65.978  1.00  0.00    -0.308 C  
HETATM   22  C   UNL     1     -11.478  13.614  64.699  1.00  0.00    -0.383 C  
HETATM   23  O   UNL     1      -9.527  19.069  66.131  1.00  0.00    -0.403 OA 
HETATM   24  C   UNL     1     -11.793  15.084  64.952  1.00  0.00    -0.298 C  
ENDROOT
BRANCH   4  25
HETATM   25  C   UNL     1     -10.436  10.054  69.053  1.00  0.00    -0.214 C  
HETATM   26  O   UNL     1     -11.401   9.687  69.744  1.00  0.00    -0.213 OA 
BRANCH  25  27
HETATM   27  C   UNL     1      -9.045   9.668  69.623  1.00  0.00    -0.210 C  
BRANCH  27  28
HETATM   28  O   UNL     1      -9.076   8.261  70.039  1.00  0.00    -0.148 OA 
BRANCH  28  29
HETATM   29  C   UNL     1      -8.780   7.928  71.334  1.00  0.00    -0.127 C  
HETATM   30  O   UNL     1      -7.636   7.899  71.780  1.00  0.00    -0.075 OA 
BRANCH  29  31
HETATM   31  C   UNL     1     -10.072   7.585  72.124  1.00  0.00    -0.194 C  
BRANCH  31  32
HETATM   32  N   UNL     1     -10.545   6.166  71.986  1.00  0.00    -0.211 NA 
BRANCH  32  33
HETATM   33  C   UNL     1     -11.676   6.028  71.055  1.00  0.00     0.013 C  
HETATM   34  C   UNL     1     -12.785   7.067  71.190  1.00  0.00    -0.361 C  
ENDBRANCH  32  33
BRANCH  32  35
HETATM   35  C   UNL     1      -9.410   5.274  71.655  1.00  0.00    -0.147 C  
HETATM   36  C   UNL     1      -9.602   4.401  70.409  1.00  0.00    -0.266 C  
ENDBRANCH  32  35
ENDBRANCH  31  32
ENDBRANCH  29  31
ENDBRANCH  28  29
ENDBRANCH  27  28
ENDBRANCH  25  27
ENDBRANCH   4  25
TORSDOF 8
ENDMDL
MODEL       92
REMARK 921   NORMALIZED FREE ENERGY PREDICTED BY IDOCK:   -4.36 KCAL/MOL
REMARK 922        TOTAL FREE ENERGY PREDICTED BY IDOCK:   -6.54 KCAL/MOL
REMARK 923 INTER-LIGAND FREE ENERGY PREDICTED BY IDOCK:   -6.62 KCAL/MOL
REMARK 924 INTRA-LIGAND FREE ENERGY PREDICTED BY IDOCK:    0.08 KCAL/MOL
REMARK 927      BINDING AFFINITY PREDICTED BY RF-SCORE:    0.00 PKD
ROOT
HETATM    1  C   UNL     1      -7.055  16.767  69.053  1.00  0.00    -0.221 C  
HETATM    2  C   UNL     1      -5.869  17.139  68.379  1.00  0.00    -0.140 C  
HETATM    3  C   UNL     1      -6.929  16.567  67.486  1.00  0.00    -0.174 C  
HETATM    4  C   UNL     1      -8.841  16.365  68.241  1.00  0.00    -0.202 C  
HETATM    5  C   UNL     1      -5.889  12.160  69.274  1.00  0.00    -0.079 C  
HETATM    6  O   UNL     1      -9.159  16.805  69.621  1.00  0.00     0.166 OA 
HETATM    7  C   UNL     1      -8.199  17.377  67.607  1.00  0.00    -0.210 C  
HETATM    8  C   UNL     1      -8.486  16.081  66.193  1.00  0.00    -0.247 C  
HETATM    9  H   UNL     1     -10.039  16.712  69.968  1.00  0.00     0.000 HD 
HETATM   10  C   UNL     1      -5.147  11.035  69.258  1.00  0.00    -0.041 C  
HETATM   11  C   UNL     1      -5.368  10.081  68.158  1.00  0.00    -0.035 C  
HETATM   12  C   UNL     1      -8.403  18.879  67.556  1.00  0.00    -0.294 C  
HETATM   13  C   UNL     1      -8.348  14.429  66.831  1.00  0.00    -0.078 C  
HETATM   14  C   UNL     1      -5.562  10.712  66.819  1.00  0.00    -0.060 C  
HETATM   15  C   UNL     1      -8.269  11.807  68.859  1.00  0.00     0.054 C  
HETATM   16  O   UNL     1      -9.640  14.136  67.395  1.00  0.00    -0.220 OA 
HETATM   17  C   UNL     1      -7.157  14.003  67.938  1.00  0.00    -0.166 C  
HETATM   18  C   UNL     1      -7.006  12.435  68.239  1.00  0.00    -0.091 C  
HETATM   19  C   UNL     1      -6.724  11.703  66.861  1.00  0.00    -0.124 C  
HETATM   20  H   UNL     1      -9.565  13.253  67.736  1.00  0.00     0.000 HD 
HETATM   21  C   UNL     1      -7.045  14.965  69.284  1.00  0.00    -0.160 C  
HETATM   22  C   UNL     1      -5.774  14.573  70.065  1.00  0.00    -0.121 C  
HETATM   23  O   UNL     1      -5.341   8.872  68.352  1.00  0.00    -0.037 OA 
HETATM   24  C   UNL     1      -5.746  13.098  70.448  1.00  0.00    -0.170 C  
ENDROOT
BRANCH   4  25
HETATM   25  C   UNL     1     -10.433  16.890  67.689  1.00  0.00    -0.332 C  
HETATM   26  O   UNL     1     -10.652  17.547  66.657  1.00  0.00    -0.295 OA 
BRANCH  25  27
HETATM   27  C   UNL     1     -11.692  16.574  68.538  1.00  0.00     0.128 C  
BRANCH  27  28
HETATM   28  O   UNL     1     -11.319  15.651  69.616  1.00  0.00    -0.279 OA 
BRANCH  28  29
HETATM   29  C   UNL     1     -11.916  14.421  69.694  1.00  0.00    -0.336 C  
HETATM   30  O   UNL     1     -12.180  13.734  68.712  1.00  0.00    -0.350 OA 
BRANCH  29  31
HETATM   31  C   UNL     1     -12.217  14.049  71.172  1.00  0.00    -0.338 C  
BRANCH  31  32
HETATM   32  N   UNL     1     -13.667  13.811  71.486  1.00  0.00    -0.266 NA 
BRANCH  32  33
HETATM   33  C   UNL     1     -13.887  12.595  72.283  1.00  0.00    -0.218 C  
HETATM   34  C   UNL     1     -13.077  11.369  71.873  1.00  0.00    -0.505 C  
ENDBRANCH  32  33
BRANCH  32  35
HETATM   35  C   UNL     1     -14.268  15.020  72.094  1.00  0.00    -0.540 C  
HETATM   36  C   UNL     1     -13.304  15.898  72.901  1.00  0.00    -0.635 C  
ENDBRANCH  32  35
ENDBRANCH  31  32
ENDBRANCH  29  31
ENDBRANCH  28  29
ENDBRANCH  27  28
ENDBRANCH  25  27
ENDBRANCH   4  25
TORSDOF 8
ENDMDL
MODEL       93
REMARK 921   NORMALIZED FREE ENERGY PREDICTED BY IDOCK:   -4.35 KCAL/MOL
REMARK 922        TOTAL FREE ENERGY PREDICTED BY IDOCK:   -6.54 KCAL/MOL
REMARK 923 INTER-LIGAND FREE ENERGY PREDICTED BY IDOCK:   -6.17 KCAL/MOL
REMARK 924 INTRA-LIGAND FREE ENERGY PREDICTED BY IDOCK:   -0.37 KCAL/MOL
REMARK 927      BINDING AFFINITY PREDICTED BY RF-SCORE:    0.00 PKD
ROOT
HETATM    1  C   UNL     1      -8.970   5.490  69.595  1.00  0.00    -0.134 C  
HETATM    2  C   UNL     1      -7.789   4.713  69.555  1.00  0.00    -0.062 C  
HETATM    3  C   UNL     1      -7.629   6.039  70.235  1.00  0.00    -0.095 C  
HETATM    4  C   UNL     1      -9.332   7.095  70.735  1.00  0.00    -0.160 C  
HETATM    5  C   UNL     1      -7.744   8.164  65.856  1.00  0.00    -0.091 C  
HETATM    6  O   UNL     1     -10.676   6.538  70.454  1.00  0.00    -0.226 OA 
HETATM    7  C   UNL     1      -8.604   6.153  71.383  1.00  0.00    -0.128 C  
HETATM    8  C   UNL     1      -7.462   7.718  71.454  1.00  0.00    -0.076 C  
HETATM    9  H   UNL     1     -11.460   7.024  70.684  1.00  0.00     0.000 HD 
HETATM   10  C   UNL     1      -7.117   8.566  64.733  1.00  0.00    -0.080 C  
HETATM   11  C   UNL     1      -6.235   9.743  64.822  1.00  0.00    -0.095 C  
HETATM   12  C   UNL     1      -8.916   5.170  72.496  1.00  0.00    -0.136 C  
HETATM   13  C   UNL     1      -7.630   8.674  69.966  1.00  0.00    -0.068 C  
HETATM   14  C   UNL     1      -5.392   9.794  66.053  1.00  0.00    -0.036 C  
HETATM   15  C   UNL     1      -8.780   9.966  67.138  1.00  0.00    -0.136 C  
HETATM   16  O   UNL     1      -8.799   9.488  70.174  1.00  0.00    -0.201 OA 
HETATM   17  C   UNL     1      -7.728   7.948  68.453  1.00  0.00    -0.114 C  
HETATM   18  C   UNL     1      -7.635   8.936  67.193  1.00  0.00    -0.092 C  
HETATM   19  C   UNL     1      -6.268   9.733  67.302  1.00  0.00    -0.067 C  
HETATM   20  H   UNL     1      -8.889   9.999  69.377  1.00  0.00     0.000 HD 
HETATM   21  C   UNL     1      -8.870   6.756  68.296  1.00  0.00    -0.125 C  
HETATM   22  C   UNL     1      -8.669   6.057  66.936  1.00  0.00    -0.112 C  
HETATM   23  O   UNL     1      -6.188  10.570  63.919  1.00  0.00    -0.100 OA 
HETATM   24  C   UNL     1      -8.728   7.024  65.759  1.00  0.00    -0.116 C  
ENDROOT
BRANCH   4  25
HETATM   25  C   UNL     1      -9.925   7.817  72.232  1.00  0.00    -0.203 C  
HETATM   26  O   UNL     1      -9.247   7.994  73.259  1.00  0.00    -0.257 OA 
BRANCH  25  27
HETATM   27  C   UNL     1     -11.412   8.243  72.353  1.00  0.00    -0.394 C  
BRANCH  27  28
HETATM   28  O   UNL     1     -11.529   9.662  71.998  1.00  0.00    -0.182 OA 
BRANCH  28  29
HETATM   29  C   UNL     1     -11.881  10.017  70.723  1.00  0.00    -0.346 C  
HETATM   30  O   UNL     1     -11.516   9.402  69.725  1.00  0.00    -0.119 OA 
BRANCH  29  31
HETATM   31  C   UNL     1     -12.769  11.291  70.732  1.00  0.00    -0.269 C  
BRANCH  31  32
HETATM   32  N   UNL     1     -12.038  12.579  70.482  1.00  0.00    -0.345 NA 
BRANCH  32  33
HETATM   33  C   UNL     1     -11.873  12.874  69.050  1.00  0.00    -0.306 C  
HETATM   34  C   UNL     1     -10.446  12.815  68.513  1.00  0.00    -0.252 C  
ENDBRANCH  32  33
BRANCH  32  35
HETATM   35  C   UNL     1     -12.671  13.687  71.234  1.00  0.00    -0.361 C  
HETATM   36  C   UNL     1     -13.699  13.260  72.289  1.00  0.00    -0.686 C  
ENDBRANCH  32  35
ENDBRANCH  31  32
ENDBRANCH  29  31
ENDBRANCH  28  29
ENDBRANCH  27  28
ENDBRANCH  25  27
ENDBRANCH   4  25
TORSDOF 8
ENDMDL
MODEL       94
REMARK 921   NORMALIZED FREE ENERGY PREDICTED BY IDOCK:   -4.34 KCAL/MOL
REMARK 922        TOTAL FREE ENERGY PREDICTED BY IDOCK:   -6.52 KCAL/MOL
REMARK 923 INTER-LIGAND FREE ENERGY PREDICTED BY IDOCK:   -6.55 KCAL/MOL
REMARK 924 INTRA-LIGAND FREE ENERGY PREDICTED BY IDOCK:    0.02 KCAL/MOL
REMARK 927      BINDING AFFINITY PREDICTED BY RF-SCORE:    0.00 PKD
ROOT
HETATM    1  C   UNL     1      -6.613   8.850  67.610  1.00  0.00    -0.061 C  
HETATM    2  C   UNL     1      -6.599   7.620  66.912  1.00  0.00    -0.062 C  
HETATM    3  C   UNL     1      -7.929   8.312  66.910  1.00  0.00    -0.099 C  
HETATM    4  C   UNL     1      -8.008  10.284  67.522  1.00  0.00    -0.106 C  
HETATM    5  C   UNL     1      -8.493   6.975  71.558  1.00  0.00    -0.116 C  
HETATM    6  O   UNL     1      -6.773  11.001  67.922  1.00  0.00    -0.062 OA 
HETATM    7  C   UNL     1      -7.792   9.696  66.320  1.00  0.00    -0.101 C  
HETATM    8  C   UNL     1      -9.683   9.396  66.624  1.00  0.00    -0.280 C  
HETATM    9  H   UNL     1      -6.810  11.908  68.203  1.00  0.00     0.000 HD 
HETATM   10  C   UNL     1      -8.870   6.064  72.476  1.00  0.00    -0.132 C  
HETATM   11  C   UNL     1     -10.313   5.837  72.668  1.00  0.00    -0.198 C  
HETATM   12  C   UNL     1      -7.108  10.145  65.042  1.00  0.00    -0.135 C  
HETATM   13  C   UNL     1      -9.996   9.127  68.352  1.00  0.00    -0.181 C  
HETATM   14  C   UNL     1     -11.110   5.809  71.406  1.00  0.00    -0.273 C  
HETATM   15  C   UNL     1      -9.725   9.080  71.656  1.00  0.00    -0.347 C  
HETATM   16  O   UNL     1     -10.088  10.444  68.925  1.00  0.00    -0.181 OA 
HETATM   17  C   UNL     1      -8.977   8.185  69.301  1.00  0.00    -0.148 C  
HETATM   18  C   UNL     1      -9.511   7.836  70.773  1.00  0.00    -0.163 C  
HETATM   19  C   UNL     1     -10.908   7.102  70.619  1.00  0.00    -0.268 C  
HETATM   20  H   UNL     1     -10.255  10.299  69.850  1.00  0.00     0.000 HD 
HETATM   21  C   UNL     1      -7.367   8.576  69.240  1.00  0.00    -0.071 C  
HETATM   22  C   UNL     1      -6.566   7.486  69.980  1.00  0.00    -0.042 C  
HETATM   23  O   UNL     1     -10.782   5.645  73.783  1.00  0.00    -0.273 OA 
HETATM   24  C   UNL     1      -7.024   7.290  71.421  1.00  0.00    -0.063 C  
ENDROOT
BRANCH   4  25
HETATM   25  C   UNL     1      -8.653  11.759  66.802  1.00  0.00    -0.185 C  
HETATM   26  O   UNL     1      -9.646  11.818  66.057  1.00  0.00    -0.222 OA 
BRANCH  25  27
HETATM   27  C   UNL     1      -7.943  13.117  67.047  1.00  0.00     0.015 C  
BRANCH  27  28
HETATM   28  O   UNL     1      -8.903  14.203  66.816  1.00  0.00    -0.228 OA 
BRANCH  28  29
HETATM   29  C   UNL     1      -9.390  14.917  67.879  1.00  0.00    -0.191 C  
HETATM   30  O   UNL     1      -8.744  15.134  68.900  1.00  0.00    -0.181 OA 
BRANCH  29  31
HETATM   31  C   UNL     1     -10.848  15.379  67.610  1.00  0.00    -0.304 C  
BRANCH  31  32
HETATM   32  N   UNL     1     -11.911  14.395  68.008  1.00  0.00    -0.335 NA 
BRANCH  32  33
HETATM   33  C   UNL     1     -12.269  13.470  66.923  1.00  0.00    -0.327 C  
HETATM   34  C   UNL     1     -12.370  14.079  65.528  1.00  0.00    -0.503 C  
ENDBRANCH  32  33
BRANCH  32  35
HETATM   35  C   UNL     1     -11.529  13.701  69.260  1.00  0.00    -0.291 C  
HETATM   36  C   UNL     1     -12.241  14.192  70.526  1.00  0.00    -0.431 C  
ENDBRANCH  32  35
ENDBRANCH  31  32
ENDBRANCH  29  31
ENDBRANCH  28  29
ENDBRANCH  27  28
ENDBRANCH  25  27
ENDBRANCH   4  25
TORSDOF 8
ENDMDL
MODEL       95
REMARK 921   NORMALIZED FREE ENERGY PREDICTED BY IDOCK:   -4.33 KCAL/MOL
REMARK 922        TOTAL FREE ENERGY PREDICTED BY IDOCK:   -6.50 KCAL/MOL
REMARK 923 INTER-LIGAND FREE ENERGY PREDICTED BY IDOCK:   -6.13 KCAL/MOL
REMARK 924 INTRA-LIGAND FREE ENERGY PREDICTED BY IDOCK:   -0.37 KCAL/MOL
REMARK 927      BINDING AFFINITY PREDICTED BY RF-SCORE:    0.00 PKD
ROOT
HETATM    1  C   UNL     1     -11.719   7.606  71.513  1.00  0.00    -0.310 C  
HETATM    2  C   UNL     1     -11.692   8.364  72.706  1.00  0.00    -0.245 C  
HETATM    3  C   UNL     1     -10.446   8.476  71.879  1.00  0.00    -0.387 C  
HETATM    4  C   UNL     1     -10.493   7.771  69.938  1.00  0.00    -0.232 C  
HETATM    5  C   UNL     1      -9.216   3.999  73.346  1.00  0.00    -0.111 C  
HETATM    6  O   UNL     1     -11.737   7.199  69.372  1.00  0.00    -0.468 OA 
HETATM    7  C   UNL     1     -10.787   8.972  70.494  1.00  0.00    -0.296 C  
HETATM    8  C   UNL     1      -8.853   8.897  70.607  1.00  0.00    -0.234 C  
HETATM    9  H   UNL     1     -11.758   6.875  68.479  1.00  0.00     0.000 HD 
HETATM   10  C   UNL     1      -8.647   3.179  74.251  1.00  0.00    -0.079 C  
HETATM   11  C   UNL     1      -7.175   3.161  74.333  1.00  0.00    -0.047 C  
HETATM   12  C   UNL     1     -11.656  10.140  70.065  1.00  0.00    -0.323 C  
HETATM   13  C   UNL     1      -8.317   7.231  70.915  1.00  0.00    -0.116 C  
HETATM   14  C   UNL     1      -6.532   4.504  74.225  1.00  0.00    -0.057 C  
HETATM   15  C   UNL     1      -8.196   3.925  71.129  1.00  0.00    -0.078 C  
HETATM   16  O   UNL     1      -8.289   6.602  69.621  1.00  0.00    -0.128 OA 
HETATM   17  C   UNL     1      -9.120   6.227  71.998  1.00  0.00    -0.142 C  
HETATM   18  C   UNL     1      -8.386   4.845  72.350  1.00  0.00    -0.120 C  
HETATM   19  C   UNL     1      -6.951   5.193  72.928  1.00  0.00    -0.079 C  
HETATM   20  H   UNL     1      -8.003   5.711  69.786  1.00  0.00     0.000 HD 
HETATM   21  C   UNL     1     -10.757   6.087  71.774  1.00  0.00    -0.294 C  
HETATM   22  C   UNL     1     -11.354   5.322  72.973  1.00  0.00    -0.376 C  
HETATM   23  O   UNL     1      -6.564   2.117  74.522  1.00  0.00    -0.016 OA 
HETATM   24  C   UNL     1     -10.716   3.954  73.181  1.00  0.00    -0.270 C  
ENDROOT
BRANCH   4  25
HETATM   25  C   UNL     1     -10.085   8.477  68.374  1.00  0.00    -0.194 C  
HETATM   26  O   UNL     1      -9.514   9.569  68.208  1.00  0.00    -0.133 OA 
BRANCH  25  27
HETATM   27  C   UNL     1     -10.482   7.746  67.065  1.00  0.00    -0.349 C  
BRANCH  27  28
HETATM   28  O   UNL     1     -10.036   6.351  67.146  1.00  0.00    -0.139 OA 
BRANCH  28  29
HETATM   29  C   UNL     1      -9.297   5.813  66.125  1.00  0.00    -0.144 C  
HETATM   30  O   UNL     1      -8.497   6.459  65.457  1.00  0.00    -0.148 OA 
BRANCH  29  31
HETATM   31  C   UNL     1      -9.633   4.308  65.937  1.00  0.00    -0.191 C  
BRANCH  31  32
HETATM   32  N   UNL     1      -8.442   3.397  65.846  1.00  0.00    -0.107 NA 
BRANCH  32  33
HETATM   33  C   UNL     1      -7.741   3.242  67.130  1.00  0.00    -0.078 C  
HETATM   34  C   UNL     1      -7.937   1.908  67.844  1.00  0.00    -0.061 C  
ENDBRANCH  32  33
BRANCH  32  35
HETATM   35  C   UNL     1      -8.828   2.103  65.236  1.00  0.00    -0.123 C  
HETATM   36  C   UNL     1      -7.889   1.590  64.137  1.00  0.00    -0.061 C  
ENDBRANCH  32  35
ENDBRANCH  31  32
ENDBRANCH  29  31
ENDBRANCH  28  29
ENDBRANCH  27  28
ENDBRANCH  25  27
ENDBRANCH   4  25
TORSDOF 8
ENDMDL
MODEL       96
REMARK 921   NORMALIZED FREE ENERGY PREDICTED BY IDOCK:   -4.31 KCAL/MOL
REMARK 922        TOTAL FREE ENERGY PREDICTED BY IDOCK:   -6.47 KCAL/MOL
REMARK 923 INTER-LIGAND FREE ENERGY PREDICTED BY IDOCK:   -6.24 KCAL/MOL
REMARK 924 INTRA-LIGAND FREE ENERGY PREDICTED BY IDOCK:   -0.23 KCAL/MOL
REMARK 927      BINDING AFFINITY PREDICTED BY RF-SCORE:    0.00 PKD
ROOT
HETATM    1  C   UNL     1      -6.925  15.353  68.691  1.00  0.00    -0.111 C  
HETATM    2  C   UNL     1      -5.992  15.819  67.737  1.00  0.00    -0.170 C  
HETATM    3  C   UNL     1      -7.317  15.425  67.159  1.00  0.00    -0.203 C  
HETATM    4  C   UNL     1      -8.900  15.122  68.452  1.00  0.00    -0.174 C  
HETATM    5  C   UNL     1      -6.069  10.761  67.789  1.00  0.00    -0.047 C  
HETATM    6  O   UNL     1      -8.731  15.322  69.911  1.00  0.00    -0.386 OA 
HETATM    7  C   UNL     1      -8.424  16.219  67.811  1.00  0.00    -0.169 C  
HETATM    8  C   UNL     1      -9.234  15.190  66.381  1.00  0.00    -0.334 C  
HETATM    9  H   UNL     1      -9.459  15.183  70.505  1.00  0.00     0.000 HD 
HETATM   10  C   UNL     1      -5.450   9.646  67.355  1.00  0.00    -0.036 C  
HETATM   11  C   UNL     1      -6.074   8.898  66.249  1.00  0.00    -0.063 C  
HETATM   12  C   UNL     1      -8.530  17.710  68.069  1.00  0.00    -0.244 C  
HETATM   13  C   UNL     1      -9.015  13.451  66.670  1.00  0.00    -0.122 C  
HETATM   14  C   UNL     1      -6.640   9.754  65.165  1.00  0.00    -0.100 C  
HETATM   15  C   UNL     1      -8.476  10.518  68.119  1.00  0.00    -0.123 C  
HETATM   16  O   UNL     1     -10.077  13.084  67.568  1.00  0.00    -0.214 OA 
HETATM   17  C   UNL     1      -7.565  12.825  67.248  1.00  0.00    -0.116 C  
HETATM   18  C   UNL     1      -7.435  11.226  67.230  1.00  0.00    -0.126 C  
HETATM   19  C   UNL     1      -7.657  10.738  65.737  1.00  0.00    -0.079 C  
HETATM   20  H   UNL     1      -9.959  12.153  67.723  1.00  0.00     0.000 HD 
HETATM   21  C   UNL     1      -6.966  13.539  68.619  1.00  0.00    -0.100 C  
HETATM   22  C   UNL     1      -5.543  13.000  68.872  1.00  0.00    -0.072 C  
HETATM   23  O   UNL     1      -6.071   7.674  66.231  1.00  0.00    -0.039 OA 
HETATM   24  C   UNL     1      -5.496  11.481  68.985  1.00  0.00    -0.046 C  
ENDROOT
BRANCH   4  25
HETATM   25  C   UNL     1     -10.544  15.756  68.536  1.00  0.00    -0.253 C  
HETATM   26  O   UNL     1     -11.288  15.950  67.560  1.00  0.00    -0.235 OA 
BRANCH  25  27
HETATM   27  C   UNL     1     -11.149  16.164  69.906  1.00  0.00    -0.357 C  
BRANCH  27  28
HETATM   28  O   UNL     1     -12.378  15.395  70.130  1.00  0.00    -0.356 OA 
BRANCH  28  29
HETATM   29  C   UNL     1     -12.386  14.377  71.047  1.00  0.00    -0.357 C  
HETATM   30  O   UNL     1     -12.293  14.557  72.257  1.00  0.00    -0.310 OA 
BRANCH  29  31
HETATM   31  C   UNL     1     -12.506  13.000  70.339  1.00  0.00    -0.194 C  
BRANCH  31  32
HETATM   32  N   UNL     1     -12.306  11.807  71.229  1.00  0.00    -0.225 NA 
BRANCH  32  33
HETATM   33  C   UNL     1     -13.553  11.347  71.859  1.00  0.00     0.001 C  
HETATM   34  C   UNL     1     -13.670   9.845  72.099  1.00  0.00    -0.296 C  
ENDBRANCH  32  33
BRANCH  32  35
HETATM   35  C   UNL     1     -11.595  10.732  70.499  1.00  0.00    -0.330 C  
HETATM   36  C   UNL     1     -11.898  10.645  68.999  1.00  0.00    -0.256 C  
ENDBRANCH  32  35
ENDBRANCH  31  32
ENDBRANCH  29  31
ENDBRANCH  28  29
ENDBRANCH  27  28
ENDBRANCH  25  27
ENDBRANCH   4  25
TORSDOF 8
ENDMDL
MODEL       97
REMARK 921   NORMALIZED FREE ENERGY PREDICTED BY IDOCK:   -4.31 KCAL/MOL
REMARK 922        TOTAL FREE ENERGY PREDICTED BY IDOCK:   -6.47 KCAL/MOL
REMARK 923 INTER-LIGAND FREE ENERGY PREDICTED BY IDOCK:   -6.44 KCAL/MOL
REMARK 924 INTRA-LIGAND FREE ENERGY PREDICTED BY IDOCK:   -0.03 KCAL/MOL
REMARK 927      BINDING AFFINITY PREDICTED BY RF-SCORE:    0.00 PKD
ROOT
HETATM    1  C   UNL     1      -8.007   9.281  70.666  1.00  0.00    -0.189 C  
HETATM    2  C   UNL     1      -6.716   8.878  71.079  1.00  0.00    -0.077 C  
HETATM    3  C   UNL     1      -6.875   9.001  69.594  1.00  0.00    -0.050 C  
HETATM    4  C   UNL     1      -8.550   9.965  68.864  1.00  0.00    -0.135 C  
HETATM    5  C   UNL     1      -9.430   4.858  69.644  1.00  0.00    -0.216 C  
HETATM    6  O   UNL     1      -9.551  10.545  69.791  1.00  0.00    -0.418 OA 
HETATM    7  C   UNL     1      -7.320  10.400  69.235  1.00  0.00    -0.106 C  
HETATM    8  C   UNL     1      -6.976   9.471  67.568  1.00  0.00    -0.084 C  
HETATM    9  H   UNL     1     -10.322  10.988  69.455  1.00  0.00     0.000 HD 
HETATM   10  C   UNL     1      -9.477   3.511  69.624  1.00  0.00    -0.235 C  
HETATM   11  C   UNL     1      -9.185   2.830  68.350  1.00  0.00    -0.191 C  
HETATM   12  C   UNL     1      -6.776  11.741  69.690  1.00  0.00    -0.034 C  
HETATM   13  C   UNL     1      -8.047   8.063  67.412  1.00  0.00    -0.122 C  
HETATM   14  C   UNL     1      -8.052   3.421  67.578  1.00  0.00    -0.081 C  
HETATM   15  C   UNL     1     -10.565   5.937  67.771  1.00  0.00    -0.331 C  
HETATM   16  O   UNL     1      -9.282   8.588  66.892  1.00  0.00    -0.144 OA 
HETATM   17  C   UNL     1      -8.384   7.057  68.716  1.00  0.00    -0.122 C  
HETATM   18  C   UNL     1      -9.167   5.699  68.372  1.00  0.00    -0.125 C  
HETATM   19  C   UNL     1      -8.306   4.902  67.305  1.00  0.00    -0.106 C  
HETATM   20  H   UNL     1      -9.855   7.834  66.809  1.00  0.00     0.000 HD 
HETATM   21  C   UNL     1      -8.911   7.813  70.094  1.00  0.00    -0.146 C  
HETATM   22  C   UNL     1      -8.953   6.779  71.238  1.00  0.00    -0.139 C  
HETATM   23  O   UNL     1      -9.810   1.836  68.005  1.00  0.00    -0.048 OA 
HETATM   24  C   UNL     1      -9.824   5.571  70.914  1.00  0.00    -0.241 C  
ENDROOT
BRANCH   4  25
HETATM   25  C   UNL     1      -8.796  11.299  67.735  1.00  0.00    -0.141 C  
HETATM   26  O   UNL     1      -8.228  11.421  66.637  1.00  0.00    -0.159 OA 
BRANCH  25  27
HETATM   27  C   UNL     1      -9.751  12.464  68.107  1.00  0.00    -0.214 C  
BRANCH  27  28
HETATM   28  O   UNL     1      -9.469  13.606  67.231  1.00  0.00    -0.215 OA 
BRANCH  28  29
HETATM   29  C   UNL     1      -8.607  14.586  67.648  1.00  0.00    -0.179 C  
HETATM   30  O   UNL     1      -7.435  14.654  67.287  1.00  0.00    -0.194 OA 
BRANCH  29  31
HETATM   31  C   UNL     1      -9.313  15.557  68.633  1.00  0.00    -0.201 C  
BRANCH  31  32
HETATM   32  N   UNL     1     -10.653  16.060  68.180  1.00  0.00    -0.275 NA 
BRANCH  32  33
HETATM   33  C   UNL     1     -11.756  15.607  69.042  1.00  0.00    -0.395 C  
HETATM   34  C   UNL     1     -11.526  15.734  70.545  1.00  0.00    -0.401 C  
ENDBRANCH  32  33
BRANCH  32  35
HETATM   35  C   UNL     1     -10.621  17.531  68.005  1.00  0.00    -0.384 C  
HETATM   36  C   UNL     1      -9.432  18.244  68.661  1.00  0.00    -0.343 C  
ENDBRANCH  32  35
ENDBRANCH  31  32
ENDBRANCH  29  31
ENDBRANCH  28  29
ENDBRANCH  27  28
ENDBRANCH  25  27
ENDBRANCH   4  25
TORSDOF 8
ENDMDL
MODEL       98
REMARK 921   NORMALIZED FREE ENERGY PREDICTED BY IDOCK:   -4.27 KCAL/MOL
REMARK 922        TOTAL FREE ENERGY PREDICTED BY IDOCK:   -6.41 KCAL/MOL
REMARK 923 INTER-LIGAND FREE ENERGY PREDICTED BY IDOCK:   -5.17 KCAL/MOL
REMARK 924 INTRA-LIGAND FREE ENERGY PREDICTED BY IDOCK:   -1.23 KCAL/MOL
REMARK 927      BINDING AFFINITY PREDICTED BY RF-SCORE:    0.00 PKD
ROOT
HETATM    1  C   UNL     1     -10.500   8.180  67.164  1.00  0.00    -0.396 C  
HETATM    2  C   UNL     1     -10.964   9.361  67.787  1.00  0.00    -0.122 C  
HETATM    3  C   UNL     1      -9.472   9.278  67.661  1.00  0.00    -0.156 C  
HETATM    4  C   UNL     1      -8.674   7.831  66.421  1.00  0.00    -0.150 C  
HETATM    5  C   UNL     1      -9.469   6.012  71.271  1.00  0.00    -0.180 C  
HETATM    6  O   UNL     1      -9.559   6.921  65.654  1.00  0.00    -0.313 OA 
HETATM    7  C   UNL     1      -9.085   9.106  66.211  1.00  0.00    -0.222 C  
HETATM    8  C   UNL     1      -7.440   9.332  67.212  1.00  0.00    -0.091 C  
HETATM    9  H   UNL     1      -9.192   6.256  65.084  1.00  0.00     0.000 HD 
HETATM   10  C   UNL     1      -9.460   5.722  72.587  1.00  0.00    -0.158 C  
HETATM   11  C   UNL     1      -8.204   5.928  73.329  1.00  0.00    -0.116 C  
HETATM   12  C   UNL     1      -9.547   9.869  64.983  1.00  0.00    -0.364 C  
HETATM   13  C   UNL     1      -7.259   8.028  68.405  1.00  0.00    -0.089 C  
HETATM   14  C   UNL     1      -7.467   7.174  72.966  1.00  0.00    -0.078 C  
HETATM   15  C   UNL     1      -7.546   5.155  70.034  1.00  0.00    -0.064 C  
HETATM   16  O   UNL     1      -6.690   6.927  67.673  1.00  0.00    -0.062 OA 
HETATM   17  C   UNL     1      -8.559   7.471  69.313  1.00  0.00    -0.136 C  
HETATM   18  C   UNL     1      -8.200   6.466  70.511  1.00  0.00    -0.118 C  
HETATM   19  C   UNL     1      -7.172   7.203  71.468  1.00  0.00    -0.077 C  
HETATM   20  H   UNL     1      -6.593   6.230  68.312  1.00  0.00     0.000 HD 
HETATM   21  C   UNL     1      -9.910   7.043  68.452  1.00  0.00    -0.148 C  
HETATM   22  C   UNL     1     -11.061   6.776  69.444  1.00  0.00    -0.310 C  
HETATM   23  O   UNL     1      -7.846   5.144  74.199  1.00  0.00    -0.096 OA 
HETATM   24  C   UNL     1     -10.717   5.711  70.478  1.00  0.00    -0.344 C  
ENDROOT
BRANCH   4  25
HETATM   25  C   UNL     1      -7.525   7.870  65.083  1.00  0.00    -0.082 C  
HETATM   26  O   UNL     1      -6.521   8.599  65.022  1.00  0.00    -0.060 OA 
BRANCH  25  27
HETATM   27  C   UNL     1      -7.756   6.977  63.835  1.00  0.00    -0.119 C  
BRANCH  27  28
HETATM   28  O   UNL     1      -6.746   5.912  63.819  1.00  0.00    -0.035 OA 
BRANCH  28  29
HETATM   29  C   UNL     1      -6.846   4.867  64.699  1.00  0.00    -0.049 C  
HETATM   30  O   UNL     1      -6.181   4.783  65.727  1.00  0.00    -0.029 OA 
BRANCH  29  31
HETATM   31  C   UNL     1      -7.884   3.825  64.200  1.00  0.00    -0.085 C  
BRANCH  31  32
HETATM   32  N   UNL     1      -9.199   3.839  64.925  1.00  0.00    -0.139 NA 
BRANCH  32  33
HETATM   33  C   UNL     1     -10.344   3.589  64.036  1.00  0.00    -0.242 C  
HETATM   34  C   UNL     1     -10.411   2.203  63.403  1.00  0.00    -0.167 C  
ENDBRANCH  32  33
BRANCH  32  35
HETATM   35  C   UNL     1      -9.157   2.924  66.088  1.00  0.00    -0.130 C  
HETATM   36  C   UNL     1      -9.401   3.583  67.452  1.00  0.00    -0.246 C  
ENDBRANCH  32  35
ENDBRANCH  31  32
ENDBRANCH  29  31
ENDBRANCH  28  29
ENDBRANCH  27  28
ENDBRANCH  25  27
ENDBRANCH   4  25
TORSDOF 8
ENDMDL
MODEL       99
REMARK 921   NORMALIZED FREE ENERGY PREDICTED BY IDOCK:   -4.22 KCAL/MOL
REMARK 922        TOTAL FREE ENERGY PREDICTED BY IDOCK:   -6.34 KCAL/MOL
REMARK 923 INTER-LIGAND FREE ENERGY PREDICTED BY IDOCK:   -6.19 KCAL/MOL
REMARK 924 INTRA-LIGAND FREE ENERGY PREDICTED BY IDOCK:   -0.15 KCAL/MOL
REMARK 927      BINDING AFFINITY PREDICTED BY RF-SCORE:    0.00 PKD
ROOT
HETATM    1  C   UNL     1     -11.692   7.645  71.593  1.00  0.00    -0.313 C  
HETATM    2  C   UNL     1     -11.727   8.360  72.812  1.00  0.00    -0.245 C  
HETATM    3  C   UNL     1     -10.508   8.623  71.980  1.00  0.00    -0.422 C  
HETATM    4  C   UNL     1     -10.506   7.984  70.016  1.00  0.00    -0.228 C  
HETATM    5  C   UNL     1      -8.827   4.241  73.279  1.00  0.00    -0.098 C  
HETATM    6  O   UNL     1     -11.694   7.311  69.439  1.00  0.00    -0.383 OA 
HETATM    7  C   UNL     1     -10.911   9.130  70.616  1.00  0.00    -0.321 C  
HETATM    8  C   UNL     1      -8.977   9.242  70.711  1.00  0.00    -0.292 C  
HETATM    9  H   UNL     1     -11.693   7.018  68.535  1.00  0.00     0.000 HD 
HETATM   10  C   UNL     1      -8.170   3.451  74.150  1.00  0.00    -0.070 C  
HETATM   11  C   UNL     1      -6.703   3.575  74.220  1.00  0.00    -0.044 C  
HETATM   12  C   UNL     1     -11.895  10.221  70.235  1.00  0.00    -0.372 C  
HETATM   13  C   UNL     1      -8.276   7.628  70.956  1.00  0.00    -0.107 C  
HETATM   14  C   UNL     1      -6.197   4.978  74.154  1.00  0.00    -0.060 C  
HETATM   15  C   UNL     1      -7.829   4.344  71.053  1.00  0.00    -0.068 C  
HETATM   16  O   UNL     1      -8.202   7.049  69.641  1.00  0.00    -0.127 OA 
HETATM   17  C   UNL     1      -8.966   6.513  72.009  1.00  0.00    -0.140 C  
HETATM   18  C   UNL     1      -8.095   5.198  72.307  1.00  0.00    -0.110 C  
HETATM   19  C   UNL     1      -6.695   5.666  72.886  1.00  0.00    -0.073 C  
HETATM   20  H   UNL     1      -7.827   6.186  69.772  1.00  0.00     0.000 HD 
HETATM   21  C   UNL     1     -10.583   6.220  71.793  1.00  0.00    -0.266 C  
HETATM   22  C   UNL     1     -11.089   5.359  72.969  1.00  0.00    -0.368 C  
HETATM   23  O   UNL     1      -5.990   2.591  74.368  1.00  0.00    -0.004 OA 
HETATM   24  C   UNL     1     -10.317   4.055  73.123  1.00  0.00    -0.238 C  
ENDROOT
BRANCH   4  25
HETATM   25  C   UNL     1     -10.186   8.780  68.474  1.00  0.00    -0.195 C  
HETATM   26  O   UNL     1      -9.771   9.944  68.342  1.00  0.00    -0.146 OA 
BRANCH  25  27
HETATM   27  C   UNL     1     -10.467   8.035  67.143  1.00  0.00    -0.338 C  
BRANCH  27  28
HETATM   28  O   UNL     1      -9.821   6.719  67.189  1.00  0.00    -0.143 OA 
BRANCH  28  29
HETATM   29  C   UNL     1      -9.137   6.259  66.096  1.00  0.00    -0.138 C  
HETATM   30  O   UNL     1      -9.356   5.172  65.569  1.00  0.00    -0.161 OA 
BRANCH  29  31
HETATM   31  C   UNL     1      -8.059   7.284  65.650  1.00  0.00    -0.133 C  
BRANCH  31  32
HETATM   32  N   UNL     1      -7.765   7.299  64.177  1.00  0.00    -0.116 NA 
BRANCH  32  33
HETATM   33  C   UNL     1      -8.004   8.614  63.561  1.00  0.00    -0.160 C  
HETATM   34  C   UNL     1      -8.912   9.563  64.336  1.00  0.00    -0.255 C  
ENDBRANCH  32  33
BRANCH  32  35
HETATM   35  C   UNL     1      -6.405   6.775  63.917  1.00  0.00    -0.035 C  
HETATM   36  C   UNL     1      -6.292   5.796  62.741  1.00  0.00    -0.025 C  
ENDBRANCH  32  35
ENDBRANCH  31  32
ENDBRANCH  29  31
ENDBRANCH  28  29
ENDBRANCH  27  28
ENDBRANCH  25  27
ENDBRANCH   4  25
TORSDOF 8
ENDMDL
MODEL      100
REMARK 921   NORMALIZED FREE ENERGY PREDICTED BY IDOCK:   -4.19 KCAL/MOL
REMARK 922        TOTAL FREE ENERGY PREDICTED BY IDOCK:   -6.29 KCAL/MOL
REMARK 923 INTER-LIGAND FREE ENERGY PREDICTED BY IDOCK:   -6.49 KCAL/MOL
REMARK 924 INTRA-LIGAND FREE ENERGY PREDICTED BY IDOCK:    0.19 KCAL/MOL
REMARK 927      BINDING AFFINITY PREDICTED BY RF-SCORE:    0.00 PKD
ROOT
HETATM    1  C   UNL     1      -7.495  10.211  70.054  1.00  0.00    -0.171 C  
HETATM    2  C   UNL     1      -6.631   9.264  70.652  1.00  0.00    -0.079 C  
HETATM    3  C   UNL     1      -6.280   9.608  69.236  1.00  0.00    -0.040 C  
HETATM    4  C   UNL     1      -7.179  11.257  68.376  1.00  0.00    -0.085 C  
HETATM    5  C   UNL     1     -10.071   6.927  67.770  1.00  0.00    -0.199 C  
HETATM    6  O   UNL     1      -8.124  12.093  69.154  1.00  0.00    -0.343 OA 
HETATM    7  C   UNL     1      -6.049  11.095  69.106  1.00  0.00    -0.047 C  
HETATM    8  C   UNL     1      -5.587  10.301  67.398  1.00  0.00    -0.041 C  
HETATM    9  H   UNL     1      -8.538  12.851  68.758  1.00  0.00     0.000 HD 
HETATM   10  C   UNL     1     -10.603   5.734  67.440  1.00  0.00    -0.340 C  
HETATM   11  C   UNL     1     -10.214   5.141  66.148  1.00  0.00    -0.222 C  
HETATM   12  C   UNL     1      -5.212  12.028  69.962  1.00  0.00    -0.088 C  
HETATM   13  C   UNL     1      -7.003   9.494  66.690  1.00  0.00    -0.085 C  
HETATM   14  C   UNL     1      -8.768   5.289  65.808  1.00  0.00    -0.143 C  
HETATM   15  C   UNL     1     -10.110   8.584  65.977  1.00  0.00     0.098 C  
HETATM   16  O   UNL     1      -7.740  10.540  66.032  1.00  0.00    -0.137 OA 
HETATM   17  C   UNL     1      -8.061   8.580  67.623  1.00  0.00    -0.107 C  
HETATM   18  C   UNL     1      -9.147   7.720  66.814  1.00  0.00    -0.185 C  
HETATM   19  C   UNL     1      -8.364   6.762  65.822  1.00  0.00    -0.143 C  
HETATM   20  H   UNL     1      -8.497  10.108  65.653  1.00  0.00     0.000 HD 
HETATM   21  C   UNL     1      -8.660   9.327  68.977  1.00  0.00    -0.134 C  
HETATM   22  C   UNL     1      -9.421   8.284  69.819  1.00  0.00    -0.163 C  
HETATM   23  O   UNL     1     -11.028   4.543  65.455  1.00  0.00    -0.256 OA 
HETATM   24  C   UNL     1     -10.536   7.593  69.042  1.00  0.00    -0.214 C  
ENDROOT
BRANCH   4  25
HETATM   25  C   UNL     1      -6.565  12.689  67.548  1.00  0.00    -0.156 C  
HETATM   26  O   UNL     1      -5.455  12.777  66.998  1.00  0.00    -0.344 OA 
BRANCH  25  27
HETATM   27  C   UNL     1      -7.414  13.987  67.509  1.00  0.00    -0.170 C  
BRANCH  27  28
HETATM   28  O   UNL     1      -6.558  15.125  67.861  1.00  0.00    -0.128 OA 
BRANCH  28  29
HETATM   29  C   UNL     1      -6.771  16.343  67.271  1.00  0.00    -0.186 C  
HETATM   30  O   UNL     1      -6.019  16.829  66.432  1.00  0.00    -0.306 OA 
BRANCH  29  31
HETATM   31  C   UNL     1      -8.061  17.005  67.827  1.00  0.00    -0.190 C  
BRANCH  31  32
HETATM   32  N   UNL     1      -8.992  17.558  66.786  1.00  0.00    -0.248 NA 
BRANCH  32  33
HETATM   33  C   UNL     1     -10.187  16.723  66.586  1.00  0.00    -0.309 C  
HETATM   34  C   UNL     1     -10.089  15.663  65.493  1.00  0.00    -0.395 C  
ENDBRANCH  32  33
BRANCH  32  35
HETATM   35  C   UNL     1      -9.316  18.972  67.082  1.00  0.00    -0.307 C  
HETATM   36  C   UNL     1     -10.354  19.616  66.154  1.00  0.00    -0.627 C  
ENDBRANCH  32  35
ENDBRANCH  31  32
ENDBRANCH  29  31
ENDBRANCH  28  29
ENDBRANCH  27  28
ENDBRANCH  25  27
ENDBRANCH   4  25
TORSDOF 8
ENDMDL
MODEL      101
REMARK 921   NORMALIZED FREE ENERGY PREDICTED BY IDOCK:   -4.18 KCAL/MOL
REMARK 922        TOTAL FREE ENERGY PREDICTED BY IDOCK:   -6.28 KCAL/MOL
REMARK 923 INTER-LIGAND FREE ENERGY PREDICTED BY IDOCK:   -6.98 KCAL/MOL
REMARK 924 INTRA-LIGAND FREE ENERGY PREDICTED BY IDOCK:    0.70 KCAL/MOL
REMARK 927      BINDING AFFINITY PREDICTED BY RF-SCORE:    0.00 PKD
ROOT
HETATM    1  C   UNL     1      -9.697   8.671  67.850  1.00  0.00    -0.192 C  
HETATM    2  C   UNL     1     -10.769   7.862  67.408  1.00  0.00    -0.278 C  
HETATM    3  C   UNL     1      -9.769   8.192  66.342  1.00  0.00    -0.275 C  
HETATM    4  C   UNL     1      -7.958   9.004  66.915  1.00  0.00    -0.105 C  
HETATM    5  C   UNL     1     -11.602  12.699  66.183  1.00  0.00    -0.445 C  
HETATM    6  O   UNL     1      -7.649   9.225  68.348  1.00  0.00    -0.084 OA 
HETATM    7  C   UNL     1      -8.393   7.729  66.762  1.00  0.00    -0.125 C  
HETATM    8  C   UNL     1      -8.243   8.366  64.936  1.00  0.00    -0.155 C  
HETATM    9  H   UNL     1      -6.816   9.599  68.611  1.00  0.00     0.000 HD 
HETATM   10  C   UNL     1     -12.515  13.576  65.720  1.00  0.00    -0.514 C  
HETATM   11  C   UNL     1     -12.391  14.023  64.321  1.00  0.00    -0.355 C  
HETATM   12  C   UNL     1      -7.946   6.394  67.328  1.00  0.00    -0.112 C  
HETATM   13  C   UNL     1      -8.680  10.085  64.844  1.00  0.00    -0.182 C  
HETATM   14  C   UNL     1     -12.025  12.944  63.356  1.00  0.00    -0.612 C  
HETATM   15  C   UNL     1      -9.292  13.250  65.619  1.00  0.00     0.228 C  
HETATM   16  O   UNL     1      -7.485  10.796  65.215  1.00  0.00    -0.337 OA 
HETATM   17  C   UNL     1      -9.983  10.715  65.699  1.00  0.00    -0.327 C  
HETATM   18  C   UNL     1     -10.401  12.220  65.332  1.00  0.00    -0.298 C  
HETATM   19  C   UNL     1     -10.723  12.269  63.780  1.00  0.00    -0.494 C  
HETATM   20  H   UNL     1      -7.720  11.716  65.166  1.00  0.00     0.000 HD 
HETATM   21  C   UNL     1     -10.011  10.381  67.323  1.00  0.00    -0.229 C  
HETATM   22  C   UNL     1     -11.368  10.835  67.896  1.00  0.00    -0.372 C  
HETATM   23  O   UNL     1     -12.623  15.182  64.004  1.00  0.00    -0.791 OA 
HETATM   24  C   UNL     1     -11.656  12.310  67.640  1.00  0.00    -0.421 C  
ENDROOT
BRANCH   4  25
HETATM   25  C   UNL     1      -6.275   8.578  66.599  1.00  0.00    -0.058 C  
HETATM   26  O   UNL     1      -5.358   8.612  67.437  1.00  0.00    -0.033 OA 
BRANCH  25  27
HETATM   27  C   UNL     1      -5.835   8.163  65.170  1.00  0.00    -0.045 C  
BRANCH  27  28
HETATM   28  O   UNL     1      -5.262   6.813  65.223  1.00  0.00    -0.024 OA 
BRANCH  28  29
HETATM   29  C   UNL     1      -5.355   5.993  64.129  1.00  0.00    -0.017 C  
HETATM   30  O   UNL     1      -5.401   6.407  62.975  1.00  0.00    -0.018 OA 
BRANCH  29  31
HETATM   31  C   UNL     1      -5.410   4.503  64.564  1.00  0.00    -0.013 C  
BRANCH  31  32
HETATM   32  N   UNL     1      -6.674   4.091  65.264  1.00  0.00    -0.047 NA 
BRANCH  32  33
HETATM   33  C   UNL     1      -7.697   3.576  64.340  1.00  0.00    -0.077 C  
HETATM   34  C   UNL     1      -8.640   4.614  63.739  1.00  0.00    -0.132 C  
ENDBRANCH  32  33
BRANCH  32  35
HETATM   35  C   UNL     1      -6.369   3.155  66.371  1.00  0.00    -0.028 C  
HETATM   36  C   UNL     1      -5.187   3.556  67.262  1.00  0.00    -0.012 C  
ENDBRANCH  32  35
ENDBRANCH  31  32
ENDBRANCH  29  31
ENDBRANCH  28  29
ENDBRANCH  27  28
ENDBRANCH  25  27
ENDBRANCH   4  25
TORSDOF 8
ENDMDL
MODEL      102
REMARK 921   NORMALIZED FREE ENERGY PREDICTED BY IDOCK:   -4.16 KCAL/MOL
REMARK 922        TOTAL FREE ENERGY PREDICTED BY IDOCK:   -6.25 KCAL/MOL
REMARK 923 INTER-LIGAND FREE ENERGY PREDICTED BY IDOCK:   -6.18 KCAL/MOL
REMARK 924 INTRA-LIGAND FREE ENERGY PREDICTED BY IDOCK:   -0.06 KCAL/MOL
REMARK 927      BINDING AFFINITY PREDICTED BY RF-SCORE:    0.00 PKD
ROOT
HETATM    1  C   UNL     1      -9.494   3.709  69.532  1.00  0.00    -0.246 C  
HETATM    2  C   UNL     1      -8.800   2.937  68.571  1.00  0.00    -0.165 C  
HETATM    3  C   UNL     1      -7.917   3.804  69.416  1.00  0.00    -0.059 C  
HETATM    4  C   UNL     1      -8.722   4.664  71.113  1.00  0.00    -0.116 C  
HETATM    5  C   UNL     1      -9.470   7.656  66.875  1.00  0.00    -0.222 C  
HETATM    6  O   UNL     1     -10.130   4.402  71.497  1.00  0.00    -0.188 OA 
HETATM    7  C   UNL     1      -8.114   3.476  70.878  1.00  0.00    -0.071 C  
HETATM    8  C   UNL     1      -6.653   4.747  70.776  1.00  0.00    -0.031 C  
HETATM    9  H   UNL     1     -10.500   4.798  72.278  1.00  0.00     0.000 HD 
HETATM   10  C   UNL     1      -9.380   8.462  65.799  1.00  0.00    -0.141 C  
HETATM   11  C   UNL     1      -8.245   9.400  65.736  1.00  0.00    -0.116 C  
HETATM   12  C   UNL     1      -8.137   2.130  71.578  1.00  0.00    -0.050 C  
HETATM   13  C   UNL     1      -7.212   6.274  70.062  1.00  0.00    -0.077 C  
HETATM   14  C   UNL     1      -6.944   8.829  66.192  1.00  0.00    -0.081 C  
HETATM   15  C   UNL     1      -9.115   8.778  69.014  1.00  0.00    -0.141 C  
HETATM   16  O   UNL     1      -7.802   7.004  71.153  1.00  0.00    -0.097 OA 
HETATM   17  C   UNL     1      -8.260   6.307  68.748  1.00  0.00    -0.120 C  
HETATM   18  C   UNL     1      -8.484   7.741  68.065  1.00  0.00    -0.123 C  
HETATM   19  C   UNL     1      -7.066   8.291  67.616  1.00  0.00    -0.083 C  
HETATM   20  H   UNL     1      -8.101   7.821  70.770  1.00  0.00     0.000 HD 
HETATM   21  C   UNL     1      -9.644   5.407  68.905  1.00  0.00    -0.188 C  
HETATM   22  C   UNL     1     -10.365   5.372  67.543  1.00  0.00    -0.246 C  
HETATM   23  O   UNL     1      -8.384  10.534  65.296  1.00  0.00    -0.161 OA 
HETATM   24  C   UNL     1     -10.680   6.762  67.003  1.00  0.00    -0.435 C  
ENDROOT
BRANCH   4  25
HETATM   25  C   UNL     1      -8.245   4.691  72.811  1.00  0.00    -0.100 C  
HETATM   26  O   UNL     1      -7.337   4.005  73.311  1.00  0.00    -0.066 OA 
BRANCH  25  27
HETATM   27  C   UNL     1      -9.011   5.589  73.819  1.00  0.00    -0.124 C  
BRANCH  27  28
HETATM   28  O   UNL     1      -9.960   6.428  73.080  1.00  0.00    -0.164 OA 
BRANCH  28  29
HETATM   29  C   UNL     1      -9.801   7.789  73.072  1.00  0.00    -0.282 C  
HETATM   30  O   UNL     1      -8.963   8.376  73.750  1.00  0.00    -0.167 OA 
BRANCH  29  31
HETATM   31  C   UNL     1     -10.825   8.457  72.114  1.00  0.00    -0.337 C  
BRANCH  31  32
HETATM   32  N   UNL     1     -12.265   8.291  72.507  1.00  0.00    -0.356 NA 
BRANCH  32  33
HETATM   33  C   UNL     1     -13.052   9.521  72.330  1.00  0.00    -0.408 C  
HETATM   34  C   UNL     1     -12.471  10.556  71.371  1.00  0.00    -0.516 C  
ENDBRANCH  32  33
BRANCH  32  35
HETATM   35  C   UNL     1     -12.857   7.120  71.818  1.00  0.00    -0.330 C  
HETATM   36  C   UNL     1     -12.274   6.810  70.434  1.00  0.00    -0.180 C  
ENDBRANCH  32  35
ENDBRANCH  31  32
ENDBRANCH  29  31
ENDBRANCH  28  29
ENDBRANCH  27  28
ENDBRANCH  25  27
ENDBRANCH   4  25
TORSDOF 8
ENDMDL
MODEL      103
REMARK 921   NORMALIZED FREE ENERGY PREDICTED BY IDOCK:   -4.09 KCAL/MOL
REMARK 922        TOTAL FREE ENERGY PREDICTED BY IDOCK:   -6.15 KCAL/MOL
REMARK 923 INTER-LIGAND FREE ENERGY PREDICTED BY IDOCK:   -6.39 KCAL/MOL
REMARK 924 INTRA-LIGAND FREE ENERGY PREDICTED BY IDOCK:    0.25 KCAL/MOL
REMARK 927      BINDING AFFINITY PREDICTED BY RF-SCORE:    0.00 PKD
ROOT
HETATM    1  C   UNL     1      -6.108   8.810  67.831  1.00  0.00    -0.051 C  
HETATM    2  C   UNL     1      -6.278   7.785  66.872  1.00  0.00    -0.053 C  
HETATM    3  C   UNL     1      -7.426   8.745  66.955  1.00  0.00    -0.090 C  
HETATM    4  C   UNL     1      -7.156  10.509  67.995  1.00  0.00    -0.086 C  
HETATM    5  C   UNL     1      -8.742   6.623  71.134  1.00  0.00    -0.137 C  
HETATM    6  O   UNL     1      -5.848  10.826  68.616  1.00  0.00    -0.041 OA 
HETATM    7  C   UNL     1      -6.943  10.154  66.704  1.00  0.00    -0.093 C  
HETATM    8  C   UNL     1      -8.876  10.234  66.826  1.00  0.00    -0.143 C  
HETATM    9  H   UNL     1      -5.724  11.638  69.095  1.00  0.00     0.000 HD 
HETATM   10  C   UNL     1      -9.396   5.649  71.798  1.00  0.00    -0.163 C  
HETATM   11  C   UNL     1     -10.867   5.720  71.852  1.00  0.00    -0.252 C  
HETATM   12  C   UNL     1      -6.050  10.695  65.603  1.00  0.00    -0.124 C  
HETATM   13  C   UNL     1      -9.418   9.685  68.426  1.00  0.00    -0.137 C  
HETATM   14  C   UNL     1     -11.514   6.140  70.574  1.00  0.00    -0.330 C  
HETATM   15  C   UNL     1      -9.511   8.884  71.642  1.00  0.00    -0.351 C  
HETATM   16  O   UNL     1      -9.293  10.837  69.279  1.00  0.00    -0.345 OA 
HETATM   17  C   UNL     1      -8.723   8.358  69.190  1.00  0.00    -0.142 C  
HETATM   18  C   UNL     1      -9.470   7.838  70.511  1.00  0.00    -0.163 C  
HETATM   19  C   UNL     1     -10.966   7.489  70.116  1.00  0.00    -0.267 C  
HETATM   20  H   UNL     1      -9.582  10.544  70.135  1.00  0.00     0.000 HD 
HETATM   21  C   UNL     1      -7.069   8.378  69.311  1.00  0.00    -0.062 C  
HETATM   22  C   UNL     1      -6.597   7.004  69.826  1.00  0.00    -0.044 C  
HETATM   23  O   UNL     1     -11.479   5.410  72.866  1.00  0.00    -0.309 OA 
HETATM   24  C   UNL     1      -7.233   6.618  71.156  1.00  0.00    -0.078 C  
ENDROOT
BRANCH   4  25
HETATM   25  C   UNL     1      -7.400  12.210  67.597  1.00  0.00    -0.122 C  
HETATM   26  O   UNL     1      -8.369  12.666  66.967  1.00  0.00    -0.178 OA 
BRANCH  25  27
HETATM   27  C   UNL     1      -6.333  13.262  67.999  1.00  0.00    -0.128 C  
BRANCH  27  28
HETATM   28  O   UNL     1      -6.712  14.562  67.434  1.00  0.00    -0.258 OA 
BRANCH  28  29
HETATM   29  C   UNL     1      -7.478  15.426  68.171  1.00  0.00    -0.115 C  
HETATM   30  O   UNL     1      -7.360  15.567  69.384  1.00  0.00    -0.187 OA 
BRANCH  29  31
HETATM   31  C   UNL     1      -8.502  16.163  67.265  1.00  0.00    -0.180 C  
BRANCH  31  32
HETATM   32  N   UNL     1      -9.136  17.379  67.878  1.00  0.00    -0.250 NA 
BRANCH  32  33
HETATM   33  C   UNL     1      -8.927  18.596  67.079  1.00  0.00    -0.285 C  
HETATM   34  C   UNL     1     -10.189  19.304  66.594  1.00  0.00    -0.512 C  
ENDBRANCH  32  33
BRANCH  32  35
HETATM   35  C   UNL     1     -10.562  17.121  68.180  1.00  0.00    -0.380 C  
HETATM   36  C   UNL     1     -10.836  16.450  69.532  1.00  0.00    -0.338 C  
ENDBRANCH  32  35
ENDBRANCH  31  32
ENDBRANCH  29  31
ENDBRANCH  28  29
ENDBRANCH  27  28
ENDBRANCH  25  27
ENDBRANCH   4  25
TORSDOF 8
ENDMDL
MODEL      104
REMARK 921   NORMALIZED FREE ENERGY PREDICTED BY IDOCK:   -4.07 KCAL/MOL
REMARK 922        TOTAL FREE ENERGY PREDICTED BY IDOCK:   -6.12 KCAL/MOL
REMARK 923 INTER-LIGAND FREE ENERGY PREDICTED BY IDOCK:   -6.27 KCAL/MOL
REMARK 924 INTRA-LIGAND FREE ENERGY PREDICTED BY IDOCK:    0.15 KCAL/MOL
REMARK 927      BINDING AFFINITY PREDICTED BY RF-SCORE:    0.00 PKD
ROOT
HETATM    1  C   UNL     1      -9.297   9.794  64.105  1.00  0.00    -0.237 C  
HETATM    2  C   UNL     1      -8.625  10.626  63.181  1.00  0.00    -0.166 C  
HETATM    3  C   UNL     1      -7.930  10.489  64.502  1.00  0.00    -0.023 C  
HETATM    4  C   UNL     1      -8.560   9.003  65.791  1.00  0.00    -0.160 C  
HETATM    5  C   UNL     1     -11.296  13.426  66.439  1.00  0.00    -0.338 C  
HETATM    6  O   UNL     1      -9.651   8.078  65.401  1.00  0.00    -0.238 OA 
HETATM    7  C   UNL     1      -7.646   9.034  64.790  1.00  0.00    -0.105 C  
HETATM    8  C   UNL     1      -6.796  10.063  66.195  1.00  0.00    -0.102 C  
HETATM    9  H   UNL     1      -9.941   7.394  65.994  1.00  0.00     0.000 HD 
HETATM   10  C   UNL     1     -11.754  14.664  66.710  1.00  0.00    -0.355 C  
HETATM   11  C   UNL     1     -11.072  15.434  67.765  1.00  0.00    -0.320 C  
HETATM   12  C   UNL     1      -7.028   7.969  63.903  1.00  0.00    -0.071 C  
HETATM   13  C   UNL     1      -8.009  10.992  67.102  1.00  0.00    -0.135 C  
HETATM   14  C   UNL     1      -9.584  15.313  67.757  1.00  0.00    -0.206 C  
HETATM   15  C   UNL     1     -10.863  12.054  68.412  1.00  0.00    -0.266 C  
HETATM   16  O   UNL     1      -8.542  10.069  68.068  1.00  0.00    -0.120 OA 
HETATM   17  C   UNL     1      -9.281  11.777  66.332  1.00  0.00    -0.223 C  
HETATM   18  C   UNL     1     -10.152  12.767  67.246  1.00  0.00    -0.226 C  
HETATM   19  C   UNL     1      -9.168  13.847  67.862  1.00  0.00    -0.198 C  
HETATM   20  H   UNL     1      -9.191  10.566  68.552  1.00  0.00     0.000 HD 
HETATM   21  C   UNL     1     -10.180  10.848  65.293  1.00  0.00    -0.351 C  
HETATM   22  C   UNL     1     -11.144  11.769  64.517  1.00  0.00    -0.376 C  
HETATM   23  O   UNL     1     -11.702  16.143  68.539  1.00  0.00    -0.348 OA 
HETATM   24  C   UNL     1     -12.046  12.587  65.433  1.00  0.00    -0.494 C  
ENDROOT
BRANCH   4  25
HETATM   25  C   UNL     1      -7.735   7.698  66.645  1.00  0.00    -0.098 C  
HETATM   26  O   UNL     1      -6.516   7.657  66.884  1.00  0.00    -0.051 OA 
BRANCH  25  27
HETATM   27  C   UNL     1      -8.533   6.456  67.122  1.00  0.00    -0.112 C  
BRANCH  27  28
HETATM   28  O   UNL     1      -9.690   6.907  67.904  1.00  0.00    -0.122 OA 
BRANCH  28  29
HETATM   29  C   UNL     1      -9.646   6.860  69.272  1.00  0.00    -0.149 C  
HETATM   30  O   UNL     1     -10.629   6.640  69.973  1.00  0.00    -0.201 OA 
BRANCH  29  31
HETATM   31  C   UNL     1      -8.207   7.140  69.786  1.00  0.00    -0.131 C  
BRANCH  31  32
HETATM   32  N   UNL     1      -7.841   6.444  71.065  1.00  0.00    -0.108 NA 
BRANCH  32  33
HETATM   33  C   UNL     1      -7.017   5.245  70.848  1.00  0.00    -0.056 C  
HETATM   34  C   UNL     1      -7.759   3.996  70.384  1.00  0.00    -0.045 C  
ENDBRANCH  32  33
BRANCH  32  35
HETATM   35  C   UNL     1      -7.234   7.401  72.018  1.00  0.00    -0.067 C  
HETATM   36  C   UNL     1      -7.256   6.967  73.489  1.00  0.00    -0.074 C  
ENDBRANCH  32  35
ENDBRANCH  31  32
ENDBRANCH  29  31
ENDBRANCH  28  29
ENDBRANCH  27  28
ENDBRANCH  25  27
ENDBRANCH   4  25
TORSDOF 8
ENDMDL
MODEL      105
REMARK 921   NORMALIZED FREE ENERGY PREDICTED BY IDOCK:   -4.07 KCAL/MOL
REMARK 922        TOTAL FREE ENERGY PREDICTED BY IDOCK:   -6.12 KCAL/MOL
REMARK 923 INTER-LIGAND FREE ENERGY PREDICTED BY IDOCK:   -6.14 KCAL/MOL
REMARK 924 INTRA-LIGAND FREE ENERGY PREDICTED BY IDOCK:    0.03 KCAL/MOL
REMARK 927      BINDING AFFINITY PREDICTED BY RF-SCORE:    0.00 PKD
ROOT
HETATM    1  C   UNL     1     -10.760   8.499  67.788  1.00  0.00    -0.170 C  
HETATM    2  C   UNL     1     -10.588   8.103  69.134  1.00  0.00    -0.179 C  
HETATM    3  C   UNL     1      -9.342   8.623  68.483  1.00  0.00    -0.138 C  
HETATM    4  C   UNL     1      -9.520   9.614  66.679  1.00  0.00    -0.170 C  
HETATM    5  C   UNL     1      -9.032   4.438  66.014  1.00  0.00    -0.122 C  
HETATM    6  O   UNL     1     -10.852   9.830  66.064  1.00  0.00     0.130 OA 
HETATM    7  C   UNL     1      -9.573  10.025  67.970  1.00  0.00    -0.154 C  
HETATM    8  C   UNL     1      -7.692   9.630  67.709  1.00  0.00    -0.094 C  
HETATM    9  H   UNL     1     -10.934  10.285  65.235  1.00  0.00     0.000 HD 
HETATM   10  C   UNL     1      -8.640   3.151  65.936  1.00  0.00    -0.118 C  
HETATM   11  C   UNL     1      -7.202   2.879  65.764  1.00  0.00    -0.066 C  
HETATM   12  C   UNL     1     -10.190  11.225  68.663  1.00  0.00    -0.214 C  
HETATM   13  C   UNL     1      -7.499   8.239  66.620  1.00  0.00    -0.086 C  
HETATM   14  C   UNL     1      -6.304   3.751  66.578  1.00  0.00    -0.036 C  
HETATM   15  C   UNL     1      -8.038   5.902  64.331  1.00  0.00    -0.128 C  
HETATM   16  O   UNL     1      -7.592   8.787  65.293  1.00  0.00    -0.087 OA 
HETATM   17  C   UNL     1      -8.490   6.885  66.727  1.00  0.00    -0.118 C  
HETATM   18  C   UNL     1      -8.047   5.620  65.846  1.00  0.00    -0.111 C  
HETATM   19  C   UNL     1      -6.573   5.223  66.276  1.00  0.00    -0.052 C  
HETATM   20  H   UNL     1      -7.489   8.043  64.711  1.00  0.00     0.000 HD 
HETATM   21  C   UNL     1     -10.121   7.182  66.714  1.00  0.00    -0.278 C  
HETATM   22  C   UNL     1     -10.863   5.870  67.043  1.00  0.00    -0.379 C  
HETATM   23  O   UNL     1      -6.810   1.973  65.039  1.00  0.00    -0.040 OA 
HETATM   24  C   UNL     1     -10.509   4.735  66.089  1.00  0.00    -0.332 C  
ENDROOT
BRANCH   4  25
HETATM   25  C   UNL     1      -8.974  11.185  66.091  1.00  0.00    -0.195 C  
HETATM   26  O   UNL     1      -7.962  11.786  66.489  1.00  0.00    -0.119 OA 
BRANCH  25  27
HETATM   27  C   UNL     1      -9.806  11.947  65.025  1.00  0.00    -0.209 C  
BRANCH  27  28
HETATM   28  O   UNL     1     -10.849  12.724  65.703  1.00  0.00    -0.267 OA 
BRANCH  28  29
HETATM   29  C   UNL     1     -11.042  14.039  65.369  1.00  0.00    -0.318 C  
HETATM   30  O   UNL     1     -11.757  14.402  64.440  1.00  0.00    -0.402 OA 
BRANCH  29  31
HETATM   31  C   UNL     1     -10.228  14.970  66.308  1.00  0.00    -0.294 C  
BRANCH  31  32
HETATM   32  N   UNL     1      -9.702  16.221  65.663  1.00  0.00    -0.500 NA 
BRANCH  32  33
HETATM   33  C   UNL     1     -10.702  17.298  65.606  1.00  0.00    -0.120 C  
HETATM   34  C   UNL     1     -10.194  18.702  65.922  1.00  0.00    -0.284 C  
ENDBRANCH  32  33
BRANCH  32  35
HETATM   35  C   UNL     1      -8.435  16.639  66.306  1.00  0.00    -0.320 C  
HETATM   36  C   UNL     1      -8.001  15.798  67.512  1.00  0.00    -0.171 C  
ENDBRANCH  32  35
ENDBRANCH  31  32
ENDBRANCH  29  31
ENDBRANCH  28  29
ENDBRANCH  27  28
ENDBRANCH  25  27
ENDBRANCH   4  25
TORSDOF 8
ENDMDL
MODEL      106
REMARK 921   NORMALIZED FREE ENERGY PREDICTED BY IDOCK:   -4.06 KCAL/MOL
REMARK 922        TOTAL FREE ENERGY PREDICTED BY IDOCK:   -6.11 KCAL/MOL
REMARK 923 INTER-LIGAND FREE ENERGY PREDICTED BY IDOCK:   -6.63 KCAL/MOL
REMARK 924 INTRA-LIGAND FREE ENERGY PREDICTED BY IDOCK:    0.52 KCAL/MOL
REMARK 927      BINDING AFFINITY PREDICTED BY RF-SCORE:    0.00 PKD
ROOT
HETATM    1  C   UNL     1      -9.314   9.480  64.755  1.00  0.00    -0.235 C  
HETATM    2  C   UNL     1      -8.445  10.198  63.903  1.00  0.00    -0.181 C  
HETATM    3  C   UNL     1      -7.951  10.062  65.312  1.00  0.00    -0.143 C  
HETATM    4  C   UNL     1      -8.893   8.708  66.555  1.00  0.00    -0.138 C  
HETATM    5  C   UNL     1     -11.236  13.396  66.655  1.00  0.00    -0.330 C  
HETATM    6  O   UNL     1     -10.009   7.871  66.052  1.00  0.00    -0.451 OA 
HETATM    7  C   UNL     1      -7.855   8.603  65.689  1.00  0.00    -0.101 C  
HETATM    8  C   UNL     1      -7.102   9.617  67.160  1.00  0.00    -0.086 C  
HETATM    9  H   UNL     1     -10.443   7.248  66.624  1.00  0.00     0.000 HD 
HETATM   10  C   UNL     1     -11.599  14.684  66.813  1.00  0.00    -0.370 C  
HETATM   11  C   UNL     1     -10.991  15.438  67.923  1.00  0.00    -0.310 C  
HETATM   12  C   UNL     1      -7.232   7.442  64.936  1.00  0.00    -0.067 C  
HETATM   13  C   UNL     1      -8.327  10.700  67.855  1.00  0.00    -0.120 C  
HETATM   14  C   UNL     1      -9.536  15.177  68.127  1.00  0.00    -0.201 C  
HETATM   15  C   UNL     1     -11.211  12.090  68.718  1.00  0.00    -0.316 C  
HETATM   16  O   UNL     1      -9.075   9.881  68.771  1.00  0.00    -0.137 OA 
HETATM   17  C   UNL     1      -9.399  11.561  66.888  1.00  0.00    -0.189 C  
HETATM   18  C   UNL     1     -10.281  12.673  67.636  1.00  0.00    -0.217 C  
HETATM   19  C   UNL     1      -9.286  13.686  68.342  1.00  0.00    -0.181 C  
HETATM   20  H   UNL     1      -9.730  10.460  69.143  1.00  0.00     0.000 HD 
HETATM   21  C   UNL     1     -10.239  10.670  65.769  1.00  0.00    -0.317 C  
HETATM   22  C   UNL     1     -10.993  11.638  64.835  1.00  0.00    -0.345 C  
HETATM   23  O   UNL     1     -11.645  16.241  68.577  1.00  0.00    -0.346 OA 
HETATM   24  C   UNL     1     -11.924  12.582  65.586  1.00  0.00    -0.492 C  
ENDROOT
BRANCH   4  25
HETATM   25  C   UNL     1      -8.325   7.376  67.562  1.00  0.00    -0.113 C  
HETATM   26  O   UNL     1      -7.220   7.327  68.128  1.00  0.00    -0.085 OA 
BRANCH  25  27
HETATM   27  C   UNL     1      -9.212   6.119  67.759  1.00  0.00    -0.111 C  
BRANCH  27  28
HETATM   28  O   UNL     1      -9.792   6.153  69.107  1.00  0.00    -0.139 OA 
BRANCH  28  29
HETATM   29  C   UNL     1      -9.602   5.096  69.956  1.00  0.00    -0.181 C  
HETATM   30  O   UNL     1     -10.321   4.869  70.925  1.00  0.00    -0.217 OA 
BRANCH  29  31
HETATM   31  C   UNL     1      -8.362   4.263  69.529  1.00  0.00    -0.062 C  
BRANCH  31  32
HETATM   32  N   UNL     1      -8.247   2.914  70.178  1.00  0.00    -0.044 NA 
BRANCH  32  33
HETATM   33  C   UNL     1      -8.071   2.994  71.637  1.00  0.00    -0.057 C  
HETATM   34  C   UNL     1      -6.807   3.697  72.122  1.00  0.00    -0.023 C  
ENDBRANCH  32  33
BRANCH  32  35
HETATM   35  C   UNL     1      -9.382   2.050  69.778  1.00  0.00    -0.088 C  
HETATM   36  C   UNL     1      -9.472   1.739  68.279  1.00  0.00    -0.234 C  
ENDBRANCH  32  35
ENDBRANCH  31  32
ENDBRANCH  29  31
ENDBRANCH  28  29
ENDBRANCH  27  28
ENDBRANCH  25  27
ENDBRANCH   4  25
TORSDOF 8
ENDMDL
MODEL      107
REMARK 921   NORMALIZED FREE ENERGY PREDICTED BY IDOCK:   -4.04 KCAL/MOL
REMARK 922        TOTAL FREE ENERGY PREDICTED BY IDOCK:   -6.08 KCAL/MOL
REMARK 923 INTER-LIGAND FREE ENERGY PREDICTED BY IDOCK:   -5.91 KCAL/MOL
REMARK 924 INTRA-LIGAND FREE ENERGY PREDICTED BY IDOCK:   -0.17 KCAL/MOL
REMARK 927      BINDING AFFINITY PREDICTED BY RF-SCORE:    0.00 PKD
ROOT
HETATM    1  C   UNL     1      -8.500   9.287  69.354  1.00  0.00    -0.137 C  
HETATM    2  C   UNL     1      -7.621   9.869  70.296  1.00  0.00    -0.172 C  
HETATM    3  C   UNL     1      -8.727   9.061  70.905  1.00  0.00    -0.280 C  
HETATM    4  C   UNL     1      -9.831   7.825  69.672  1.00  0.00    -0.182 C  
HETATM    5  C   UNL     1     -11.801  12.679  69.829  1.00  0.00    -0.379 C  
HETATM    6  O   UNL     1      -9.513   7.721  68.227  1.00  0.00    -0.145 OA 
HETATM    7  C   UNL     1      -8.686   7.647  70.376  1.00  0.00    -0.143 C  
HETATM    8  C   UNL     1     -10.049   7.695  71.754  1.00  0.00    -0.210 C  
HETATM    9  H   UNL     1     -10.021   7.153  67.660  1.00  0.00     0.000 HD 
HETATM   10  C   UNL     1     -12.375  13.859  70.138  1.00  0.00    -0.400 C  
HETATM   11  C   UNL     1     -13.389  13.871  71.208  1.00  0.00    -0.243 C  
HETATM   12  C   UNL     1      -7.516   6.689  70.249  1.00  0.00    -0.094 C  
HETATM   13  C   UNL     1     -11.334   8.839  71.312  1.00  0.00    -0.291 C  
HETATM   14  C   UNL     1     -13.057  13.017  72.386  1.00  0.00    -0.380 C  
HETATM   15  C   UNL     1     -13.368  10.821  69.600  1.00  0.00     1.263 C  
HETATM   16  O   UNL     1     -12.209   8.101  70.440  1.00  0.00    -0.462 OA 
HETATM   17  C   UNL     1     -10.993  10.330  70.614  1.00  0.00    -0.287 C  
HETATM   18  C   UNL     1     -12.227  11.347  70.492  1.00  0.00    -0.478 C  
HETATM   19  C   UNL     1     -12.812  11.575  71.948  1.00  0.00    -0.372 C  
HETATM   20  H   UNL     1     -12.896   8.713  70.204  1.00  0.00     0.000 HD 
HETATM   21  C   UNL     1     -10.010  10.293  69.278  1.00  0.00    -0.244 C  
HETATM   22  C   UNL     1      -9.625  11.740  68.911  1.00  0.00     0.030 C  
HETATM   23  O   UNL     1     -14.390  14.572  71.125  1.00  0.00    -0.279 OA 
HETATM   24  C   UNL     1     -10.836  12.633  68.670  1.00  0.00    -0.281 C  
ENDROOT
BRANCH   4  25
HETATM   25  C   UNL     1     -10.252   6.113  69.721  1.00  0.00    -0.195 C  
HETATM   26  O   UNL     1     -10.889   5.558  70.633  1.00  0.00    -0.258 OA 
BRANCH  25  27
HETATM   27  C   UNL     1      -9.780   5.164  68.588  1.00  0.00    -0.151 C  
BRANCH  27  28
HETATM   28  O   UNL     1     -10.557   5.449  67.376  1.00  0.00    -0.216 OA 
BRANCH  28  29
HETATM   29  C   UNL     1     -10.162   4.920  66.176  1.00  0.00    -0.277 C  
HETATM   30  O   UNL     1     -10.893   4.236  65.465  1.00  0.00    -0.158 OA 
BRANCH  29  31
HETATM   31  C   UNL     1      -8.685   5.290  65.870  1.00  0.00    -0.138 C  
BRANCH  31  32
HETATM   32  N   UNL     1      -8.490   6.236  64.720  1.00  0.00    -0.047 NA 
BRANCH  32  33
HETATM   33  C   UNL     1      -8.253   7.622  65.153  1.00  0.00    -0.128 C  
HETATM   34  C   UNL     1      -6.854   7.929  65.678  1.00  0.00    -0.052 C  
ENDBRANCH  32  33
BRANCH  32  35
HETATM   35  C   UNL     1      -7.443   5.727  63.804  1.00  0.00    -0.069 C  
HETATM   36  C   UNL     1      -7.490   4.219  63.528  1.00  0.00    -0.055 C  
ENDBRANCH  32  35
ENDBRANCH  31  32
ENDBRANCH  29  31
ENDBRANCH  28  29
ENDBRANCH  27  28
ENDBRANCH  25  27
ENDBRANCH   4  25
TORSDOF 8
ENDMDL
MODEL      108
REMARK 921   NORMALIZED FREE ENERGY PREDICTED BY IDOCK:   -3.97 KCAL/MOL
REMARK 922        TOTAL FREE ENERGY PREDICTED BY IDOCK:   -5.98 KCAL/MOL
REMARK 923 INTER-LIGAND FREE ENERGY PREDICTED BY IDOCK:   -6.19 KCAL/MOL
REMARK 924 INTRA-LIGAND FREE ENERGY PREDICTED BY IDOCK:    0.22 KCAL/MOL
REMARK 927      BINDING AFFINITY PREDICTED BY RF-SCORE:    0.00 PKD
ROOT
HETATM    1  C   UNL     1     -10.660   6.481  68.391  1.00  0.00    -0.296 C  
HETATM    2  C   UNL     1     -10.379   5.496  69.366  1.00  0.00    -0.348 C  
HETATM    3  C   UNL     1      -9.290   6.511  69.186  1.00  0.00    -0.133 C  
HETATM    4  C   UNL     1      -9.715   8.225  68.114  1.00  0.00    -0.158 C  
HETATM    5  C   UNL     1      -8.117   4.329  64.995  1.00  0.00    -0.098 C  
HETATM    6  O   UNL     1     -11.073   8.455  67.566  1.00  0.00    -0.458 OA 
HETATM    7  C   UNL     1      -9.832   7.900  69.425  1.00  0.00    -0.180 C  
HETATM    8  C   UNL     1      -7.916   8.075  69.183  1.00  0.00    -0.114 C  
HETATM    9  H   UNL     1     -11.269   9.244  67.073  1.00  0.00     0.000 HD 
HETATM   10  C   UNL     1      -7.454   3.369  64.320  1.00  0.00    -0.074 C  
HETATM   11  C   UNL     1      -5.995   3.513  64.173  1.00  0.00    -0.018 C  
HETATM   12  C   UNL     1     -10.684   8.429  70.564  1.00  0.00    -0.247 C  
HETATM   13  C   UNL     1      -7.443   7.505  67.568  1.00  0.00    -0.104 C  
HETATM   14  C   UNL     1      -5.295   4.005  65.397  1.00  0.00    -0.009 C  
HETATM   15  C   UNL     1      -7.501   6.609  64.377  1.00  0.00    -0.095 C  
HETATM   16  O   UNL     1      -7.680   8.622  66.693  1.00  0.00    -0.094 OA 
HETATM   17  C   UNL     1      -8.111   6.121  66.886  1.00  0.00    -0.109 C  
HETATM   18  C   UNL     1      -7.418   5.598  65.537  1.00  0.00    -0.074 C  
HETATM   19  C   UNL     1      -5.885   5.339  65.849  1.00  0.00    -0.018 C  
HETATM   20  H   UNL     1      -7.427   8.316  65.829  1.00  0.00     0.000 HD 
HETATM   21  C   UNL     1      -9.768   6.052  66.867  1.00  0.00    -0.173 C  
HETATM   22  C   UNL     1     -10.197   4.640  66.421  1.00  0.00    -0.293 C  
HETATM   23  O   UNL     1      -5.429   3.203  63.133  1.00  0.00    -0.008 OA 
HETATM   24  C   UNL     1      -9.622   4.246  65.066  1.00  0.00    -0.179 C  
ENDROOT
BRANCH   4  25
HETATM   25  C   UNL     1      -9.538   9.948  68.449  1.00  0.00    -0.148 C  
HETATM   26  O   UNL     1      -8.617  10.458  69.109  1.00  0.00    -0.149 OA 
BRANCH  25  27
HETATM   27  C   UNL     1     -10.609  10.951  67.943  1.00  0.00    -0.207 C  
BRANCH  27  28
HETATM   28  O   UNL     1     -10.218  12.306  68.348  1.00  0.00    -0.212 OA 
BRANCH  28  29
HETATM   29  C   UNL     1     -11.024  13.022  69.193  1.00  0.00    -0.140 C  
HETATM   30  O   UNL     1     -12.065  12.581  69.670  1.00  0.00    -0.279 OA 
BRANCH  29  31
HETATM   31  C   UNL     1     -10.444  14.443  69.434  1.00  0.00    -0.080 C  
BRANCH  31  32
HETATM   32  N   UNL     1     -11.468  15.521  69.646  1.00  0.00    -0.303 NA 
BRANCH  32  33
HETATM   33  C   UNL     1     -11.426  16.089  71.002  1.00  0.00    -0.417 C  
HETATM   34  C   UNL     1     -12.130  15.283  72.090  1.00  0.00    -0.477 C  
ENDBRANCH  32  33
BRANCH  32  35
HETATM   35  C   UNL     1     -11.366  16.547  68.584  1.00  0.00    -0.237 C  
HETATM   36  C   UNL     1     -10.099  16.476  67.722  1.00  0.00    -0.264 C  
ENDBRANCH  32  35
ENDBRANCH  31  32
ENDBRANCH  29  31
ENDBRANCH  28  29
ENDBRANCH  27  28
ENDBRANCH  25  27
ENDBRANCH   4  25
TORSDOF 8
ENDMDL
MODEL      109
REMARK 921   NORMALIZED FREE ENERGY PREDICTED BY IDOCK:   -3.97 KCAL/MOL
REMARK 922        TOTAL FREE ENERGY PREDICTED BY IDOCK:   -5.98 KCAL/MOL
REMARK 923 INTER-LIGAND FREE ENERGY PREDICTED BY IDOCK:   -5.75 KCAL/MOL
REMARK 924 INTRA-LIGAND FREE ENERGY PREDICTED BY IDOCK:   -0.22 KCAL/MOL
REMARK 927      BINDING AFFINITY PREDICTED BY RF-SCORE:    0.00 PKD
ROOT
HETATM    1  C   UNL     1     -10.067   6.968  68.204  1.00  0.00    -0.193 C  
HETATM    2  C   UNL     1     -11.250   6.416  67.661  1.00  0.00    -0.269 C  
HETATM    3  C   UNL     1     -10.129   6.560  66.675  1.00  0.00    -0.201 C  
HETATM    4  C   UNL     1      -8.235   6.956  67.396  1.00  0.00    -0.119 C  
HETATM    5  C   UNL     1     -10.970  11.355  66.601  1.00  0.00    -0.341 C  
HETATM    6  O   UNL     1      -7.989   7.063  68.854  1.00  0.00    -0.116 OA 
HETATM    7  C   UNL     1      -8.913   5.806  67.160  1.00  0.00    -0.113 C  
HETATM    8  C   UNL     1      -8.505   6.451  65.378  1.00  0.00    -0.126 C  
HETATM    9  H   UNL     1      -7.117   7.245  69.186  1.00  0.00     0.000 HD 
HETATM   10  C   UNL     1     -11.645  12.418  66.121  1.00  0.00    -0.452 C  
HETATM   11  C   UNL     1     -11.333  12.870  64.754  1.00  0.00    -0.315 C  
HETATM   12  C   UNL     1      -8.795   4.391  67.694  1.00  0.00    -0.121 C  
HETATM   13  C   UNL     1      -8.568   8.226  65.334  1.00  0.00    -0.151 C  
HETATM   14  C   UNL     1     -11.131  11.769  63.767  1.00  0.00    -0.513 C  
HETATM   15  C   UNL     1      -8.561  11.424  66.208  1.00  0.00    -0.156 C  
HETATM   16  O   UNL     1      -7.281   8.658  65.811  1.00  0.00    -0.078 OA 
HETATM   17  C   UNL     1      -9.769   9.091  66.132  1.00  0.00    -0.354 C  
HETATM   18  C   UNL     1      -9.838  10.660  65.807  1.00  0.00    -0.296 C  
HETATM   19  C   UNL     1     -10.031  10.822  64.242  1.00  0.00    -0.403 C  
HETATM   20  H   UNL     1      -7.315   9.608  65.788  1.00  0.00     0.000 HD 
HETATM   21  C   UNL     1      -9.980   8.720  67.735  1.00  0.00    -0.243 C  
HETATM   22  C   UNL     1     -11.251   9.433  68.241  1.00  0.00     0.129 C  
HETATM   23  O   UNL     1     -11.295  14.062  64.474  1.00  0.00    -0.368 OA 
HETATM   24  C   UNL     1     -11.207  10.942  68.033  1.00  0.00    -0.378 C  
ENDROOT
BRANCH   4  25
HETATM   25  C   UNL     1      -6.659   6.195  67.169  1.00  0.00    -0.055 C  
HETATM   26  O   UNL     1      -6.235   5.733  66.096  1.00  0.00    -0.032 OA 
BRANCH  25  27
HETATM   27  C   UNL     1      -5.700   6.020  68.375  1.00  0.00    -0.012 C  
BRANCH  27  28
HETATM   28  O   UNL     1      -5.395   4.594  68.537  1.00  0.00    -0.010 OA 
BRANCH  28  29
HETATM   29  C   UNL     1      -5.684   3.967  69.721  1.00  0.00    -0.017 C  
HETATM   30  O   UNL     1      -5.802   2.751  69.830  1.00  0.00    -0.021 OA 
BRANCH  29  31
HETATM   31  C   UNL     1      -5.853   5.004  70.865  1.00  0.00    -0.017 C  
BRANCH  31  32
HETATM   32  N   UNL     1      -6.791   4.592  71.963  1.00  0.00    -0.051 NA 
BRANCH  32  33
HETATM   33  C   UNL     1      -6.568   5.334  73.214  1.00  0.00    -0.071 C  
HETATM   34  C   UNL     1      -6.108   4.508  74.411  1.00  0.00    -0.045 C  
ENDBRANCH  32  33
BRANCH  32  35
HETATM   35  C   UNL     1      -8.194   4.654  71.494  1.00  0.00    -0.103 C  
HETATM   36  C   UNL     1      -9.256   4.337  72.555  1.00  0.00    -0.143 C  
ENDBRANCH  32  35
ENDBRANCH  31  32
ENDBRANCH  29  31
ENDBRANCH  28  29
ENDBRANCH  27  28
ENDBRANCH  25  27
ENDBRANCH   4  25
TORSDOF 8
ENDMDL
MODEL      110
REMARK 921   NORMALIZED FREE ENERGY PREDICTED BY IDOCK:   -3.97 KCAL/MOL
REMARK 922        TOTAL FREE ENERGY PREDICTED BY IDOCK:   -5.97 KCAL/MOL
REMARK 923 INTER-LIGAND FREE ENERGY PREDICTED BY IDOCK:   -6.01 KCAL/MOL
REMARK 924 INTRA-LIGAND FREE ENERGY PREDICTED BY IDOCK:    0.04 KCAL/MOL
REMARK 927      BINDING AFFINITY PREDICTED BY RF-SCORE:    0.00 PKD
ROOT
HETATM    1  C   UNL     1     -10.272   6.850  68.591  1.00  0.00    -0.181 C  
HETATM    2  C   UNL     1     -11.534   6.674  69.204  1.00  0.00    -0.199 C  
HETATM    3  C   UNL     1     -10.631   7.633  69.920  1.00  0.00    -0.237 C  
HETATM    4  C   UNL     1      -8.941   8.304  68.941  1.00  0.00    -0.144 C  
HETATM    5  C   UNL     1      -8.049   3.825  71.513  1.00  0.00    -0.069 C  
HETATM    6  O   UNL     1      -8.648   7.869  67.555  1.00  0.00    -0.122 OA 
HETATM    7  C   UNL     1     -10.220   8.750  68.990  1.00  0.00    -0.218 C  
HETATM    8  C   UNL     1      -9.531   9.195  70.747  1.00  0.00    -0.334 C  
HETATM    9  H   UNL     1      -7.870   8.178  67.104  1.00  0.00     0.000 HD 
HETATM   10  C   UNL     1      -7.852   2.836  72.407  1.00  0.00    -0.054 C  
HETATM   11  C   UNL     1      -7.353   3.206  73.743  1.00  0.00    -0.051 C  
HETATM   12  C   UNL     1     -11.065   9.610  68.069  1.00  0.00    -0.108 C  
HETATM   13  C   UNL     1      -8.391   7.949  71.297  1.00  0.00    -0.113 C  
HETATM   14  C   UNL     1      -7.966   4.442  74.314  1.00  0.00    -0.092 C  
HETATM   15  C   UNL     1      -6.224   5.441  71.372  1.00  0.00    -0.034 C  
HETATM   16  O   UNL     1      -7.134   8.297  70.690  1.00  0.00    -0.040 OA 
HETATM   17  C   UNL     1      -8.684   6.311  71.055  1.00  0.00    -0.136 C  
HETATM   18  C   UNL     1      -7.694   5.301  71.813  1.00  0.00    -0.109 C  
HETATM   19  C   UNL     1      -7.770   5.622  73.364  1.00  0.00    -0.095 C  
HETATM   20  H   UNL     1      -6.525   7.629  70.985  1.00  0.00     0.000 HD 
HETATM   21  C   UNL     1      -9.048   5.864  69.501  1.00  0.00    -0.140 C  
HETATM   22  C   UNL     1      -9.501   4.390  69.505  1.00  0.00    -0.251 C  
HETATM   23  O   UNL     1      -6.535   2.509  74.330  1.00  0.00    -0.015 OA 
HETATM   24  C   UNL     1      -8.464   3.453  70.111  1.00  0.00    -0.094 C  
ENDROOT
BRANCH   4  25
HETATM   25  C   UNL     1      -8.285   9.905  68.597  1.00  0.00    -0.108 C  
HETATM   26  O   UNL     1      -8.183  10.830  69.421  1.00  0.00    -0.124 OA 
BRANCH  25  27
HETATM   27  C   UNL     1      -7.825  10.263  67.159  1.00  0.00    -0.110 C  
BRANCH  27  28
HETATM   28  O   UNL     1      -8.315  11.604  66.822  1.00  0.00    -0.167 OA 
BRANCH  28  29
HETATM   29  C   UNL     1      -9.226  11.760  65.811  1.00  0.00    -0.139 C  
HETATM   30  O   UNL     1      -9.244  11.059  64.803  1.00  0.00    -0.205 OA 
BRANCH  29  31
HETATM   31  C   UNL     1     -10.191  12.938  66.117  1.00  0.00    -0.278 C  
BRANCH  31  32
HETATM   32  N   UNL     1     -10.417  13.889  64.976  1.00  0.00    -0.388 NA 
BRANCH  32  33
HETATM   33  C   UNL     1     -11.796  13.852  64.466  1.00  0.00    -0.426 C  
HETATM   34  C   UNL     1     -12.119  12.729  63.484  1.00  0.00    -0.642 C  
ENDBRANCH  32  33
BRANCH  32  35
HETATM   35  C   UNL     1      -9.970  15.252  65.343  1.00  0.00    -0.329 C  
HETATM   36  C   UNL     1     -10.784  15.933  66.451  1.00  0.00    -0.256 C  
ENDBRANCH  32  35
ENDBRANCH  31  32
ENDBRANCH  29  31
ENDBRANCH  28  29
ENDBRANCH  27  28
ENDBRANCH  25  27
ENDBRANCH   4  25
TORSDOF 8
ENDMDL
MODEL      111
REMARK 921   NORMALIZED FREE ENERGY PREDICTED BY IDOCK:   -3.95 KCAL/MOL
REMARK 922        TOTAL FREE ENERGY PREDICTED BY IDOCK:   -5.95 KCAL/MOL
REMARK 923 INTER-LIGAND FREE ENERGY PREDICTED BY IDOCK:   -5.34 KCAL/MOL
REMARK 924 INTRA-LIGAND FREE ENERGY PREDICTED BY IDOCK:   -0.61 KCAL/MOL
REMARK 927      BINDING AFFINITY PREDICTED BY RF-SCORE:    0.00 PKD
ROOT
HETATM    1  C   UNL     1     -10.962   9.534  69.388  1.00  0.00    -0.192 C  
HETATM    2  C   UNL     1     -10.988  10.476  70.442  1.00  0.00    -0.252 C  
HETATM    3  C   UNL     1      -9.626   9.926  70.143  1.00  0.00    -0.237 C  
HETATM    4  C   UNL     1      -9.359   8.870  68.388  1.00  0.00    -0.136 C  
HETATM    5  C   UNL     1     -10.961   5.770  72.298  1.00  0.00    -0.314 C  
HETATM    6  O   UNL     1     -10.482   8.690  67.437  1.00  0.00    -0.263 OA 
HETATM    7  C   UNL     1      -9.268  10.187  68.698  1.00  0.00    -0.157 C  
HETATM    8  C   UNL     1      -7.697   9.426  69.541  1.00  0.00    -0.089 C  
HETATM    9  H   UNL     1     -10.359   8.204  66.629  1.00  0.00     0.000 HD 
HETATM   10  C   UNL     1     -11.113   5.024  73.410  1.00  0.00    -0.404 C  
HETATM   11  C   UNL     1      -9.899   4.480  74.045  1.00  0.00    -0.147 C  
HETATM   12  C   UNL     1      -9.370  11.464  67.886  1.00  0.00    -0.164 C  
HETATM   13  C   UNL     1      -8.052   7.796  70.153  1.00  0.00    -0.117 C  
HETATM   14  C   UNL     1      -8.745   5.426  74.087  1.00  0.00    -0.119 C  
HETATM   15  C   UNL     1      -9.433   4.823  70.646  1.00  0.00    -0.238 C  
HETATM   16  O   UNL     1      -7.894   6.927  69.018  1.00  0.00    -0.107 OA 
HETATM   17  C   UNL     1      -9.503   7.436  70.923  1.00  0.00    -0.165 C  
HETATM   18  C   UNL     1      -9.583   5.998  71.631  1.00  0.00    -0.170 C  
HETATM   19  C   UNL     1      -8.398   5.908  72.681  1.00  0.00    -0.119 C  
HETATM   20  H   UNL     1      -8.084   6.055  69.346  1.00  0.00     0.000 HD 
HETATM   21  C   UNL     1     -10.880   7.868  70.108  1.00  0.00    -0.243 C  
HETATM   22  C   UNL     1     -12.089   7.672  71.045  1.00  0.00    -0.282 C  
HETATM   23  O   UNL     1      -9.887   3.355  74.529  1.00  0.00    -0.113 OA 
HETATM   24  C   UNL     1     -12.199   6.249  71.581  1.00  0.00    -0.161 C  
ENDROOT
BRANCH   4  25
HETATM   25  C   UNL     1      -8.221   9.001  67.046  1.00  0.00    -0.109 C  
HETATM   26  O   UNL     1      -7.154   9.638  67.071  1.00  0.00    -0.084 OA 
BRANCH  25  27
HETATM   27  C   UNL     1      -8.542   8.325  65.687  1.00  0.00    -0.166 C  
BRANCH  27  28
HETATM   28  O   UNL     1      -8.421   6.871  65.840  1.00  0.00    -0.135 OA 
BRANCH  28  29
HETATM   29  C   UNL     1      -7.565   6.171  65.030  1.00  0.00    -0.092 C  
HETATM   30  O   UNL     1      -7.111   6.618  63.981  1.00  0.00    -0.045 OA 
BRANCH  29  31
HETATM   31  C   UNL     1      -7.283   4.761  65.616  1.00  0.00    -0.072 C  
BRANCH  31  32
HETATM   32  N   UNL     1      -7.992   4.453  66.903  1.00  0.00    -0.101 NA 
BRANCH  32  33
HETATM   33  C   UNL     1      -9.279   3.769  66.697  1.00  0.00    -0.174 C  
HETATM   34  C   UNL     1      -9.396   2.929  65.429  1.00  0.00    -0.095 C  
ENDBRANCH  32  33
BRANCH  32  35
HETATM   35  C   UNL     1      -7.092   3.728  67.829  1.00  0.00    -0.055 C  
HETATM   36  C   UNL     1      -5.631   4.195  67.824  1.00  0.00    -0.021 C  
ENDBRANCH  32  35
ENDBRANCH  31  32
ENDBRANCH  29  31
ENDBRANCH  28  29
ENDBRANCH  27  28
ENDBRANCH  25  27
ENDBRANCH   4  25
TORSDOF 8
ENDMDL
MODEL      112
REMARK 921   NORMALIZED FREE ENERGY PREDICTED BY IDOCK:   -3.92 KCAL/MOL
REMARK 922        TOTAL FREE ENERGY PREDICTED BY IDOCK:   -5.90 KCAL/MOL
REMARK 923 INTER-LIGAND FREE ENERGY PREDICTED BY IDOCK:   -6.28 KCAL/MOL
REMARK 924 INTRA-LIGAND FREE ENERGY PREDICTED BY IDOCK:    0.38 KCAL/MOL
REMARK 927      BINDING AFFINITY PREDICTED BY RF-SCORE:    0.00 PKD
ROOT
HETATM    1  C   UNL     1      -9.628  11.641  64.551  1.00  0.00    -0.135 C  
HETATM    2  C   UNL     1     -10.509  11.054  63.615  1.00  0.00    -0.388 C  
HETATM    3  C   UNL     1     -10.672  10.544  65.015  1.00  0.00     0.027 C  
HETATM    4  C   UNL     1      -9.759  11.584  66.549  1.00  0.00    -0.203 C  
HETATM    5  C   UNL     1      -6.552   8.013  64.442  1.00  0.00    -0.061 C  
HETATM    6  O   UNL     1      -8.990  12.820  66.270  1.00  0.00    -0.424 OA 
HETATM    7  C   UNL     1     -10.972  11.690  65.952  1.00  0.00    -0.334 C  
HETATM    8  C   UNL     1     -11.131  10.058  66.987  1.00  0.00    -0.005 C  
HETATM    9  H   UNL     1      -8.570  13.298  66.976  1.00  0.00     0.000 HD 
HETATM   10  C   UNL     1      -5.906   6.908  64.022  1.00  0.00    -0.032 C  
HETATM   11  C   UNL     1      -6.066   5.675  64.812  1.00  0.00    -0.025 C  
HETATM   12  C   UNL     1     -11.979  12.817  65.820  1.00  0.00    -0.502 C  
HETATM   13  C   UNL     1      -9.581   9.189  67.013  1.00  0.00    -0.170 C  
HETATM   14  C   UNL     1      -7.453   5.430  65.305  1.00  0.00    -0.077 C  
HETATM   15  C   UNL     1      -6.354   8.452  66.836  1.00  0.00    -0.056 C  
HETATM   16  O   UNL     1      -8.822   9.811  68.065  1.00  0.00    -0.119 OA 
HETATM   17  C   UNL     1      -8.616   9.058  65.642  1.00  0.00    -0.187 C  
HETATM   18  C   UNL     1      -7.374   8.049  65.754  1.00  0.00    -0.079 C  
HETATM   19  C   UNL     1      -7.944   6.618  66.130  1.00  0.00    -0.110 C  
HETATM   20  H   UNL     1      -7.993   9.346  68.079  1.00  0.00     0.000 HD 
HETATM   21  C   UNL     1      -8.267  10.480  64.866  1.00  0.00    -0.117 C  
HETATM   22  C   UNL     1      -7.574  10.153  63.528  1.00  0.00    -0.138 C  
HETATM   23  O   UNL     1      -5.125   4.911  64.993  1.00  0.00    -0.011 OA 
HETATM   24  C   UNL     1      -6.318   9.307  63.701  1.00  0.00    -0.091 C  
ENDROOT
BRANCH   4  25
HETATM   25  C   UNL     1     -10.333  12.263  68.073  1.00  0.00    -0.214 C  
HETATM   26  O   UNL     1     -10.297  11.686  69.172  1.00  0.00    -0.142 OA 
BRANCH  25  27
HETATM   27  C   UNL     1     -10.984  13.671  68.098  1.00  0.00    -0.253 C  
BRANCH  27  28
HETATM   28  O   UNL     1     -10.428  14.430  69.224  1.00  0.00    -0.221 OA 
BRANCH  28  29
HETATM   29  C   UNL     1      -9.388  15.296  69.013  1.00  0.00    -0.231 C  
HETATM   30  O   UNL     1      -8.226  15.043  69.316  1.00  0.00    -0.182 OA 
BRANCH  29  31
HETATM   31  C   UNL     1      -9.893  16.616  68.369  1.00  0.00    -0.252 C  
BRANCH  31  32
HETATM   32  N   UNL     1      -8.880  17.345  67.534  1.00  0.00    -0.222 NA 
BRANCH  32  33
HETATM   33  C   UNL     1      -8.978  17.021  66.102  1.00  0.00    -0.208 C  
HETATM   34  C   UNL     1     -10.277  16.358  65.653  1.00  0.00    -0.349 C  
ENDBRANCH  32  33
BRANCH  32  35
HETATM   35  C   UNL     1      -8.939  18.800  67.804  1.00  0.00    -0.286 C  
HETATM   36  C   UNL     1     -10.309  19.331  68.243  1.00  0.00    -0.478 C  
ENDBRANCH  32  35
ENDBRANCH  31  32
ENDBRANCH  29  31
ENDBRANCH  28  29
ENDBRANCH  27  28
ENDBRANCH  25  27
ENDBRANCH   4  25
TORSDOF 8
ENDMDL
MODEL      113
REMARK 921   NORMALIZED FREE ENERGY PREDICTED BY IDOCK:   -3.91 KCAL/MOL
REMARK 922        TOTAL FREE ENERGY PREDICTED BY IDOCK:   -5.89 KCAL/MOL
REMARK 923 INTER-LIGAND FREE ENERGY PREDICTED BY IDOCK:   -6.75 KCAL/MOL
REMARK 924 INTRA-LIGAND FREE ENERGY PREDICTED BY IDOCK:    0.86 KCAL/MOL
REMARK 927      BINDING AFFINITY PREDICTED BY RF-SCORE:    0.00 PKD
ROOT
HETATM    1  C   UNL     1      -6.804  12.397  67.491  1.00  0.00    -0.143 C  
HETATM    2  C   UNL     1      -6.305  12.512  68.809  1.00  0.00    -0.079 C  
HETATM    3  C   UNL     1      -7.765  12.180  68.730  1.00  0.00    -0.034 C  
HETATM    4  C   UNL     1      -8.536  11.578  66.911  1.00  0.00    -0.163 C  
HETATM    5  C   UNL     1      -8.623  16.793  67.432  1.00  0.00    -0.206 C  
HETATM    6  O   UNL     1      -7.658  11.451  65.723  1.00  0.00    -0.360 OA 
HETATM    7  C   UNL     1      -7.964  10.907  67.941  1.00  0.00    -0.111 C  
HETATM    8  C   UNL     1      -9.698  11.409  68.650  1.00  0.00    -0.182 C  
HETATM    9  H   UNL     1      -8.013  11.174  64.886  1.00  0.00     0.000 HD 
HETATM   10  C   UNL     1      -8.845  18.080  67.763  1.00  0.00    -0.255 C  
HETATM   11  C   UNL     1     -10.162  18.429  68.324  1.00  0.00    -0.384 C  
HETATM   12  C   UNL     1      -7.257   9.570  68.056  1.00  0.00    -0.081 C  
HETATM   13  C   UNL     1     -10.183  13.000  68.027  1.00  0.00    -0.233 C  
HETATM   14  C   UNL     1     -10.702  17.437  69.301  1.00  0.00     0.039 C  
HETATM   15  C   UNL     1     -10.438  15.742  66.180  1.00  0.00    -0.326 C  
HETATM   16  O   UNL     1     -10.761  12.736  66.736  1.00  0.00    -0.256 OA 
HETATM   17  C   UNL     1      -9.089  14.270  67.890  1.00  0.00    -0.190 C  
HETATM   18  C   UNL     1      -9.718  15.704  67.542  1.00  0.00    -0.222 C  
HETATM   19  C   UNL     1     -10.782  16.051  68.666  1.00  0.00    -0.281 C  
HETATM   20  H   UNL     1     -11.021  13.588  66.403  1.00  0.00     0.000 HD 
HETATM   21  C   UNL     1      -7.686  13.929  67.074  1.00  0.00     0.160 C  
HETATM   22  C   UNL     1      -6.720  15.119  67.238  1.00  0.00    -0.025 C  
HETATM   23  O   UNL     1     -10.721  19.477  68.027  1.00  0.00    -0.385 OA 
HETATM   24  C   UNL     1      -7.318  16.439  66.763  1.00  0.00    -0.261 C  
ENDROOT
BRANCH   4  25
HETATM   25  C   UNL     1      -9.478  10.181  66.387  1.00  0.00    -0.176 C  
HETATM   26  O   UNL     1     -10.346  10.196  65.498  1.00  0.00    -0.248 OA 
BRANCH  25  27
HETATM   27  C   UNL     1      -9.284   8.809  67.084  1.00  0.00    -0.136 C  
BRANCH  27  28
HETATM   28  O   UNL     1     -10.563   8.386  67.666  1.00  0.00    -0.243 OA 
BRANCH  28  29
HETATM   29  C   UNL     1     -10.899   7.058  67.677  1.00  0.00    -0.242 C  
HETATM   30  O   UNL     1     -11.011   6.381  66.660  1.00  0.00    -0.304 OA 
BRANCH  29  31
HETATM   31  C   UNL     1     -11.129   6.561  69.130  1.00  0.00    -0.326 C  
BRANCH  31  32
HETATM   32  N   UNL     1     -10.786   7.554  70.204  1.00  0.00    -0.236 NA 
BRANCH  32  33
HETATM   33  C   UNL     1     -11.971   8.217  70.770  1.00  0.00    -0.109 C  
HETATM   34  C   UNL     1     -11.699   9.377  71.723  1.00  0.00    -0.444 C  
ENDBRANCH  32  33
BRANCH  32  35
HETATM   35  C   UNL     1      -9.927   6.924  71.234  1.00  0.00    -0.179 C  
HETATM   36  C   UNL     1      -8.418   7.116  71.037  1.00  0.00    -0.129 C  
ENDBRANCH  32  35
ENDBRANCH  31  32
ENDBRANCH  29  31
ENDBRANCH  28  29
ENDBRANCH  27  28
ENDBRANCH  25  27
ENDBRANCH   4  25
TORSDOF 8
ENDMDL
MODEL      114
REMARK 921   NORMALIZED FREE ENERGY PREDICTED BY IDOCK:   -3.89 KCAL/MOL
REMARK 922        TOTAL FREE ENERGY PREDICTED BY IDOCK:   -5.86 KCAL/MOL
REMARK 923 INTER-LIGAND FREE ENERGY PREDICTED BY IDOCK:   -5.91 KCAL/MOL
REMARK 924 INTRA-LIGAND FREE ENERGY PREDICTED BY IDOCK:    0.05 KCAL/MOL
REMARK 927      BINDING AFFINITY PREDICTED BY RF-SCORE:    0.00 PKD
ROOT
HETATM    1  C   UNL     1      -9.547   3.343  71.029  1.00  0.00    -0.239 C  
HETATM    2  C   UNL     1      -8.759   2.178  70.890  1.00  0.00    -0.110 C  
HETATM    3  C   UNL     1      -7.980   3.407  71.250  1.00  0.00    -0.059 C  
HETATM    4  C   UNL     1      -9.020   5.075  71.886  1.00  0.00    -0.133 C  
HETATM    5  C   UNL     1      -8.539   4.956  66.669  1.00  0.00    -0.109 C  
HETATM    6  O   UNL     1     -10.496   5.042  72.012  1.00  0.00    -0.212 OA 
HETATM    7  C   UNL     1      -8.510   3.999  72.535  1.00  0.00    -0.100 C  
HETATM    8  C   UNL     1      -6.929   5.013  72.056  1.00  0.00    -0.066 C  
HETATM    9  H   UNL     1     -10.974   5.809  72.304  1.00  0.00     0.000 HD 
HETATM   10  C   UNL     1      -8.140   4.974  65.382  1.00  0.00    -0.116 C  
HETATM   11  C   UNL     1      -6.920   5.731  65.050  1.00  0.00    -0.059 C  
HETATM   12  C   UNL     1      -8.827   3.326  73.858  1.00  0.00    -0.083 C  
HETATM   13  C   UNL     1      -7.156   5.804  70.481  1.00  0.00    -0.067 C  
HETATM   14  C   UNL     1      -5.812   5.586  66.040  1.00  0.00    -0.018 C  
HETATM   15  C   UNL     1      -8.513   7.137  67.766  1.00  0.00    -0.120 C  
HETATM   16  O   UNL     1      -7.875   7.016  70.770  1.00  0.00    -0.094 OA 
HETATM   17  C   UNL     1      -7.899   5.018  69.194  1.00  0.00    -0.080 C  
HETATM   18  C   UNL     1      -7.818   5.762  67.775  1.00  0.00    -0.098 C  
HETATM   19  C   UNL     1      -6.286   5.989  67.435  1.00  0.00    -0.033 C  
HETATM   20  H   UNL     1      -7.997   7.438  69.928  1.00  0.00     0.000 HD 
HETATM   21  C   UNL     1      -9.376   4.337  69.519  1.00  0.00    -0.232 C  
HETATM   22  C   UNL     1      -9.799   3.479  68.309  1.00  0.00     0.088 C  
HETATM   23  O   UNL     1      -6.839   6.381  64.015  1.00  0.00    -0.039 OA 
HETATM   24  C   UNL     1      -9.840   4.270  67.007  1.00  0.00    -0.216 C  
ENDROOT
BRANCH   4  25
HETATM   25  C   UNL     1      -8.904   6.116  73.306  1.00  0.00    -0.126 C  
HETATM   26  O   UNL     1      -7.853   6.395  73.906  1.00  0.00    -0.095 OA 
BRANCH  25  27
HETATM   27  C   UNL     1     -10.189   6.725  73.928  1.00  0.00    -0.367 C  
BRANCH  27  28
HETATM   28  O   UNL     1     -10.996   7.323  72.858  1.00  0.00    -0.290 OA 
BRANCH  28  29
HETATM   29  C   UNL     1     -10.535   8.430  72.196  1.00  0.00    -0.326 C  
HETATM   30  O   UNL     1      -9.447   8.950  72.425  1.00  0.00    -0.315 OA 
BRANCH  29  31
HETATM   31  C   UNL     1     -11.577   8.921  71.154  1.00  0.00    -0.300 C  
BRANCH  31  32
HETATM   32  N   UNL     1     -12.000  10.354  71.305  1.00  0.00    -0.354 NA 
BRANCH  32  33
HETATM   33  C   UNL     1     -11.906  11.114  70.049  1.00  0.00    -0.361 C  
HETATM   34  C   UNL     1     -11.110  10.455  68.926  1.00  0.00    -0.296 C  
ENDBRANCH  32  33
BRANCH  32  35
HETATM   35  C   UNL     1     -13.340  10.434  71.931  1.00  0.00    -0.364 C  
HETATM   36  C   UNL     1     -13.994   9.085  72.257  1.00  0.00    -0.522 C  
ENDBRANCH  32  35
ENDBRANCH  31  32
ENDBRANCH  29  31
ENDBRANCH  28  29
ENDBRANCH  27  28
ENDBRANCH  25  27
ENDBRANCH   4  25
TORSDOF 8
ENDMDL
MODEL      115
REMARK 921   NORMALIZED FREE ENERGY PREDICTED BY IDOCK:   -3.83 KCAL/MOL
REMARK 922        TOTAL FREE ENERGY PREDICTED BY IDOCK:   -5.77 KCAL/MOL
REMARK 923 INTER-LIGAND FREE ENERGY PREDICTED BY IDOCK:   -5.72 KCAL/MOL
REMARK 924 INTRA-LIGAND FREE ENERGY PREDICTED BY IDOCK:   -0.04 KCAL/MOL
REMARK 927      BINDING AFFINITY PREDICTED BY RF-SCORE:    0.00 PKD
ROOT
HETATM    1  C   UNL     1      -5.916  11.524  69.165  1.00  0.00    -0.056 C  
HETATM    2  C   UNL     1      -5.209  10.731  68.231  1.00  0.00    -0.036 C  
HETATM    3  C   UNL     1      -6.417  11.415  67.666  1.00  0.00    -0.063 C  
HETATM    4  C   UNL     1      -7.304  12.915  68.777  1.00  0.00    -0.066 C  
HETATM    5  C   UNL     1      -9.200   8.191  70.024  1.00  0.00    -0.155 C  
HETATM    6  O   UNL     1      -6.738  13.321  70.085  1.00  0.00    -0.363 OA 
HETATM    7  C   UNL     1      -6.304  12.909  67.860  1.00  0.00    -0.125 C  
HETATM    8  C   UNL     1      -7.889  12.597  66.787  1.00  0.00     0.159 C  
HETATM    9  H   UNL     1      -7.145  14.010  70.596  1.00  0.00     0.000 HD 
HETATM   10  C   UNL     1      -9.803   6.987  70.083  1.00  0.00    -0.179 C  
HETATM   11  C   UNL     1     -10.989   6.768  69.237  1.00  0.00    -0.259 C  
HETATM   12  C   UNL     1      -5.145  13.843  67.570  1.00  0.00     0.198 C  
HETATM   13  C   UNL     1      -9.059  11.608  67.685  1.00  0.00    -0.174 C  
HETATM   14  C   UNL     1     -10.883   7.339  67.862  1.00  0.00    -0.184 C  
HETATM   15  C   UNL     1     -10.728  10.092  70.116  1.00  0.00    -0.355 C  
HETATM   16  O   UNL     1      -9.776  12.538  68.516  1.00  0.00    -0.306 OA 
HETATM   17  C   UNL     1      -8.577  10.295  68.619  1.00  0.00    -0.128 C  
HETATM   18  C   UNL     1      -9.756   9.358  69.173  1.00  0.00    -0.165 C  
HETATM   19  C   UNL     1     -10.585   8.836  67.927  1.00  0.00    -0.236 C  
HETATM   20  H   UNL     1     -10.402  12.008  68.997  1.00  0.00     0.000 HD 
HETATM   21  C   UNL     1      -7.375  10.595  69.721  1.00  0.00    -0.115 C  
HETATM   22  C   UNL     1      -6.910   9.252  70.319  1.00  0.00    -0.071 C  
HETATM   23  O   UNL     1     -11.949   6.126  69.645  1.00  0.00     0.018 OA 
HETATM   24  C   UNL     1      -8.046   8.462  70.957  1.00  0.00    -0.132 C  
ENDROOT
BRANCH   4  25
HETATM   25  C   UNL     1      -7.752  14.586  68.432  1.00  0.00    -0.128 C  
HETATM   26  O   UNL     1      -7.551  15.174  67.356  1.00  0.00    -0.172 OA 
BRANCH  25  27
HETATM   27  C   UNL     1      -8.413  15.455  69.534  1.00  0.00    -0.213 C  
BRANCH  27  28
HETATM   28  O   UNL     1      -9.511  16.225  68.937  1.00  0.00    -0.231 OA 
BRANCH  28  29
HETATM   29  C   UNL     1     -10.767  15.683  68.877  1.00  0.00    -0.238 C  
HETATM   30  O   UNL     1     -11.289  15.081  69.811  1.00  0.00    -0.254 OA 
BRANCH  29  31
HETATM   31  C   UNL     1     -11.404  15.923  67.481  1.00  0.00    -0.098 C  
BRANCH  31  32
HETATM   32  N   UNL     1     -10.438  16.310  66.399  1.00  0.00    -0.306 NA 
BRANCH  32  33
HETATM   33  C   UNL     1     -10.602  15.512  65.174  1.00  0.00    -0.431 C  
HETATM   34  C   UNL     1     -11.490  14.277  65.292  1.00  0.00    -0.344 C  
ENDBRANCH  32  33
BRANCH  32  35
HETATM   35  C   UNL     1     -10.496  17.769  66.152  1.00  0.00    -0.301 C  
HETATM   36  C   UNL     1      -9.151  18.503  66.233  1.00  0.00    -0.216 C  
ENDBRANCH  32  35
ENDBRANCH  31  32
ENDBRANCH  29  31
ENDBRANCH  28  29
ENDBRANCH  27  28
ENDBRANCH  25  27
ENDBRANCH   4  25
TORSDOF 8
ENDMDL
MODEL      116
REMARK 921   NORMALIZED FREE ENERGY PREDICTED BY IDOCK:   -3.78 KCAL/MOL
REMARK 922        TOTAL FREE ENERGY PREDICTED BY IDOCK:   -5.69 KCAL/MOL
REMARK 923 INTER-LIGAND FREE ENERGY PREDICTED BY IDOCK:   -6.44 KCAL/MOL
REMARK 924 INTRA-LIGAND FREE ENERGY PREDICTED BY IDOCK:    0.75 KCAL/MOL
REMARK 927      BINDING AFFINITY PREDICTED BY RF-SCORE:    0.00 PKD
ROOT
HETATM    1  C   UNL     1      -8.027   8.749  63.862  1.00  0.00    -0.157 C  
HETATM    2  C   UNL     1      -7.051   9.456  63.124  1.00  0.00    -0.097 C  
HETATM    3  C   UNL     1      -6.873   9.535  64.610  1.00  0.00    -0.101 C  
HETATM    4  C   UNL     1      -7.955   8.235  65.796  1.00  0.00    -0.099 C  
HETATM    5  C   UNL     1     -10.633  12.623  64.775  1.00  0.00    -0.341 C  
HETATM    6  O   UNL     1      -8.860   7.231  65.186  1.00  0.00    -0.363 OA 
HETATM    7  C   UNL     1      -6.746   8.146  65.191  1.00  0.00    -0.052 C  
HETATM    8  C   UNL     1      -6.423   9.395  66.638  1.00  0.00    -0.067 C  
HETATM    9  H   UNL     1      -9.358   6.633  65.732  1.00  0.00     0.000 HD 
HETATM   10  C   UNL     1     -11.126  13.873  64.680  1.00  0.00    -0.389 C  
HETATM   11  C   UNL     1     -10.843  14.810  65.782  1.00  0.00    -0.331 C  
HETATM   12  C   UNL     1      -5.879   6.982  64.747  1.00  0.00    -0.036 C  
HETATM   13  C   UNL     1      -7.855  10.410  66.909  1.00  0.00    -0.114 C  
HETATM   14  C   UNL     1      -9.453  14.732  66.320  1.00  0.00    -0.332 C  
HETATM   15  C   UNL     1     -10.962  11.569  66.952  1.00  0.00    -0.350 C  
HETATM   16  O   UNL     1      -8.719   9.623  67.748  1.00  0.00    -0.122 OA 
HETATM   17  C   UNL     1      -8.752  11.036  65.631  1.00  0.00    -0.162 C  
HETATM   18  C   UNL     1      -9.866  12.123  66.022  1.00  0.00    -0.260 C  
HETATM   19  C   UNL     1      -9.138  13.311  66.780  1.00  0.00    -0.216 C  
HETATM   20  H   UNL     1      -9.485  10.167  67.893  1.00  0.00     0.000 HD 
HETATM   21  C   UNL     1      -9.247   9.939  64.491  1.00  0.00    -0.315 C  
HETATM   22  C   UNL     1      -9.851  10.708  63.298  1.00  0.00    -0.364 C  
HETATM   23  O   UNL     1     -11.689  15.606  66.170  1.00  0.00     0.174 OA 
HETATM   24  C   UNL     1     -10.998  11.625  63.703  1.00  0.00    -0.507 C  
ENDROOT
BRANCH   4  25
HETATM   25  C   UNL     1      -7.519   7.095  67.069  1.00  0.00    -0.097 C  
HETATM   26  O   UNL     1      -6.546   6.322  67.036  1.00  0.00    -0.054 OA 
BRANCH  25  27
HETATM   27  C   UNL     1      -8.406   6.969  68.336  1.00  0.00    -0.124 C  
BRANCH  27  28
HETATM   28  O   UNL     1      -7.674   7.516  69.484  1.00  0.00    -0.099 OA 
BRANCH  28  29
HETATM   29  C   UNL     1      -7.572   6.783  70.637  1.00  0.00    -0.095 C  
HETATM   30  O   UNL     1      -6.667   6.930  71.454  1.00  0.00    -0.058 OA 
BRANCH  29  31
HETATM   31  C   UNL     1      -8.731   5.754  70.740  1.00  0.00    -0.130 C  
BRANCH  31  32
HETATM   32  N   UNL     1      -9.710   6.007  71.851  1.00  0.00    -0.154 NA 
BRANCH  32  33
HETATM   33  C   UNL     1     -11.107   5.797  71.440  1.00  0.00    -0.204 C  
HETATM   34  C   UNL     1     -11.704   6.863  70.527  1.00  0.00    -0.401 C  
ENDBRANCH  32  33
BRANCH  32  35
HETATM   35  C   UNL     1      -9.336   5.229  73.055  1.00  0.00    -0.133 C  
HETATM   36  C   UNL     1     -10.486   4.471  73.729  1.00  0.00    -0.292 C  
ENDBRANCH  32  35
ENDBRANCH  31  32
ENDBRANCH  29  31
ENDBRANCH  28  29
ENDBRANCH  27  28
ENDBRANCH  25  27
ENDBRANCH   4  25
TORSDOF 8
ENDMDL
MODEL      117
REMARK 921   NORMALIZED FREE ENERGY PREDICTED BY IDOCK:   -3.76 KCAL/MOL
REMARK 922        TOTAL FREE ENERGY PREDICTED BY IDOCK:   -5.67 KCAL/MOL
REMARK 923 INTER-LIGAND FREE ENERGY PREDICTED BY IDOCK:   -5.08 KCAL/MOL
REMARK 924 INTRA-LIGAND FREE ENERGY PREDICTED BY IDOCK:   -0.58 KCAL/MOL
REMARK 927      BINDING AFFINITY PREDICTED BY RF-SCORE:    0.00 PKD
ROOT
HETATM    1  C   UNL     1      -9.255   8.808  67.942  1.00  0.00    -0.149 C  
HETATM    2  C   UNL     1     -10.294   9.455  67.235  1.00  0.00    -0.325 C  
HETATM    3  C   UNL     1     -10.716   8.197  67.932  1.00  0.00    -0.138 C  
HETATM    4  C   UNL     1      -9.436   7.372  69.327  1.00  0.00    -0.154 C  
HETATM    5  C   UNL     1      -8.405   5.652  64.485  1.00  0.00    -0.108 C  
HETATM    6  O   UNL     1      -8.146   8.029  69.649  1.00  0.00    -0.114 OA 
HETATM    7  C   UNL     1     -10.421   8.300  69.410  1.00  0.00    -0.224 C  
HETATM    8  C   UNL     1     -11.395   6.645  69.142  1.00  0.00    -0.262 C  
HETATM    9  H   UNL     1      -7.557   7.649  70.291  1.00  0.00     0.000 HD 
HETATM   10  C   UNL     1      -8.390   5.076  63.267  1.00  0.00    -0.119 C  
HETATM   11  C   UNL     1      -9.160   3.833  63.085  1.00  0.00    -0.105 C  
HETATM   12  C   UNL     1     -10.727   9.419  70.388  1.00  0.00    -0.317 C  
HETATM   13  C   UNL     1     -10.488   5.562  68.065  1.00  0.00    -0.172 C  
HETATM   14  C   UNL     1     -10.493   3.826  63.756  1.00  0.00    -0.258 C  
HETATM   15  C   UNL     1      -8.059   4.105  66.341  1.00  0.00    -0.098 C  
HETATM   16  O   UNL     1      -9.540   4.894  68.917  1.00  0.00    -0.136 OA 
HETATM   17  C   UNL     1      -9.692   6.133  66.699  1.00  0.00    -0.196 C  
HETATM   18  C   UNL     1      -9.123   5.016  65.698  1.00  0.00    -0.157 C  
HETATM   19  C   UNL     1     -10.340   4.103  65.250  1.00  0.00    -0.184 C  
HETATM   20  H   UNL     1      -9.055   4.315  68.340  1.00  0.00     0.000 HD 
HETATM   21  C   UNL     1      -8.663   7.410  66.944  1.00  0.00    -0.126 C  
HETATM   22  C   UNL     1      -8.201   7.941  65.572  1.00  0.00    -0.140 C  
HETATM   23  O   UNL     1      -8.731   2.917  62.394  1.00  0.00    -0.074 OA 
HETATM   24  C   UNL     1      -7.541   6.869  64.713  1.00  0.00    -0.108 C  
ENDROOT
BRANCH   4  25
HETATM   25  C   UNL     1      -9.622   6.872  71.009  1.00  0.00    -0.170 C  
HETATM   26  O   UNL     1     -10.658   6.398  71.504  1.00  0.00    -0.221 OA 
BRANCH  25  27
HETATM   27  C   UNL     1      -8.448   7.055  72.007  1.00  0.00    -0.112 C  
BRANCH  27  28
HETATM   28  O   UNL     1      -7.425   6.041  71.728  1.00  0.00    -0.091 OA 
BRANCH  28  29
HETATM   29  C   UNL     1      -6.921   5.283  72.752  1.00  0.00    -0.086 C  
HETATM   30  O   UNL     1      -6.290   5.754  73.694  1.00  0.00    -0.064 OA 
BRANCH  29  31
HETATM   31  C   UNL     1      -7.244   3.780  72.535  1.00  0.00    -0.049 C  
BRANCH  31  32
HETATM   32  N   UNL     1      -8.694   3.468  72.297  1.00  0.00    -0.087 NA 
BRANCH  32  33
HETATM   33  C   UNL     1      -8.905   2.126  71.733  1.00  0.00    -0.073 C  
HETATM   34  C   UNL     1      -8.191   1.832  70.417  1.00  0.00    -0.058 C  
ENDBRANCH  32  33
BRANCH  32  35
HETATM   35  C   UNL     1      -9.483   3.710  73.527  1.00  0.00    -0.103 C  
HETATM   36  C   UNL     1     -10.989   3.453  73.402  1.00  0.00    -0.306 C  
ENDBRANCH  32  35
ENDBRANCH  31  32
ENDBRANCH  29  31
ENDBRANCH  28  29
ENDBRANCH  27  28
ENDBRANCH  25  27
ENDBRANCH   4  25
TORSDOF 8
ENDMDL
MODEL      118
REMARK 921   NORMALIZED FREE ENERGY PREDICTED BY IDOCK:   -3.73 KCAL/MOL
REMARK 922        TOTAL FREE ENERGY PREDICTED BY IDOCK:   -5.61 KCAL/MOL
REMARK 923 INTER-LIGAND FREE ENERGY PREDICTED BY IDOCK:   -6.77 KCAL/MOL
REMARK 924 INTRA-LIGAND FREE ENERGY PREDICTED BY IDOCK:    1.16 KCAL/MOL
REMARK 927      BINDING AFFINITY PREDICTED BY RF-SCORE:    0.00 PKD
ROOT
HETATM    1  C   UNL     1     -10.954  12.009  65.591  1.00  0.00    -0.343 C  
HETATM    2  C   UNL     1     -11.930  11.343  66.367  1.00  0.00     0.800 C  
HETATM    3  C   UNL     1     -10.949  12.144  67.169  1.00  0.00    -0.316 C  
HETATM    4  C   UNL     1      -9.736  13.488  66.173  1.00  0.00    -0.252 C  
HETATM    5  C   UNL     1      -7.620   8.695  66.318  1.00  0.00    -0.094 C  
HETATM    6  O   UNL     1      -9.858  13.673  64.708  1.00  0.00    -0.616 OA 
HETATM    7  C   UNL     1     -10.972  13.587  66.723  1.00  0.00    -0.297 C  
HETATM    8  C   UNL     1      -9.808  13.493  68.270  1.00  0.00    -0.233 C  
HETATM    9  H   UNL     1      -9.300  14.291  64.250  1.00  0.00     0.000 HD 
HETATM   10  C   UNL     1      -7.048   7.517  66.634  1.00  0.00    -0.078 C  
HETATM   11  C   UNL     1      -6.189   7.468  67.831  1.00  0.00    -0.048 C  
HETATM   12  C   UNL     1     -12.149  14.516  66.491  1.00  0.00    -0.330 C  
HETATM   13  C   UNL     1      -8.431  12.419  67.944  1.00  0.00    -0.166 C  
HETATM   14  C   UNL     1      -6.711   8.235  69.000  1.00  0.00    -0.048 C  
HETATM   15  C   UNL     1      -6.109  10.611  66.416  1.00  0.00    -0.100 C  
HETATM   16  O   UNL     1      -7.475  13.237  67.245  1.00  0.00    -0.294 OA 
HETATM   17  C   UNL     1      -8.617  10.965  67.119  1.00  0.00    -0.130 C  
HETATM   18  C   UNL     1      -7.340   9.995  67.110  1.00  0.00    -0.091 C  
HETATM   19  C   UNL     1      -6.949   9.694  68.617  1.00  0.00    -0.064 C  
HETATM   20  H   UNL     1      -6.739  12.662  67.070  1.00  0.00     0.000 HD 
HETATM   21  C   UNL     1      -9.410  11.056  65.666  1.00  0.00    -0.239 C  
HETATM   22  C   UNL     1      -9.686   9.624  65.165  1.00  0.00    -0.287 C  
HETATM   23  O   UNL     1      -5.160   6.804  67.846  1.00  0.00    -0.007 OA 
HETATM   24  C   UNL     1      -8.419   8.785  65.041  1.00  0.00    -0.193 C  
ENDROOT
BRANCH   4  25
HETATM   25  C   UNL     1      -9.392  15.206  66.380  1.00  0.00    -0.301 C  
HETATM   26  O   UNL     1      -9.203  16.015  65.456  1.00  0.00    -0.354 OA 
BRANCH  25  27
HETATM   27  C   UNL     1      -9.258  15.804  67.806  1.00  0.00    -0.197 C  
BRANCH  27  28
HETATM   28  O   UNL     1      -7.864  16.208  68.022  1.00  0.00    -0.140 OA 
BRANCH  28  29
HETATM   29  C   UNL     1      -7.563  17.529  68.230  1.00  0.00    -0.240 C  
HETATM   30  O   UNL     1      -6.638  17.907  68.942  1.00  0.00    -0.221 OA 
BRANCH  29  31
HETATM   31  C   UNL     1      -8.556  18.446  67.466  1.00  0.00    -0.257 C  
BRANCH  31  32
HETATM   32  N   UNL     1      -8.301  19.919  67.608  1.00  0.00    -0.315 NA 
BRANCH  32  33
HETATM   33  C   UNL     1      -7.213  20.397  66.741  1.00  0.00    -0.279 C  
HETATM   34  C   UNL     1      -6.896  19.532  65.525  1.00  0.00    -0.312 C  
ENDBRANCH  32  33
BRANCH  32  35
HETATM   35  C   UNL     1      -9.559  20.681  67.434  1.00  0.00    -0.404 C  
HETATM   36  C   UNL     1     -10.443  20.229  66.265  1.00  0.00    -0.324 C  
ENDBRANCH  32  35
ENDBRANCH  31  32
ENDBRANCH  29  31
ENDBRANCH  28  29
ENDBRANCH  27  28
ENDBRANCH  25  27
ENDBRANCH   4  25
TORSDOF 8
ENDMDL
MODEL      119
REMARK 921   NORMALIZED FREE ENERGY PREDICTED BY IDOCK:   -3.72 KCAL/MOL
REMARK 922        TOTAL FREE ENERGY PREDICTED BY IDOCK:   -5.61 KCAL/MOL
REMARK 923 INTER-LIGAND FREE ENERGY PREDICTED BY IDOCK:   -6.38 KCAL/MOL
REMARK 924 INTRA-LIGAND FREE ENERGY PREDICTED BY IDOCK:    0.77 KCAL/MOL
REMARK 927      BINDING AFFINITY PREDICTED BY RF-SCORE:    0.00 PKD
ROOT
HETATM    1  C   UNL     1      -8.259  10.370  68.594  1.00  0.00    -0.121 C  
HETATM    2  C   UNL     1      -9.144  10.549  69.682  1.00  0.00     0.024 C  
HETATM    3  C   UNL     1      -9.727   9.776  68.537  1.00  0.00    -0.164 C  
HETATM    4  C   UNL     1      -8.447   9.082  67.071  1.00  0.00    -0.120 C  
HETATM    5  C   UNL     1     -10.102  13.952  66.063  1.00  0.00    -0.324 C  
HETATM    6  O   UNL     1      -6.987   9.320  67.170  1.00  0.00    -0.083 OA 
HETATM    7  C   UNL     1      -8.876   8.561  68.247  1.00  0.00    -0.142 C  
HETATM    8  C   UNL     1     -10.443   8.438  67.112  1.00  0.00    -0.380 C  
HETATM    9  H   UNL     1      -6.398   9.001  66.495  1.00  0.00     0.000 HD 
HETATM   10  C   UNL     1     -10.779  15.077  65.761  1.00  0.00    -0.351 C  
HETATM   11  C   UNL     1     -11.981  14.951  64.918  1.00  0.00    -0.306 C  
HETATM   12  C   UNL     1      -8.321   7.514  69.194  1.00  0.00    -0.135 C  
HETATM   13  C   UNL     1     -10.519   9.830  66.011  1.00  0.00    -0.006 C  
HETATM   14  C   UNL     1     -12.845  13.777  65.242  1.00  0.00    -0.430 C  
HETATM   15  C   UNL     1      -9.714  12.465  64.166  1.00  0.00    -0.025 C  
HETATM   16  O   UNL     1      -9.664   9.482  64.908  1.00  0.00    -0.444 OA 
HETATM   17  C   UNL     1     -10.148  11.388  66.524  1.00  0.00    -0.250 C  
HETATM   18  C   UNL     1     -10.491  12.567  65.492  1.00  0.00    -0.305 C  
HETATM   19  C   UNL     1     -12.039  12.483  65.158  1.00  0.00    -0.503 C  
HETATM   20  H   UNL     1      -9.704  10.227  64.319  1.00  0.00     0.000 HD 
HETATM   21  C   UNL     1      -8.692  11.566  67.297  1.00  0.00    -0.151 C  
HETATM   22  C   UNL     1      -8.619  12.988  67.888  1.00  0.00    -0.189 C  
HETATM   23  O   UNL     1     -12.245  15.785  64.061  1.00  0.00    -0.664 OA 
HETATM   24  C   UNL     1      -8.814  14.077  66.840  1.00  0.00    -0.212 C  
ENDROOT
BRANCH   4  25
HETATM   25  C   UNL     1      -8.159   7.497  66.354  1.00  0.00    -0.114 C  
HETATM   26  O   UNL     1      -9.030   6.632  66.154  1.00  0.00    -0.153 OA 
BRANCH  25  27
HETATM   27  C   UNL     1      -6.720   7.072  65.961  1.00  0.00    -0.053 C  
BRANCH  27  28
HETATM   28  O   UNL     1      -6.770   5.746  65.334  1.00  0.00    -0.042 OA 
BRANCH  28  29
HETATM   29  C   UNL     1      -7.212   5.620  64.044  1.00  0.00    -0.055 C  
HETATM   30  O   UNL     1      -7.783   6.519  63.434  1.00  0.00    -0.095 OA 
BRANCH  29  31
HETATM   31  C   UNL     1      -6.905   4.201  63.493  1.00  0.00    -0.044 C  
BRANCH  31  32
HETATM   32  N   UNL     1      -8.062   3.244  63.520  1.00  0.00    -0.084 NA 
BRANCH  32  33
HETATM   33  C   UNL     1      -8.768   3.236  64.811  1.00  0.00    -0.105 C  
HETATM   34  C   UNL     1      -8.537   2.014  65.694  1.00  0.00    -0.110 C  
ENDBRANCH  32  33
BRANCH  32  35
HETATM   35  C   UNL     1      -8.962   3.489  62.369  1.00  0.00    -0.085 C  
HETATM   36  C   UNL     1     -10.369   3.983  62.729  1.00  0.00    -0.157 C  
ENDBRANCH  32  35
ENDBRANCH  31  32
ENDBRANCH  29  31
ENDBRANCH  28  29
ENDBRANCH  27  28
ENDBRANCH  25  27
ENDBRANCH   4  25
TORSDOF 8
ENDMDL
MODEL      120
REMARK 921   NORMALIZED FREE ENERGY PREDICTED BY IDOCK:   -3.71 KCAL/MOL
REMARK 922        TOTAL FREE ENERGY PREDICTED BY IDOCK:   -5.59 KCAL/MOL
REMARK 923 INTER-LIGAND FREE ENERGY PREDICTED BY IDOCK:   -5.69 KCAL/MOL
REMARK 924 INTRA-LIGAND FREE ENERGY PREDICTED BY IDOCK:    0.09 KCAL/MOL
REMARK 927      BINDING AFFINITY PREDICTED BY RF-SCORE:    0.00 PKD
ROOT
HETATM    1  C   UNL     1      -8.100   3.593  72.514  1.00  0.00    -0.077 C  
HETATM    2  C   UNL     1      -6.768   3.119  72.495  1.00  0.00    -0.022 C  
HETATM    3  C   UNL     1      -6.946   4.475  71.883  1.00  0.00    -0.054 C  
HETATM    4  C   UNL     1      -8.730   5.468  72.202  1.00  0.00    -0.130 C  
HETATM    5  C   UNL     1      -8.972   2.330  68.011  1.00  0.00    -0.193 C  
HETATM    6  O   UNL     1      -9.791   4.863  73.040  1.00  0.00    -0.144 OA 
HETATM    7  C   UNL     1      -7.562   5.420  72.888  1.00  0.00    -0.097 C  
HETATM    8  C   UNL     1      -7.111   6.474  71.324  1.00  0.00    -0.077 C  
HETATM    9  H   UNL     1     -10.612   5.319  73.187  1.00  0.00     0.000 HD 
HETATM   10  C   UNL     1      -8.853   1.711  66.819  1.00  0.00    -0.128 C  
HETATM   11  C   UNL     1      -8.484   2.532  65.652  1.00  0.00    -0.104 C  
HETATM   12  C   UNL     1      -7.185   5.683  74.335  1.00  0.00    -0.085 C  
HETATM   13  C   UNL     1      -8.002   5.885  69.904  1.00  0.00    -0.104 C  
HETATM   14  C   UNL     1      -7.435   3.559  65.924  1.00  0.00    -0.077 C  
HETATM   15  C   UNL     1     -10.238   4.416  67.947  1.00  0.00     0.092 C  
HETATM   16  O   UNL     1      -9.294   6.513  69.985  1.00  0.00    -0.156 OA 
HETATM   17  C   UNL     1      -8.208   4.243  69.606  1.00  0.00    -0.066 C  
HETATM   18  C   UNL     1      -8.819   3.861  68.173  1.00  0.00    -0.140 C  
HETATM   19  C   UNL     1      -7.871   4.478  67.062  1.00  0.00    -0.098 C  
HETATM   20  H   UNL     1      -9.770   6.198  69.226  1.00  0.00     0.000 HD 
HETATM   21  C   UNL     1      -8.820   3.352  70.863  1.00  0.00    -0.143 C  
HETATM   22  C   UNL     1      -8.730   1.856  70.496  1.00  0.00    -0.112 C  
HETATM   23  O   UNL     1      -8.984   2.331  64.552  1.00  0.00    -0.107 OA 
HETATM   24  C   UNL     1      -9.447   1.522  69.194  1.00  0.00    -0.157 C  
ENDROOT
BRANCH   4  25
HETATM   25  C   UNL     1      -9.141   7.073  72.807  1.00  0.00    -0.134 C  
HETATM   26  O   UNL     1      -8.450   8.094  72.656  1.00  0.00    -0.157 OA 
BRANCH  25  27
HETATM   27  C   UNL     1     -10.435   7.281  73.638  1.00  0.00    -0.344 C  
BRANCH  27  28
HETATM   28  O   UNL     1     -11.262   8.300  72.982  1.00  0.00    -0.264 OA 
BRANCH  28  29
HETATM   29  C   UNL     1     -12.096   7.943  71.956  1.00  0.00    -0.320 C  
HETATM   30  O   UNL     1     -11.920   6.949  71.258  1.00  0.00    -0.317 OA 
BRANCH  29  31
HETATM   31  C   UNL     1     -13.252   8.968  71.803  1.00  0.00    -0.389 C  
BRANCH  31  32
HETATM   32  N   UNL     1     -12.883  10.242  71.097  1.00  0.00    -0.380 NA 
BRANCH  32  33
HETATM   33  C   UNL     1     -13.232  11.445  71.868  1.00  0.00    -0.380 C  
HETATM   34  C   UNL     1     -13.009  12.780  71.165  1.00  0.00    -0.244 C  
ENDBRANCH  32  33
BRANCH  32  35
HETATM   35  C   UNL     1     -11.462  10.210  70.683  1.00  0.00    -0.349 C  
HETATM   36  C   UNL     1     -11.218  10.202  69.169  1.00  0.00    -0.234 C  
ENDBRANCH  32  35
ENDBRANCH  31  32
ENDBRANCH  29  31
ENDBRANCH  28  29
ENDBRANCH  27  28
ENDBRANCH  25  27
ENDBRANCH   4  25
TORSDOF 8
ENDMDL
MODEL      121
REMARK 921   NORMALIZED FREE ENERGY PREDICTED BY IDOCK:   -3.65 KCAL/MOL
REMARK 922        TOTAL FREE ENERGY PREDICTED BY IDOCK:   -5.50 KCAL/MOL
REMARK 923 INTER-LIGAND FREE ENERGY PREDICTED BY IDOCK:   -5.56 KCAL/MOL
REMARK 924 INTRA-LIGAND FREE ENERGY PREDICTED BY IDOCK:    0.06 KCAL/MOL
REMARK 927      BINDING AFFINITY PREDICTED BY RF-SCORE:    0.00 PKD
ROOT
HETATM    1  C   UNL     1      -7.754   8.089  70.994  1.00  0.00    -0.085 C  
HETATM    2  C   UNL     1      -7.213   9.020  71.911  1.00  0.00     0.095 C  
HETATM    3  C   UNL     1      -8.687   8.794  72.062  1.00  0.00    -0.160 C  
HETATM    4  C   UNL     1      -9.536   7.182  71.088  1.00  0.00    -0.164 C  
HETATM    5  C   UNL     1      -9.383  11.439  68.035  1.00  0.00    -0.171 C  
HETATM    6  O   UNL     1      -8.699   6.258  70.287  1.00  0.00    -0.139 OA 
HETATM    7  C   UNL     1      -8.964   7.329  72.308  1.00  0.00    -0.150 C  
HETATM    8  C   UNL     1     -10.653   8.263  72.498  1.00  0.00    -0.407 C  
HETATM    9  H   UNL     1      -9.090   5.516  69.839  1.00  0.00     0.000 HD 
HETATM   10  C   UNL     1      -9.540  12.634  67.431  1.00  0.00    -0.194 C  
HETATM   11  C   UNL     1     -10.824  13.333  67.614  1.00  0.00    -0.258 C  
HETATM   12  C   UNL     1      -8.312   6.366  73.283  1.00  0.00    -0.118 C  
HETATM   13  C   UNL     1     -11.087   9.069  70.975  1.00  0.00    -0.289 C  
HETATM   14  C   UNL     1     -11.377  13.263  68.998  1.00  0.00    -0.334 C  
HETATM   15  C   UNL     1     -11.276   9.919  67.776  1.00  0.00    -0.075 C  
HETATM   16  O   UNL     1     -11.713   8.050  70.177  1.00  0.00    -0.478 OA 
HETATM   17  C   UNL     1      -9.944   9.874  70.041  1.00  0.00    -0.302 C  
HETATM   18  C   UNL     1     -10.520  10.752  68.829  1.00  0.00    -0.221 C  
HETATM   19  C   UNL     1     -11.535  11.808  69.436  1.00  0.00    -0.371 C  
HETATM   20  H   UNL     1     -11.945   8.481  69.362  1.00  0.00     0.000 HD 
HETATM   21  C   UNL     1      -8.581   9.008  69.663  1.00  0.00    -0.137 C  
HETATM   22  C   UNL     1      -7.560   9.959  69.007  1.00  0.00    -0.086 C  
HETATM   23  O   UNL     1     -11.345  13.952  66.694  1.00  0.00    -0.312 OA 
HETATM   24  C   UNL     1      -8.114  10.665  67.775  1.00  0.00    -0.111 C  
ENDROOT
BRANCH   4  25
HETATM   25  C   UNL     1     -10.552   5.838  71.611  1.00  0.00    -0.245 C  
HETATM   26  O   UNL     1     -11.755   5.923  71.911  1.00  0.00    -0.255 OA 
BRANCH  25  27
HETATM   27  C   UNL     1      -9.942   4.420  71.770  1.00  0.00    -0.186 C  
BRANCH  27  28
HETATM   28  O   UNL     1      -9.641   3.881  70.439  1.00  0.00    -0.171 OA 
BRANCH  28  29
HETATM   29  C   UNL     1      -9.217   2.584  70.310  1.00  0.00    -0.129 C  
HETATM   30  O   UNL     1      -9.982   1.628  70.237  1.00  0.00     0.059 OA 
BRANCH  29  31
HETATM   31  C   UNL     1      -7.666   2.512  70.293  1.00  0.00    -0.043 C  
BRANCH  31  32
HETATM   32  N   UNL     1      -6.998   2.840  71.597  1.00  0.00    -0.030 NA 
BRANCH  32  33
HETATM   33  C   UNL     1      -6.876   1.674  72.486  1.00  0.00    -0.019 C  
HETATM   34  C   UNL     1      -7.936   1.547  73.575  1.00  0.00    -0.041 C  
ENDBRANCH  32  33
BRANCH  32  35
HETATM   35  C   UNL     1      -5.707   3.526  71.359  1.00  0.00    -0.013 C  
HETATM   36  C   UNL     1      -5.808   4.903  70.691  1.00  0.00    -0.017 C  
ENDBRANCH  32  35
ENDBRANCH  31  32
ENDBRANCH  29  31
ENDBRANCH  28  29
ENDBRANCH  27  28
ENDBRANCH  25  27
ENDBRANCH   4  25
TORSDOF 8
ENDMDL
MODEL      122
REMARK 921   NORMALIZED FREE ENERGY PREDICTED BY IDOCK:   -3.55 KCAL/MOL
REMARK 922        TOTAL FREE ENERGY PREDICTED BY IDOCK:   -5.36 KCAL/MOL
REMARK 923 INTER-LIGAND FREE ENERGY PREDICTED BY IDOCK:   -6.42 KCAL/MOL
REMARK 924 INTRA-LIGAND FREE ENERGY PREDICTED BY IDOCK:    1.06 KCAL/MOL
REMARK 927      BINDING AFFINITY PREDICTED BY RF-SCORE:    0.00 PKD
ROOT
HETATM    1  C   UNL     1     -11.293  14.483  66.053  1.00  0.00    -0.341 C  
HETATM    2  C   UNL     1     -11.014  14.652  64.678  1.00  0.00    -0.340 C  
HETATM    3  C   UNL     1     -10.033  13.779  65.401  1.00  0.00    -0.254 C  
HETATM    4  C   UNL     1     -10.527  13.109  67.292  1.00  0.00    -0.243 C  
HETATM    5  C   UNL     1      -8.160  17.783  67.441  1.00  0.00    -0.217 C  
HETATM    6  O   UNL     1     -11.832  13.460  67.901  1.00  0.00    -0.339 OA 
HETATM    7  C   UNL     1     -10.752  12.619  66.049  1.00  0.00    -0.295 C  
HETATM    8  C   UNL     1      -8.853  12.320  66.303  1.00  0.00    -0.010 C  
HETATM    9  H   UNL     1     -12.059  13.152  68.771  1.00  0.00     0.000 HD 
HETATM   10  C   UNL     1      -7.321  18.837  67.396  1.00  0.00    -0.231 C  
HETATM   11  C   UNL     1      -5.881  18.579  67.567  1.00  0.00    -0.163 C  
HETATM   12  C   UNL     1     -11.780  11.666  65.469  1.00  0.00     0.018 C  
HETATM   13  C   UNL     1      -8.141  13.645  67.250  1.00  0.00    -0.139 C  
HETATM   14  C   UNL     1      -5.382  17.361  66.861  1.00  0.00    -0.195 C  
HETATM   15  C   UNL     1      -7.739  16.234  69.281  1.00  0.00    -0.186 C  
HETATM   16  O   UNL     1      -8.403  13.306  68.624  1.00  0.00    -0.303 OA 
HETATM   17  C   UNL     1      -8.568  15.250  66.989  1.00  0.00    -0.256 C  
HETATM   18  C   UNL     1      -7.674  16.346  67.746  1.00  0.00    -0.162 C  
HETATM   19  C   UNL     1      -6.166  16.128  67.305  1.00  0.00    -0.188 C  
HETATM   20  H   UNL     1      -8.022  14.014  69.130  1.00  0.00     0.000 HD 
HETATM   21  C   UNL     1     -10.194  15.576  67.001  1.00  0.00    -0.271 C  
HETATM   22  C   UNL     1     -10.408  17.028  66.528  1.00  0.00    -0.298 C  
HETATM   23  O   UNL     1      -5.170  19.346  68.204  1.00  0.00    -0.180 OA 
HETATM   24  C   UNL     1      -9.644  18.044  67.369  1.00  0.00    -0.272 C  
ENDROOT
BRANCH   4  25
HETATM   25  C   UNL     1     -10.584  11.515  68.045  1.00  0.00    -0.190 C  
HETATM   26  O   UNL     1     -10.792  11.300  69.251  1.00  0.00    -0.225 OA 
BRANCH  25  27
HETATM   27  C   UNL     1     -10.317  10.245  67.195  1.00  0.00    -0.238 C  
BRANCH  27  28
HETATM   28  O   UNL     1      -9.403   9.364  67.932  1.00  0.00    -0.129 OA 
BRANCH  28  29
HETATM   29  C   UNL     1      -9.819   8.115  68.308  1.00  0.00    -0.171 C  
HETATM   30  O   UNL     1     -10.935   7.883  68.765  1.00  0.00    -0.020 OA 
BRANCH  29  31
HETATM   31  C   UNL     1      -8.689   7.071  68.094  1.00  0.00    -0.127 C  
BRANCH  31  32
HETATM   32  N   UNL     1      -8.972   6.033  67.046  1.00  0.00    -0.112 NA 
BRANCH  32  33
HETATM   33  C   UNL     1      -9.949   5.025  67.488  1.00  0.00    -0.167 C  
HETATM   34  C   UNL     1      -9.433   3.594  67.597  1.00  0.00    -0.234 C  
ENDBRANCH  32  33
BRANCH  32  35
HETATM   35  C   UNL     1      -9.345   6.679  65.767  1.00  0.00     0.178 C  
HETATM   36  C   UNL     1      -8.258   7.556  65.133  1.00  0.00    -0.122 C  
ENDBRANCH  32  35
ENDBRANCH  31  32
ENDBRANCH  29  31
ENDBRANCH  28  29
ENDBRANCH  27  28
ENDBRANCH  25  27
ENDBRANCH   4  25
TORSDOF 8
ENDMDL
MODEL      123
REMARK 921   NORMALIZED FREE ENERGY PREDICTED BY IDOCK:   -3.53 KCAL/MOL
REMARK 922        TOTAL FREE ENERGY PREDICTED BY IDOCK:   -5.33 KCAL/MOL
REMARK 923 INTER-LIGAND FREE ENERGY PREDICTED BY IDOCK:   -6.10 KCAL/MOL
REMARK 924 INTRA-LIGAND FREE ENERGY PREDICTED BY IDOCK:    0.78 KCAL/MOL
REMARK 927      BINDING AFFINITY PREDICTED BY RF-SCORE:    0.00 PKD
ROOT
HETATM    1  C   UNL     1     -10.140  12.397  66.710  1.00  0.00    -0.226 C  
HETATM    2  C   UNL     1     -10.779  11.509  67.606  1.00  0.00    -0.255 C  
HETATM    3  C   UNL     1      -9.355  11.818  67.959  1.00  0.00    -0.184 C  
HETATM    4  C   UNL     1      -8.429  13.397  67.001  1.00  0.00    -0.125 C  
HETATM    5  C   UNL     1      -7.946   8.931  64.301  1.00  0.00    -0.146 C  
HETATM    6  O   UNL     1      -9.168  14.218  66.013  1.00  0.00    -0.504 OA 
HETATM    7  C   UNL     1      -9.176  13.308  68.129  1.00  0.00    -0.212 C  
HETATM    8  C   UNL     1      -7.502  12.476  68.643  1.00  0.00    -0.090 C  
HETATM    9  H   UNL     1      -8.742  14.945  65.572  1.00  0.00     0.000 HD 
HETATM   10  C   UNL     1      -7.652   7.705  63.823  1.00  0.00    -0.118 C  
HETATM   11  C   UNL     1      -6.386   7.085  64.251  1.00  0.00    -0.036 C  
HETATM   12  C   UNL     1     -10.008  14.305  68.915  1.00  0.00    -0.160 C  
HETATM   13  C   UNL     1      -6.808  11.586  67.271  1.00  0.00    -0.118 C  
HETATM   14  C   UNL     1      -6.055   7.282  65.694  1.00  0.00    -0.037 C  
HETATM   15  C   UNL     1      -6.096  10.521  64.213  1.00  0.00    -0.019 C  
HETATM   16  O   UNL     1      -6.106  12.576  66.498  1.00  0.00    -0.384 OA 
HETATM   17  C   UNL     1      -7.762  10.661  66.241  1.00  0.00    -0.143 C  
HETATM   18  C   UNL     1      -6.972   9.728  65.201  1.00  0.00    -0.117 C  
HETATM   19  C   UNL     1      -6.023   8.770  66.035  1.00  0.00    -0.051 C  
HETATM   20  H   UNL     1      -5.735  12.100  65.764  1.00  0.00     0.000 HD 
HETATM   21  C   UNL     1      -9.082  11.428  65.595  1.00  0.00    -0.173 C  
HETATM   22  C   UNL     1      -9.953  10.383  64.869  1.00  0.00    -0.409 C  
HETATM   23  O   UNL     1      -5.706   6.430  63.472  1.00  0.00    -0.022 OA 
HETATM   24  C   UNL     1      -9.189   9.619  63.794  1.00  0.00    -0.170 C  
ENDROOT
BRANCH   4  25
HETATM   25  C   UNL     1      -7.559  14.824  67.564  1.00  0.00    -0.193 C  
HETATM   26  O   UNL     1      -6.359  14.850  67.886  1.00  0.00    -0.134 OA 
BRANCH  25  27
HETATM   27  C   UNL     1      -8.307  16.173  67.733  1.00  0.00    -0.154 C  
BRANCH  27  28
HETATM   28  O   UNL     1      -7.350  17.272  67.557  1.00  0.00    -0.161 OA 
BRANCH  28  29
HETATM   29  C   UNL     1      -7.420  18.061  66.440  1.00  0.00    -0.262 C  
HETATM   30  O   UNL     1      -6.715  17.893  65.449  1.00  0.00    -0.362 OA 
BRANCH  29  31
HETATM   31  C   UNL     1      -8.481  19.180  66.622  1.00  0.00    -0.310 C  
BRANCH  31  32
HETATM   32  N   UNL     1      -9.847  18.702  67.024  1.00  0.00    -0.313 NA 
BRANCH  32  33
HETATM   33  C   UNL     1     -10.551  19.653  67.898  1.00  0.00    -0.356 C  
HETATM   34  C   UNL     1     -10.078  19.707  69.348  1.00  0.00    -0.214 C  
ENDBRANCH  32  33
BRANCH  32  35
HETATM   35  C   UNL     1     -10.634  18.322  65.829  1.00  0.00    -0.186 C  
HETATM   36  C   UNL     1     -11.054  16.849  65.760  1.00  0.00     0.238 C  
ENDBRANCH  32  35
ENDBRANCH  31  32
ENDBRANCH  29  31
ENDBRANCH  28  29
ENDBRANCH  27  28
ENDBRANCH  25  27
ENDBRANCH   4  25
TORSDOF 8
ENDMDL
MODEL      124
REMARK 921   NORMALIZED FREE ENERGY PREDICTED BY IDOCK:   -3.52 KCAL/MOL
REMARK 922        TOTAL FREE ENERGY PREDICTED BY IDOCK:   -5.31 KCAL/MOL
REMARK 923 INTER-LIGAND FREE ENERGY PREDICTED BY IDOCK:   -5.85 KCAL/MOL
REMARK 924 INTRA-LIGAND FREE ENERGY PREDICTED BY IDOCK:    0.54 KCAL/MOL
REMARK 927      BINDING AFFINITY PREDICTED BY RF-SCORE:    0.00 PKD
ROOT
HETATM    1  C   UNL     1      -6.087  11.695  69.279  1.00  0.00    -0.078 C  
HETATM    2  C   UNL     1      -5.323  10.833  68.459  1.00  0.00    -0.040 C  
HETATM    3  C   UNL     1      -6.517  11.431  67.777  1.00  0.00    -0.065 C  
HETATM    4  C   UNL     1      -7.483  13.008  68.696  1.00  0.00    -0.093 C  
HETATM    5  C   UNL     1      -9.341   8.382  70.313  1.00  0.00    -0.167 C  
HETATM    6  O   UNL     1      -6.986  13.552  69.983  1.00  0.00    -0.339 OA 
HETATM    7  C   UNL     1      -6.442  12.939  67.830  1.00  0.00    -0.127 C  
HETATM    8  C   UNL     1      -7.969  12.487  66.723  1.00  0.00     0.078 C  
HETATM    9  H   UNL     1      -7.430  14.277  70.406  1.00  0.00     0.000 HD 
HETATM   10  C   UNL     1      -9.922   7.175  70.463  1.00  0.00    -0.191 C  
HETATM   11  C   UNL     1     -11.064   6.848  69.590  1.00  0.00    -0.258 C  
HETATM   12  C   UNL     1      -5.289  13.868  67.501  1.00  0.00     0.171 C  
HETATM   13  C   UNL     1      -9.160  11.560  67.661  1.00  0.00    -0.168 C  
HETATM   14  C   UNL     1     -10.905   7.286  68.172  1.00  0.00    -0.130 C  
HETATM   15  C   UNL     1     -10.909  10.246  70.152  1.00  0.00    -0.362 C  
HETATM   16  O   UNL     1      -9.932  12.549  68.365  1.00  0.00    -0.224 OA 
HETATM   17  C   UNL     1      -8.696  10.356  68.739  1.00  0.00    -0.146 C  
HETATM   18  C   UNL     1      -9.880   9.448  69.329  1.00  0.00    -0.176 C  
HETATM   19  C   UNL     1     -10.641   8.788  68.104  1.00  0.00    -0.203 C  
HETATM   20  H   UNL     1     -10.569  12.053  68.867  1.00  0.00     0.000 HD 
HETATM   21  C   UNL     1      -7.552  10.789  69.858  1.00  0.00     0.128 C  
HETATM   22  C   UNL     1      -7.088   9.522  70.604  1.00  0.00    -0.128 C  
HETATM   23  O   UNL     1     -12.028   6.225  70.016  1.00  0.00    -0.256 OA 
HETATM   24  C   UNL     1      -8.237   8.770  71.265  1.00  0.00    -0.212 C  
ENDROOT
BRANCH   4  25
HETATM   25  C   UNL     1      -7.948  14.627  68.171  1.00  0.00    -0.136 C  
HETATM   26  O   UNL     1      -7.955  15.023  66.994  1.00  0.00    -0.207 OA 
BRANCH  25  27
HETATM   27  C   UNL     1      -8.346  15.699  69.220  1.00  0.00    -0.256 C  
BRANCH  27  28
HETATM   28  O   UNL     1      -9.594  16.341  68.793  1.00  0.00    -0.222 OA 
BRANCH  28  29
HETATM   29  C   UNL     1      -9.644  17.702  68.649  1.00  0.00    -0.307 C  
HETATM   30  O   UNL     1     -10.404  18.422  69.289  1.00  0.00    -0.193 OA 
BRANCH  29  31
HETATM   31  C   UNL     1      -8.634  18.178  67.569  1.00  0.00    -0.249 C  
BRANCH  31  32
HETATM   32  N   UNL     1      -7.247  18.457  68.073  1.00  0.00    -0.235 NA 
BRANCH  32  33
HETATM   33  C   UNL     1      -6.301  18.780  66.994  1.00  0.00    -0.179 C  
HETATM   34  C   UNL     1      -6.506  18.037  65.678  1.00  0.00    -0.253 C  
ENDBRANCH  32  33
BRANCH  32  35
HETATM   35  C   UNL     1      -7.282  19.483  69.141  1.00  0.00    -0.347 C  
HETATM   36  C   UNL     1      -6.079  19.481  70.093  1.00  0.00    -0.285 C  
ENDBRANCH  32  35
ENDBRANCH  31  32
ENDBRANCH  29  31
ENDBRANCH  28  29
ENDBRANCH  27  28
ENDBRANCH  25  27
ENDBRANCH   4  25
TORSDOF 8
ENDMDL
MODEL      125
REMARK 921   NORMALIZED FREE ENERGY PREDICTED BY IDOCK:   -3.50 KCAL/MOL
REMARK 922        TOTAL FREE ENERGY PREDICTED BY IDOCK:   -5.28 KCAL/MOL
REMARK 923 INTER-LIGAND FREE ENERGY PREDICTED BY IDOCK:   -5.17 KCAL/MOL
REMARK 924 INTRA-LIGAND FREE ENERGY PREDICTED BY IDOCK:   -0.11 KCAL/MOL
REMARK 927      BINDING AFFINITY PREDICTED BY RF-SCORE:    0.00 PKD
ROOT
HETATM    1  C   UNL     1      -8.587  10.237  66.573  1.00  0.00    -0.136 C  
HETATM    2  C   UNL     1      -8.052  11.413  67.145  1.00  0.00    -0.155 C  
HETATM    3  C   UNL     1      -7.214  10.189  67.362  1.00  0.00    -0.088 C  
HETATM    4  C   UNL     1      -7.642   8.500  66.252  1.00  0.00    -0.090 C  
HETATM    5  C   UNL     1     -10.466   8.695  70.663  1.00  0.00    -0.243 C  
HETATM    6  O   UNL     1      -8.731   8.514  65.246  1.00  0.00    -0.218 OA 
HETATM    7  C   UNL     1      -6.843   9.574  66.033  1.00  0.00    -0.090 C  
HETATM    8  C   UNL     1      -5.888   8.585  67.400  1.00  0.00    -0.043 C  
HETATM    9  H   UNL     1      -8.928   7.737  64.736  1.00  0.00     0.000 HD 
HETATM   10  C   UNL     1     -10.940   8.700  71.924  1.00  0.00    -0.412 C  
HETATM   11  C   UNL     1     -10.180   7.962  72.948  1.00  0.00    -0.330 C  
HETATM   12  C   UNL     1      -6.282  10.224  64.782  1.00  0.00    -0.124 C  
HETATM   13  C   UNL     1      -7.032   7.813  68.518  1.00  0.00    -0.071 C  
HETATM   14  C   UNL     1      -8.697   8.108  72.845  1.00  0.00    -0.290 C  
HETATM   15  C   UNL     1      -9.769   6.500  69.852  1.00  0.00    -0.176 C  
HETATM   16  O   UNL     1      -7.421   6.589  67.870  1.00  0.00    -0.090 OA 
HETATM   17  C   UNL     1      -8.410   8.608  69.064  1.00  0.00    -0.119 C  
HETATM   18  C   UNL     1      -9.216   7.883  70.247  1.00  0.00    -0.152 C  
HETATM   19  C   UNL     1      -8.215   7.680  71.460  1.00  0.00    -0.108 C  
HETATM   20  H   UNL     1      -8.034   6.176  68.469  1.00  0.00     0.000 HD 
HETATM   21  C   UNL     1      -9.378   9.265  67.889  1.00  0.00    -0.143 C  
HETATM   22  C   UNL     1     -10.455  10.135  68.568  1.00  0.00    -0.221 C  
HETATM   23  O   UNL     1     -10.750   7.328  73.827  1.00  0.00    -0.353 OA 
HETATM   24  C   UNL     1     -11.286   9.362  69.586  1.00  0.00    -0.100 C  
ENDROOT
BRANCH   4  25
HETATM   25  C   UNL     1      -6.679   7.441  65.221  1.00  0.00    -0.047 C  
HETATM   26  O   UNL     1      -5.508   7.659  64.866  1.00  0.00    -0.032 OA 
BRANCH  25  27
HETATM   27  C   UNL     1      -7.302   6.142  64.645  1.00  0.00    -0.072 C  
BRANCH  27  28
HETATM   28  O   UNL     1      -6.568   4.988  65.177  1.00  0.00    -0.038 OA 
BRANCH  28  29
HETATM   29  C   UNL     1      -7.091   3.729  65.039  1.00  0.00    -0.066 C  
HETATM   30  O   UNL     1      -6.590   2.730  65.547  1.00  0.00    -0.034 OA 
BRANCH  29  31
HETATM   31  C   UNL     1      -8.366   3.756  64.153  1.00  0.00    -0.091 C  
BRANCH  31  32
HETATM   32  N   UNL     1      -9.641   3.398  64.860  1.00  0.00    -0.158 NA 
BRANCH  32  33
HETATM   33  C   UNL     1      -9.713   3.948  66.223  1.00  0.00    -0.160 C  
HETATM   34  C   UNL     1     -10.474   5.262  66.375  1.00  0.00    -0.347 C  
ENDBRANCH  32  33
BRANCH  32  35
HETATM   35  C   UNL     1     -10.812   3.756  64.027  1.00  0.00    -0.176 C  
HETATM   36  C   UNL     1     -10.529   3.907  62.527  1.00  0.00    -0.198 C  
ENDBRANCH  32  35
ENDBRANCH  31  32
ENDBRANCH  29  31
ENDBRANCH  28  29
ENDBRANCH  27  28
ENDBRANCH  25  27
ENDBRANCH   4  25
TORSDOF 8
ENDMDL
MODEL      126
REMARK 921   NORMALIZED FREE ENERGY PREDICTED BY IDOCK:   -3.49 KCAL/MOL
REMARK 922        TOTAL FREE ENERGY PREDICTED BY IDOCK:   -5.27 KCAL/MOL
REMARK 923 INTER-LIGAND FREE ENERGY PREDICTED BY IDOCK:   -5.14 KCAL/MOL
REMARK 924 INTRA-LIGAND FREE ENERGY PREDICTED BY IDOCK:   -0.13 KCAL/MOL
REMARK 927      BINDING AFFINITY PREDICTED BY RF-SCORE:    0.00 PKD
ROOT
HETATM    1  C   UNL     1      -9.486   9.979  67.377  1.00  0.00    -0.176 C  
HETATM    2  C   UNL     1      -8.927  11.132  67.975  1.00  0.00    -0.149 C  
HETATM    3  C   UNL     1      -8.015   9.943  67.962  1.00  0.00    -0.100 C  
HETATM    4  C   UNL     1      -8.522   8.332  66.772  1.00  0.00    -0.122 C  
HETATM    5  C   UNL     1     -10.697   7.997  71.528  1.00  0.00    -0.274 C  
HETATM    6  O   UNL     1      -9.742   8.369  65.931  1.00  0.00    -0.451 OA 
HETATM    7  C   UNL     1      -7.810   9.463  66.544  1.00  0.00    -0.097 C  
HETATM    8  C   UNL     1      -6.628   8.418  67.671  1.00  0.00    -0.058 C  
HETATM    9  H   UNL     1      -9.975   7.628  65.383  1.00  0.00     0.000 HD 
HETATM   10  C   UNL     1     -10.988   7.869  72.838  1.00  0.00    -0.452 C  
HETATM   11  C   UNL     1     -10.058   7.091  73.676  1.00  0.00    -0.338 C  
HETATM   12  C   UNL     1      -7.460  10.247  65.292  1.00  0.00    -0.141 C  
HETATM   13  C   UNL     1      -7.567   7.492  68.861  1.00  0.00    -0.105 C  
HETATM   14  C   UNL     1      -8.614   7.327  73.383  1.00  0.00    -0.175 C  
HETATM   15  C   UNL     1     -10.027   5.920  70.433  1.00  0.00    -0.247 C  
HETATM   16  O   UNL     1      -7.990   6.306  68.163  1.00  0.00    -0.106 OA 
HETATM   17  C   UNL     1      -8.887   8.159  69.661  1.00  0.00    -0.143 C  
HETATM   18  C   UNL     1      -9.485   7.294  70.872  1.00  0.00    -0.159 C  
HETATM   19  C   UNL     1      -8.314   7.046  71.913  1.00  0.00    -0.106 C  
HETATM   20  H   UNL     1      -8.493   5.811  68.800  1.00  0.00     0.000 HD 
HETATM   21  C   UNL     1     -10.039   8.858  68.695  1.00  0.00    -0.206 C  
HETATM   22  C   UNL     1     -11.047   9.605  69.592  1.00  0.00    -0.223 C  
HETATM   23  O   UNL     1     -10.470   6.354  74.563  1.00  0.00    -0.274 OA 
HETATM   24  C   UNL     1     -11.690   8.704  70.639  1.00  0.00    -0.178 C  
ENDROOT
BRANCH   4  25
HETATM   25  C   UNL     1      -7.669   7.419  65.526  1.00  0.00    -0.107 C  
HETATM   26  O   UNL     1      -6.473   7.083  65.577  1.00  0.00    -0.045 OA 
BRANCH  25  27
HETATM   27  C   UNL     1      -8.403   7.013  64.221  1.00  0.00     0.149 C  
BRANCH  27  28
HETATM   28  O   UNL     1      -7.765   5.812  63.671  1.00  0.00    -0.080 OA 
BRANCH  28  29
HETATM   29  C   UNL     1      -8.499   4.666  63.509  1.00  0.00    -0.121 C  
HETATM   30  O   UNL     1      -8.809   4.211  62.412  1.00  0.00    -0.088 OA 
BRANCH  29  31
HETATM   31  C   UNL     1      -8.885   4.060  64.886  1.00  0.00    -0.129 C  
BRANCH  31  32
HETATM   32  N   UNL     1      -8.116   2.831  65.278  1.00  0.00    -0.085 NA 
BRANCH  32  33
HETATM   33  C   UNL     1      -6.789   2.761  64.647  1.00  0.00    -0.040 C  
HETATM   34  C   UNL     1      -5.595   2.997  65.567  1.00  0.00    -0.017 C  
ENDBRANCH  32  33
BRANCH  32  35
HETATM   35  C   UNL     1      -8.063   2.704  66.753  1.00  0.00    -0.081 C  
HETATM   36  C   UNL     1      -9.403   2.888  67.476  1.00  0.00    -0.218 C  
ENDBRANCH  32  35
ENDBRANCH  31  32
ENDBRANCH  29  31
ENDBRANCH  28  29
ENDBRANCH  27  28
ENDBRANCH  25  27
ENDBRANCH   4  25
TORSDOF 8
ENDMDL
MODEL      127
REMARK 921   NORMALIZED FREE ENERGY PREDICTED BY IDOCK:   -3.43 KCAL/MOL
REMARK 922        TOTAL FREE ENERGY PREDICTED BY IDOCK:   -5.17 KCAL/MOL
REMARK 923 INTER-LIGAND FREE ENERGY PREDICTED BY IDOCK:   -5.32 KCAL/MOL
REMARK 924 INTRA-LIGAND FREE ENERGY PREDICTED BY IDOCK:    0.15 KCAL/MOL
REMARK 927      BINDING AFFINITY PREDICTED BY RF-SCORE:    0.00 PKD
ROOT
HETATM    1  C   UNL     1      -8.494  10.803  64.815  1.00  0.00    -0.038 C  
HETATM    2  C   UNL     1      -9.485  10.886  63.810  1.00  0.00    -0.308 C  
HETATM    3  C   UNL     1      -9.867  10.031  64.981  1.00  0.00    -0.374 C  
HETATM    4  C   UNL     1      -8.716  10.142  66.692  1.00  0.00    -0.126 C  
HETATM    5  C   UNL     1      -6.838   6.603  63.313  1.00  0.00    -0.046 C  
HETATM    6  O   UNL     1      -7.561  11.068  66.766  1.00  0.00    -0.126 OA 
HETATM    7  C   UNL     1      -9.795  10.837  66.256  1.00  0.00    -0.262 C  
HETATM    8  C   UNL     1     -10.542   9.110  66.722  1.00  0.00    -0.207 C  
HETATM    9  H   UNL     1      -7.031  11.119  67.554  1.00  0.00     0.000 HD 
HETATM   10  C   UNL     1      -6.592   5.548  62.512  1.00  0.00    -0.029 C  
HETATM   11  C   UNL     1      -7.194   4.253  62.875  1.00  0.00    -0.044 C  
HETATM   12  C   UNL     1     -10.351  12.214  66.570  1.00  0.00    -0.239 C  
HETATM   13  C   UNL     1      -9.384   7.815  66.349  1.00  0.00    -0.181 C  
HETATM   14  C   UNL     1      -8.600   4.340  63.368  1.00  0.00    -0.109 C  
HETATM   15  C   UNL     1      -6.597   6.141  65.698  1.00  0.00    -0.047 C  
HETATM   16  O   UNL     1      -8.500   7.765  67.483  1.00  0.00    -0.119 OA 
HETATM   17  C   UNL     1      -8.468   7.824  64.939  1.00  0.00    -0.019 C  
HETATM   18  C   UNL     1      -7.649   6.480  64.625  1.00  0.00    -0.100 C  
HETATM   19  C   UNL     1      -8.688   5.284  64.565  1.00  0.00    -0.072 C  
HETATM   20  H   UNL     1      -7.881   7.073  67.284  1.00  0.00     0.000 HD 
HETATM   21  C   UNL     1      -7.624   9.218  64.635  1.00  0.00    -0.106 C  
HETATM   22  C   UNL     1      -7.031   9.136  63.214  1.00  0.00    -0.089 C  
HETATM   23  O   UNL     1      -6.578   3.204  62.728  1.00  0.00    -0.024 OA 
HETATM   24  C   UNL     1      -6.148   7.911  63.010  1.00  0.00    -0.068 C  
ENDROOT
BRANCH   4  25
HETATM   25  C   UNL     1      -9.083  10.435  68.393  1.00  0.00    -0.147 C  
HETATM   26  O   UNL     1     -10.223  10.588  68.863  1.00  0.00    -0.187 OA 
BRANCH  25  27
HETATM   27  C   UNL     1      -7.931  10.567  69.424  1.00  0.00    -0.140 C  
BRANCH  27  28
HETATM   28  O   UNL     1      -7.632   9.240  69.974  1.00  0.00    -0.074 OA 
BRANCH  28  29
HETATM   29  C   UNL     1      -8.122   8.889  71.205  1.00  0.00    -0.160 C  
HETATM   30  O   UNL     1      -7.549   9.147  72.259  1.00  0.00    -0.312 OA 
BRANCH  29  31
HETATM   31  C   UNL     1      -9.462   8.118  71.064  1.00  0.00    -0.156 C  
BRANCH  31  32
HETATM   32  N   UNL     1     -10.005   7.545  72.342  1.00  0.00    -0.175 NA 
BRANCH  32  33
HETATM   33  C   UNL     1     -11.287   8.147  72.739  1.00  0.00    -0.336 C  
HETATM   34  C   UNL     1     -12.273   8.431  71.609  1.00  0.00    -0.358 C  
ENDBRANCH  32  33
BRANCH  32  35
HETATM   35  C   UNL     1     -10.058   6.067  72.264  1.00  0.00    -0.180 C  
HETATM   36  C   UNL     1     -11.094   5.398  73.177  1.00  0.00    -0.363 C  
ENDBRANCH  32  35
ENDBRANCH  31  32
ENDBRANCH  29  31
ENDBRANCH  28  29
ENDBRANCH  27  28
ENDBRANCH  25  27
ENDBRANCH   4  25
TORSDOF 8
ENDMDL
MODEL      128
REMARK 921   NORMALIZED FREE ENERGY PREDICTED BY IDOCK:   -3.42 KCAL/MOL
REMARK 922        TOTAL FREE ENERGY PREDICTED BY IDOCK:   -5.17 KCAL/MOL
REMARK 923 INTER-LIGAND FREE ENERGY PREDICTED BY IDOCK:   -4.91 KCAL/MOL
REMARK 924 INTRA-LIGAND FREE ENERGY PREDICTED BY IDOCK:   -0.26 KCAL/MOL
REMARK 927      BINDING AFFINITY PREDICTED BY RF-SCORE:    0.00 PKD
ROOT
HETATM    1  C   UNL     1      -7.335   3.759  71.426  1.00  0.00    -0.040 C  
HETATM    2  C   UNL     1      -6.220   2.955  71.097  1.00  0.00    -0.018 C  
HETATM    3  C   UNL     1      -6.044   4.409  70.778  1.00  0.00    -0.018 C  
HETATM    4  C   UNL     1      -7.398   5.756  71.567  1.00  0.00    -0.088 C  
HETATM    5  C   UNL     1      -9.034   3.814  66.982  1.00  0.00    -0.157 C  
HETATM    6  O   UNL     1      -8.495   5.294  72.450  1.00  0.00    -0.120 OA 
HETATM    7  C   UNL     1      -6.231   5.240  72.026  1.00  0.00    -0.031 C  
HETATM    8  C   UNL     1      -5.656   6.449  70.624  1.00  0.00    -0.019 C  
HETATM    9  H   UNL     1      -9.117   5.914  72.813  1.00  0.00     0.000 HD 
HETATM   10  C   UNL     1      -9.238   3.467  65.696  1.00  0.00    -0.158 C  
HETATM   11  C   UNL     1      -8.767   4.393  64.650  1.00  0.00    -0.142 C  
HETATM   12  C   UNL     1      -5.638   5.061  73.411  1.00  0.00    -0.018 C  
HETATM   13  C   UNL     1      -6.832   6.456  69.293  1.00  0.00    -0.065 C  
HETATM   14  C   UNL     1      -7.433   5.007  64.921  1.00  0.00    -0.076 C  
HETATM   15  C   UNL     1      -9.608   6.128  67.509  1.00  0.00    -0.117 C  
HETATM   16  O   UNL     1      -7.856   7.380  69.703  1.00  0.00    -0.111 OA 
HETATM   17  C   UNL     1      -7.557   5.042  68.743  1.00  0.00    -0.077 C  
HETATM   18  C   UNL     1      -8.407   5.169  67.389  1.00  0.00    -0.106 C  
HETATM   19  C   UNL     1      -7.443   5.734  66.263  1.00  0.00    -0.083 C  
HETATM   20  H   UNL     1      -8.486   7.383  68.991  1.00  0.00     0.000 HD 
HETATM   21  C   UNL     1      -8.269   4.097  69.904  1.00  0.00    -0.068 C  
HETATM   22  C   UNL     1      -8.677   2.754  69.264  1.00  0.00    -0.134 C  
HETATM   23  O   UNL     1      -9.421   4.585  63.633  1.00  0.00    -0.108 OA 
HETATM   24  C   UNL     1      -9.599   2.926  68.063  1.00  0.00    -0.113 C  
ENDROOT
BRANCH   4  25
HETATM   25  C   UNL     1      -7.236   7.237  72.512  1.00  0.00    -0.071 C  
HETATM   26  O   UNL     1      -6.267   8.013  72.466  1.00  0.00    -0.055 OA 
BRANCH  25  27
HETATM   27  C   UNL     1      -8.337   7.632  73.531  1.00  0.00    -0.173 C  
BRANCH  27  28
HETATM   28  O   UNL     1      -8.945   8.897  73.106  1.00  0.00    -0.174 OA 
BRANCH  28  29
HETATM   29  C   UNL     1      -9.809   8.913  72.043  1.00  0.00    -0.255 C  
HETATM   30  O   UNL     1      -9.523   9.385  70.946  1.00  0.00    -0.257 OA 
BRANCH  29  31
HETATM   31  C   UNL     1     -11.172   8.279  72.432  1.00  0.00    -0.381 C  
BRANCH  31  32
HETATM   32  N   UNL     1     -12.085   7.974  71.279  1.00  0.00    -0.297 NA 
BRANCH  32  33
HETATM   33  C   UNL     1     -11.934   6.598  70.779  1.00  0.00    -0.353 C  
HETATM   34  C   UNL     1     -11.234   5.618  71.716  1.00  0.00    -0.226 C  
ENDBRANCH  32  33
BRANCH  32  35
HETATM   35  C   UNL     1     -13.484   8.316  71.623  1.00  0.00    -0.331 C  
HETATM   36  C   UNL     1     -14.397   7.121  71.923  1.00  0.00    -0.471 C  
ENDBRANCH  32  35
ENDBRANCH  31  32
ENDBRANCH  29  31
ENDBRANCH  28  29
ENDBRANCH  27  28
ENDBRANCH  25  27
ENDBRANCH   4  25
TORSDOF 8
ENDMDL
MODEL      129
REMARK 921   NORMALIZED FREE ENERGY PREDICTED BY IDOCK:   -3.41 KCAL/MOL
REMARK 922        TOTAL FREE ENERGY PREDICTED BY IDOCK:   -5.15 KCAL/MOL
REMARK 923 INTER-LIGAND FREE ENERGY PREDICTED BY IDOCK:   -5.41 KCAL/MOL
REMARK 924 INTRA-LIGAND FREE ENERGY PREDICTED BY IDOCK:    0.26 KCAL/MOL
REMARK 927      BINDING AFFINITY PREDICTED BY RF-SCORE:    0.00 PKD
ROOT
HETATM    1  C   UNL     1      -9.103  10.701  64.430  1.00  0.00    -0.240 C  
HETATM    2  C   UNL     1     -10.251  10.502  63.630  1.00  0.00    -0.113 C  
HETATM    3  C   UNL     1     -10.466  10.235  65.089  1.00  0.00    -0.069 C  
HETATM    4  C   UNL     1      -9.022  10.870  66.424  1.00  0.00    -0.175 C  
HETATM    5  C   UNL     1      -7.982   6.080  64.569  1.00  0.00    -0.127 C  
HETATM    6  O   UNL     1      -7.822  11.599  65.948  1.00  0.00    -0.355 OA 
HETATM    7  C   UNL     1     -10.121  11.464  65.897  1.00  0.00    -0.286 C  
HETATM    8  C   UNL     1     -10.869  10.169  67.131  1.00  0.00    -0.257 C  
HETATM    9  H   UNL     1      -7.158  11.891  66.562  1.00  0.00     0.000 HD 
HETATM   10  C   UNL     1      -7.942   4.772  64.246  1.00  0.00    -0.101 C  
HETATM   11  C   UNL     1      -8.541   3.812  65.190  1.00  0.00    -0.113 C  
HETATM   12  C   UNL     1     -10.534  12.910  65.692  1.00  0.00    -0.292 C  
HETATM   13  C   UNL     1      -9.871   8.700  67.164  1.00  0.00    -0.207 C  
HETATM   14  C   UNL     1      -9.830   4.261  65.796  1.00  0.00    -0.228 C  
HETATM   15  C   UNL     1      -7.344   6.573  66.874  1.00  0.00    -0.079 C  
HETATM   16  O   UNL     1      -8.803   8.993  68.083  1.00  0.00    -0.133 OA 
HETATM   17  C   UNL     1      -9.223   8.036  65.762  1.00  0.00    -0.068 C  
HETATM   18  C   UNL     1      -8.551   6.588  65.916  1.00  0.00    -0.153 C  
HETATM   19  C   UNL     1      -9.649   5.604  66.499  1.00  0.00    -0.171 C  
HETATM   20  H   UNL     1      -8.269   8.207  68.100  1.00  0.00     0.000 HD 
HETATM   21  C   UNL     1      -8.369   9.080  64.797  1.00  0.00    -0.181 C  
HETATM   22  C   UNL     1      -8.047   8.370  63.467  1.00  0.00    -0.143 C  
HETATM   23  O   UNL     1      -8.022   2.723  65.402  1.00  0.00    -0.080 OA 
HETATM   24  C   UNL     1      -7.284   7.064  63.662  1.00  0.00    -0.071 C  
ENDROOT
BRANCH   4  25
HETATM   25  C   UNL     1      -9.063  11.855  67.887  1.00  0.00    -0.183 C  
HETATM   26  O   UNL     1      -9.520  11.491  68.983  1.00  0.00    -0.073 OA 
BRANCH  25  27
HETATM   27  C   UNL     1      -8.541  13.316  67.854  1.00  0.00    -0.188 C  
BRANCH  27  28
HETATM   28  O   UNL     1      -8.032  13.669  69.184  1.00  0.00     0.091 OA 
BRANCH  28  29
HETATM   29  C   UNL     1      -7.993  14.983  69.570  1.00  0.00    -0.135 C  
HETATM   30  O   UNL     1      -7.090  15.461  70.250  1.00  0.00     0.021 OA 
BRANCH  29  31
HETATM   31  C   UNL     1      -9.240  15.747  69.048  1.00  0.00    -0.243 C  
BRANCH  31  32
HETATM   32  N   UNL     1     -10.549  15.309  69.640  1.00  0.00    -0.262 NA 
BRANCH  32  33
HETATM   33  C   UNL     1     -10.917  16.073  70.842  1.00  0.00    -0.132 C  
HETATM   34  C   UNL     1     -12.031  15.479  71.699  1.00  0.00    -0.478 C  
ENDBRANCH  32  33
BRANCH  32  35
HETATM   35  C   UNL     1     -11.609  15.309  68.606  1.00  0.00    -0.354 C  
HETATM   36  C   UNL     1     -11.416  16.319  67.468  1.00  0.00     0.168 C  
ENDBRANCH  32  35
ENDBRANCH  31  32
ENDBRANCH  29  31
ENDBRANCH  28  29
ENDBRANCH  27  28
ENDBRANCH  25  27
ENDBRANCH   4  25
TORSDOF 8
ENDMDL
MODEL      130
REMARK 921   NORMALIZED FREE ENERGY PREDICTED BY IDOCK:   -3.41 KCAL/MOL
REMARK 922        TOTAL FREE ENERGY PREDICTED BY IDOCK:   -5.15 KCAL/MOL
REMARK 923 INTER-LIGAND FREE ENERGY PREDICTED BY IDOCK:   -6.41 KCAL/MOL
REMARK 924 INTRA-LIGAND FREE ENERGY PREDICTED BY IDOCK:    1.26 KCAL/MOL
REMARK 927      BINDING AFFINITY PREDICTED BY RF-SCORE:    0.00 PKD
ROOT
HETATM    1  C   UNL     1      -6.985  15.538  69.788  1.00  0.00    -0.132 C  
HETATM    2  C   UNL     1      -5.718  15.971  69.335  1.00  0.00    -0.125 C  
HETATM    3  C   UNL     1      -6.682  15.637  68.236  1.00  0.00    -0.124 C  
HETATM    4  C   UNL     1      -8.674  15.392  68.722  1.00  0.00    -0.195 C  
HETATM    5  C   UNL     1      -5.987  10.921  69.225  1.00  0.00    -0.044 C  
HETATM    6  O   UNL     1      -9.139  15.574  70.118  1.00  0.00    -0.160 OA 
HETATM    7  C   UNL     1      -7.933  16.472  68.374  1.00  0.00    -0.194 C  
HETATM    8  C   UNL     1      -8.089  15.490  66.710  1.00  0.00    -0.247 C  
HETATM    9  H   UNL     1     -10.056  15.461  70.342  1.00  0.00     0.000 HD 
HETATM   10  C   UNL     1      -5.281   9.784  69.069  1.00  0.00    -0.036 C  
HETATM   11  C   UNL     1      -5.398   9.071  67.785  1.00  0.00    -0.035 C  
HETATM   12  C   UNL     1      -8.086  17.965  68.598  1.00  0.00    -0.283 C  
HETATM   13  C   UNL     1      -8.075  13.741  67.021  1.00  0.00     0.018 C  
HETATM   14  C   UNL     1      -5.416   9.958  66.583  1.00  0.00    -0.045 C  
HETATM   15  C   UNL     1      -8.311  10.777  68.489  1.00  0.00    -0.138 C  
HETATM   16  O   UNL     1      -9.432  13.412  67.371  1.00  0.00    -0.208 OA 
HETATM   17  C   UNL     1      -7.035  13.049  68.147  1.00  0.00    -0.105 C  
HETATM   18  C   UNL     1      -6.966  11.447  68.147  1.00  0.00    -0.069 C  
HETATM   19  C   UNL     1      -6.545  10.980  66.692  1.00  0.00    -0.128 C  
HETATM   20  H   UNL     1      -9.424  12.476  67.538  1.00  0.00     0.000 HD 
HETATM   21  C   UNL     1      -7.054  13.727  69.660  1.00  0.00     0.198 C  
HETATM   22  C   UNL     1      -5.896  13.127  70.483  1.00  0.00    -0.150 C  
HETATM   23  O   UNL     1      -5.430   7.848  67.739  1.00  0.00    -0.031 OA 
HETATM   24  C   UNL     1      -5.955  11.607  70.568  1.00  0.00    -0.078 C  
ENDROOT
BRANCH   4  25
HETATM   25  C   UNL     1     -10.174  16.094  68.113  1.00  0.00    -0.247 C  
HETATM   26  O   UNL     1     -10.616  17.215  68.417  1.00  0.00    -0.348 OA 
BRANCH  25  27
HETATM   27  C   UNL     1     -11.078  15.278  67.152  1.00  0.00    -0.323 C  
BRANCH  27  28
HETATM   28  O   UNL     1     -11.252  16.035  65.906  1.00  0.00    -0.083 OA 
BRANCH  28  29
HETATM   29  C   UNL     1     -11.577  15.376  64.750  1.00  0.00    -0.286 C  
HETATM   30  O   UNL     1     -12.526  15.689  64.038  1.00  0.00    -0.657 OA 
BRANCH  29  31
HETATM   31  C   UNL     1     -10.601  14.195  64.498  1.00  0.00    -0.261 C  
BRANCH  31  32
HETATM   32  N   UNL     1     -11.092  12.853  64.959  1.00  0.00    -0.285 NA 
BRANCH  32  33
HETATM   33  C   UNL     1     -12.507  12.619  64.632  1.00  0.00    -0.466 C  
HETATM   34  C   UNL     1     -12.779  11.848  63.344  1.00  0.00    -0.496 C  
ENDBRANCH  32  33
BRANCH  32  35
HETATM   35  C   UNL     1     -10.198  11.779  64.468  1.00  0.00    -0.284 C  
HETATM   36  C   UNL     1     -10.069  10.559  65.390  1.00  0.00    -0.358 C  
ENDBRANCH  32  35
ENDBRANCH  31  32
ENDBRANCH  29  31
ENDBRANCH  28  29
ENDBRANCH  27  28
ENDBRANCH  25  27
ENDBRANCH   4  25
TORSDOF 8
ENDMDL
MODEL      131
REMARK 921   NORMALIZED FREE ENERGY PREDICTED BY IDOCK:   -3.38 KCAL/MOL
REMARK 922        TOTAL FREE ENERGY PREDICTED BY IDOCK:   -5.10 KCAL/MOL
REMARK 923 INTER-LIGAND FREE ENERGY PREDICTED BY IDOCK:   -5.35 KCAL/MOL
REMARK 924 INTRA-LIGAND FREE ENERGY PREDICTED BY IDOCK:    0.25 KCAL/MOL
REMARK 927      BINDING AFFINITY PREDICTED BY RF-SCORE:    0.00 PKD
ROOT
HETATM    1  C   UNL     1      -9.678   5.822  67.268  1.00  0.00    -0.140 C  
HETATM    2  C   UNL     1     -11.030   5.560  66.946  1.00  0.00    -0.077 C  
HETATM    3  C   UNL     1     -10.840   6.637  67.972  1.00  0.00    -0.345 C  
HETATM    4  C   UNL     1      -8.943   7.412  68.238  1.00  0.00    -0.130 C  
HETATM    5  C   UNL     1      -9.753   3.181  71.224  1.00  0.00    -0.215 C  
HETATM    6  O   UNL     1      -7.809   6.933  67.412  1.00  0.00    -0.107 OA 
HETATM    7  C   UNL     1      -9.968   7.736  67.412  1.00  0.00    -0.257 C  
HETATM    8  C   UNL     1     -10.592   8.338  69.146  1.00  0.00    -0.179 C  
HETATM    9  H   UNL     1      -6.937   7.289  67.535  1.00  0.00     0.000 HD 
HETATM   10  C   UNL     1     -10.141   2.264  72.132  1.00  0.00    -0.223 C  
HETATM   11  C   UNL     1     -10.636   2.751  73.432  1.00  0.00    -0.167 C  
HETATM   12  C   UNL     1     -10.052   8.463  66.082  1.00  0.00     0.007 C  
HETATM   13  C   UNL     1     -10.031   7.236  70.422  1.00  0.00    -0.191 C  
HETATM   14  C   UNL     1     -11.519   3.952  73.350  1.00  0.00    -0.185 C  
HETATM   15  C   UNL     1      -8.330   4.952  72.119  1.00  0.00    -0.123 C  
HETATM   16  O   UNL     1      -8.693   7.668  70.727  1.00  0.00    -0.136 OA 
HETATM   17  C   UNL     1     -10.036   5.567  70.217  1.00  0.00    -0.281 C  
HETATM   18  C   UNL     1      -9.731   4.698  71.530  1.00  0.00    -0.241 C  
HETATM   19  C   UNL     1     -10.802   5.092  72.631  1.00  0.00    -0.303 C  
HETATM   20  H   UNL     1      -8.392   7.078  71.409  1.00  0.00     0.000 HD 
HETATM   21  C   UNL     1      -9.293   5.006  68.844  1.00  0.00    -0.174 C  
HETATM   22  C   UNL     1      -9.587   3.498  68.708  1.00  0.00    -0.137 C  
HETATM   23  O   UNL     1     -10.364   2.166  74.473  1.00  0.00    -0.120 OA 
HETATM   24  C   UNL     1      -9.150   2.697  69.928  1.00  0.00    -0.181 C  
ENDROOT
BRANCH   4  25
HETATM   25  C   UNL     1      -8.281   9.047  68.232  1.00  0.00    -0.116 C  
HETATM   26  O   UNL     1      -8.866  10.055  67.800  1.00  0.00    -0.125 OA 
BRANCH  25  27
HETATM   27  C   UNL     1      -6.843   9.304  68.753  1.00  0.00    -0.060 C  
BRANCH  27  28
HETATM   28  O   UNL     1      -6.922   9.932  70.076  1.00  0.00    -0.084 OA 
BRANCH  28  29
HETATM   29  C   UNL     1      -5.995  10.873  70.439  1.00  0.00    -0.134 C  
HETATM   30  O   UNL     1      -5.537  10.969  71.574  1.00  0.00    -0.344 OA 
BRANCH  29  31
HETATM   31  C   UNL     1      -5.637  11.786  69.234  1.00  0.00    -0.055 C  
BRANCH  31  32
HETATM   32  N   UNL     1      -6.358  13.102  69.197  1.00  0.00    -0.099 NA 
BRANCH  32  33
HETATM   33  C   UNL     1      -5.520  14.227  69.642  1.00  0.00    -0.093 C  
HETATM   34  C   UNL     1      -5.815  14.772  71.035  1.00  0.00    -0.057 C  
ENDBRANCH  32  33
BRANCH  32  35
HETATM   35  C   UNL     1      -6.962  13.322  67.862  1.00  0.00    -0.137 C  
HETATM   36  C   UNL     1      -6.966  14.777  67.375  1.00  0.00    -0.141 C  
ENDBRANCH  32  35
ENDBRANCH  31  32
ENDBRANCH  29  31
ENDBRANCH  28  29
ENDBRANCH  27  28
ENDBRANCH  25  27
ENDBRANCH   4  25
TORSDOF 8
ENDMDL
MODEL      132
REMARK 921   NORMALIZED FREE ENERGY PREDICTED BY IDOCK:   -3.37 KCAL/MOL
REMARK 922        TOTAL FREE ENERGY PREDICTED BY IDOCK:   -5.09 KCAL/MOL
REMARK 923 INTER-LIGAND FREE ENERGY PREDICTED BY IDOCK:   -6.16 KCAL/MOL
REMARK 924 INTRA-LIGAND FREE ENERGY PREDICTED BY IDOCK:    1.06 KCAL/MOL
REMARK 927      BINDING AFFINITY PREDICTED BY RF-SCORE:    0.00 PKD
ROOT
HETATM    1  C   UNL     1      -8.259  10.370  68.594  1.00  0.00    -0.121 C  
HETATM    2  C   UNL     1      -9.144  10.549  69.682  1.00  0.00     0.024 C  
HETATM    3  C   UNL     1      -9.727   9.776  68.537  1.00  0.00    -0.164 C  
HETATM    4  C   UNL     1      -8.447   9.082  67.071  1.00  0.00    -0.120 C  
HETATM    5  C   UNL     1     -10.102  13.952  66.063  1.00  0.00    -0.324 C  
HETATM    6  O   UNL     1      -6.987   9.320  67.170  1.00  0.00    -0.083 OA 
HETATM    7  C   UNL     1      -8.876   8.561  68.247  1.00  0.00    -0.142 C  
HETATM    8  C   UNL     1     -10.443   8.438  67.112  1.00  0.00    -0.380 C  
HETATM    9  H   UNL     1      -6.398   9.001  66.495  1.00  0.00     0.000 HD 
HETATM   10  C   UNL     1     -10.779  15.077  65.761  1.00  0.00    -0.351 C  
HETATM   11  C   UNL     1     -11.981  14.951  64.918  1.00  0.00    -0.306 C  
HETATM   12  C   UNL     1      -8.321   7.514  69.194  1.00  0.00    -0.135 C  
HETATM   13  C   UNL     1     -10.519   9.830  66.011  1.00  0.00    -0.006 C  
HETATM   14  C   UNL     1     -12.845  13.777  65.242  1.00  0.00    -0.430 C  
HETATM   15  C   UNL     1      -9.714  12.465  64.166  1.00  0.00    -0.025 C  
HETATM   16  O   UNL     1      -9.664   9.482  64.908  1.00  0.00    -0.444 OA 
HETATM   17  C   UNL     1     -10.148  11.388  66.524  1.00  0.00    -0.250 C  
HETATM   18  C   UNL     1     -10.491  12.567  65.492  1.00  0.00    -0.305 C  
HETATM   19  C   UNL     1     -12.039  12.483  65.158  1.00  0.00    -0.503 C  
HETATM   20  H   UNL     1      -9.704  10.227  64.319  1.00  0.00     0.000 HD 
HETATM   21  C   UNL     1      -8.692  11.566  67.297  1.00  0.00    -0.151 C  
HETATM   22  C   UNL     1      -8.619  12.988  67.888  1.00  0.00    -0.189 C  
HETATM   23  O   UNL     1     -12.245  15.785  64.061  1.00  0.00    -0.664 OA 
HETATM   24  C   UNL     1      -8.814  14.077  66.840  1.00  0.00    -0.212 C  
ENDROOT
BRANCH   4  25
HETATM   25  C   UNL     1      -8.159   7.497  66.354  1.00  0.00    -0.114 C  
HETATM   26  O   UNL     1      -7.043   7.033  66.064  1.00  0.00    -0.069 OA 
BRANCH  25  27
HETATM   27  C   UNL     1      -9.357   6.580  65.992  1.00  0.00     0.001 C  
BRANCH  27  28
HETATM   28  O   UNL     1      -8.842   5.307  65.474  1.00  0.00    -0.148 OA 
BRANCH  28  29
HETATM   29  C   UNL     1      -8.936   4.174  66.238  1.00  0.00    -0.123 C  
HETATM   30  O   UNL     1      -9.132   4.190  67.449  1.00  0.00    -0.124 OA 
BRANCH  29  31
HETATM   31  C   UNL     1      -8.742   2.904  65.365  1.00  0.00    -0.124 C  
BRANCH  31  32
HETATM   32  N   UNL     1      -7.369   2.299  65.418  1.00  0.00    -0.061 NA 
BRANCH  32  33
HETATM   33  C   UNL     1      -6.298   3.295  65.256  1.00  0.00    -0.031 C  
HETATM   34  C   UNL     1      -5.575   3.289  63.913  1.00  0.00    -0.010 C  
ENDBRANCH  32  33
BRANCH  32  35
HETATM   35  C   UNL     1      -7.215   1.475  66.640  1.00  0.00    -0.051 C  
HETATM   36  C   UNL     1      -6.180   1.986  67.650  1.00  0.00    -0.024 C  
ENDBRANCH  32  35
ENDBRANCH  31  32
ENDBRANCH  29  31
ENDBRANCH  28  29
ENDBRANCH  27  28
ENDBRANCH  25  27
ENDBRANCH   4  25
TORSDOF 8
ENDMDL
MODEL      133
REMARK 921   NORMALIZED FREE ENERGY PREDICTED BY IDOCK:   -3.31 KCAL/MOL
REMARK 922        TOTAL FREE ENERGY PREDICTED BY IDOCK:   -5.01 KCAL/MOL
REMARK 923 INTER-LIGAND FREE ENERGY PREDICTED BY IDOCK:   -4.59 KCAL/MOL
REMARK 924 INTRA-LIGAND FREE ENERGY PREDICTED BY IDOCK:   -0.42 KCAL/MOL
REMARK 927      BINDING AFFINITY PREDICTED BY RF-SCORE:    0.00 PKD
ROOT
HETATM    1  C   UNL     1      -8.651   9.945  66.373  1.00  0.00    -0.136 C  
HETATM    2  C   UNL     1      -9.609  10.400  65.439  1.00  0.00    -0.303 C  
HETATM    3  C   UNL     1     -10.186   9.605  66.571  1.00  0.00    -0.294 C  
HETATM    4  C   UNL     1      -8.989   9.229  68.212  1.00  0.00    -0.129 C  
HETATM    5  C   UNL     1      -8.398   5.580  64.496  1.00  0.00    -0.127 C  
HETATM    6  O   UNL     1      -7.606   9.760  68.277  1.00  0.00    -0.080 OA 
HETATM    7  C   UNL     1      -9.824  10.247  67.891  1.00  0.00    -0.181 C  
HETATM    8  C   UNL     1     -11.039   8.788  68.285  1.00  0.00     0.246 C  
HETATM    9  H   UNL     1      -7.056   9.586  69.032  1.00  0.00     0.000 HD 
HETATM   10  C   UNL     1      -8.512   4.569  63.613  1.00  0.00    -0.118 C  
HETATM   11  C   UNL     1      -9.462   3.486  63.926  1.00  0.00    -0.135 C  
HETATM   12  C   UNL     1      -9.927  11.696  68.328  1.00  0.00    -0.201 C  
HETATM   13  C   UNL     1     -10.340   7.242  67.757  1.00  0.00    -0.209 C  
HETATM   14  C   UNL     1     -10.756   3.947  64.509  1.00  0.00    -0.172 C  
HETATM   15  C   UNL     1      -8.215   4.874  66.826  1.00  0.00    -0.107 C  
HETATM   16  O   UNL     1      -9.469   6.839  68.829  1.00  0.00    -0.132 OA 
HETATM   17  C   UNL     1      -9.519   7.093  66.297  1.00  0.00    -0.125 C  
HETATM   18  C   UNL     1      -9.157   5.597  65.845  1.00  0.00    -0.158 C  
HETATM   19  C   UNL     1     -10.510   4.773  65.769  1.00  0.00    -0.275 C  
HETATM   20  H   UNL     1      -9.095   6.012  68.546  1.00  0.00     0.000 HD 
HETATM   21  C   UNL     1      -8.306   8.193  66.035  1.00  0.00    -0.132 C  
HETATM   22  C   UNL     1      -7.822   8.055  64.578  1.00  0.00    -0.138 C  
HETATM   23  O   UNL     1      -9.197   2.318  63.672  1.00  0.00    -0.093 OA 
HETATM   24  C   UNL     1      -7.358   6.643  64.239  1.00  0.00    -0.077 C  
ENDROOT
BRANCH   4  25
HETATM   25  C   UNL     1      -9.185   9.478  69.948  1.00  0.00    -0.220 C  
HETATM   26  O   UNL     1     -10.146  10.053  70.485  1.00  0.00    -0.216 OA 
BRANCH  25  27
HETATM   27  C   UNL     1      -8.081   9.003  70.930  1.00  0.00    -0.169 C  
BRANCH  27  28
HETATM   28  O   UNL     1      -8.396   7.641  71.376  1.00  0.00    -0.104 OA 
BRANCH  28  29
HETATM   29  C   UNL     1      -7.800   7.139  72.502  1.00  0.00    -0.092 C  
HETATM   30  O   UNL     1      -7.376   7.844  73.413  1.00  0.00    -0.106 OA 
BRANCH  29  31
HETATM   31  C   UNL     1      -7.726   5.589  72.441  1.00  0.00    -0.102 C  
BRANCH  31  32
HETATM   32  N   UNL     1      -8.047   4.988  71.103  1.00  0.00    -0.107 NA 
BRANCH  32  33
HETATM   33  C   UNL     1      -6.931   4.212  70.542  1.00  0.00    -0.034 C  
HETATM   34  C   UNL     1      -5.759   3.947  71.482  1.00  0.00    -0.009 C  
ENDBRANCH  32  33
BRANCH  32  35
HETATM   35  C   UNL     1      -9.311   4.219  71.172  1.00  0.00    -0.150 C  
HETATM   36  C   UNL     1      -9.438   3.071  70.163  1.00  0.00    -0.206 C  
ENDBRANCH  32  35
ENDBRANCH  31  32
ENDBRANCH  29  31
ENDBRANCH  28  29
ENDBRANCH  27  28
ENDBRANCH  25  27
ENDBRANCH   4  25
TORSDOF 8
ENDMDL
MODEL      134
REMARK 921   NORMALIZED FREE ENERGY PREDICTED BY IDOCK:   -3.31 KCAL/MOL
REMARK 922        TOTAL FREE ENERGY PREDICTED BY IDOCK:   -5.00 KCAL/MOL
REMARK 923 INTER-LIGAND FREE ENERGY PREDICTED BY IDOCK:   -5.98 KCAL/MOL
REMARK 924 INTRA-LIGAND FREE ENERGY PREDICTED BY IDOCK:    0.98 KCAL/MOL
REMARK 927      BINDING AFFINITY PREDICTED BY RF-SCORE:    0.00 PKD
ROOT
HETATM    1  C   UNL     1      -6.062  13.218  68.087  1.00  0.00    -0.108 C  
HETATM    2  C   UNL     1      -5.945  13.479  69.472  1.00  0.00    -0.110 C  
HETATM    3  C   UNL     1      -7.288  12.960  69.056  1.00  0.00     0.057 C  
HETATM    4  C   UNL     1      -7.484  12.150  67.166  1.00  0.00    -0.129 C  
HETATM    5  C   UNL     1      -8.257  17.334  67.151  1.00  0.00    -0.225 C  
HETATM    6  O   UNL     1      -6.315  12.060  66.258  1.00  0.00    -0.434 OA 
HETATM    7  C   UNL     1      -7.136  11.624  68.366  1.00  0.00    -0.083 C  
HETATM    8  C   UNL     1      -9.038  11.947  68.560  1.00  0.00    -0.123 C  
HETATM    9  H   UNL     1      -6.405  11.687  65.389  1.00  0.00     0.000 HD 
HETATM   10  C   UNL     1      -8.693  18.601  67.291  1.00  0.00    -0.280 C  
HETATM   11  C   UNL     1     -10.141  18.815  67.463  1.00  0.00    -0.360 C  
HETATM   12  C   UNL     1      -6.346  10.398  68.783  1.00  0.00    -0.047 C  
HETATM   13  C   UNL     1      -9.507  13.420  67.686  1.00  0.00    -0.216 C  
HETATM   14  C   UNL     1     -10.811  17.827  68.360  1.00  0.00    -0.088 C  
HETATM   15  C   UNL     1      -9.554  15.984  65.584  1.00  0.00    -0.226 C  
HETATM   16  O   UNL     1      -9.693  13.003  66.322  1.00  0.00    -0.266 OA 
HETATM   17  C   UNL     1      -8.557  14.807  67.712  1.00  0.00    -0.169 C  
HETATM   18  C   UNL     1      -9.220  16.125  67.082  1.00  0.00    -0.220 C  
HETATM   19  C   UNL     1     -10.573  16.405  67.859  1.00  0.00    -0.320 C  
HETATM   20  H   UNL     1      -9.944  13.792  65.854  1.00  0.00     0.000 HD 
HETATM   21  C   UNL     1      -6.961  14.596  67.316  1.00  0.00     0.019 C  
HETATM   22  C   UNL     1      -6.203  15.907  67.608  1.00  0.00    -0.182 C  
HETATM   23  O   UNL     1     -10.709  19.763  66.936  1.00  0.00    -0.476 OA 
HETATM   24  C   UNL     1      -6.791  17.107  66.874  1.00  0.00    -0.242 C  
ENDROOT
BRANCH   4  25
HETATM   25  C   UNL     1      -8.100  10.615  66.554  1.00  0.00    -0.140 C  
HETATM   26  O   UNL     1      -9.115  10.480  65.849  1.00  0.00    -0.158 OA 
BRANCH  25  27
HETATM   27  C   UNL     1      -7.388   9.288  66.927  1.00  0.00    -0.090 C  
BRANCH  27  28
HETATM   28  O   UNL     1      -8.354   8.188  66.835  1.00  0.00    -0.112 OA 
BRANCH  28  29
HETATM   29  C   UNL     1      -8.593   7.399  67.929  1.00  0.00    -0.125 C  
HETATM   30  O   UNL     1      -9.045   7.829  68.986  1.00  0.00    -0.145 OA 
BRANCH  29  31
HETATM   31  C   UNL     1      -8.197   5.925  67.642  1.00  0.00    -0.105 C  
BRANCH  31  32
HETATM   32  N   UNL     1      -9.123   4.893  68.221  1.00  0.00    -0.110 NA 
BRANCH  32  33
HETATM   33  C   UNL     1      -9.717   4.020  67.197  1.00  0.00    -0.166 C  
HETATM   34  C   UNL     1     -10.525   4.717  66.107  1.00  0.00    -0.332 C  
ENDBRANCH  32  33
BRANCH  32  35
HETATM   35  C   UNL     1      -8.446   4.141  69.303  1.00  0.00    -0.076 C  
HETATM   36  C   UNL     1      -9.160   2.863  69.760  1.00  0.00    -0.196 C  
ENDBRANCH  32  35
ENDBRANCH  31  32
ENDBRANCH  29  31
ENDBRANCH  28  29
ENDBRANCH  27  28
ENDBRANCH  25  27
ENDBRANCH   4  25
TORSDOF 8
ENDMDL
MODEL      135
REMARK 921   NORMALIZED FREE ENERGY PREDICTED BY IDOCK:   -3.30 KCAL/MOL
REMARK 922        TOTAL FREE ENERGY PREDICTED BY IDOCK:   -4.99 KCAL/MOL
REMARK 923 INTER-LIGAND FREE ENERGY PREDICTED BY IDOCK:   -4.84 KCAL/MOL
REMARK 924 INTRA-LIGAND FREE ENERGY PREDICTED BY IDOCK:   -0.15 KCAL/MOL
REMARK 927      BINDING AFFINITY PREDICTED BY RF-SCORE:    0.00 PKD
ROOT
HETATM    1  C   UNL     1      -9.219   7.719  69.225  1.00  0.00    -0.145 C  
HETATM    2  C   UNL     1      -8.929   6.786  70.246  1.00  0.00    -0.152 C  
HETATM    3  C   UNL     1      -7.732   7.227  69.459  1.00  0.00    -0.113 C  
HETATM    4  C   UNL     1      -7.923   8.872  68.225  1.00  0.00    -0.105 C  
HETATM    5  C   UNL     1      -9.278   4.440  65.779  1.00  0.00    -0.142 C  
HETATM    6  O   UNL     1      -9.204   9.613  68.147  1.00  0.00    -0.126 OA 
HETATM    7  C   UNL     1      -7.589   8.729  69.531  1.00  0.00    -0.080 C  
HETATM    8  C   UNL     1      -6.026   8.057  68.600  1.00  0.00    -0.040 C  
HETATM    9  H   UNL     1      -9.292  10.370  67.579  1.00  0.00     0.000 HD 
HETATM   10  C   UNL     1      -9.348   3.241  65.167  1.00  0.00    -0.149 C  
HETATM   11  C   UNL     1      -8.137   2.742  64.490  1.00  0.00    -0.082 C  
HETATM   12  C   UNL     1      -7.638   9.654  70.732  1.00  0.00    -0.031 C  
HETATM   13  C   UNL     1      -6.508   7.218  67.110  1.00  0.00    -0.059 C  
HETATM   14  C   UNL     1      -6.866   2.984  65.235  1.00  0.00    -0.048 C  
HETATM   15  C   UNL     1      -8.207   6.190  64.455  1.00  0.00    -0.079 C  
HETATM   16  O   UNL     1      -6.673   8.260  66.131  1.00  0.00    -0.053 OA 
HETATM   17  C   UNL     1      -7.845   6.200  67.058  1.00  0.00    -0.101 C  
HETATM   18  C   UNL     1      -8.015   5.331  65.720  1.00  0.00    -0.105 C  
HETATM   19  C   UNL     1      -6.696   4.472  65.530  1.00  0.00    -0.052 C  
HETATM   20  H   UNL     1      -6.931   7.811  65.334  1.00  0.00     0.000 HD 
HETATM   21  C   UNL     1      -9.262   6.838  67.636  1.00  0.00    -0.118 C  
HETATM   22  C   UNL     1     -10.310   5.711  67.722  1.00  0.00    -0.260 C  
HETATM   23  O   UNL     1      -8.209   2.142  63.425  1.00  0.00    -0.071 OA 
HETATM   24  C   UNL     1     -10.536   5.008  66.389  1.00  0.00    -0.349 C  
ENDROOT
BRANCH   4  25
HETATM   25  C   UNL     1      -7.020  10.378  68.051  1.00  0.00    -0.078 C  
HETATM   26  O   UNL     1      -5.890  10.594  68.520  1.00  0.00    -0.041 OA 
BRANCH  25  27
HETATM   27  C   UNL     1      -7.653  11.580  67.301  1.00  0.00    -0.143 C  
BRANCH  27  28
HETATM   28  O   UNL     1      -7.590  11.326  65.858  1.00  0.00     0.004 OA 
BRANCH  28  29
HETATM   29  C   UNL     1      -8.686  10.823  65.207  1.00  0.00    -0.173 C  
HETATM   30  O   UNL     1      -8.622   9.942  64.356  1.00  0.00    -0.156 OA 
BRANCH  29  31
HETATM   31  C   UNL     1      -9.983  11.533  65.685  1.00  0.00    -0.236 C  
BRANCH  31  32
HETATM   32  N   UNL     1     -10.167  12.933  65.173  1.00  0.00    -0.287 NA 
BRANCH  32  33
HETATM   33  C   UNL     1     -10.796  12.977  63.843  1.00  0.00    -0.313 C  
HETATM   34  C   UNL     1     -12.138  13.697  63.760  1.00  0.00    -0.435 C  
ENDBRANCH  32  33
BRANCH  32  35
HETATM   35  C   UNL     1     -10.875  13.761  66.176  1.00  0.00    -0.279 C  
HETATM   36  C   UNL     1     -10.026  14.848  66.847  1.00  0.00    -0.245 C  
ENDBRANCH  32  35
ENDBRANCH  31  32
ENDBRANCH  29  31
ENDBRANCH  28  29
ENDBRANCH  27  28
ENDBRANCH  25  27
ENDBRANCH   4  25
TORSDOF 8
ENDMDL
MODEL      136
REMARK 921   NORMALIZED FREE ENERGY PREDICTED BY IDOCK:   -3.29 KCAL/MOL
REMARK 922        TOTAL FREE ENERGY PREDICTED BY IDOCK:   -4.97 KCAL/MOL
REMARK 923 INTER-LIGAND FREE ENERGY PREDICTED BY IDOCK:   -4.66 KCAL/MOL
REMARK 924 INTRA-LIGAND FREE ENERGY PREDICTED BY IDOCK:   -0.31 KCAL/MOL
REMARK 927      BINDING AFFINITY PREDICTED BY RF-SCORE:    0.00 PKD
ROOT
HETATM    1  C   UNL     1      -8.192   4.268  71.543  1.00  0.00    -0.091 C  
HETATM    2  C   UNL     1      -6.971   3.562  71.639  1.00  0.00    -0.031 C  
HETATM    3  C   UNL     1      -6.867   4.871  70.917  1.00  0.00    -0.040 C  
HETATM    4  C   UNL     1      -8.449   6.193  71.054  1.00  0.00    -0.128 C  
HETATM    5  C   UNL     1      -9.082   2.806  67.104  1.00  0.00    -0.192 C  
HETATM    6  O   UNL     1      -9.640   5.863  71.872  1.00  0.00    -0.152 OA 
HETATM    7  C   UNL     1      -7.342   5.994  71.810  1.00  0.00    -0.093 C  
HETATM    8  C   UNL     1      -6.635   6.812  70.201  1.00  0.00    -0.044 C  
HETATM    9  H   UNL     1     -10.368   6.471  71.935  1.00  0.00     0.000 HD 
HETATM   10  C   UNL     1      -9.026   2.078  65.972  1.00  0.00    -0.099 C  
HETATM   11  C   UNL     1      -8.461   2.717  64.770  1.00  0.00    -0.090 C  
HETATM   12  C   UNL     1      -6.988   6.305  73.252  1.00  0.00    -0.075 C  
HETATM   13  C   UNL     1      -7.556   6.275  68.779  1.00  0.00    -0.092 C  
HETATM   14  C   UNL     1      -7.253   3.557  65.025  1.00  0.00    -0.067 C  
HETATM   15  C   UNL     1      -9.936   5.074  66.809  1.00  0.00    -0.242 C  
HETATM   16  O   UNL     1      -8.711   7.131  68.736  1.00  0.00    -0.125 OA 
HETATM   17  C   UNL     1      -8.048   4.678  68.594  1.00  0.00    -0.082 C  
HETATM   18  C   UNL     1      -8.655   4.293  67.160  1.00  0.00    -0.104 C  
HETATM   19  C   UNL     1      -7.561   4.633  66.063  1.00  0.00    -0.090 C  
HETATM   20  H   UNL     1      -9.204   6.844  67.976  1.00  0.00     0.000 HD 
HETATM   21  C   UNL     1      -8.869   4.022  69.876  1.00  0.00    -0.138 C  
HETATM   22  C   UNL     1      -9.041   2.510  69.628  1.00  0.00    -0.184 C  
HETATM   23  O   UNL     1      -8.940   2.517  63.661  1.00  0.00    -0.092 OA 
HETATM   24  C   UNL     1      -9.749   2.201  68.315  1.00  0.00     0.050 C  
ENDROOT
BRANCH   4  25
HETATM   25  C   UNL     1      -8.584   7.891  71.512  1.00  0.00    -0.121 C  
HETATM   26  O   UNL     1      -7.677   8.735  71.407  1.00  0.00    -0.118 OA 
BRANCH  25  27
HETATM   27  C   UNL     1      -9.898   8.424  72.140  1.00  0.00    -0.302 C  
BRANCH  27  28
HETATM   28  O   UNL     1     -10.368   9.572  71.356  1.00  0.00    -0.302 OA 
BRANCH  28  29
HETATM   29  C   UNL     1     -10.912   9.371  70.115  1.00  0.00    -0.246 C  
HETATM   30  O   UNL     1     -11.105   8.258  69.634  1.00  0.00    -0.148 OA 
BRANCH  29  31
HETATM   31  C   UNL     1     -11.220  10.727  69.423  1.00  0.00    -0.276 C  
BRANCH  31  32
HETATM   32  N   UNL     1     -10.195  11.177  68.422  1.00  0.00    -0.181 NA 
BRANCH  32  33
HETATM   33  C   UNL     1      -8.818  11.073  68.928  1.00  0.00    -0.113 C  
HETATM   34  C   UNL     1      -7.828  10.335  68.032  1.00  0.00    -0.100 C  
ENDBRANCH  32  33
BRANCH  32  35
HETATM   35  C   UNL     1     -10.393  10.479  67.131  1.00  0.00    -0.235 C  
HETATM   36  C   UNL     1     -10.611  11.392  65.918  1.00  0.00    -0.317 C  
ENDBRANCH  32  35
ENDBRANCH  31  32
ENDBRANCH  29  31
ENDBRANCH  28  29
ENDBRANCH  27  28
ENDBRANCH  25  27
ENDBRANCH   4  25
TORSDOF 8
ENDMDL
MODEL      137
REMARK 921   NORMALIZED FREE ENERGY PREDICTED BY IDOCK:   -3.26 KCAL/MOL
REMARK 922        TOTAL FREE ENERGY PREDICTED BY IDOCK:   -4.93 KCAL/MOL
REMARK 923 INTER-LIGAND FREE ENERGY PREDICTED BY IDOCK:   -5.02 KCAL/MOL
REMARK 924 INTRA-LIGAND FREE ENERGY PREDICTED BY IDOCK:    0.09 KCAL/MOL
REMARK 927      BINDING AFFINITY PREDICTED BY RF-SCORE:    0.00 PKD
ROOT
HETATM    1  C   UNL     1     -10.243   6.788  68.075  1.00  0.00    -0.200 C  
HETATM    2  C   UNL     1     -11.245   6.578  69.049  1.00  0.00    -0.354 C  
HETATM    3  C   UNL     1     -10.100   7.423  69.519  1.00  0.00    -0.187 C  
HETATM    4  C   UNL     1      -8.779   8.155  68.109  1.00  0.00    -0.136 C  
HETATM    5  C   UNL     1      -7.388   3.388  69.785  1.00  0.00    -0.045 C  
HETATM    6  O   UNL     1      -8.982   7.874  66.667  1.00  0.00    -0.136 OA 
HETATM    7  C   UNL     1      -9.942   8.627  68.621  1.00  0.00    -0.197 C  
HETATM    8  C   UNL     1      -8.693   8.849  70.087  1.00  0.00    -0.168 C  
HETATM    9  H   UNL     1      -8.374   8.211  66.019  1.00  0.00     0.000 HD 
HETATM   10  C   UNL     1      -6.975   2.298  70.461  1.00  0.00    -0.033 C  
HETATM   11  C   UNL     1      -6.046   2.498  71.588  1.00  0.00    -0.014 C  
HETATM   12  C   UNL     1     -10.984   9.611  68.121  1.00  0.00    -0.185 C  
HETATM   13  C   UNL     1      -7.518   7.517  70.104  1.00  0.00    -0.086 C  
HETATM   14  C   UNL     1      -6.360   3.677  72.448  1.00  0.00    -0.014 C  
HETATM   15  C   UNL     1      -5.609   4.958  69.211  1.00  0.00    -0.012 C  
HETATM   16  O   UNL     1      -6.507   7.897  69.154  1.00  0.00    -0.035 OA 
HETATM   17  C   UNL     1      -7.978   5.926  69.811  1.00  0.00    -0.101 C  
HETATM   18  C   UNL     1      -6.861   4.810  70.096  1.00  0.00    -0.037 C  
HETATM   19  C   UNL     1      -6.409   4.952  71.609  1.00  0.00    -0.030 C  
HETATM   20  H   UNL     1      -5.879   7.184  69.163  1.00  0.00     0.000 HD 
HETATM   21  C   UNL     1      -8.854   5.671  68.427  1.00  0.00    -0.108 C  
HETATM   22  C   UNL     1      -9.375   4.220  68.435  1.00  0.00    -0.209 C  
HETATM   23  O   UNL     1      -5.128   1.716  71.799  1.00  0.00     0.000 OA 
HETATM   24  C   UNL     1      -8.259   3.190  68.569  1.00  0.00    -0.079 C  
ENDROOT
BRANCH   4  25
HETATM   25  C   UNL     1      -8.171   9.766  67.728  1.00  0.00    -0.114 C  
HETATM   26  O   UNL     1      -7.598  10.524  68.529  1.00  0.00    -0.088 OA 
BRANCH  25  27
HETATM   27  C   UNL     1      -8.376  10.358  66.308  1.00  0.00    -0.146 C  
BRANCH  27  28
HETATM   28  O   UNL     1      -8.903  11.722  66.434  1.00  0.00    -0.194 OA 
BRANCH  28  29
HETATM   29  C   UNL     1      -9.959  12.117  65.656  1.00  0.00    -0.249 C  
HETATM   30  O   UNL     1     -10.387  11.459  64.712  1.00  0.00    -0.259 OA 
BRANCH  29  31
HETATM   31  C   UNL     1     -10.505  13.492  66.128  1.00  0.00    -0.296 C  
BRANCH  31  32
HETATM   32  N   UNL     1      -9.816  14.073  67.329  1.00  0.00    -0.238 NA 
BRANCH  32  33
HETATM   33  C   UNL     1      -9.215  15.389  67.062  1.00  0.00    -0.225 C  
HETATM   34  C   UNL     1      -7.708  15.494  67.278  1.00  0.00    -0.244 C  
ENDBRANCH  32  33
BRANCH  32  35
HETATM   35  C   UNL     1     -10.728  14.078  68.496  1.00  0.00    -0.256 C  
HETATM   36  C   UNL     1     -11.785  15.189  68.499  1.00  0.00    -0.347 C  
ENDBRANCH  32  35
ENDBRANCH  31  32
ENDBRANCH  29  31
ENDBRANCH  28  29
ENDBRANCH  27  28
ENDBRANCH  25  27
ENDBRANCH   4  25
TORSDOF 8
ENDMDL
MODEL      138
REMARK 921   NORMALIZED FREE ENERGY PREDICTED BY IDOCK:   -3.15 KCAL/MOL
REMARK 922        TOTAL FREE ENERGY PREDICTED BY IDOCK:   -4.77 KCAL/MOL
REMARK 923 INTER-LIGAND FREE ENERGY PREDICTED BY IDOCK:   -4.50 KCAL/MOL
REMARK 924 INTRA-LIGAND FREE ENERGY PREDICTED BY IDOCK:   -0.27 KCAL/MOL
REMARK 927      BINDING AFFINITY PREDICTED BY RF-SCORE:    0.00 PKD
ROOT
HETATM    1  C   UNL     1      -9.749   6.228  67.006  1.00  0.00    -0.173 C  
HETATM    2  C   UNL     1      -9.071   6.126  65.769  1.00  0.00    -0.058 C  
HETATM    3  C   UNL     1      -8.189   5.955  66.969  1.00  0.00    -0.105 C  
HETATM    4  C   UNL     1      -9.083   5.667  68.809  1.00  0.00    -0.118 C  
HETATM    5  C   UNL     1      -8.479  10.757  67.717  1.00  0.00    -0.120 C  
HETATM    6  O   UNL     1     -10.559   5.601  68.929  1.00  0.00    -0.239 OA 
HETATM    7  C   UNL     1      -8.695   4.818  67.826  1.00  0.00    -0.107 C  
HETATM    8  C   UNL     1      -7.013   5.400  68.596  1.00  0.00    -0.060 C  
HETATM    9  H   UNL     1     -10.971   5.468  69.776  1.00  0.00     0.000 HD 
HETATM   10  C   UNL     1      -8.046  12.009  67.469  1.00  0.00    -0.159 C  
HETATM   11  C   UNL     1      -6.752  12.416  68.044  1.00  0.00    -0.081 C  
HETATM   12  C   UNL     1      -9.108   3.412  67.432  1.00  0.00    -0.199 C  
HETATM   13  C   UNL     1      -7.123   7.098  69.108  1.00  0.00    -0.083 C  
HETATM   14  C   UNL     1      -5.689  11.370  67.981  1.00  0.00    -0.042 C  
HETATM   15  C   UNL     1      -8.277  10.060  70.048  1.00  0.00    -0.139 C  
HETATM   16  O   UNL     1      -7.732   7.057  70.411  1.00  0.00    -0.092 OA 
HETATM   17  C   UNL     1      -7.903   8.257  68.173  1.00  0.00    -0.118 C  
HETATM   18  C   UNL     1      -7.714   9.780  68.641  1.00  0.00    -0.080 C  
HETATM   19  C   UNL     1      -6.159  10.089  68.667  1.00  0.00    -0.044 C  
HETATM   20  H   UNL     1      -7.791   7.965  70.684  1.00  0.00     0.000 HD 
HETATM   21  C   UNL     1      -9.445   7.881  67.694  1.00  0.00    -0.170 C  
HETATM   22  C   UNL     1      -9.915   8.938  66.674  1.00  0.00    -0.346 C  
HETATM   23  O   UNL     1      -6.583  13.545  68.489  1.00  0.00    -0.075 OA 
HETATM   24  C   UNL     1      -9.847  10.359  67.219  1.00  0.00    -0.214 C  
ENDROOT
BRANCH   4  25
HETATM   25  C   UNL     1      -8.908   4.449  70.073  1.00  0.00    -0.080 C  
HETATM   26  O   UNL     1      -7.840   3.903  70.399  1.00  0.00    -0.050 OA 
BRANCH  25  27
HETATM   27  C   UNL     1     -10.157   3.946  70.845  1.00  0.00     0.061 C  
BRANCH  27  28
HETATM   28  O   UNL     1      -9.772   3.652  72.230  1.00  0.00    -0.139 OA 
BRANCH  28  29
HETATM   29  C   UNL     1     -10.628   3.960  73.254  1.00  0.00    -0.188 C  
HETATM   30  O   UNL     1     -11.741   3.458  73.378  1.00  0.00    -0.080 OA 
BRANCH  29  31
HETATM   31  C   UNL     1     -10.001   5.025  74.194  1.00  0.00    -0.194 C  
BRANCH  31  32
HETATM   32  N   UNL     1      -9.104   6.022  73.518  1.00  0.00    -0.131 NA 
BRANCH  32  33
HETATM   33  C   UNL     1      -9.644   7.390  73.548  1.00  0.00    -0.267 C  
HETATM   34  C   UNL     1     -11.030   7.577  72.937  1.00  0.00    -0.434 C  
ENDBRANCH  32  33
BRANCH  32  35
HETATM   35  C   UNL     1      -7.729   5.930  74.060  1.00  0.00    -0.098 C  
HETATM   36  C   UNL     1      -7.300   4.535  74.531  1.00  0.00    -0.073 C  
ENDBRANCH  32  35
ENDBRANCH  31  32
ENDBRANCH  29  31
ENDBRANCH  28  29
ENDBRANCH  27  28
ENDBRANCH  25  27
ENDBRANCH   4  25
TORSDOF 8
ENDMDL
MODEL      139
REMARK 921   NORMALIZED FREE ENERGY PREDICTED BY IDOCK:   -3.02 KCAL/MOL
REMARK 922        TOTAL FREE ENERGY PREDICTED BY IDOCK:   -4.58 KCAL/MOL
REMARK 923 INTER-LIGAND FREE ENERGY PREDICTED BY IDOCK:   -5.42 KCAL/MOL
REMARK 924 INTRA-LIGAND FREE ENERGY PREDICTED BY IDOCK:    0.84 KCAL/MOL
REMARK 927      BINDING AFFINITY PREDICTED BY RF-SCORE:    0.00 PKD
ROOT
HETATM    1  C   UNL     1      -9.730   6.150  67.525  1.00  0.00    -0.126 C  
HETATM    2  C   UNL     1     -11.067   6.284  67.964  1.00  0.00    -0.365 C  
HETATM    3  C   UNL     1     -10.114   7.254  68.594  1.00  0.00    -0.182 C  
HETATM    4  C   UNL     1      -8.233   7.460  67.764  1.00  0.00    -0.119 C  
HETATM    5  C   UNL     1      -8.381   3.605  71.312  1.00  0.00    -0.085 C  
HETATM    6  O   UNL     1      -7.852   6.687  66.557  1.00  0.00    -0.100 OA 
HETATM    7  C   UNL     1      -9.422   8.068  67.526  1.00  0.00    -0.177 C  
HETATM    8  C   UNL     1      -8.883   8.807  69.235  1.00  0.00    -0.140 C  
HETATM    9  H   UNL     1      -6.987   6.782  66.175  1.00  0.00     0.000 HD 
HETATM   10  C   UNL     1      -8.452   2.828  72.410  1.00  0.00    -0.077 C  
HETATM   11  C   UNL     1      -8.061   3.423  73.701  1.00  0.00    -0.074 C  
HETATM   12  C   UNL     1     -10.003   8.799  66.330  1.00  0.00    -0.346 C  
HETATM   13  C   UNL     1      -8.031   7.580  70.197  1.00  0.00    -0.111 C  
HETATM   14  C   UNL     1      -8.532   4.826  73.904  1.00  0.00    -0.104 C  
HETATM   15  C   UNL     1      -6.317   4.895  71.115  1.00  0.00    -0.019 C  
HETATM   16  O   UNL     1      -6.671   7.614  69.728  1.00  0.00    -0.038 OA 
HETATM   17  C   UNL     1      -8.551   5.983  70.259  1.00  0.00    -0.143 C  
HETATM   18  C   UNL     1      -7.832   5.052  71.349  1.00  0.00    -0.109 C  
HETATM   19  C   UNL     1      -8.039   5.723  72.771  1.00  0.00    -0.108 C  
HETATM   20  H   UNL     1      -6.216   6.958  70.242  1.00  0.00     0.000 HD 
HETATM   21  C   UNL     1      -8.795   5.246  68.793  1.00  0.00    -0.104 C  
HETATM   22  C   UNL     1      -9.476   3.884  69.035  1.00  0.00    -0.240 C  
HETATM   23  O   UNL     1      -7.441   2.777  74.535  1.00  0.00    -0.041 OA 
HETATM   24  C   UNL     1      -8.681   2.981  69.971  1.00  0.00    -0.129 C  
ENDROOT
BRANCH   4  25
HETATM   25  C   UNL     1      -7.294   8.842  67.197  1.00  0.00    -0.080 C  
HETATM   26  O   UNL     1      -6.054   8.915  67.203  1.00  0.00    -0.056 OA 
BRANCH  25  27
HETATM   27  C   UNL     1      -8.018  10.113  66.682  1.00  0.00    -0.116 C  
BRANCH  27  28
HETATM   28  O   UNL     1      -7.442  11.289  67.343  1.00  0.00    -0.104 OA 
BRANCH  28  29
HETATM   29  C   UNL     1      -8.050  12.510  67.211  1.00  0.00    -0.179 C  
HETATM   30  O   UNL     1      -7.498  13.573  67.479  1.00  0.00    -0.163 OA 
BRANCH  29  31
HETATM   31  C   UNL     1      -9.509  12.345  66.705  1.00  0.00    -0.232 C  
BRANCH  31  32
HETATM   32  N   UNL     1     -10.570  12.810  67.660  1.00  0.00    -0.217 NA 
BRANCH  32  33
HETATM   33  C   UNL     1     -11.778  13.301  66.978  1.00  0.00    -0.389 C  
HETATM   34  C   UNL     1     -11.546  14.134  65.721  1.00  0.00    -0.343 C  
ENDBRANCH  32  33
BRANCH  32  35
HETATM   35  C   UNL     1     -10.858  11.760  68.664  1.00  0.00    -0.220 C  
HETATM   36  C   UNL     1     -11.779  12.185  69.814  1.00  0.00    -0.381 C  
ENDBRANCH  32  35
ENDBRANCH  31  32
ENDBRANCH  29  31
ENDBRANCH  28  29
ENDBRANCH  27  28
ENDBRANCH  25  27
ENDBRANCH   4  25
TORSDOF 8
ENDMDL
MODEL      140
REMARK 921   NORMALIZED FREE ENERGY PREDICTED BY IDOCK:   -2.90 KCAL/MOL
REMARK 922        TOTAL FREE ENERGY PREDICTED BY IDOCK:   -4.40 KCAL/MOL
REMARK 923 INTER-LIGAND FREE ENERGY PREDICTED BY IDOCK:   -4.51 KCAL/MOL
REMARK 924 INTRA-LIGAND FREE ENERGY PREDICTED BY IDOCK:    0.11 KCAL/MOL
REMARK 927      BINDING AFFINITY PREDICTED BY RF-SCORE:    0.00 PKD
ROOT
HETATM    1  C   UNL     1     -10.468   3.599  71.912  1.00  0.00     0.108 C  
HETATM    2  C   UNL     1      -9.940   2.443  72.531  1.00  0.00    -0.221 C  
HETATM    3  C   UNL     1      -9.036   3.637  72.589  1.00  0.00    -0.131 C  
HETATM    4  C   UNL     1      -9.823   5.485  72.105  1.00  0.00    -0.163 C  
HETATM    5  C   UNL     1      -8.040   2.962  67.871  1.00  0.00    -0.076 C  
HETATM    6  O   UNL     1     -11.253   5.625  71.740  1.00  0.00    -0.242 OA 
HETATM    7  C   UNL     1      -9.743   4.789  73.265  1.00  0.00    -0.156 C  
HETATM    8  C   UNL     1      -7.912   5.350  72.961  1.00  0.00    -0.101 C  
HETATM    9  H   UNL     1     -11.614   6.475  71.517  1.00  0.00     0.000 HD 
HETATM   10  C   UNL     1      -7.325   2.359  66.900  1.00  0.00    -0.061 C  
HETATM   11  C   UNL     1      -5.928   2.787  66.708  1.00  0.00    -0.024 C  
HETATM   12  C   UNL     1     -10.529   4.821  74.563  1.00  0.00    -0.303 C  
HETATM   13  C   UNL     1      -7.546   5.348  71.222  1.00  0.00    -0.101 C  
HETATM   14  C   UNL     1      -5.173   3.026  67.974  1.00  0.00    -0.012 C  
HETATM   15  C   UNL     1      -7.833   5.394  67.919  1.00  0.00    -0.092 C  
HETATM   16  O   UNL     1      -8.039   6.609  70.735  1.00  0.00    -0.115 OA 
HETATM   17  C   UNL     1      -8.080   4.120  70.205  1.00  0.00    -0.060 C  
HETATM   18  C   UNL     1      -7.475   4.127  68.719  1.00  0.00    -0.055 C  
HETATM   19  C   UNL     1      -5.896   4.056  68.840  1.00  0.00    -0.022 C  
HETATM   20  H   UNL     1      -7.844   6.608  69.805  1.00  0.00     0.000 HD 
HETATM   21  C   UNL     1      -9.701   3.778  70.275  1.00  0.00    -0.222 C  
HETATM   22  C   UNL     1      -9.969   2.497  69.460  1.00  0.00     0.561 C  
HETATM   23  O   UNL     1      -5.444   2.884  65.588  1.00  0.00    -0.015 OA 
HETATM   24  C   UNL     1      -9.499   2.606  68.014  1.00  0.00    -0.205 C  
ENDROOT
BRANCH   4  25
HETATM   25  C   UNL     1      -9.860   7.048  72.923  1.00  0.00    -0.177 C  
HETATM   26  O   UNL     1      -8.949   7.506  73.634  1.00  0.00    -0.190 OA 
BRANCH  25  27
HETATM   27  C   UNL     1     -11.120   7.947  72.822  1.00  0.00    -0.400 C  
BRANCH  27  28
HETATM   28  O   UNL     1     -11.397   8.218  71.407  1.00  0.00    -0.247 OA 
BRANCH  28  29
HETATM   29  C   UNL     1     -10.422   8.767  70.616  1.00  0.00    -0.210 C  
HETATM   30  O   UNL     1      -9.556   9.526  71.040  1.00  0.00    -0.238 OA 
BRANCH  29  31
HETATM   31  C   UNL     1     -10.589   8.310  69.141  1.00  0.00    -0.165 C  
BRANCH  31  32
HETATM   32  N   UNL     1      -9.978   9.225  68.118  1.00  0.00    -0.170 NA 
BRANCH  32  33
HETATM   33  C   UNL     1     -10.325   8.853  66.738  1.00  0.00    -0.247 C  
HETATM   34  C   UNL     1      -9.152   8.612  65.793  1.00  0.00    -0.242 C  
ENDBRANCH  32  33
BRANCH  32  35
HETATM   35  C   UNL     1     -10.294  10.637  68.435  1.00  0.00    -0.175 C  
HETATM   36  C   UNL     1     -11.498  11.224  67.687  1.00  0.00    -0.341 C  
ENDBRANCH  32  35
ENDBRANCH  31  32
ENDBRANCH  29  31
ENDBRANCH  28  29
ENDBRANCH  27  28
ENDBRANCH  25  27
ENDBRANCH   4  25
TORSDOF 8
ENDMDL
MODEL      141
REMARK 921   NORMALIZED FREE ENERGY PREDICTED BY IDOCK:   -2.89 KCAL/MOL
REMARK 922        TOTAL FREE ENERGY PREDICTED BY IDOCK:   -4.39 KCAL/MOL
REMARK 923 INTER-LIGAND FREE ENERGY PREDICTED BY IDOCK:   -5.81 KCAL/MOL
REMARK 924 INTRA-LIGAND FREE ENERGY PREDICTED BY IDOCK:    1.42 KCAL/MOL
REMARK 927      BINDING AFFINITY PREDICTED BY RF-SCORE:    0.00 PKD
ROOT
HETATM    1  C   UNL     1      -9.090  18.717  66.968  1.00  0.00    -0.295 C  
HETATM    2  C   UNL     1     -10.208  19.197  67.689  1.00  0.00    -0.492 C  
HETATM    3  C   UNL     1      -9.513  18.036  68.335  1.00  0.00    -0.314 C  
HETATM    4  C   UNL     1      -7.648  17.495  67.631  1.00  0.00    -0.195 C  
HETATM    5  C   UNL     1     -11.494  15.132  64.967  1.00  0.00    -0.339 C  
HETATM    6  O   UNL     1      -7.004  18.257  66.535  1.00  0.00    -0.192 OA 
HETATM    7  C   UNL     1      -8.061  18.372  68.578  1.00  0.00    -0.340 C  
HETATM    8  C   UNL     1      -8.388  16.648  69.402  1.00  0.00     0.137 C  
HETATM    9  H   UNL     1      -6.146  18.008  66.211  1.00  0.00     0.000 HD 
HETATM   10  C   UNL     1     -12.524  14.383  64.526  1.00  0.00    -0.362 C  
HETATM   11  C   UNL     1     -12.766  13.089  65.188  1.00  0.00    -0.397 C  
HETATM   12  C   UNL     1      -7.439  19.607  69.205  1.00  0.00    -0.310 C  
HETATM   13  C   UNL     1      -8.898  15.465  68.178  1.00  0.00    -0.170 C  
HETATM   14  C   UNL     1     -12.609  13.112  66.672  1.00  0.00     0.197 C  
HETATM   15  C   UNL     1      -9.416  13.897  65.304  1.00  0.00     0.332 C  
HETATM   16  O   UNL     1      -7.675  14.981  67.593  1.00  0.00    -0.136 OA 
HETATM   17  C   UNL     1      -9.972  15.869  66.950  1.00  0.00    -0.253 C  
HETATM   18  C   UNL     1     -10.523  14.646  66.069  1.00  0.00    -0.313 C  
HETATM   19  C   UNL     1     -11.218  13.615  67.054  1.00  0.00    -0.328 C  
HETATM   20  H   UNL     1      -7.948  14.349  66.938  1.00  0.00     0.000 HD 
HETATM   21  C   UNL     1      -9.587  17.219  66.068  1.00  0.00    -0.165 C  
HETATM   22  C   UNL     1     -10.778  17.564  65.150  1.00  0.00     0.215 C  
HETATM   23  O   UNL     1     -13.111  12.104  64.547  1.00  0.00    -0.720 OA 
HETATM   24  C   UNL     1     -11.173  16.412  64.234  1.00  0.00     0.141 C  
ENDROOT
BRANCH   4  25
HETATM   25  C   UNL     1      -6.081  17.240  68.399  1.00  0.00    -0.151 C  
HETATM   26  O   UNL     1      -5.324  18.142  68.798  1.00  0.00    -0.167 OA 
BRANCH  25  27
HETATM   27  C   UNL     1      -5.529  15.801  68.579  1.00  0.00    -0.102 C  
BRANCH  27  28
HETATM   28  O   UNL     1      -5.650  15.420  69.991  1.00  0.00    -0.117 OA 
BRANCH  28  29
HETATM   29  C   UNL     1      -5.730  14.096  70.333  1.00  0.00    -0.145 C  
HETATM   30  O   UNL     1      -5.941  13.704  71.477  1.00  0.00    -0.319 OA 
BRANCH  29  31
HETATM   31  C   UNL     1      -5.500  13.192  69.090  1.00  0.00    -0.071 C  
BRANCH  31  32
HETATM   32  N   UNL     1      -6.546  12.138  68.868  1.00  0.00    -0.084 NA 
BRANCH  32  33
HETATM   33  C   UNL     1      -6.488  11.550  67.520  1.00  0.00    -0.079 C  
HETATM   34  C   UNL     1      -5.298  11.964  66.660  1.00  0.00     0.012 C  
ENDBRANCH  32  33
BRANCH  32  35
HETATM   35  C   UNL     1      -6.495  11.123  69.946  1.00  0.00    -0.142 C  
HETATM   36  C   UNL     1      -7.444   9.931  69.772  1.00  0.00    -0.140 C  
ENDBRANCH  32  35
ENDBRANCH  31  32
ENDBRANCH  29  31
ENDBRANCH  28  29
ENDBRANCH  27  28
ENDBRANCH  25  27
ENDBRANCH   4  25
TORSDOF 8
ENDMDL
MODEL      142
REMARK 921   NORMALIZED FREE ENERGY PREDICTED BY IDOCK:   -2.79 KCAL/MOL
REMARK 922        TOTAL FREE ENERGY PREDICTED BY IDOCK:   -4.24 KCAL/MOL
REMARK 923 INTER-LIGAND FREE ENERGY PREDICTED BY IDOCK:   -4.63 KCAL/MOL
REMARK 924 INTRA-LIGAND FREE ENERGY PREDICTED BY IDOCK:    0.39 KCAL/MOL
REMARK 927      BINDING AFFINITY PREDICTED BY RF-SCORE:    0.00 PKD
ROOT
HETATM    1  C   UNL     1     -10.346   5.955  66.888  1.00  0.00    -0.304 C  
HETATM    2  C   UNL     1     -10.116   5.875  65.496  1.00  0.00     0.659 C  
HETATM    3  C   UNL     1      -8.875   5.767  66.330  1.00  0.00    -0.131 C  
HETATM    4  C   UNL     1      -9.085   5.454  68.361  1.00  0.00    -0.109 C  
HETATM    5  C   UNL     1      -9.166  10.555  67.162  1.00  0.00    -0.158 C  
HETATM    6  O   UNL     1     -10.429   5.309  68.968  1.00  0.00    -0.205 OA 
HETATM    7  C   UNL     1      -9.001   4.615  67.299  1.00  0.00    -0.120 C  
HETATM    8  C   UNL     1      -7.194   5.298  67.465  1.00  0.00    -0.071 C  
HETATM    9  H   UNL     1     -10.525   5.165  69.903  1.00  0.00     0.000 HD 
HETATM   10  C   UNL     1      -8.911  11.826  66.791  1.00  0.00    -0.196 C  
HETATM   11  C   UNL     1      -7.524  12.310  66.903  1.00  0.00     0.017 C  
HETATM   12  C   UNL     1      -9.443   3.184  67.057  1.00  0.00    -0.128 C  
HETATM   13  C   UNL     1      -7.220   6.993  67.995  1.00  0.00    -0.095 C  
HETATM   14  C   UNL     1      -6.487  11.323  66.481  1.00  0.00    -0.111 C  
HETATM   15  C   UNL     1      -8.156   9.900  69.287  1.00  0.00    -0.128 C  
HETATM   16  O   UNL     1      -7.355   6.936  69.427  1.00  0.00    -0.086 OA 
HETATM   17  C   UNL     1      -8.332   8.097  67.383  1.00  0.00    -0.122 C  
HETATM   18  C   UNL     1      -8.082   9.633  67.771  1.00  0.00    -0.113 C  
HETATM   19  C   UNL     1      -6.628  10.028  67.277  1.00  0.00    -0.069 C  
HETATM   20  H   UNL     1      -7.370   7.843  69.710  1.00  0.00     0.000 HD 
HETATM   21  C   UNL     1      -9.922   7.631  67.446  1.00  0.00    -0.252 C  
HETATM   22  C   UNL     1     -10.764   8.647  66.649  1.00  0.00     0.033 C  
HETATM   23  O   UNL     1      -7.279  13.452  67.272  1.00  0.00    -0.139 OA 
HETATM   24  C   UNL     1     -10.597  10.077  67.149  1.00  0.00    -0.296 C  
ENDROOT
BRANCH   4  25
HETATM   25  C   UNL     1      -8.429   4.264  69.486  1.00  0.00    -0.071 C  
HETATM   26  O   UNL     1      -7.266   3.826  69.468  1.00  0.00    -0.045 OA 
BRANCH  25  27
HETATM   27  C   UNL     1      -9.339   3.644  70.579  1.00  0.00    -0.161 C  
BRANCH  27  28
HETATM   28  O   UNL     1      -9.476   4.603  71.682  1.00  0.00    -0.140 OA 
BRANCH  28  29
HETATM   29  C   UNL     1     -10.711   4.846  72.222  1.00  0.00    -0.150 C  
HETATM   30  O   UNL     1     -11.193   4.181  73.134  1.00  0.00    -0.204 OA 
BRANCH  29  31
HETATM   31  C   UNL     1     -11.396   6.044  71.510  1.00  0.00    -0.246 C  
BRANCH  31  32
HETATM   32  N   UNL     1     -11.692   7.223  72.392  1.00  0.00    -0.265 NA 
BRANCH  32  33
HETATM   33  C   UNL     1     -10.496   8.024  72.697  1.00  0.00    -0.339 C  
HETATM   34  C   UNL     1      -9.523   7.420  73.705  1.00  0.00    -0.321 C  
ENDBRANCH  32  33
BRANCH  32  35
HETATM   35  C   UNL     1     -12.799   8.027  71.825  1.00  0.00    -0.332 C  
HETATM   36  C   UNL     1     -13.891   7.226  71.105  1.00  0.00    -0.229 C  
ENDBRANCH  32  35
ENDBRANCH  31  32
ENDBRANCH  29  31
ENDBRANCH  28  29
ENDBRANCH  27  28
ENDBRANCH  25  27
ENDBRANCH   4  25
TORSDOF 8
ENDMDL
MODEL      143
REMARK 921   NORMALIZED FREE ENERGY PREDICTED BY IDOCK:   -2.64 KCAL/MOL
REMARK 922        TOTAL FREE ENERGY PREDICTED BY IDOCK:   -4.03 KCAL/MOL
REMARK 923 INTER-LIGAND FREE ENERGY PREDICTED BY IDOCK:   -4.69 KCAL/MOL
REMARK 924 INTRA-LIGAND FREE ENERGY PREDICTED BY IDOCK:    0.66 KCAL/MOL
REMARK 927      BINDING AFFINITY PREDICTED BY RF-SCORE:    0.00 PKD
ROOT
HETATM    1  C   UNL     1      -9.413  11.528  64.747  1.00  0.00    -0.129 C  
HETATM    2  C   UNL     1     -10.542  11.341  63.916  1.00  0.00    -0.455 C  
HETATM    3  C   UNL     1     -10.550  10.505  65.160  1.00  0.00    -0.121 C  
HETATM    4  C   UNL     1      -9.199  10.960  66.655  1.00  0.00    -0.168 C  
HETATM    5  C   UNL     1      -7.157   7.665  63.129  1.00  0.00    -0.071 C  
HETATM    6  O   UNL     1      -8.269  12.105  66.509  1.00  0.00    -0.375 OA 
HETATM    7  C   UNL     1     -10.455  11.391  66.380  1.00  0.00    -0.299 C  
HETATM    8  C   UNL     1     -10.739   9.581  67.016  1.00  0.00    -0.220 C  
HETATM    9  H   UNL     1      -7.648  12.315  67.197  1.00  0.00     0.000 HD 
HETATM   10  C   UNL     1      -6.818   6.632  62.332  1.00  0.00    -0.046 C  
HETATM   11  C   UNL     1      -7.069   5.268  62.830  1.00  0.00    -0.038 C  
HETATM   12  C   UNL     1     -11.235  12.642  66.736  1.00  0.00    -0.347 C  
HETATM   13  C   UNL     1      -9.404   8.528  66.501  1.00  0.00    -0.203 C  
HETATM   14  C   UNL     1      -8.369   5.098  63.544  1.00  0.00    -0.128 C  
HETATM   15  C   UNL     1      -6.460   7.418  65.456  1.00  0.00    -0.044 C  
HETATM   16  O   UNL     1      -8.367   8.734  67.476  1.00  0.00    -0.109 OA 
HETATM   17  C   UNL     1      -8.738   8.632  64.960  1.00  0.00    -0.154 C  
HETATM   18  C   UNL     1      -7.712   7.465  64.559  1.00  0.00    -0.126 C  
HETATM   19  C   UNL     1      -8.471   6.081  64.709  1.00  0.00    -0.032 C  
HETATM   20  H   UNL     1      -7.653   8.171  67.200  1.00  0.00     0.000 HD 
HETATM   21  C   UNL     1      -8.265  10.146  64.478  1.00  0.00    -0.162 C  
HETATM   22  C   UNL     1      -7.895  10.092  62.982  1.00  0.00    -0.149 C  
HETATM   23  O   UNL     1      -6.276   4.359  62.619  1.00  0.00    -0.017 OA 
HETATM   24  C   UNL     1      -6.814   9.062  62.675  1.00  0.00    -0.092 C  
ENDROOT
BRANCH   4  25
HETATM   25  C   UNL     1      -9.355  11.283  68.383  1.00  0.00    -0.181 C  
HETATM   26  O   UNL     1     -10.225  12.004  68.901  1.00  0.00    -0.169 OA 
BRANCH  25  27
HETATM   27  C   UNL     1      -8.329  10.684  69.380  1.00  0.00    -0.060 C  
BRANCH  27  28
HETATM   28  O   UNL     1      -9.027  10.317  70.617  1.00  0.00     0.361 OA 
BRANCH  28  29
HETATM   29  C   UNL     1      -9.500   9.041  70.778  1.00  0.00    -0.251 C  
HETATM   30  O   UNL     1     -10.684   8.740  70.670  1.00  0.00    -0.209 OA 
BRANCH  29  31
HETATM   31  C   UNL     1      -8.342   8.067  71.129  1.00  0.00    -0.114 C  
BRANCH  31  32
HETATM   32  N   UNL     1      -7.315   8.614  72.078  1.00  0.00    -0.244 NA 
BRANCH  32  33
HETATM   33  C   UNL     1      -7.447   8.070  73.439  1.00  0.00    -0.145 C  
HETATM   34  C   UNL     1      -8.254   6.782  73.571  1.00  0.00    -0.124 C  
ENDBRANCH  32  33
BRANCH  32  35
HETATM   35  C   UNL     1      -5.954   8.448  71.517  1.00  0.00    -0.041 C  
HETATM   36  C   UNL     1      -5.829   7.413  70.392  1.00  0.00    -0.024 C  
ENDBRANCH  32  35
ENDBRANCH  31  32
ENDBRANCH  29  31
ENDBRANCH  28  29
ENDBRANCH  27  28
ENDBRANCH  25  27
ENDBRANCH   4  25
TORSDOF 8
ENDMDL
MODEL      144
REMARK 921   NORMALIZED FREE ENERGY PREDICTED BY IDOCK:   -2.54 KCAL/MOL
REMARK 922        TOTAL FREE ENERGY PREDICTED BY IDOCK:   -3.87 KCAL/MOL
REMARK 923 INTER-LIGAND FREE ENERGY PREDICTED BY IDOCK:   -7.10 KCAL/MOL
REMARK 924 INTRA-LIGAND FREE ENERGY PREDICTED BY IDOCK:    3.23 KCAL/MOL
REMARK 927      BINDING AFFINITY PREDICTED BY RF-SCORE:    0.00 PKD
ROOT
HETATM    1  C   UNL     1     -11.075  12.786  64.372  1.00  0.00    -0.386 C  
HETATM    2  C   UNL     1     -12.289  12.068  64.469  1.00  0.00    -0.300 C  
HETATM    3  C   UNL     1     -11.445  12.018  65.707  1.00  0.00    -0.377 C  
HETATM    4  C   UNL     1      -9.864  13.338  65.869  1.00  0.00    -0.231 C  
HETATM    5  C   UNL     1      -8.470   8.922  63.412  1.00  0.00    -0.150 C  
HETATM    6  O   UNL     1      -9.593  14.326  64.798  1.00  0.00    -0.416 OA 
HETATM    7  C   UNL     1     -11.174  13.419  66.206  1.00  0.00    -0.322 C  
HETATM    8  C   UNL     1     -10.454  12.199  67.529  1.00  0.00    -0.229 C  
HETATM    9  H   UNL     1      -8.865  14.933  64.872  1.00  0.00     0.000 HD 
HETATM   10  C   UNL     1      -8.148   7.669  63.038  1.00  0.00    -0.073 C  
HETATM   11  C   UNL     1      -7.627   6.755  64.070  1.00  0.00    -0.108 C  
HETATM   12  C   UNL     1     -12.131  14.577  66.421  1.00  0.00    -0.320 C  
HETATM   13  C   UNL     1      -9.185  11.184  66.809  1.00  0.00    -0.171 C  
HETATM   14  C   UNL     1      -8.323   6.847  65.388  1.00  0.00    -0.122 C  
HETATM   15  C   UNL     1      -6.803  10.018  64.820  1.00  0.00    -0.133 C  
HETATM   16  O   UNL     1      -7.991  11.985  66.862  1.00  0.00    -0.219 OA 
HETATM   17  C   UNL     1      -9.342  10.531  65.268  1.00  0.00    -0.258 C  
HETATM   18  C   UNL     1      -8.235   9.448  64.848  1.00  0.00    -0.143 C  
HETATM   19  C   UNL     1      -8.273   8.278  65.918  1.00  0.00    -0.119 C  
HETATM   20  H   UNL     1      -7.313  11.442  66.476  1.00  0.00     0.000 HD 
HETATM   21  C   UNL     1      -9.730  11.604  64.065  1.00  0.00    -0.225 C  
HETATM   22  C   UNL     1     -10.051  10.811  62.782  1.00  0.00    -0.051 C  
HETATM   23  O   UNL     1      -6.726   5.964  63.820  1.00  0.00    -0.035 OA 
HETATM   24  C   UNL     1      -8.909   9.898  62.348  1.00  0.00    -0.262 C  
ENDROOT
BRANCH   4  25
HETATM   25  C   UNL     1      -9.368  14.504  67.096  1.00  0.00    -0.218 C  
HETATM   26  O   UNL     1      -8.261  14.523  67.660  1.00  0.00    -0.151 OA 
BRANCH  25  27
HETATM   27  C   UNL     1     -10.365  15.588  67.584  1.00  0.00    -0.269 C  
BRANCH  27  28
HETATM   28  O   UNL     1     -10.579  15.423  69.026  1.00  0.00    -0.227 OA 
BRANCH  28  29
HETATM   29  C   UNL     1     -10.820  16.521  69.808  1.00  0.00    -0.302 C  
HETATM   30  O   UNL     1     -11.594  16.517  70.760  1.00  0.00    -0.251 OA 
BRANCH  29  31
HETATM   31  C   UNL     1     -10.000  17.742  69.308  1.00  0.00    -0.096 C  
BRANCH  31  32
HETATM   32  N   UNL     1     -10.275  18.155  67.890  1.00  0.00    -0.360 NA 
BRANCH  32  33
HETATM   33  C   UNL     1     -10.781  19.533  67.784  1.00  0.00    -0.360 C  
HETATM   34  C   UNL     1     -10.580  20.417  69.011  1.00  0.00     0.293 C  
ENDBRANCH  32  33
BRANCH  32  35
HETATM   35  C   UNL     1      -9.087  17.907  67.041  1.00  0.00    -0.253 C  
HETATM   36  C   UNL     1      -7.946  18.920  67.196  1.00  0.00    -0.254 C  
ENDBRANCH  32  35
ENDBRANCH  31  32
ENDBRANCH  29  31
ENDBRANCH  28  29
ENDBRANCH  27  28
ENDBRANCH  25  27
ENDBRANCH   4  25
TORSDOF 8
ENDMDL
MODEL      145
REMARK 921   NORMALIZED FREE ENERGY PREDICTED BY IDOCK:   -2.54 KCAL/MOL
REMARK 922        TOTAL FREE ENERGY PREDICTED BY IDOCK:   -3.87 KCAL/MOL
REMARK 923 INTER-LIGAND FREE ENERGY PREDICTED BY IDOCK:   -4.07 KCAL/MOL
REMARK 924 INTRA-LIGAND FREE ENERGY PREDICTED BY IDOCK:    0.20 KCAL/MOL
REMARK 927      BINDING AFFINITY PREDICTED BY RF-SCORE:    0.00 PKD
ROOT
HETATM    1  C   UNL     1      -9.914  12.287  65.764  1.00  0.00    -0.273 C  
HETATM    2  C   UNL     1     -10.747  11.559  64.884  1.00  0.00    -0.357 C  
HETATM    3  C   UNL     1     -11.486  12.471  65.816  1.00  0.00    -0.407 C  
HETATM    4  C   UNL     1     -10.406  13.888  66.862  1.00  0.00    -0.266 C  
HETATM    5  C   UNL     1     -10.602   9.314  69.415  1.00  0.00    -0.234 C  
HETATM    6  O   UNL     1      -8.942  14.015  66.670  1.00  0.00    -0.368 OA 
HETATM    7  C   UNL     1     -11.000  13.891  65.644  1.00  0.00    -0.290 C  
HETATM    8  C   UNL     1     -12.503  13.952  66.867  1.00  0.00    -0.201 C  
HETATM    9  H   UNL     1      -8.445  14.666  67.151  1.00  0.00     0.000 HD 
HETATM   10  C   UNL     1     -10.928   8.203  70.104  1.00  0.00    -0.223 C  
HETATM   11  C   UNL     1     -12.091   8.270  71.007  1.00  0.00    -0.208 C  
HETATM   12  C   UNL     1     -10.790  14.701  64.378  1.00  0.00    -0.032 C  
HETATM   13  C   UNL     1     -12.153  12.998  68.324  1.00  0.00    -0.156 C  
HETATM   14  C   UNL     1     -13.258   9.024  70.460  1.00  0.00     0.630 C  
HETATM   15  C   UNL     1     -10.586  11.361  70.745  1.00  0.00     2.464 C  
HETATM   16  O   UNL     1     -11.394  13.877  69.174  1.00  0.00    -0.259 OA 
HETATM   17  C   UNL     1     -11.377  11.508  68.242  1.00  0.00    -0.352 C  
HETATM   18  C   UNL     1     -11.345  10.658  69.603  1.00  0.00    -0.360 C  
HETATM   19  C   UNL     1     -12.843  10.442  70.074  1.00  0.00     0.012 C  
HETATM   20  H   UNL     1     -11.207  13.366  69.953  1.00  0.00     0.000 HD 
HETATM   21  C   UNL     1      -9.954  11.481  67.392  1.00  0.00    -0.209 C  
HETATM   22  C   UNL     1      -9.505  10.014  67.231  1.00  0.00    -0.179 C  
HETATM   23  O   UNL     1     -12.084   7.703  72.092  1.00  0.00    -0.297 OA 
HETATM   24  C   UNL     1      -9.356   9.290  68.564  1.00  0.00    -0.143 C  
ENDROOT
BRANCH   4  25
HETATM   25  C   UNL     1     -10.551  15.635  67.055  1.00  0.00    -0.311 C  
HETATM   26  O   UNL     1     -11.589  16.292  66.871  1.00  0.00     0.362 OA 
BRANCH  25  27
HETATM   27  C   UNL     1      -9.307  16.479  67.439  1.00  0.00    -0.222 C  
BRANCH  27  28
HETATM   28  O   UNL     1      -9.056  17.464  66.380  1.00  0.00    -0.260 OA 
BRANCH  28  29
HETATM   29  C   UNL     1      -7.808  18.014  66.245  1.00  0.00    -0.253 C  
HETATM   30  O   UNL     1      -7.109  17.865  65.247  1.00  0.00    -0.346 OA 
BRANCH  29  31
HETATM   31  C   UNL     1      -7.419  18.814  67.518  1.00  0.00    -0.228 C  
BRANCH  31  32
HETATM   32  N   UNL     1      -6.109  18.422  68.139  1.00  0.00    -0.181 NA 
BRANCH  32  33
HETATM   33  C   UNL     1      -5.222  19.572  68.377  1.00  0.00    -0.192 C  
HETATM   34  C   UNL     1      -5.903  20.861  68.827  1.00  0.00    -0.358 C  
ENDBRANCH  32  33
BRANCH  32  35
HETATM   35  C   UNL     1      -6.337  17.605  69.353  1.00  0.00    -0.243 C  
HETATM   36  C   UNL     1      -5.569  16.278  69.406  1.00  0.00    -0.132 C  
ENDBRANCH  32  35
ENDBRANCH  31  32
ENDBRANCH  29  31
ENDBRANCH  28  29
ENDBRANCH  27  28
ENDBRANCH  25  27
ENDBRANCH   4  25
TORSDOF 8
ENDMDL
MODEL      146
REMARK 921   NORMALIZED FREE ENERGY PREDICTED BY IDOCK:   -2.37 KCAL/MOL
REMARK 922        TOTAL FREE ENERGY PREDICTED BY IDOCK:   -3.63 KCAL/MOL
REMARK 923 INTER-LIGAND FREE ENERGY PREDICTED BY IDOCK:   -5.26 KCAL/MOL
REMARK 924 INTRA-LIGAND FREE ENERGY PREDICTED BY IDOCK:    1.63 KCAL/MOL
REMARK 927      BINDING AFFINITY PREDICTED BY RF-SCORE:    0.00 PKD
ROOT
HETATM    1  C   UNL     1      -8.811   3.385  69.787  1.00  0.00    -0.153 C  
HETATM    2  C   UNL     1      -7.830   2.388  69.584  1.00  0.00    -0.050 C  
HETATM    3  C   UNL     1      -7.273   3.763  69.800  1.00  0.00    -0.042 C  
HETATM    4  C   UNL     1      -8.539   5.232  70.513  1.00  0.00    -0.120 C  
HETATM    5  C   UNL     1      -8.680   4.912  65.283  1.00  0.00    -0.146 C  
HETATM    6  O   UNL     1      -9.953   4.921  70.830  1.00  0.00    -0.195 OA 
HETATM    7  C   UNL     1      -7.751   4.313  71.123  1.00  0.00    -0.067 C  
HETATM    8  C   UNL     1      -6.473   5.586  70.411  1.00  0.00    -0.031 C  
HETATM    9  H   UNL     1     -10.536   5.597  71.158  1.00  0.00     0.000 HD 
HETATM   10  C   UNL     1      -8.451   4.933  63.955  1.00  0.00    -0.137 C  
HETATM   11  C   UNL     1      -7.456   5.892  63.444  1.00  0.00    -0.070 C  
HETATM   12  C   UNL     1      -7.764   3.669  72.497  1.00  0.00    -0.067 C  
HETATM   13  C   UNL     1      -7.042   6.226  68.854  1.00  0.00    -0.082 C  
HETATM   14  C   UNL     1      -6.230   6.020  64.286  1.00  0.00    -0.029 C  
HETATM   15  C   UNL     1      -8.956   7.115  66.298  1.00  0.00    -0.181 C  
HETATM   16  O   UNL     1      -7.948   7.291  69.196  1.00  0.00    -0.115 OA 
HETATM   17  C   UNL     1      -7.764   5.239  67.701  1.00  0.00    -0.092 C  
HETATM   18  C   UNL     1      -8.005   5.904  66.260  1.00  0.00    -0.102 C  
HETATM   19  C   UNL     1      -6.602   6.403  65.716  1.00  0.00    -0.047 C  
HETATM   20  H   UNL     1      -8.252   7.633  68.363  1.00  0.00     0.000 HD 
HETATM   21  C   UNL     1      -9.025   4.306  68.236  1.00  0.00    -0.151 C  
HETATM   22  C   UNL     1      -9.413   3.315  67.120  1.00  0.00    -0.178 C  
HETATM   23  O   UNL     1      -7.632   6.485  62.387  1.00  0.00    -0.070 OA 
HETATM   24  C   UNL     1      -9.767   4.007  65.809  1.00  0.00    -0.192 C  
ENDROOT
BRANCH   4  25
HETATM   25  C   UNL     1      -8.462   6.355  71.871  1.00  0.00    -0.123 C  
HETATM   26  O   UNL     1      -8.791   6.089  73.040  1.00  0.00    -0.123 OA 
BRANCH  25  27
HETATM   27  C   UNL     1      -7.997   7.817  71.644  1.00  0.00    -0.097 C  
BRANCH  27  28
HETATM   28  O   UNL     1      -9.173   8.694  71.638  1.00  0.00    -0.210 OA 
BRANCH  28  29
HETATM   29  C   UNL     1      -9.579   9.279  70.467  1.00  0.00    -0.262 C  
HETATM   30  O   UNL     1      -8.894  10.079  69.838  1.00  0.00    -0.205 OA 
BRANCH  29  31
HETATM   31  C   UNL     1     -11.006   8.804  70.081  1.00  0.00    -0.223 C  
BRANCH  31  32
HETATM   32  N   UNL     1     -12.127   9.629  70.645  1.00  0.00    -0.236 NA 
BRANCH  32  33
HETATM   33  C   UNL     1     -12.465   9.264  72.029  1.00  0.00    -0.378 C  
HETATM   34  C   UNL     1     -13.612   8.271  72.200  1.00  0.00    -0.313 C  
ENDBRANCH  32  33
BRANCH  32  35
HETATM   35  C   UNL     1     -11.838  11.073  70.481  1.00  0.00    -0.367 C  
HETATM   36  C   UNL     1     -11.880  11.590  69.038  1.00  0.00    -0.408 C  
ENDBRANCH  32  35
ENDBRANCH  31  32
ENDBRANCH  29  31
ENDBRANCH  28  29
ENDBRANCH  27  28
ENDBRANCH  25  27
ENDBRANCH   4  25
TORSDOF 8
ENDMDL
MODEL      147
REMARK 921   NORMALIZED FREE ENERGY PREDICTED BY IDOCK:   -2.35 KCAL/MOL
REMARK 922        TOTAL FREE ENERGY PREDICTED BY IDOCK:   -3.59 KCAL/MOL
REMARK 923 INTER-LIGAND FREE ENERGY PREDICTED BY IDOCK:   -4.90 KCAL/MOL
REMARK 924 INTRA-LIGAND FREE ENERGY PREDICTED BY IDOCK:    1.30 KCAL/MOL
REMARK 927      BINDING AFFINITY PREDICTED BY RF-SCORE:    0.00 PKD
ROOT
HETATM    1  C   UNL     1      -8.100  10.147  63.759  1.00  0.00    -0.160 C  
HETATM    2  C   UNL     1      -8.987   9.758  62.729  1.00  0.00    -0.274 C  
HETATM    3  C   UNL     1      -9.423   9.347  64.103  1.00  0.00     0.241 C  
HETATM    4  C   UNL     1      -8.463  10.187  65.728  1.00  0.00    -0.147 C  
HETATM    5  C   UNL     1      -5.998   5.887  64.023  1.00  0.00    -0.025 C  
HETATM    6  O   UNL     1      -7.392  11.193  65.535  1.00  0.00    -0.361 OA 
HETATM    7  C   UNL     1      -9.540  10.561  64.994  1.00  0.00    -0.331 C  
HETATM    8  C   UNL     1     -10.203   9.048  66.010  1.00  0.00    -0.013 C  
HETATM    9  H   UNL     1      -6.951  11.580  66.283  1.00  0.00     0.000 HD 
HETATM   10  C   UNL     1      -5.595   4.647  63.685  1.00  0.00    -0.016 C  
HETATM   11  C   UNL     1      -6.134   3.514  64.457  1.00  0.00    -0.023 C  
HETATM   12  C   UNL     1     -10.224  11.891  64.741  1.00  0.00    -0.314 C  
HETATM   13  C   UNL     1      -8.921   7.836  66.220  1.00  0.00    -0.174 C  
HETATM   14  C   UNL     1      -7.586   3.624  64.787  1.00  0.00    -0.077 C  
HETATM   15  C   UNL     1      -5.968   6.342  66.422  1.00  0.00    -0.028 C  
HETATM   16  O   UNL     1      -8.157   8.291  67.351  1.00  0.00    -0.118 OA 
HETATM   17  C   UNL     1      -7.869   7.433  64.971  1.00  0.00    -0.124 C  
HETATM   18  C   UNL     1      -6.927   6.160  65.230  1.00  0.00    -0.056 C  
HETATM   19  C   UNL     1      -7.865   4.920  65.544  1.00  0.00    -0.095 C  
HETATM   20  H   UNL     1      -7.471   7.642  67.462  1.00  0.00     0.000 HD 
HETATM   21  C   UNL     1      -7.103   8.705  64.235  1.00  0.00    -0.089 C  
HETATM   22  C   UNL     1      -6.364   8.179  62.987  1.00  0.00    -0.081 C  
HETATM   23  O   UNL     1      -5.432   2.553  64.749  1.00  0.00    -0.008 OA 
HETATM   24  C   UNL     1      -5.378   7.063  63.309  1.00  0.00    -0.032 C  
ENDROOT
BRANCH   4  25
HETATM   25  C   UNL     1      -9.022  11.032  67.172  1.00  0.00    -0.143 C  
HETATM   26  O   UNL     1      -8.570  10.869  68.318  1.00  0.00    -0.127 OA 
BRANCH  25  27
HETATM   27  C   UNL     1     -10.199  12.038  67.076  1.00  0.00    -0.203 C  
BRANCH  27  28
HETATM   28  O   UNL     1      -9.738  13.354  67.532  1.00  0.00    -0.215 OA 
BRANCH  28  29
HETATM   29  C   UNL     1     -10.652  14.336  67.812  1.00  0.00    -0.253 C  
HETATM   30  O   UNL     1     -10.388  15.534  67.782  1.00  0.00    -0.253 OA 
BRANCH  29  31
HETATM   31  C   UNL     1     -12.027  13.717  68.182  1.00  0.00    -0.355 C  
BRANCH  31  32
HETATM   32  N   UNL     1     -12.139  13.211  69.592  1.00  0.00    -0.287 NA 
BRANCH  32  33
HETATM   33  C   UNL     1     -12.947  14.090  70.452  1.00  0.00    -0.065 C  
HETATM   34  C   UNL     1     -12.496  15.545  70.535  1.00  0.00    -0.472 C  
ENDBRANCH  32  33
BRANCH  32  35
HETATM   35  C   UNL     1     -12.604  11.805  69.600  1.00  0.00     0.205 C  
HETATM   36  C   UNL     1     -11.606  10.787  70.165  1.00  0.00    -0.424 C  
ENDBRANCH  32  35
ENDBRANCH  31  32
ENDBRANCH  29  31
ENDBRANCH  28  29
ENDBRANCH  27  28
ENDBRANCH  25  27
ENDBRANCH   4  25
TORSDOF 8
ENDMDL
MODEL      148
REMARK 921   NORMALIZED FREE ENERGY PREDICTED BY IDOCK:   -2.09 KCAL/MOL
REMARK 922        TOTAL FREE ENERGY PREDICTED BY IDOCK:   -3.21 KCAL/MOL
REMARK 923 INTER-LIGAND FREE ENERGY PREDICTED BY IDOCK:   -4.81 KCAL/MOL
REMARK 924 INTRA-LIGAND FREE ENERGY PREDICTED BY IDOCK:    1.60 KCAL/MOL
REMARK 927      BINDING AFFINITY PREDICTED BY RF-SCORE:    0.00 PKD
ROOT
HETATM    1  C   UNL     1      -9.768   7.082  67.998  1.00  0.00    -0.140 C  
HETATM    2  C   UNL     1     -11.031   6.807  68.570  1.00  0.00    -0.258 C  
HETATM    3  C   UNL     1     -10.326   7.983  69.176  1.00  0.00    -0.226 C  
HETATM    4  C   UNL     1      -8.684   8.755  68.189  1.00  0.00    -0.134 C  
HETATM    5  C   UNL     1      -7.348   4.874  71.448  1.00  0.00    -0.073 C  
HETATM    6  O   UNL     1      -8.236   8.177  66.900  1.00  0.00    -0.108 OA 
HETATM    7  C   UNL     1     -10.014   9.005  68.108  1.00  0.00    -0.206 C  
HETATM    8  C   UNL     1      -9.519   9.795  69.809  1.00  0.00    -0.253 C  
HETATM    9  H   UNL     1      -7.480   8.532  66.447  1.00  0.00     0.000 HD 
HETATM   10  C   UNL     1      -7.075   4.063  72.489  1.00  0.00    -0.056 C  
HETATM   11  C   UNL     1      -6.728   4.690  73.777  1.00  0.00    -0.064 C  
HETATM   12  C   UNL     1     -10.906   9.589  67.029  1.00  0.00    -0.125 C  
HETATM   13  C   UNL     1      -8.256   8.825  70.596  1.00  0.00    -0.144 C  
HETATM   14  C   UNL     1      -7.549   5.888  74.124  1.00  0.00    -0.091 C  
HETATM   15  C   UNL     1      -5.765   6.709  71.153  1.00  0.00    -0.028 C  
HETATM   16  O   UNL     1      -7.021   9.269  70.005  1.00  0.00    -0.048 OA 
HETATM   17  C   UNL     1      -8.295   7.144  70.590  1.00  0.00    -0.126 C  
HETATM   18  C   UNL     1      -7.227   6.414  71.539  1.00  0.00    -0.083 C  
HETATM   19  C   UNL     1      -7.457   6.936  73.018  1.00  0.00    -0.078 C  
HETATM   20  H   UNL     1      -6.345   8.750  70.426  1.00  0.00     0.000 HD 
HETATM   21  C   UNL     1      -8.482   6.432  69.105  1.00  0.00    -0.122 C  
HETATM   22  C   UNL     1      -8.721   4.922  69.310  1.00  0.00    -0.107 C  
HETATM   23  O   UNL     1      -5.863   4.214  74.501  1.00  0.00    -0.021 OA 
HETATM   24  C   UNL     1      -7.606   4.247  70.100  1.00  0.00    -0.046 C  
ENDROOT
BRANCH   4  25
HETATM   25  C   UNL     1      -8.240  10.372  67.639  1.00  0.00    -0.110 C  
HETATM   26  O   UNL     1      -7.586  10.624  66.613  1.00  0.00    -0.116 OA 
BRANCH  25  27
HETATM   27  C   UNL     1      -8.631  11.613  68.483  1.00  0.00    -0.134 C  
BRANCH  27  28
HETATM   28  O   UNL     1      -8.298  12.826  67.727  1.00  0.00    -0.151 OA 
BRANCH  28  29
HETATM   29  C   UNL     1      -8.937  14.003  68.014  1.00  0.00    -0.182 C  
HETATM   30  O   UNL     1      -9.885  14.086  68.789  1.00  0.00    -0.213 OA 
BRANCH  29  31
HETATM   31  C   UNL     1      -8.309  15.178  67.216  1.00  0.00    -0.201 C  
BRANCH  31  32
HETATM   32  N   UNL     1      -8.292  16.497  67.934  1.00  0.00    -0.171 NA 
BRANCH  32  33
HETATM   33  C   UNL     1      -7.206  16.596  68.922  1.00  0.00    -0.219 C  
HETATM   34  C   UNL     1      -6.493  17.943  69.003  1.00  0.00    -0.236 C  
ENDBRANCH  32  33
BRANCH  32  35
HETATM   35  C   UNL     1      -8.294  17.615  66.962  1.00  0.00    -0.221 C  
HETATM   36  C   UNL     1      -7.116  17.633  65.980  1.00  0.00    -0.318 C  
ENDBRANCH  32  35
ENDBRANCH  31  32
ENDBRANCH  29  31
ENDBRANCH  28  29
ENDBRANCH  27  28
ENDBRANCH  25  27
ENDBRANCH   4  25
TORSDOF 8
ENDMDL
MODEL      149
REMARK 921   NORMALIZED FREE ENERGY PREDICTED BY IDOCK:   -2.01 KCAL/MOL
REMARK 922        TOTAL FREE ENERGY PREDICTED BY IDOCK:   -3.10 KCAL/MOL
REMARK 923 INTER-LIGAND FREE ENERGY PREDICTED BY IDOCK:   -4.27 KCAL/MOL
REMARK 924 INTRA-LIGAND FREE ENERGY PREDICTED BY IDOCK:    1.17 KCAL/MOL
REMARK 927      BINDING AFFINITY PREDICTED BY RF-SCORE:    0.00 PKD
ROOT
HETATM    1  C   UNL     1      -8.096  14.159  68.729  1.00  0.00    -0.088 C  
HETATM    2  C   UNL     1      -8.200  14.626  70.059  1.00  0.00     0.637 C  
HETATM    3  C   UNL     1      -9.247  15.169  69.133  1.00  0.00    -0.215 C  
HETATM    4  C   UNL     1      -9.478  14.275  67.285  1.00  0.00    -0.220 C  
HETATM    5  C   UNL     1      -5.849  18.055  67.177  1.00  0.00    -0.153 C  
HETATM    6  O   UNL     1      -8.649  13.108  66.901  1.00  0.00    -0.329 OA 
HETATM    7  C   UNL     1     -10.020  14.034  68.504  1.00  0.00    -0.230 C  
HETATM    8  C   UNL     1     -10.886  15.679  67.955  1.00  0.00    -0.306 C  
HETATM    9  H   UNL     1      -8.755  12.697  66.051  1.00  0.00     0.000 HD 
HETATM   10  C   UNL     1      -5.139  19.200  67.186  1.00  0.00    -0.149 C  
HETATM   11  C   UNL     1      -5.829  20.440  66.789  1.00  0.00    -0.177 C  
HETATM   12  C   UNL     1     -10.651  12.812  69.147  1.00  0.00     0.013 C  
HETATM   13  C   UNL     1      -9.758  16.691  67.026  1.00  0.00    -0.249 C  
HETATM   14  C   UNL     1      -7.221  20.571  67.315  1.00  0.00    -0.367 C  
HETATM   15  C   UNL     1      -7.208  17.723  65.176  1.00  0.00     1.449 C  
HETATM   16  O   UNL     1      -9.819  16.182  65.682  1.00  0.00    -0.411 OA 
HETATM   17  C   UNL     1      -8.147  16.864  67.476  1.00  0.00    -0.188 C  
HETATM   18  C   UNL     1      -7.317  17.989  66.690  1.00  0.00    -0.254 C  
HETATM   19  C   UNL     1      -8.066  19.372  66.890  1.00  0.00    -0.298 C  
HETATM   20  H   UNL     1      -9.216  16.723  65.185  1.00  0.00     0.000 HD 
HETATM   21  C   UNL     1      -7.312  15.453  67.724  1.00  0.00    -0.180 C  
HETATM   22  C   UNL     1      -5.940  15.796  68.340  1.00  0.00    -0.107 C  
HETATM   23  O   UNL     1      -5.262  21.295  66.121  1.00  0.00    -0.198 OA 
HETATM   24  C   UNL     1      -5.131  16.763  67.483  1.00  0.00    -0.148 C  
ENDROOT
BRANCH   4  25
HETATM   25  C   UNL     1     -10.860  13.600  66.421  1.00  0.00    -0.290 C  
HETATM   26  O   UNL     1     -11.880  14.231  66.096  1.00  0.00    -0.378 OA 
BRANCH  25  27
HETATM   27  C   UNL     1     -10.882  12.094  66.048  1.00  0.00    -0.282 C  
BRANCH  27  28
HETATM   28  O   UNL     1      -9.503  11.593  66.013  1.00  0.00    -0.220 OA 
BRANCH  28  29
HETATM   29  C   UNL     1      -9.267  10.270  65.746  1.00  0.00    -0.175 C  
HETATM   30  O   UNL     1      -9.374   9.777  64.628  1.00  0.00    -0.260 OA 
BRANCH  29  31
HETATM   31  C   UNL     1      -8.874   9.509  67.042  1.00  0.00    -0.127 C  
BRANCH  31  32
HETATM   32  N   UNL     1      -7.429   9.112  67.133  1.00  0.00    -0.087 NA 
BRANCH  32  33
HETATM   33  C   UNL     1      -6.650   9.987  68.023  1.00  0.00    -0.063 C  
HETATM   34  C   UNL     1      -5.757  11.017  67.337  1.00  0.00    -0.048 C  
ENDBRANCH  32  33
BRANCH  32  35
HETATM   35  C   UNL     1      -7.309   7.677  67.481  1.00  0.00    -0.095 C  
HETATM   36  C   UNL     1      -7.483   6.701  66.311  1.00  0.00    -0.081 C  
ENDBRANCH  32  35
ENDBRANCH  31  32
ENDBRANCH  29  31
ENDBRANCH  28  29
ENDBRANCH  27  28
ENDBRANCH  25  27
ENDBRANCH   4  25
TORSDOF 8
ENDMDL
MODEL      150
REMARK 921   NORMALIZED FREE ENERGY PREDICTED BY IDOCK:   -1.87 KCAL/MOL
REMARK 922        TOTAL FREE ENERGY PREDICTED BY IDOCK:   -2.88 KCAL/MOL
REMARK 923 INTER-LIGAND FREE ENERGY PREDICTED BY IDOCK:   -3.62 KCAL/MOL
REMARK 924 INTRA-LIGAND FREE ENERGY PREDICTED BY IDOCK:    0.73 KCAL/MOL
REMARK 927      BINDING AFFINITY PREDICTED BY RF-SCORE:    0.00 PKD
ROOT
HETATM    1  C   UNL     1      -9.908  10.571  66.049  1.00  0.00    -0.277 C  
HETATM    2  C   UNL     1      -9.483  10.877  64.735  1.00  0.00    -0.279 C  
HETATM    3  C   UNL     1      -8.364  10.621  65.699  1.00  0.00    -0.162 C  
HETATM    4  C   UNL     1      -8.817   9.767  67.524  1.00  0.00    -0.125 C  
HETATM    5  C   UNL     1      -9.219  14.991  67.667  1.00  0.00    -0.182 C  
HETATM    6  O   UNL     1     -10.212   9.391  67.856  1.00  0.00    -0.186 OA 
HETATM    7  C   UNL     1      -8.510   9.248  66.310  1.00  0.00    -0.133 C  
HETATM    8  C   UNL     1      -6.816   9.962  66.925  1.00  0.00    -0.087 C  
HETATM    9  H   UNL     1     -10.421   8.998  68.696  1.00  0.00     0.000 HD 
HETATM   10  C   UNL     1      -9.038  16.327  67.676  1.00  0.00    -0.194 C  
HETATM   11  C   UNL     1      -7.732  16.841  68.123  1.00  0.00    -0.180 C  
HETATM   12  C   UNL     1      -8.777   7.910  65.645  1.00  0.00    -0.145 C  
HETATM   13  C   UNL     1      -7.076  11.451  67.859  1.00  0.00    -0.075 C  
HETATM   14  C   UNL     1      -6.558  16.061  67.632  1.00  0.00    -0.187 C  
HETATM   15  C   UNL     1      -8.451  13.852  69.685  1.00  0.00     1.047 C  
HETATM   16  O   UNL     1      -7.399  11.007  69.189  1.00  0.00    -0.106 OA 
HETATM   17  C   UNL     1      -8.193  12.613  67.381  1.00  0.00    -0.184 C  
HETATM   18  C   UNL     1      -8.146  14.002  68.182  1.00  0.00    -0.151 C  
HETATM   19  C   UNL     1      -6.682  14.595  68.039  1.00  0.00    -0.152 C  
HETATM   20  H   UNL     1      -7.538  11.804  69.688  1.00  0.00     0.000 HD 
HETATM   21  C   UNL     1      -9.725  12.059  67.074  1.00  0.00    -0.204 C  
HETATM   22  C   UNL     1     -10.544  13.202  66.440  1.00  0.00    -0.293 C  
HETATM   23  O   UNL     1      -7.649  17.855  68.805  1.00  0.00    -0.284 OA 
HETATM   24  C   UNL     1     -10.583  14.454  67.308  1.00  0.00    -0.279 C  
ENDROOT
BRANCH   4  25
HETATM   25  C   UNL     1      -8.211   8.359  68.397  1.00  0.00    -0.124 C  
HETATM   26  O   UNL     1      -7.142   7.772  68.155  1.00  0.00    -0.080 OA 
BRANCH  25  27
HETATM   27  C   UNL     1      -9.053   7.732  69.539  1.00  0.00    -0.146 C  
BRANCH  27  28
HETATM   28  O   UNL     1      -9.884   8.778  70.146  1.00  0.00    -0.169 OA 
BRANCH  28  29
HETATM   29  C   UNL     1     -10.071   8.794  71.503  1.00  0.00    -0.301 C  
HETATM   30  O   UNL     1      -9.972   9.808  72.187  1.00  0.00     0.889 OA 
BRANCH  29  31
HETATM   31  C   UNL     1     -10.399   7.370  72.030  1.00  0.00    -0.193 C  
BRANCH  31  32
HETATM   32  N   UNL     1      -9.380   6.787  72.967  1.00  0.00    -0.134 NA 
BRANCH  32  33
HETATM   33  C   UNL     1      -9.586   5.352  73.215  1.00  0.00    -0.142 C  
HETATM   34  C   UNL     1     -10.746   4.702  72.467  1.00  0.00    -0.217 C  
ENDBRANCH  32  33
BRANCH  32  35
HETATM   35  C   UNL     1      -8.010   7.104  72.502  1.00  0.00    -0.096 C  
HETATM   36  C   UNL     1      -7.087   5.895  72.306  1.00  0.00    -0.084 C  
ENDBRANCH  32  35
ENDBRANCH  31  32
ENDBRANCH  29  31
ENDBRANCH  28  29
ENDBRANCH  27  28
ENDBRANCH  25  27
ENDBRANCH   4  25
TORSDOF 8
ENDMDL
MODEL      151
REMARK 921   NORMALIZED FREE ENERGY PREDICTED BY IDOCK:   -1.81 KCAL/MOL
REMARK 922        TOTAL FREE ENERGY PREDICTED BY IDOCK:   -2.80 KCAL/MOL
REMARK 923 INTER-LIGAND FREE ENERGY PREDICTED BY IDOCK:   -2.73 KCAL/MOL
REMARK 924 INTRA-LIGAND FREE ENERGY PREDICTED BY IDOCK:   -0.07 KCAL/MOL
REMARK 927      BINDING AFFINITY PREDICTED BY RF-SCORE:    0.00 PKD
ROOT
HETATM    1  C   UNL     1     -11.678   5.908  70.841  1.00  0.00     0.125 C  
HETATM    2  C   UNL     1     -11.920   5.103  71.978  1.00  0.00     0.783 C  
HETATM    3  C   UNL     1     -10.754   6.033  72.121  1.00  0.00    -0.270 C  
HETATM    4  C   UNL     1     -10.529   7.544  70.731  1.00  0.00    -0.213 C  
HETATM    5  C   UNL     1      -8.212   3.108  69.174  1.00  0.00    -0.077 C  
HETATM    6  O   UNL     1     -11.516   7.718  69.638  1.00  0.00    -0.448 OA 
HETATM    7  C   UNL     1     -11.200   7.460  71.905  1.00  0.00    -0.282 C  
HETATM    8  C   UNL     1      -9.344   7.527  72.462  1.00  0.00    -0.200 C  
HETATM    9  H   UNL     1     -11.412   8.413  68.999  1.00  0.00     0.000 HD 
HETATM   10  C   UNL     1      -7.435   2.023  68.988  1.00  0.00    -0.043 C  
HETATM   11  C   UNL     1      -6.036   2.092  69.444  1.00  0.00    -0.024 C  
HETATM   12  C   UNL     1     -12.382   8.209  72.493  1.00  0.00    -0.296 C  
HETATM   13  C   UNL     1      -8.318   6.665  71.296  1.00  0.00    -0.124 C  
HETATM   14  C   UNL     1      -5.846   2.769  70.761  1.00  0.00    -0.017 C  
HETATM   15  C   UNL     1      -7.167   5.222  68.542  1.00  0.00    -0.063 C  
HETATM   16  O   UNL     1      -8.063   7.617  70.247  1.00  0.00    -0.110 OA 
HETATM   17  C   UNL     1      -8.790   5.205  70.609  1.00  0.00    -0.150 C  
HETATM   18  C   UNL     1      -7.667   4.430  69.765  1.00  0.00    -0.054 C  
HETATM   19  C   UNL     1      -6.429   4.180  70.724  1.00  0.00    -0.030 C  
HETATM   20  H   UNL     1      -7.514   7.156  69.623  1.00  0.00     0.000 HD 
HETATM   21  C   UNL     1     -10.294   5.188  69.911  1.00  0.00    -0.347 C  
HETATM   22  C   UNL     1     -10.648   3.734  69.539  1.00  0.00     2.019 C  
HETATM   23  O   UNL     1      -5.131   1.584  68.793  1.00  0.00    -0.007 OA 
HETATM   24  C   UNL     1      -9.616   3.088  68.622  1.00  0.00    -0.094 C  
ENDROOT
BRANCH   4  25
HETATM   25  C   UNL     1     -10.327   9.292  70.851  1.00  0.00    -0.296 C  
HETATM   26  O   UNL     1      -9.790   9.888  71.800  1.00  0.00     0.656 OA 
BRANCH  25  27
HETATM   27  C   UNL     1     -10.881  10.216  69.734  1.00  0.00    -0.279 C  
BRANCH  27  28
HETATM   28  O   UNL     1     -12.243  10.628  70.092  1.00  0.00    -0.300 OA 
BRANCH  28  29
HETATM   29  C   UNL     1     -12.441  11.790  70.792  1.00  0.00    -0.312 C  
HETATM   30  O   UNL     1     -13.219  11.886  71.735  1.00  0.00    -0.454 OA 
BRANCH  29  31
HETATM   31  C   UNL     1     -11.568  12.936  70.212  1.00  0.00     0.029 C  
BRANCH  31  32
HETATM   32  N   UNL     1     -12.286  14.239  70.003  1.00  0.00    -0.345 NA 
BRANCH  32  33
HETATM   33  C   UNL     1     -12.156  15.153  71.148  1.00  0.00    -0.333 C  
HETATM   34  C   UNL     1     -13.391  15.301  72.032  1.00  0.00    -0.522 C  
ENDBRANCH  32  33
BRANCH  32  35
HETATM   35  C   UNL     1     -11.876  14.854  68.719  1.00  0.00    -0.296 C  
HETATM   36  C   UNL     1     -12.140  14.005  67.470  1.00  0.00    -0.361 C  
ENDBRANCH  32  35
ENDBRANCH  31  32
ENDBRANCH  29  31
ENDBRANCH  28  29
ENDBRANCH  27  28
ENDBRANCH  25  27
ENDBRANCH   4  25
TORSDOF 8
ENDMDL
MODEL      152
REMARK 921   NORMALIZED FREE ENERGY PREDICTED BY IDOCK:   -1.46 KCAL/MOL
REMARK 922        TOTAL FREE ENERGY PREDICTED BY IDOCK:   -2.29 KCAL/MOL
REMARK 923 INTER-LIGAND FREE ENERGY PREDICTED BY IDOCK:   -2.99 KCAL/MOL
REMARK 924 INTRA-LIGAND FREE ENERGY PREDICTED BY IDOCK:    0.70 KCAL/MOL
REMARK 927      BINDING AFFINITY PREDICTED BY RF-SCORE:    0.00 PKD
ROOT
HETATM    1  C   UNL     1      -8.608  15.666  68.002  1.00  0.00    -0.155 C  
HETATM    2  C   UNL     1      -9.659  15.790  68.940  1.00  0.00    -0.229 C  
HETATM    3  C   UNL     1      -9.132  14.395  68.789  1.00  0.00    -0.133 C  
HETATM    4  C   UNL     1      -7.348  14.125  67.783  1.00  0.00    -0.167 C  
HETATM    5  C   UNL     1     -11.446  14.111  64.515  1.00  0.00    -0.380 C  
HETATM    6  O   UNL     1      -6.597  15.288  67.252  1.00  0.00    -0.283 OA 
HETATM    7  C   UNL     1      -7.650  14.367  69.082  1.00  0.00    -0.072 C  
HETATM    8  C   UNL     1      -8.212  12.528  68.834  1.00  0.00     0.232 C  
HETATM    9  H   UNL     1      -5.777  15.163  66.789  1.00  0.00     0.000 HD 
HETATM   10  C   UNL     1     -12.562  13.860  63.802  1.00  0.00     0.012 C  
HETATM   11  C   UNL     1     -12.981  12.455  63.652  1.00  0.00    -0.105 C  
HETATM   12  C   UNL     1      -6.877  14.962  70.244  1.00  0.00     0.012 C  
HETATM   13  C   UNL     1      -8.862  12.296  67.197  1.00  0.00    -0.194 C  
HETATM   14  C   UNL     1     -12.837  11.630  64.888  1.00  0.00     1.447 C  
HETATM   15  C   UNL     1      -9.554  12.666  63.976  1.00  0.00     0.337 C  
HETATM   16  O   UNL     1      -7.709  12.081  66.363  1.00  0.00    -0.381 OA 
HETATM   17  C   UNL     1      -9.861  13.437  66.470  1.00  0.00    -0.286 C  
HETATM   18  C   UNL     1     -10.560  12.985  65.098  1.00  0.00    -0.327 C  
HETATM   19  C   UNL     1     -11.396  11.670  65.392  1.00  0.00    -0.218 C  
HETATM   20  H   UNL     1      -8.057  11.957  65.487  1.00  0.00     0.000 HD 
HETATM   21  C   UNL     1      -9.290  14.994  66.459  1.00  0.00    -0.309 C  
HETATM   22  C   UNL     1     -10.415  15.926  65.965  1.00  0.00    -0.357 C  
HETATM   23  O   UNL     1     -13.447  12.042  62.597  1.00  0.00     0.221 OA 
HETATM   24  C   UNL     1     -10.950  15.535  64.593  1.00  0.00    -0.341 C  
ENDROOT
BRANCH   4  25
HETATM   25  C   UNL     1      -5.837  13.306  68.178  1.00  0.00    -0.105 C  
HETATM   26  O   UNL     1      -5.132  13.544  69.173  1.00  0.00    -0.073 OA 
BRANCH  25  27
HETATM   27  C   UNL     1      -5.268  12.224  67.222  1.00  0.00    -0.087 C  
BRANCH  27  28
HETATM   28  O   UNL     1      -5.314  10.922  67.898  1.00  0.00    -0.040 OA 
BRANCH  28  29
HETATM   29  C   UNL     1      -5.939   9.864  67.293  1.00  0.00    -0.051 C  
HETATM   30  O   UNL     1      -5.720   9.522  66.134  1.00  0.00    -0.051 OA 
BRANCH  29  31
HETATM   31  C   UNL     1      -6.951   9.195  68.262  1.00  0.00    -0.076 C  
BRANCH  31  32
HETATM   32  N   UNL     1      -7.916   8.241  67.616  1.00  0.00    -0.116 NA 
BRANCH  32  33
HETATM   33  C   UNL     1      -7.731   6.852  68.063  1.00  0.00    -0.113 C  
HETATM   34  C   UNL     1      -8.301   6.507  69.436  1.00  0.00    -0.123 C  
ENDBRANCH  32  33
BRANCH  32  35
HETATM   35  C   UNL     1      -9.306   8.723  67.781  1.00  0.00    -0.141 C  
HETATM   36  C   UNL     1     -10.247   8.429  66.606  1.00  0.00    -0.335 C  
ENDBRANCH  32  35
ENDBRANCH  31  32
ENDBRANCH  29  31
ENDBRANCH  28  29
ENDBRANCH  27  28
ENDBRANCH  25  27
ENDBRANCH   4  25
TORSDOF 8
ENDMDL
MODEL      153
REMARK 921   NORMALIZED FREE ENERGY PREDICTED BY IDOCK:   -1.12 KCAL/MOL
REMARK 922        TOTAL FREE ENERGY PREDICTED BY IDOCK:   -1.79 KCAL/MOL
REMARK 923 INTER-LIGAND FREE ENERGY PREDICTED BY IDOCK:   -2.11 KCAL/MOL
REMARK 924 INTRA-LIGAND FREE ENERGY PREDICTED BY IDOCK:    0.31 KCAL/MOL
REMARK 927      BINDING AFFINITY PREDICTED BY RF-SCORE:    0.00 PKD
ROOT
HETATM    1  C   UNL     1     -10.514   3.403  71.641  1.00  0.00     0.361 C  
HETATM    2  C   UNL     1     -10.046   2.291  72.378  1.00  0.00    -0.227 C  
HETATM    3  C   UNL     1      -9.079   3.434  72.310  1.00  0.00    -0.144 C  
HETATM    4  C   UNL     1      -9.766   5.261  71.634  1.00  0.00    -0.160 C  
HETATM    5  C   UNL     1      -8.147   2.211  67.691  1.00  0.00    -0.068 C  
HETATM    6  O   UNL     1     -11.188   5.439  71.256  1.00  0.00    -0.082 OA 
HETATM    7  C   UNL     1      -9.718   4.687  72.861  1.00  0.00    -0.168 C  
HETATM    8  C   UNL     1      -7.861   5.112  72.499  1.00  0.00    -0.101 C  
HETATM    9  H   UNL     1     -11.505   6.280  70.945  1.00  0.00     0.000 HD 
HETATM   10  C   UNL     1      -7.471   1.472  66.789  1.00  0.00    -0.056 C  
HETATM   11  C   UNL     1      -6.054   1.800  66.553  1.00  0.00    -0.019 C  
HETATM   12  C   UNL     1     -10.494   4.898  74.148  1.00  0.00    -0.335 C  
HETATM   13  C   UNL     1      -7.506   4.907  70.771  1.00  0.00    -0.065 C  
HETATM   14  C   UNL     1      -5.281   2.129  67.786  1.00  0.00    -0.012 C  
HETATM   15  C   UNL     1      -7.807   4.620  67.482  1.00  0.00    -0.090 C  
HETATM   16  O   UNL     1      -7.932   6.135  70.153  1.00  0.00    -0.103 OA 
HETATM   17  C   UNL     1      -8.111   3.610  69.889  1.00  0.00    -0.062 C  
HETATM   18  C   UNL     1      -7.515   3.427  68.411  1.00  0.00    -0.050 C  
HETATM   19  C   UNL     1      -5.941   3.282  68.538  1.00  0.00    -0.024 C  
HETATM   20  H   UNL     1      -7.742   6.025  69.228  1.00  0.00     0.000 HD 
HETATM   21  C   UNL     1      -9.747   3.366  69.995  1.00  0.00    -0.114 C  
HETATM   22  C   UNL     1     -10.090   2.023  69.318  1.00  0.00     0.728 C  
HETATM   23  O   UNL     1      -5.571   1.752  65.428  1.00  0.00    -0.008 OA 
HETATM   24  C   UNL     1      -9.623   1.953  67.869  1.00  0.00    -0.074 C  
ENDROOT
BRANCH   4  25
HETATM   25  C   UNL     1      -9.714   6.900  72.283  1.00  0.00    -0.146 C  
HETATM   26  O   UNL     1      -8.821   7.350  73.021  1.00  0.00    -0.127 OA 
BRANCH  25  27
HETATM   27  C   UNL     1     -10.867   7.892  71.979  1.00  0.00    -0.255 C  
BRANCH  27  28
HETATM   28  O   UNL     1     -11.045   7.984  70.526  1.00  0.00    -0.251 OA 
BRANCH  28  29
HETATM   29  C   UNL     1      -9.981   8.320  69.731  1.00  0.00    -0.191 C  
HETATM   30  O   UNL     1      -9.589   7.627  68.797  1.00  0.00    -0.151 OA 
BRANCH  29  31
HETATM   31  C   UNL     1      -9.353   9.663  70.192  1.00  0.00    -0.251 C  
BRANCH  31  32
HETATM   32  N   UNL     1      -7.883   9.807  69.916  1.00  0.00    -0.144 NA 
BRANCH  32  33
HETATM   33  C   UNL     1      -7.408  11.192  70.055  1.00  0.00     0.481 C  
HETATM   34  C   UNL     1      -6.621  11.753  68.874  1.00  0.00    -0.082 C  
ENDBRANCH  32  33
BRANCH  32  35
HETATM   35  C   UNL     1      -7.108   8.844  70.732  1.00  0.00    -0.078 C  
HETATM   36  C   UNL     1      -5.997   9.457  71.593  1.00  0.00    -0.035 C  
ENDBRANCH  32  35
ENDBRANCH  31  32
ENDBRANCH  29  31
ENDBRANCH  28  29
ENDBRANCH  27  28
ENDBRANCH  25  27
ENDBRANCH   4  25
TORSDOF 8
ENDMDL
MODEL      154
REMARK 921   NORMALIZED FREE ENERGY PREDICTED BY IDOCK:   -0.76 KCAL/MOL
REMARK 922        TOTAL FREE ENERGY PREDICTED BY IDOCK:   -1.26 KCAL/MOL
REMARK 923 INTER-LIGAND FREE ENERGY PREDICTED BY IDOCK:   -2.67 KCAL/MOL
REMARK 924 INTRA-LIGAND FREE ENERGY PREDICTED BY IDOCK:    1.41 KCAL/MOL
REMARK 927      BINDING AFFINITY PREDICTED BY RF-SCORE:    0.00 PKD
ROOT
HETATM    1  C   UNL     1      -8.807  12.113  69.803  1.00  0.00     2.255 C  
HETATM    2  C   UNL     1      -8.809  10.701  69.732  1.00  0.00     0.279 C  
HETATM    3  C   UNL     1      -7.904  11.365  68.738  1.00  0.00    -0.128 C  
HETATM    4  C   UNL     1      -7.480  13.372  68.987  1.00  0.00     0.064 C  
HETATM    5  C   UNL     1     -11.846  12.639  66.182  1.00  0.00    -0.477 C  
HETATM    6  O   UNL     1      -8.035  14.123  70.139  1.00  0.00     0.239 OA 
HETATM    7  C   UNL     1      -6.901  12.239  69.454  1.00  0.00     0.007 C  
HETATM    8  C   UNL     1      -6.414  12.242  67.578  1.00  0.00    -0.137 C  
HETATM    9  H   UNL     1      -7.840  15.046  70.253  1.00  0.00     0.000 HD 
HETATM   10  C   UNL     1     -12.789  12.352  65.262  1.00  0.00     0.314 C  
HETATM   11  C   UNL     1     -12.385  12.335  63.845  1.00  0.00    -0.509 C  
HETATM   12  C   UNL     1      -6.020  11.929  70.650  1.00  0.00     0.024 C  
HETATM   13  C   UNL     1      -7.733  12.916  66.598  1.00  0.00     0.544 C  
HETATM   14  C   UNL     1     -11.056  11.706  63.587  1.00  0.00    -0.506 C  
HETATM   15  C   UNL     1     -10.444  14.560  65.627  1.00  0.00    -0.351 C  
HETATM   16  O   UNL     1      -7.561  14.343  66.670  1.00  0.00    -0.197 OA 
HETATM   17  C   UNL     1      -9.344  12.542  66.902  1.00  0.00    -0.219 C  
HETATM   18  C   UNL     1     -10.399  13.029  65.796  1.00  0.00    -0.296 C  
HETATM   19  C   UNL     1      -9.970  12.397  64.407  1.00  0.00    -0.220 C  
HETATM   20  H   UNL     1      -8.267  14.704  66.146  1.00  0.00     0.000 HD 
HETATM   21  C   UNL     1      -9.853  12.758  68.466  1.00  0.00    -0.147 C  
HETATM   22  C   UNL     1     -11.267  12.161  68.610  1.00  0.00    -0.318 C  
HETATM   23  O   UNL     1     -13.124  12.770  62.970  1.00  0.00    -0.205 OA 
HETATM   24  C   UNL     1     -12.266  12.759  67.626  1.00  0.00    -0.000 C  
ENDROOT
BRANCH   4  25
HETATM   25  C   UNL     1      -5.983  14.300  69.079  1.00  0.00    -0.090 C  
HETATM   26  O   UNL     1      -5.129  14.195  69.976  1.00  0.00    -0.089 OA 
BRANCH  25  27
HETATM   27  C   UNL     1      -5.673  15.380  68.009  1.00  0.00    -0.135 C  
BRANCH  27  28
HETATM   28  O   UNL     1      -6.640  16.475  68.145  1.00  0.00    -0.132 OA 
BRANCH  28  29
HETATM   29  C   UNL     1      -6.588  17.538  67.282  1.00  0.00    -0.159 C  
HETATM   30  O   UNL     1      -5.546  17.958  66.788  1.00  0.00    -0.134 OA 
BRANCH  29  31
HETATM   31  C   UNL     1      -8.007  18.126  67.049  1.00  0.00    -0.225 C  
BRANCH  31  32
HETATM   32  N   UNL     1      -8.853  18.256  68.283  1.00  0.00    -0.281 NA 
BRANCH  32  33
HETATM   33  C   UNL     1     -10.079  19.037  68.056  1.00  0.00    -0.385 C  
HETATM   34  C   UNL     1     -10.564  19.118  66.612  1.00  0.00    -0.520 C  
ENDBRANCH  32  33
BRANCH  32  35
HETATM   35  C   UNL     1      -9.116  16.922  68.871  1.00  0.00    -0.223 C  
HETATM   36  C   UNL     1     -10.573  16.450  68.804  1.00  0.00    -0.310 C  
ENDBRANCH  32  35
ENDBRANCH  31  32
ENDBRANCH  29  31
ENDBRANCH  28  29
ENDBRANCH  27  28
ENDBRANCH  25  27
ENDBRANCH   4  25
TORSDOF 8
ENDMDL
MODEL      155
REMARK 921   NORMALIZED FREE ENERGY PREDICTED BY IDOCK:   -0.17 KCAL/MOL
REMARK 922        TOTAL FREE ENERGY PREDICTED BY IDOCK:   -0.40 KCAL/MOL
REMARK 923 INTER-LIGAND FREE ENERGY PREDICTED BY IDOCK:   -1.44 KCAL/MOL
REMARK 924 INTRA-LIGAND FREE ENERGY PREDICTED BY IDOCK:    1.04 KCAL/MOL
REMARK 927      BINDING AFFINITY PREDICTED BY RF-SCORE:    0.00 PKD
ROOT
HETATM    1  C   UNL     1     -12.431   7.129  70.424  1.00  0.00     0.069 C  
HETATM    2  C   UNL     1     -13.151   7.257  71.635  1.00  0.00    -0.417 C  
HETATM    3  C   UNL     1     -12.088   8.296  71.439  1.00  0.00    -0.331 C  
HETATM    4  C   UNL     1     -11.244   8.492  69.564  1.00  0.00     0.154 C  
HETATM    5  C   UNL     1      -8.750   4.899  72.453  1.00  0.00    -0.126 C  
HETATM    6  O   UNL     1     -11.702   7.646  68.437  1.00  0.00     0.485 OA 
HETATM    7  C   UNL     1     -12.331   9.049  70.152  1.00  0.00     0.624 C  
HETATM    8  C   UNL     1     -10.849   9.923  71.047  1.00  0.00    -0.300 C  
HETATM    9  H   UNL     1     -11.314   7.736  67.574  1.00  0.00     0.000 HD 
HETATM   10  C   UNL     1      -8.025   4.201  73.349  1.00  0.00    -0.089 C  
HETATM   11  C   UNL     1      -6.922   4.898  74.033  1.00  0.00    -0.076 C  
HETATM   12  C   UNL     1     -13.605   9.677  69.618  1.00  0.00     2.603 C  
HETATM   13  C   UNL     1      -9.493   8.792  71.245  1.00  0.00    -0.250 C  
HETATM   14  C   UNL     1      -7.235   6.298  74.447  1.00  0.00    -0.089 C  
HETATM   15  C   UNL     1      -7.423   6.227  70.891  1.00  0.00    -0.088 C  
HETATM   16  O   UNL     1      -8.789   8.829  69.991  1.00  0.00    -0.134 OA 
HETATM   17  C   UNL     1      -9.734   7.190  71.693  1.00  0.00    -0.166 C  
HETATM   18  C   UNL     1      -8.413   6.359  72.065  1.00  0.00    -0.115 C  
HETATM   19  C   UNL     1      -7.675   7.125  73.241  1.00  0.00    -0.098 C  
HETATM   20  H   UNL     1      -8.064   8.224  70.097  1.00  0.00     0.000 HD 
HETATM   21  C   UNL     1     -10.834   6.343  70.785  1.00  0.00    -0.321 C  
HETATM   22  C   UNL     1     -11.091   4.984  71.466  1.00  0.00     0.183 C  
HETATM   23  O   UNL     1      -5.863   4.330  74.269  1.00  0.00    -0.018 OA 
HETATM   24  C   UNL     1      -9.817   4.173  71.671  1.00  0.00    -0.254 C  
ENDROOT
BRANCH   4  25
HETATM   25  C   UNL     1     -11.008   9.855  68.468  1.00  0.00    -0.180 C  
HETATM   26  O   UNL     1     -10.836   9.766  67.241  1.00  0.00    -0.265 OA 
BRANCH  25  27
HETATM   27  C   UNL     1     -10.959  11.301  69.028  1.00  0.00    -0.236 C  
BRANCH  27  28
HETATM   28  O   UNL     1     -10.538  12.211  67.957  1.00  0.00    -0.198 OA 
BRANCH  28  29
HETATM   29  C   UNL     1     -10.081  13.464  68.269  1.00  0.00    -0.247 C  
HETATM   30  O   UNL     1      -8.992  13.675  68.795  1.00  0.00    -0.075 OA 
BRANCH  29  31
HETATM   31  C   UNL     1     -11.130  14.543  67.886  1.00  0.00    -0.279 C  
BRANCH  31  32
HETATM   32  N   UNL     1     -11.121  15.774  68.747  1.00  0.00    -0.299 NA 
BRANCH  32  33
HETATM   33  C   UNL     1     -10.831  17.000  67.989  1.00  0.00    -0.330 C  
HETATM   34  C   UNL     1      -9.378  17.466  67.998  1.00  0.00    -0.276 C  
ENDBRANCH  32  33
BRANCH  32  35
HETATM   35  C   UNL     1     -12.373  15.862  69.535  1.00  0.00     0.027 C  
HETATM   36  C   UNL     1     -12.186  15.993  71.052  1.00  0.00    -0.328 C  
ENDBRANCH  32  35
ENDBRANCH  31  32
ENDBRANCH  29  31
ENDBRANCH  28  29
ENDBRANCH  27  28
ENDBRANCH  25  27
ENDBRANCH   4  25
TORSDOF 8
ENDMDL
MODEL      156
REMARK 921   NORMALIZED FREE ENERGY PREDICTED BY IDOCK:    0.53 KCAL/MOL
REMARK 922        TOTAL FREE ENERGY PREDICTED BY IDOCK:    0.63 KCAL/MOL
REMARK 923 INTER-LIGAND FREE ENERGY PREDICTED BY IDOCK:   -0.76 KCAL/MOL
REMARK 924 INTRA-LIGAND FREE ENERGY PREDICTED BY IDOCK:    1.39 KCAL/MOL
REMARK 927      BINDING AFFINITY PREDICTED BY RF-SCORE:    0.00 PKD
ROOT
HETATM    1  C   UNL     1      -7.866  15.567  68.017  1.00  0.00    -0.132 C  
HETATM    2  C   UNL     1      -8.863  16.266  68.736  1.00  0.00    -0.243 C  
HETATM    3  C   UNL     1      -8.805  14.799  69.036  1.00  0.00    -0.136 C  
HETATM    4  C   UNL     1      -7.159  13.731  68.389  1.00  0.00    -0.105 C  
HETATM    5  C   UNL     1     -10.894  13.957  64.719  1.00  0.00    -0.430 C  
HETATM    6  O   UNL     1      -6.052  14.410  67.674  1.00  0.00    -0.271 OA 
HETATM    7  C   UNL     1      -7.425  14.424  69.524  1.00  0.00     0.033 C  
HETATM    8  C   UNL     1      -8.535  12.844  69.701  1.00  0.00     1.841 C  
HETATM    9  H   UNL     1      -5.294  13.919  67.377  1.00  0.00     0.000 HD 
HETATM   10  C   UNL     1     -11.998  13.846  63.955  1.00  0.00    -0.372 C  
HETATM   11  C   UNL     1     -12.837  12.647  64.129  1.00  0.00    -0.185 C  
HETATM   12  C   UNL     1      -6.555  15.081  70.579  1.00  0.00     0.098 C  
HETATM   13  C   UNL     1      -9.151  12.340  68.112  1.00  0.00    -0.196 C  
HETATM   14  C   UNL     1     -13.022  12.221  65.548  1.00  0.00     1.320 C  
HETATM   15  C   UNL     1      -9.542  11.928  64.846  1.00  0.00    -0.087 C  
HETATM   16  O   UNL     1      -8.091  11.560  67.531  1.00  0.00    -0.126 OA 
HETATM   17  C   UNL     1      -9.697  13.456  66.979  1.00  0.00    -0.239 C  
HETATM   18  C   UNL     1     -10.442  12.845  65.696  1.00  0.00    -0.292 C  
HETATM   19  C   UNL     1     -11.668  11.983  66.213  1.00  0.00    -0.319 C  
HETATM   20  H   UNL     1      -8.421  11.291  66.681  1.00  0.00     0.000 HD 
HETATM   21  C   UNL     1      -8.658  14.700  66.631  1.00  0.00    -0.129 C  
HETATM   22  C   UNL     1      -9.401  15.732  65.759  1.00  0.00    -0.298 C  
HETATM   23  O   UNL     1     -13.364  12.097  63.170  1.00  0.00    -0.397 OA 
HETATM   24  C   UNL     1      -9.972  15.128  64.482  1.00  0.00     0.937 C  
ENDROOT
BRANCH   4  25
HETATM   25  C   UNL     1      -6.009  12.659  69.189  1.00  0.00    -0.086 C  
HETATM   26  O   UNL     1      -5.444  12.893  70.271  1.00  0.00    -0.108 OA 
BRANCH  25  27
HETATM   27  C   UNL     1      -5.595  11.323  68.517  1.00  0.00    -0.042 C  
BRANCH  27  28
HETATM   28  O   UNL     1      -5.255  10.351  69.562  1.00  0.00    -0.038 OA 
BRANCH  28  29
HETATM   29  C   UNL     1      -6.249   9.626  70.166  1.00  0.00    -0.064 C  
HETATM   30  O   UNL     1      -6.463   9.650  71.374  1.00  0.00    -0.273 OA 
BRANCH  29  31
HETATM   31  C   UNL     1      -7.026   8.781  69.120  1.00  0.00    -0.059 C  
BRANCH  31  32
HETATM   32  N   UNL     1      -7.164   7.323  69.456  1.00  0.00    -0.078 NA 
BRANCH  32  33
HETATM   33  C   UNL     1      -7.413   6.485  68.273  1.00  0.00    -0.095 C  
HETATM   34  C   UNL     1      -8.474   6.994  67.302  1.00  0.00    -0.121 C  
ENDBRANCH  32  33
BRANCH  32  35
HETATM   35  C   UNL     1      -6.006   6.866  70.257  1.00  0.00    -0.024 C  
HETATM   36  C   UNL     1      -6.333   6.412  71.685  1.00  0.00    -0.042 C  
ENDBRANCH  32  35
ENDBRANCH  31  32
ENDBRANCH  29  31
ENDBRANCH  28  29
ENDBRANCH  27  28
ENDBRANCH  25  27
ENDBRANCH   4  25
TORSDOF 8
ENDMDL
MODEL      157
REMARK 921   NORMALIZED FREE ENERGY PREDICTED BY IDOCK:    2.64 KCAL/MOL
REMARK 922        TOTAL FREE ENERGY PREDICTED BY IDOCK:    3.74 KCAL/MOL
REMARK 923 INTER-LIGAND FREE ENERGY PREDICTED BY IDOCK:    1.71 KCAL/MOL
REMARK 924 INTRA-LIGAND FREE ENERGY PREDICTED BY IDOCK:    2.02 KCAL/MOL
REMARK 927      BINDING AFFINITY PREDICTED BY RF-SCORE:    0.00 PKD
ROOT
HETATM    1  C   UNL     1      -9.230  12.436  66.061  1.00  0.00    -0.055 C  
HETATM    2  C   UNL     1      -9.220  11.234  66.805  1.00  0.00    -0.186 C  
HETATM    3  C   UNL     1     -10.162  12.274  67.332  1.00  0.00    -0.213 C  
HETATM    4  C   UNL     1     -10.593  13.901  66.135  1.00  0.00    -0.291 C  
HETATM    5  C   UNL     1      -6.317  14.713  69.054  1.00  0.00    -0.094 C  
HETATM    6  O   UNL     1     -10.007  14.017  64.778  1.00  0.00    -0.592 OA 
HETATM    7  C   UNL     1     -11.148  12.670  66.258  1.00  0.00    -0.330 C  
HETATM    8  C   UNL     1     -11.697  13.566  67.888  1.00  0.00    -0.392 C  
HETATM    9  H   UNL     1     -10.206  14.766  64.228  1.00  0.00     0.000 HD 
HETATM   10  C   UNL     1      -5.403  14.926  70.022  1.00  0.00    -0.101 C  
HETATM   11  C   UNL     1      -5.854  15.586  71.260  1.00  0.00     0.407 C  
HETATM   12  C   UNL     1     -11.986  11.802  65.338  1.00  0.00     0.100 C  
HETATM   13  C   UNL     1     -10.416  14.660  68.453  1.00  0.00    -0.243 C  
HETATM   14  C   UNL     1      -7.185  15.128  71.757  1.00  0.00     2.929 C  
HETATM   15  C   UNL     1      -7.753  16.630  68.578  1.00  0.00    -0.215 C  
HETATM   16  O   UNL     1     -10.598  15.871  67.698  1.00  0.00    -0.292 OA 
HETATM   17  C   UNL     1      -8.793  14.222  68.408  1.00  0.00    -0.187 C  
HETATM   18  C   UNL     1      -7.780  15.207  69.168  1.00  0.00    -0.195 C  
HETATM   19  C   UNL     1      -8.250  15.313  70.678  1.00  0.00     1.670 C  
HETATM   20  H   UNL     1      -9.912  16.456  68.000  1.00  0.00     0.000 HD 
HETATM   21  C   UNL     1      -8.235  13.670  66.947  1.00  0.00     0.044 C  
HETATM   22  C   UNL     1      -6.811  13.110  67.145  1.00  0.00     0.175 C  
HETATM   23  O   UNL     1      -5.148  16.405  71.835  1.00  0.00    -0.274 OA 
HETATM   24  C   UNL     1      -5.851  14.131  67.743  1.00  0.00    -0.090 C  
ENDROOT
BRANCH   4  25
HETATM   25  C   UNL     1     -12.094  14.635  65.569  1.00  0.00    -0.222 C  
HETATM   26  O   UNL     1     -13.143  14.018  65.315  1.00  0.00    -0.782 OA 
BRANCH  25  27
HETATM   27  C   UNL     1     -12.160  16.163  65.306  1.00  0.00     1.183 C  
BRANCH  27  28
HETATM   28  O   UNL     1     -11.145  16.831  66.129  1.00  0.00     0.062 OA 
BRANCH  28  29
HETATM   29  C   UNL     1     -10.180  17.597  65.530  1.00  0.00     0.105 C  
HETATM   30  O   UNL     1      -9.122  17.141  65.106  1.00  0.00     0.651 OA 
BRANCH  29  31
HETATM   31  C   UNL     1     -10.609  19.089  65.489  1.00  0.00    -0.040 C  
BRANCH  31  32
HETATM   32  N   UNL     1      -9.949  19.970  66.510  1.00  0.00    -0.450 NA 
BRANCH  32  33
HETATM   33  C   UNL     1     -10.197  19.529  67.892  1.00  0.00    -0.431 C  
HETATM   34  C   UNL     1     -10.670  20.605  68.864  1.00  0.00     0.583 C  
ENDBRANCH  32  33
BRANCH  32  35
HETATM   35  C   UNL     1      -8.509  20.127  66.202  1.00  0.00    -0.188 C  
HETATM   36  C   UNL     1      -7.675  20.814  67.291  1.00  0.00    -0.332 C  
ENDBRANCH  32  35
ENDBRANCH  31  32
ENDBRANCH  29  31
ENDBRANCH  28  29
ENDBRANCH  27  28
ENDBRANCH  25  27
ENDBRANCH   4  25
TORSDOF 8
ENDMDL
MODEL      158
REMARK 921   NORMALIZED FREE ENERGY PREDICTED BY IDOCK:    3.07 KCAL/MOL
REMARK 922        TOTAL FREE ENERGY PREDICTED BY IDOCK:    4.36 KCAL/MOL
REMARK 923 INTER-LIGAND FREE ENERGY PREDICTED BY IDOCK:    0.82 KCAL/MOL
REMARK 924 INTRA-LIGAND FREE ENERGY PREDICTED BY IDOCK:    3.54 KCAL/MOL
REMARK 927      BINDING AFFINITY PREDICTED BY RF-SCORE:    0.00 PKD
ROOT
HETATM    1  C   UNL     1     -11.829  16.741  67.569  1.00  0.00     1.060 C  
HETATM    2  C   UNL     1     -12.036  17.585  66.453  1.00  0.00     3.293 C  
HETATM    3  C   UNL     1     -10.906  16.614  66.288  1.00  0.00    -0.015 C  
HETATM    4  C   UNL     1     -10.745  15.059  67.639  1.00  0.00    -0.274 C  
HETATM    5  C   UNL     1      -8.263  19.359  69.319  1.00  0.00    -0.069 C  
HETATM    6  O   UNL     1     -11.742  14.895  68.723  1.00  0.00    -0.308 OA 
HETATM    7  C   UNL     1     -11.408  15.200  66.465  1.00  0.00    -0.234 C  
HETATM    8  C   UNL     1      -9.554  15.076  65.912  1.00  0.00    -0.356 C  
HETATM    9  H   UNL     1     -11.668  14.180  69.345  1.00  0.00     0.000 HD 
HETATM   10  C   UNL     1      -7.445  20.407  69.537  1.00  0.00     0.504 C  
HETATM   11  C   UNL     1      -6.048  20.296  69.083  1.00  0.00    -0.335 C  
HETATM   12  C   UNL     1     -12.616  14.514  65.854  1.00  0.00    -0.157 C  
HETATM   13  C   UNL     1      -8.499  15.866  67.104  1.00  0.00    -0.199 C  
HETATM   14  C   UNL     1      -5.880  19.647  67.749  1.00  0.00    -0.211 C  
HETATM   15  C   UNL     1      -7.304  17.190  69.898  1.00  0.00     0.881 C  
HETATM   16  O   UNL     1      -8.285  14.877  68.127  1.00  0.00    -0.130 OA 
HETATM   17  C   UNL     1      -8.917  17.325  67.828  1.00  0.00    -0.234 C  
HETATM   18  C   UNL     1      -7.768  18.032  68.695  1.00  0.00    -0.304 C  
HETATM   19  C   UNL     1      -6.517  18.259  67.747  1.00  0.00    -0.193 C  
HETATM   20  H   UNL     1      -7.722  15.300  68.765  1.00  0.00     0.000 HD 
HETATM   21  C   UNL     1     -10.422  17.382  68.522  1.00  0.00    -0.370 C  
HETATM   22  C   UNL     1     -10.721  18.838  68.931  1.00  0.00     0.514 C  
HETATM   23  O   UNL     1      -5.127  20.751  69.750  1.00  0.00    -0.288 OA 
HETATM   24  C   UNL     1      -9.668  19.419  69.868  1.00  0.00     0.381 C  
ENDROOT
BRANCH   4  25
HETATM   25  C   UNL     1     -10.611  13.308  67.473  1.00  0.00    -0.246 C  
HETATM   26  O   UNL     1     -11.551  12.539  67.212  1.00  0.00    -0.326 OA 
BRANCH  25  27
HETATM   27  C   UNL     1      -9.244  12.610  67.702  1.00  0.00    -0.191 C  
BRANCH  27  28
HETATM   28  O   UNL     1      -9.482  11.204  68.048  1.00  0.00    -0.163 OA 
BRANCH  28  29
HETATM   29  C   UNL     1     -10.550  10.869  68.837  1.00  0.00    -0.210 C  
HETATM   30  O   UNL     1     -10.955  11.570  69.759  1.00  0.00    -0.141 OA 
BRANCH  29  31
HETATM   31  C   UNL     1     -11.141   9.497  68.411  1.00  0.00     0.017 C  
BRANCH  31  32
HETATM   32  N   UNL     1     -10.304   8.304  68.773  1.00  0.00    -0.211 NA 
BRANCH  32  33
HETATM   33  C   UNL     1      -9.718   7.640  67.598  1.00  0.00    -0.152 C  
HETATM   34  C   UNL     1     -10.224   6.232  67.302  1.00  0.00    -0.237 C  
ENDBRANCH  32  33
BRANCH  32  35
HETATM   35  C   UNL     1      -9.296   8.671  69.794  1.00  0.00    -0.165 C  
HETATM   36  C   UNL     1      -7.889   8.107  69.561  1.00  0.00    -0.104 C  
ENDBRANCH  32  35
ENDBRANCH  31  32
ENDBRANCH  29  31
ENDBRANCH  28  29
ENDBRANCH  27  28
ENDBRANCH  25  27
ENDBRANCH   4  25
TORSDOF 8
ENDMDL
MODEL      159
REMARK 921   NORMALIZED FREE ENERGY PREDICTED BY IDOCK:    7.75 KCAL/MOL
REMARK 922        TOTAL FREE ENERGY PREDICTED BY IDOCK:   11.23 KCAL/MOL
REMARK 923 INTER-LIGAND FREE ENERGY PREDICTED BY IDOCK:    8.71 KCAL/MOL
REMARK 924 INTRA-LIGAND FREE ENERGY PREDICTED BY IDOCK:    2.52 KCAL/MOL
REMARK 927      BINDING AFFINITY PREDICTED BY RF-SCORE:    0.00 PKD
ROOT
HETATM    1  C   UNL     1     -11.899  17.380  68.008  1.00  0.00     1.441 C  
HETATM    2  C   UNL     1     -12.106  18.266  66.925  1.00  0.00     3.644 C  
HETATM    3  C   UNL     1     -10.984  17.294  66.718  1.00  0.00     0.175 C  
HETATM    4  C   UNL     1     -10.827  15.689  68.010  1.00  0.00    -0.308 C  
HETATM    5  C   UNL     1      -8.305  19.906  69.833  1.00  0.00     0.838 C  
HETATM    6  O   UNL     1     -11.819  15.492  69.093  1.00  0.00    -0.347 OA 
HETATM    7  C   UNL     1     -11.495  15.878  66.845  1.00  0.00     0.249 C  
HETATM    8  C   UNL     1      -9.645  15.761  66.277  1.00  0.00    -0.343 C  
HETATM    9  H   UNL     1     -11.747  14.754  69.687  1.00  0.00     0.000 HD 
HETATM   10  C   UNL     1      -7.478  20.940  70.084  1.00  0.00     2.591 C  
HETATM   11  C   UNL     1      -6.084  20.836  69.618  1.00  0.00    -0.039 C  
HETATM   12  C   UNL     1     -12.711  15.223  66.217  1.00  0.00     1.364 C  
HETATM   13  C   UNL     1      -8.578  16.499  67.492  1.00  0.00    -0.177 C  
HETATM   14  C   UNL     1      -5.928  20.235  68.261  1.00  0.00    -0.304 C  
HETATM   15  C   UNL     1      -7.358  17.711  70.326  1.00  0.00     2.002 C  
HETATM   16  O   UNL     1      -8.366  15.472  68.477  1.00  0.00    -0.148 OA 
HETATM   17  C   UNL     1      -8.982  17.933  68.271  1.00  0.00    -0.277 C  
HETATM   18  C   UNL     1      -7.822  18.600  69.157  1.00  0.00    -0.086 C  
HETATM   19  C   UNL     1      -6.575  18.853  68.211  1.00  0.00    -0.253 C  
HETATM   20  H   UNL     1      -7.795  15.867  69.126  1.00  0.00     0.000 HD 
HETATM   21  C   UNL     1     -10.482  17.975  68.976  1.00  0.00    -0.043 C  
HETATM   22  C   UNL     1     -10.768  19.417  69.440  1.00  0.00     0.923 C  
HETATM   23  O   UNL     1      -5.156  21.260  70.296  1.00  0.00    -0.554 OA 
HETATM   24  C   UNL     1      -9.706  19.956  70.391  1.00  0.00     0.944 C  
ENDROOT
BRANCH   4  25
HETATM   25  C   UNL     1     -10.706  13.944  67.778  1.00  0.00    -0.246 C  
HETATM   26  O   UNL     1     -11.193  13.086  68.533  1.00  0.00    -0.241 OA 
BRANCH  25  27
HETATM   27  C   UNL     1      -9.902  13.374  66.579  1.00  0.00    -0.286 C  
BRANCH  27  28
HETATM   28  O   UNL     1      -9.517  11.991  66.881  1.00  0.00    -0.193 OA 
BRANCH  28  29
HETATM   29  C   UNL     1     -10.432  10.982  66.732  1.00  0.00    -0.251 C  
HETATM   30  O   UNL     1     -11.629  11.116  66.967  1.00  0.00    -0.463 OA 
BRANCH  29  31
HETATM   31  C   UNL     1      -9.739   9.677  66.255  1.00  0.00    -0.240 C  
BRANCH  31  32
HETATM   32  N   UNL     1      -8.568   9.877  65.336  1.00  0.00    -0.144 NA 
BRANCH  32  33
HETATM   33  C   UNL     1      -7.734   8.673  65.202  1.00  0.00    -0.101 C  
HETATM   34  C   UNL     1      -8.476   7.340  65.201  1.00  0.00    -0.029 C  
ENDBRANCH  32  33
BRANCH  32  35
HETATM   35  C   UNL     1      -9.021  10.416  64.033  1.00  0.00    -0.228 C  
HETATM   36  C   UNL     1      -8.336   9.814  62.799  1.00  0.00    -0.161 C  
ENDBRANCH  32  35
ENDBRANCH  31  32
ENDBRANCH  29  31
ENDBRANCH  28  29
ENDBRANCH  27  28
ENDBRANCH  25  27
ENDBRANCH   4  25
TORSDOF 8
ENDMDL
MODEL      160
REMARK 921   NORMALIZED FREE ENERGY PREDICTED BY IDOCK:    8.59 KCAL/MOL
REMARK 922        TOTAL FREE ENERGY PREDICTED BY IDOCK:   12.46 KCAL/MOL
REMARK 923 INTER-LIGAND FREE ENERGY PREDICTED BY IDOCK:    3.96 KCAL/MOL
REMARK 924 INTRA-LIGAND FREE ENERGY PREDICTED BY IDOCK:    8.50 KCAL/MOL
REMARK 927      BINDING AFFINITY PREDICTED BY RF-SCORE:    0.00 PKD
ROOT
HETATM    1  C   UNL     1      -9.271  12.226  66.022  1.00  0.00    -0.086 C  
HETATM    2  C   UNL     1      -9.185  11.004  66.728  1.00  0.00    -0.174 C  
HETATM    3  C   UNL     1     -10.146  11.990  67.321  1.00  0.00    -0.208 C  
HETATM    4  C   UNL     1     -10.686  13.632  66.192  1.00  0.00    -0.286 C  
HETATM    5  C   UNL     1      -6.335  14.530  68.972  1.00  0.00    -0.095 C  
HETATM    6  O   UNL     1     -10.158  13.811  64.818  1.00  0.00    -0.580 OA 
HETATM    7  C   UNL     1     -11.188  12.377  66.298  1.00  0.00    -0.361 C  
HETATM    8  C   UNL     1     -11.707  13.203  67.974  1.00  0.00    -0.394 C  
HETATM    9  H   UNL     1     -10.407  14.567  64.299  1.00  0.00     0.000 HD 
HETATM   10  C   UNL     1      -5.394  14.752  69.910  1.00  0.00    -0.097 C  
HETATM   11  C   UNL     1      -5.821  15.356  71.184  1.00  0.00     0.269 C  
HETATM   12  C   UNL     1     -12.027  11.503  65.385  1.00  0.00     0.485 C  
HETATM   13  C   UNL     1     -10.449  14.330  68.523  1.00  0.00    -0.253 C  
HETATM   14  C   UNL     1      -7.113  14.832  71.717  1.00  0.00     2.309 C  
HETATM   15  C   UNL     1      -7.861  16.401  68.608  1.00  0.00    -0.211 C  
HETATM   16  O   UNL     1     -10.707  15.555  67.813  1.00  0.00    -0.281 OA 
HETATM   17  C   UNL     1      -8.813  13.960  68.404  1.00  0.00    -0.177 C  
HETATM   18  C   UNL     1      -7.810  14.961  69.155  1.00  0.00    -0.171 C  
HETATM   19  C   UNL     1      -8.225  15.005  70.685  1.00  0.00     1.632 C  
HETATM   20  H   UNL     1     -10.033  16.157  68.106  1.00  0.00     0.000 HD 
HETATM   21  C   UNL     1      -8.291  13.472  66.908  1.00  0.00    -0.012 C  
HETATM   22  C   UNL     1      -6.840  12.965  67.034  1.00  0.00     0.257 C  
HETATM   23  O   UNL     1      -5.126  16.186  71.757  1.00  0.00    -0.247 OA 
HETATM   24  C   UNL     1      -5.897  14.006  67.626  1.00  0.00    -0.022 C  
ENDROOT
BRANCH   4  25
HETATM   25  C   UNL     1     -12.235  14.322  65.705  1.00  0.00    -0.400 C  
HETATM   26  O   UNL     1     -12.653  14.393  64.537  1.00  0.00    -0.651 OA 
BRANCH  25  27
HETATM   27  C   UNL     1     -13.176  14.945  66.770  1.00  0.00     2.809 C  
BRANCH  27  28
HETATM   28  O   UNL     1     -12.822  14.409  68.089  1.00  0.00     0.606 OA 
BRANCH  28  29
HETATM   29  C   UNL     1     -13.013  15.176  69.208  1.00  0.00     0.710 C  
HETATM   30  O   UNL     1     -12.704  16.362  69.276  1.00  0.00     0.513 OA 
BRANCH  29  31
HETATM   31  C   UNL     1     -13.643  14.334  70.351  1.00  0.00     0.575 C  
BRANCH  31  32
HETATM   32  N   UNL     1     -12.689  13.912  71.431  1.00  0.00    -0.351 NA 
BRANCH  32  33
HETATM   33  C   UNL     1     -12.673  14.839  72.573  1.00  0.00    -0.368 C  
HETATM   34  C   UNL     1     -11.593  15.916  72.547  1.00  0.00    -0.438 C  
ENDBRANCH  32  33
BRANCH  32  35
HETATM   35  C   UNL     1     -12.946  12.508  71.828  1.00  0.00    -0.313 C  
HETATM   36  C   UNL     1     -12.943  11.491  70.680  1.00  0.00    -0.025 C  
ENDBRANCH  32  35
ENDBRANCH  31  32
ENDBRANCH  29  31
ENDBRANCH  28  29
ENDBRANCH  27  28
ENDBRANCH  25  27
ENDBRANCH   4  25
TORSDOF 8
ENDMDL
MODEL      161
REMARK 921   NORMALIZED FREE ENERGY PREDICTED BY IDOCK:    8.96 KCAL/MOL
REMARK 922        TOTAL FREE ENERGY PREDICTED BY IDOCK:   13.00 KCAL/MOL
REMARK 923 INTER-LIGAND FREE ENERGY PREDICTED BY IDOCK:   13.13 KCAL/MOL
REMARK 924 INTRA-LIGAND FREE ENERGY PREDICTED BY IDOCK:   -0.13 KCAL/MOL
REMARK 927      BINDING AFFINITY PREDICTED BY RF-SCORE:    0.00 PKD
ROOT
HETATM    1  C   UNL     1     -11.310   6.339  66.084  1.00  0.00     1.301 C  
HETATM    2  C   UNL     1     -11.537   6.698  64.736  1.00  0.00     9.794 C  
HETATM    3  C   UNL     1     -10.193   6.083  64.991  1.00  0.00     1.966 C  
HETATM    4  C   UNL     1      -9.875   5.140  66.800  1.00  0.00    -0.185 C  
HETATM    5  C   UNL     1      -8.807  10.264  67.065  1.00  0.00    -0.143 C  
HETATM    6  O   UNL     1     -10.961   5.049  67.806  1.00  0.00     0.175 OA 
HETATM    7  C   UNL     1     -10.359   4.714  65.607  1.00  0.00    -0.266 C  
HETATM    8  C   UNL     1      -8.467   4.951  65.257  1.00  0.00    -0.137 C  
HETATM    9  H   UNL     1     -10.814   4.615  68.638  1.00  0.00     0.000 HD 
HETATM   10  C   UNL     1      -8.313  11.514  66.964  1.00  0.00    -0.165 C  
HETATM   11  C   UNL     1      -6.877  11.664  66.671  1.00  0.00    -0.032 C  
HETATM   12  C   UNL     1     -11.252   3.561  65.190  1.00  0.00     1.573 C  
HETATM   13  C   UNL     1      -7.837   6.336  66.173  1.00  0.00    -0.105 C  
HETATM   14  C   UNL     1      -6.348  10.706  65.656  1.00  0.00    -0.103 C  
HETATM   15  C   UNL     1      -7.454   8.747  68.417  1.00  0.00    -0.091 C  
HETATM   16  O   UNL     1      -7.553   5.819  67.486  1.00  0.00    -0.090 OA 
HETATM   17  C   UNL     1      -8.705   7.768  66.322  1.00  0.00    -0.174 C  
HETATM   18  C   UNL     1      -7.913   9.005  66.969  1.00  0.00    -0.102 C  
HETATM   19  C   UNL     1      -6.621   9.267  66.087  1.00  0.00    -0.070 C  
HETATM   20  H   UNL     1      -7.217   6.561  67.976  1.00  0.00     0.000 HD 
HETATM   21  C   UNL     1     -10.268   7.613  66.852  1.00  0.00    -0.365 C  
HETATM   22  C   UNL     1     -10.972   8.979  66.715  1.00  0.00     0.286 C  
HETATM   23  O   UNL     1      -6.210  12.544  67.201  1.00  0.00    -0.187 OA 
HETATM   24  C   UNL     1     -10.253  10.094  67.464  1.00  0.00    -0.257 C  
ENDROOT
BRANCH   4  25
HETATM   25  C   UNL     1      -9.295   3.537  67.255  1.00  0.00    -0.205 C  
HETATM   26  O   UNL     1      -8.347   2.940  66.719  1.00  0.00    -0.088 OA 
BRANCH  25  27
HETATM   27  C   UNL     1     -10.013   2.741  68.377  1.00  0.00     0.691 C  
BRANCH  27  28
HETATM   28  O   UNL     1      -9.200   2.801  69.597  1.00  0.00    -0.117 OA 
BRANCH  28  29
HETATM   29  C   UNL     1      -9.753   3.271  70.759  1.00  0.00    -0.103 C  
HETATM   30  O   UNL     1     -10.681   2.716  71.339  1.00  0.00     0.820 OA 
BRANCH  29  31
HETATM   31  C   UNL     1      -9.058   4.587  71.206  1.00  0.00    -0.130 C  
BRANCH  31  32
HETATM   32  N   UNL     1      -7.879   4.406  72.119  1.00  0.00    -0.088 NA 
BRANCH  32  33
HETATM   33  C   UNL     1      -6.704   3.849  71.431  1.00  0.00    -0.027 C  
HETATM   34  C   UNL     1      -6.257   4.580  70.169  1.00  0.00    -0.022 C  
ENDBRANCH  32  33
BRANCH  32  35
HETATM   35  C   UNL     1      -7.586   5.666  72.839  1.00  0.00    -0.097 C  
HETATM   36  C   UNL     1      -8.805   6.382  73.433  1.00  0.00    -0.130 C  
ENDBRANCH  32  35
ENDBRANCH  31  32
ENDBRANCH  29  31
ENDBRANCH  28  29
ENDBRANCH  27  28
ENDBRANCH  25  27
ENDBRANCH   4  25
TORSDOF 8
ENDMDL
MODEL      162
REMARK 921   NORMALIZED FREE ENERGY PREDICTED BY IDOCK:   12.60 KCAL/MOL
REMARK 922        TOTAL FREE ENERGY PREDICTED BY IDOCK:   18.34 KCAL/MOL
REMARK 923 INTER-LIGAND FREE ENERGY PREDICTED BY IDOCK:   17.20 KCAL/MOL
REMARK 924 INTRA-LIGAND FREE ENERGY PREDICTED BY IDOCK:    1.14 KCAL/MOL
REMARK 927      BINDING AFFINITY PREDICTED BY RF-SCORE:    0.00 PKD
ROOT
HETATM    1  C   UNL     1      -8.351  10.836  71.272  1.00  0.00     5.199 C  
HETATM    2  C   UNL     1      -8.151   9.437  71.250  1.00  0.00     0.193 C  
HETATM    3  C   UNL     1      -7.150  10.214  70.448  1.00  0.00    -0.099 C  
HETATM    4  C   UNL     1      -7.060  12.261  70.713  1.00  0.00     3.163 C  
HETATM    5  C   UNL     1     -10.587  10.925  67.073  1.00  0.00    -0.307 C  
HETATM    6  O   UNL     1      -7.942  12.935  71.694  1.00  0.00     8.359 OA 
HETATM    7  C   UNL     1      -6.449  11.220  71.330  1.00  0.00     1.646 C  
HETATM    8  C   UNL     1      -5.576  11.280  69.600  1.00  0.00    -0.061 C  
HETATM    9  H   UNL     1      -7.901  13.877  71.816  1.00  0.00     0.000 HD 
HETATM   10  C   UNL     1     -11.264  10.507  65.986  1.00  0.00     0.435 C  
HETATM   11  C   UNL     1     -10.568  10.539  64.688  1.00  0.00     0.029 C  
HETATM   12  C   UNL     1      -5.811  11.039  72.695  1.00  0.00     1.636 C  
HETATM   13  C   UNL     1      -6.733  11.764  68.341  1.00  0.00    -0.065 C  
HETATM   14  C   UNL     1      -9.143  10.096  64.738  1.00  0.00    -0.262 C  
HETATM   15  C   UNL     1      -9.366  13.017  66.763  1.00  0.00    -0.244 C  
HETATM   16  O   UNL     1      -6.770  13.201  68.399  1.00  0.00    -0.078 OA 
HETATM   17  C   UNL     1      -8.307  11.174  68.310  1.00  0.00    -0.143 C  
HETATM   18  C   UNL     1      -9.155  11.507  66.990  1.00  0.00    -0.175 C  
HETATM   19  C   UNL     1      -8.359  10.933  65.745  1.00  0.00    -0.133 C  
HETATM   20  H   UNL     1      -7.389  13.459  67.725  1.00  0.00     0.000 HD 
HETATM   21  C   UNL     1      -9.163  11.326  69.722  1.00  0.00     1.091 C  
HETATM   22  C   UNL     1     -10.483  10.542  69.584  1.00  0.00    -0.257 C  
HETATM   23  O   UNL     1     -11.153  10.864  63.662  1.00  0.00    -0.062 OA 
HETATM   24  C   UNL     1     -11.318  10.993  68.392  1.00  0.00    -0.363 C  
ENDROOT
BRANCH   4  25
HETATM   25  C   UNL     1      -5.753  13.386  71.088  1.00  0.00    -0.140 C  
HETATM   26  O   UNL     1      -5.125  13.423  72.159  1.00  0.00    -0.177 OA 
BRANCH  25  27
HETATM   27  C   UNL     1      -5.340  14.467  70.054  1.00  0.00    -0.097 C  
BRANCH  27  28
HETATM   28  O   UNL     1      -6.411  15.465  69.957  1.00  0.00    -0.165 OA 
BRANCH  28  29
HETATM   29  C   UNL     1      -6.360  16.425  68.981  1.00  0.00    -0.164 C  
HETATM   30  O   UNL     1      -5.314  16.931  68.586  1.00  0.00    -0.121 OA 
BRANCH  29  31
HETATM   31  C   UNL     1      -7.787  16.777  68.479  1.00  0.00    -0.229 C  
BRANCH  31  32
HETATM   32  N   UNL     1      -7.849  17.876  67.458  1.00  0.00    -0.211 NA 
BRANCH  32  33
HETATM   33  C   UNL     1      -8.909  17.669  66.459  1.00  0.00    -0.263 C  
HETATM   34  C   UNL     1      -8.882  16.334  65.720  1.00  0.00    -0.003 C  
ENDBRANCH  32  33
BRANCH  32  35
HETATM   35  C   UNL     1      -7.931  19.197  68.124  1.00  0.00    -0.304 C  
HETATM   36  C   UNL     1      -9.350  19.697  68.418  1.00  0.00    -0.425 C  
ENDBRANCH  32  35
ENDBRANCH  31  32
ENDBRANCH  29  31
ENDBRANCH  28  29
ENDBRANCH  27  28
ENDBRANCH  25  27
ENDBRANCH   4  25
TORSDOF 8
ENDMDL
MODEL      163
REMARK 921   NORMALIZED FREE ENERGY PREDICTED BY IDOCK:   12.72 KCAL/MOL
REMARK 922        TOTAL FREE ENERGY PREDICTED BY IDOCK:   18.53 KCAL/MOL
REMARK 923 INTER-LIGAND FREE ENERGY PREDICTED BY IDOCK:   17.30 KCAL/MOL
REMARK 924 INTRA-LIGAND FREE ENERGY PREDICTED BY IDOCK:    1.23 KCAL/MOL
REMARK 927      BINDING AFFINITY PREDICTED BY RF-SCORE:    0.00 PKD
ROOT
HETATM    1  C   UNL     1     -11.824   5.604  68.400  1.00  0.00     2.854 C  
HETATM    2  C   UNL     1     -12.479   5.267  69.606  1.00  0.00     7.700 C  
HETATM    3  C   UNL     1     -11.401   6.297  69.760  1.00  0.00    -0.506 C  
HETATM    4  C   UNL     1     -10.646   7.186  68.055  1.00  0.00    -0.196 C  
HETATM    5  C   UNL     1      -8.105   2.754  69.225  1.00  0.00    -0.063 C  
HETATM    6  O   UNL     1     -11.182   6.833  66.719  1.00  0.00    -0.626 OA 
HETATM    7  C   UNL     1     -11.688   7.483  68.870  1.00  0.00     1.090 C  
HETATM    8  C   UNL     1     -10.143   7.945  69.945  1.00  0.00    -0.197 C  
HETATM    9  H   UNL     1     -10.834   7.242  65.934  1.00  0.00     0.000 HD 
HETATM   10  C   UNL     1      -7.355   1.764  69.748  1.00  0.00    -0.036 C  
HETATM   11  C   UNL     1      -6.201   2.144  70.583  1.00  0.00    -0.023 C  
HETATM   12  C   UNL     1     -12.971   8.273  68.685  1.00  0.00     8.624 C  
HETATM   13  C   UNL     1      -8.808   6.817  69.625  1.00  0.00    -0.144 C  
HETATM   14  C   UNL     1      -6.458   3.283  71.513  1.00  0.00    -0.018 C  
HETATM   15  C   UNL     1      -6.824   4.568  68.211  1.00  0.00    -0.051 C  
HETATM   16  O   UNL     1      -8.165   7.324  68.441  1.00  0.00    -0.123 OA 
HETATM   17  C   UNL     1      -9.067   5.166  69.445  1.00  0.00    -0.144 C  
HETATM   18  C   UNL     1      -7.750   4.250  69.401  1.00  0.00    -0.054 C  
HETATM   19  C   UNL     1      -6.936   4.508  70.736  1.00  0.00    -0.037 C  
HETATM   20  H   UNL     1      -7.451   6.721  68.270  1.00  0.00     0.000 HD 
HETATM   21  C   UNL     1     -10.231   4.733  68.347  1.00  0.00    -0.052 C  
HETATM   22  C   UNL     1     -10.489   3.218  68.475  1.00  0.00     2.202 C  
HETATM   23  O   UNL     1      -5.147   1.524  70.527  1.00  0.00    -0.003 OA 
HETATM   24  C   UNL     1      -9.228   2.383  68.287  1.00  0.00    -0.255 C  
ENDROOT
BRANCH   4  25
HETATM   25  C   UNL     1     -10.431   8.862  67.546  1.00  0.00    -0.269 C  
HETATM   26  O   UNL     1     -10.140   9.229  66.395  1.00  0.00    -0.271 OA 
BRANCH  25  27
HETATM   27  C   UNL     1     -10.558  10.010  68.582  1.00  0.00    -0.212 C  
BRANCH  27  28
HETATM   28  O   UNL     1     -10.295  11.287  67.909  1.00  0.00    -0.174 OA 
BRANCH  28  29
HETATM   29  C   UNL     1     -10.055  12.411  68.655  1.00  0.00    -0.134 C  
HETATM   30  O   UNL     1      -8.945  12.922  68.769  1.00  0.00    -0.000 OA 
BRANCH  29  31
HETATM   31  C   UNL     1     -11.360  12.913  69.330  1.00  0.00    -0.201 C  
BRANCH  31  32
HETATM   32  N   UNL     1     -11.196  14.110  70.222  1.00  0.00    -0.033 NA 
BRANCH  32  33
HETATM   33  C   UNL     1     -11.208  15.381  69.481  1.00  0.00    -0.285 C  
HETATM   34  C   UNL     1     -11.782  15.327  68.068  1.00  0.00    -0.268 C  
ENDBRANCH  32  33
BRANCH  32  35
HETATM   35  C   UNL     1     -12.184  14.073  71.324  1.00  0.00    -0.310 C  
HETATM   36  C   UNL     1     -12.116  15.248  72.308  1.00  0.00    -0.487 C  
ENDBRANCH  32  35
ENDBRANCH  31  32
ENDBRANCH  29  31
ENDBRANCH  28  29
ENDBRANCH  27  28
ENDBRANCH  25  27
ENDBRANCH   4  25
TORSDOF 8
ENDMDL
MODEL      164
REMARK 921   NORMALIZED FREE ENERGY PREDICTED BY IDOCK:   19.77 KCAL/MOL
REMARK 922        TOTAL FREE ENERGY PREDICTED BY IDOCK:   28.87 KCAL/MOL
REMARK 923 INTER-LIGAND FREE ENERGY PREDICTED BY IDOCK:   20.68 KCAL/MOL
REMARK 924 INTRA-LIGAND FREE ENERGY PREDICTED BY IDOCK:    8.19 KCAL/MOL
REMARK 927      BINDING AFFINITY PREDICTED BY RF-SCORE:    0.00 PKD
ROOT
HETATM    1  C   UNL     1     -12.276  12.957  66.717  1.00  0.00    -0.204 C  
HETATM    2  C   UNL     1     -13.276  12.467  65.845  1.00  0.00     2.282 C  
HETATM    3  C   UNL     1     -12.678  11.425  66.742  1.00  0.00     4.035 C  
HETATM    4  C   UNL     1     -11.520  12.050  68.334  1.00  0.00    -0.301 C  
HETATM    5  C   UNL     1      -8.681  11.497  63.964  1.00  0.00     0.528 C  
HETATM    6  O   UNL     1     -11.313  13.494  68.597  1.00  0.00    -0.251 OA 
HETATM    7  C   UNL     1     -12.849  11.827  68.188  1.00  0.00     2.677 C  
HETATM    8  C   UNL     1     -12.100  10.039  68.184  1.00  0.00     1.849 C  
HETATM    9  H   UNL     1     -10.781  13.781  69.330  1.00  0.00     0.000 HD 
HETATM   10  C   UNL     1      -8.002  11.076  62.878  1.00  0.00     0.116 C  
HETATM   11  C   UNL     1      -7.466   9.704  62.891  1.00  0.00    -0.116 C  
HETATM   12  C   UNL     1     -14.082  12.324  68.921  1.00  0.00    10.330 C  
HETATM   13  C   UNL     1     -10.516  10.035  67.379  1.00  0.00    -0.260 C  
HETATM   14  C   UNL     1      -8.385   8.685  63.479  1.00  0.00    -0.117 C  
HETATM   15  C   UNL     1      -7.607  10.975  66.094  1.00  0.00    -0.084 C  
HETATM   16  O   UNL     1      -9.581  10.450  68.391  1.00  0.00    -0.141 OA 
HETATM   17  C   UNL     1     -10.233  10.916  65.975  1.00  0.00    -0.311 C  
HETATM   18  C   UNL     1      -8.839  10.628  65.235  1.00  0.00    -0.204 C  
HETATM   19  C   UNL     1      -8.780   9.079  64.900  1.00  0.00    -0.200 C  
HETATM   20  H   UNL     1      -8.734  10.449  67.961  1.00  0.00     0.000 HD 
HETATM   21  C   UNL     1     -10.651  12.520  66.032  1.00  0.00    -0.289 C  
HETATM   22  C   UNL     1     -10.536  13.109  64.612  1.00  0.00    -0.410 C  
HETATM   23  O   UNL     1      -6.370   9.447  62.409  1.00  0.00    -0.097 OA 
HETATM   24  C   UNL     1      -9.149  12.931  64.006  1.00  0.00     2.126 C  
ENDROOT
BRANCH   4  25
HETATM   25  C   UNL     1     -11.549  11.720  70.067  1.00  0.00    -0.236 C  
HETATM   26  O   UNL     1     -12.328  12.243  70.883  1.00  0.00    -0.376 OA 
BRANCH  25  27
HETATM   27  C   UNL     1     -10.517  10.743  70.689  1.00  0.00     1.036 C  
BRANCH  27  28
HETATM   28  O   UNL     1     -10.148   9.739  69.684  1.00  0.00    -0.200 OA 
BRANCH  28  29
HETATM   29  C   UNL     1     -10.406   8.415  69.919  1.00  0.00    -0.210 C  
HETATM   30  O   UNL     1     -10.593   7.593  69.027  1.00  0.00    -0.216 OA 
BRANCH  29  31
HETATM   31  C   UNL     1     -10.443   8.124  71.445  1.00  0.00    -0.212 C  
BRANCH  31  32
HETATM   32  N   UNL     1     -11.575   7.248  71.899  1.00  0.00    -0.269 NA 
BRANCH  32  33
HETATM   33  C   UNL     1     -11.372   6.708  73.252  1.00  0.00     0.126 C  
HETATM   34  C   UNL     1     -10.239   7.332  74.060  1.00  0.00    -0.194 C  
ENDBRANCH  32  33
BRANCH  32  35
HETATM   35  C   UNL     1     -12.868   7.952  71.743  1.00  0.00    -0.328 C  
HETATM   36  C   UNL     1     -13.852   7.784  72.907  1.00  0.00     0.804 C  
ENDBRANCH  32  35
ENDBRANCH  31  32
ENDBRANCH  29  31
ENDBRANCH  28  29
ENDBRANCH  27  28
ENDBRANCH  25  27
ENDBRANCH   4  25
TORSDOF 8
ENDMDL
MODEL      165
REMARK 921   NORMALIZED FREE ENERGY PREDICTED BY IDOCK:   19.88 KCAL/MOL
REMARK 922        TOTAL FREE ENERGY PREDICTED BY IDOCK:   29.03 KCAL/MOL
REMARK 923 INTER-LIGAND FREE ENERGY PREDICTED BY IDOCK:   27.04 KCAL/MOL
REMARK 924 INTRA-LIGAND FREE ENERGY PREDICTED BY IDOCK:    1.99 KCAL/MOL
REMARK 927      BINDING AFFINITY PREDICTED BY RF-SCORE:    0.00 PKD
ROOT
HETATM    1  C   UNL     1     -12.687  13.653  68.203  1.00  0.00     0.989 C  
HETATM    2  C   UNL     1     -12.706  12.953  66.974  1.00  0.00     1.120 C  
HETATM    3  C   UNL     1     -11.526  12.638  67.842  1.00  0.00    -0.360 C  
HETATM    4  C   UNL     1     -11.567  13.253  69.814  1.00  0.00    -0.227 C  
HETATM    5  C   UNL     1      -9.649  16.971  66.657  1.00  0.00    -0.279 C  
HETATM    6  O   UNL     1     -12.750  13.961  70.359  1.00  0.00    -0.305 OA 
HETATM    7  C   UNL     1     -11.992  12.129  69.186  1.00  0.00    -0.311 C  
HETATM    8  C   UNL     1     -10.062  11.949  69.153  1.00  0.00     0.148 C  
HETATM    9  H   UNL     1     -12.769  14.244  71.266  1.00  0.00     0.000 HD 
HETATM   10  C   UNL     1      -8.935  17.748  65.818  1.00  0.00     0.309 C  
HETATM   11  C   UNL     1      -7.472  17.572  65.795  1.00  0.00     0.043 C  
HETATM   12  C   UNL     1     -13.026  11.070  69.520  1.00  0.00     0.651 C  
HETATM   13  C   UNL     1      -9.297  13.540  68.952  1.00  0.00     0.193 C  
HETATM   14  C   UNL     1      -7.018  16.151  65.859  1.00  0.00     2.148 C  
HETATM   15  C   UNL     1      -8.730  16.806  68.913  1.00  0.00    -0.224 C  
HETATM   16  O   UNL     1      -9.246  14.101  70.277  1.00  0.00     1.017 OA 
HETATM   17  C   UNL     1      -9.910  14.691  67.892  1.00  0.00    -0.217 C  
HETATM   18  C   UNL     1      -8.985  15.977  67.639  1.00  0.00    -0.193 C  
HETATM   19  C   UNL     1      -7.583  15.466  67.102  1.00  0.00    -0.238 C  
HETATM   20  H   UNL     1      -8.837  14.952  70.169  1.00  0.00     0.000 HD 
HETATM   21  C   UNL     1     -11.523  15.039  68.057  1.00  0.00    -0.357 C  
HETATM   22  C   UNL     1     -11.958  15.931  66.877  1.00  0.00     0.933 C  
HETATM   23  O   UNL     1      -6.720  18.532  65.684  1.00  0.00    -0.276 OA 
HETATM   24  C   UNL     1     -11.135  17.209  66.765  1.00  0.00     0.334 C  
ENDROOT
BRANCH   4  25
HETATM   25  C   UNL     1     -11.328  12.428  71.355  1.00  0.00     3.157 C  
HETATM   26  O   UNL     1     -11.418  12.960  72.474  1.00  0.00     3.970 OA 
BRANCH  25  27
HETATM   27  C   UNL     1     -10.929  10.929  71.378  1.00  0.00     2.186 C  
BRANCH  27  28
HETATM   28  O   UNL     1      -9.565  10.809  71.906  1.00  0.00     5.697 OA 
BRANCH  28  29
HETATM   29  C   UNL     1      -9.212   9.704  72.635  1.00  0.00     3.592 C  
HETATM   30  O   UNL     1      -9.372   9.615  73.848  1.00  0.00     4.200 OA 
BRANCH  29  31
HETATM   31  C   UNL     1      -8.581   8.620  71.719  1.00  0.00    -0.173 C  
BRANCH  31  32
HETATM   32  N   UNL     1      -8.968   8.706  70.270  1.00  0.00    -0.146 NA 
BRANCH  32  33
HETATM   33  C   UNL     1      -8.101   7.898  69.398  1.00  0.00    -0.125 C  
HETATM   34  C   UNL     1      -6.598   8.075  69.597  1.00  0.00    -0.038 C  
ENDBRANCH  32  33
BRANCH  32  35
HETATM   35  C   UNL     1     -10.407   8.401  70.101  1.00  0.00    -0.211 C  
HETATM   36  C   UNL     1     -10.887   8.287  68.649  1.00  0.00     0.031 C  
ENDBRANCH  32  35
ENDBRANCH  31  32
ENDBRANCH  29  31
ENDBRANCH  28  29
ENDBRANCH  27  28
ENDBRANCH  25  27
ENDBRANCH   4  25
TORSDOF 8
ENDMDL
MODEL      166
REMARK 921   NORMALIZED FREE ENERGY PREDICTED BY IDOCK:   20.27 KCAL/MOL
REMARK 922        TOTAL FREE ENERGY PREDICTED BY IDOCK:   29.60 KCAL/MOL
REMARK 923 INTER-LIGAND FREE ENERGY PREDICTED BY IDOCK:   28.72 KCAL/MOL
REMARK 924 INTRA-LIGAND FREE ENERGY PREDICTED BY IDOCK:    0.89 KCAL/MOL
REMARK 927      BINDING AFFINITY PREDICTED BY RF-SCORE:    0.00 PKD
ROOT
HETATM    1  C   UNL     1     -11.639   5.617  64.536  1.00  0.00     4.745 C  
HETATM    2  C   UNL     1     -12.061   6.166  63.303  1.00  0.00    10.420 C  
HETATM    3  C   UNL     1     -10.757   5.430  63.233  1.00  0.00     2.858 C  
HETATM    4  C   UNL     1     -10.219   4.236  64.830  1.00  0.00    -0.175 C  
HETATM    5  C   UNL     1      -8.651   9.193  65.493  1.00  0.00    -0.192 C  
HETATM    6  O   UNL     1     -11.117   4.090  66.000  1.00  0.00     0.164 OA 
HETATM    7  C   UNL     1     -10.939   4.007  63.705  1.00  0.00     0.068 C  
HETATM    8  C   UNL     1      -9.123   4.154  63.042  1.00  0.00    -0.121 C  
HETATM    9  H   UNL     1     -10.869   3.540  66.735  1.00  0.00     0.000 HD 
HETATM   10  C   UNL     1      -8.068  10.407  65.450  1.00  0.00    -0.152 C  
HETATM   11  C   UNL     1      -6.697  10.494  64.917  1.00  0.00     0.021 C  
HETATM   12  C   UNL     1     -11.995   2.984  63.327  1.00  0.00     2.385 C  
HETATM   13  C   UNL     1      -8.218   5.359  63.983  1.00  0.00    -0.125 C  
HETATM   14  C   UNL     1      -6.443   9.643  63.717  1.00  0.00    -0.111 C  
HETATM   15  C   UNL     1      -7.230   7.420  66.385  1.00  0.00    -0.079 C  
HETATM   16  O   UNL     1      -7.760   4.655  65.151  1.00  0.00    -0.083 OA 
HETATM   17  C   UNL     1      -8.910   6.816  64.456  1.00  0.00     0.604 C  
HETATM   18  C   UNL     1      -7.907   7.898  65.087  1.00  0.00    -0.114 C  
HETATM   19  C   UNL     1      -6.770   8.183  64.019  1.00  0.00    -0.066 C  
HETATM   20  H   UNL     1      -7.276   5.300  65.655  1.00  0.00     0.000 HD 
HETATM   21  C   UNL     1     -10.366   6.703  65.243  1.00  0.00     2.710 C  
HETATM   22  C   UNL     1     -10.953   8.120  65.398  1.00  0.00     5.536 C  
HETATM   23  O   UNL     1      -5.870  11.247  65.415  1.00  0.00    -0.035 OA 
HETATM   24  C   UNL     1     -10.014   9.074  66.128  1.00  0.00    -0.311 C  
ENDROOT
BRANCH   4  25
HETATM   25  C   UNL     1      -9.720   2.551  64.979  1.00  0.00     0.115 C  
HETATM   26  O   UNL     1      -9.195   1.876  64.077  1.00  0.00    -0.104 OA 
BRANCH  25  27
HETATM   27  C   UNL     1      -9.970   1.781  66.303  1.00  0.00     1.149 C  
BRANCH  27  28
HETATM   28  O   UNL     1      -8.685   1.574  66.982  1.00  0.00    -0.097 OA 
BRANCH  28  29
HETATM   29  C   UNL     1      -8.516   2.017  68.267  1.00  0.00    -0.062 C  
HETATM   30  O   UNL     1      -9.066   1.502  69.237  1.00  0.00    -0.081 OA 
BRANCH  29  31
HETATM   31  C   UNL     1      -7.566   3.245  68.306  1.00  0.00    -0.056 C  
BRANCH  31  32
HETATM   32  N   UNL     1      -6.102   2.915  68.350  1.00  0.00    -0.024 NA 
BRANCH  32  33
HETATM   33  C   UNL     1      -5.637   2.215  67.143  1.00  0.00    -0.018 C  
HETATM   34  C   UNL     1      -6.080   2.810  65.810  1.00  0.00    -0.023 C  
ENDBRANCH  32  33
BRANCH  32  35
HETATM   35  C   UNL     1      -5.309   4.128  68.659  1.00  0.00    -0.012 C  
HETATM   36  C   UNL     1      -5.859   5.001  69.793  1.00  0.00    -0.017 C  
ENDBRANCH  32  35
ENDBRANCH  31  32
ENDBRANCH  29  31
ENDBRANCH  28  29
ENDBRANCH  27  28
ENDBRANCH  25  27
ENDBRANCH   4  25
TORSDOF 8
ENDMDL
MODEL      167
REMARK 921   NORMALIZED FREE ENERGY PREDICTED BY IDOCK:   23.91 KCAL/MOL
REMARK 922        TOTAL FREE ENERGY PREDICTED BY IDOCK:   34.94 KCAL/MOL
REMARK 923 INTER-LIGAND FREE ENERGY PREDICTED BY IDOCK:   33.81 KCAL/MOL
REMARK 924 INTRA-LIGAND FREE ENERGY PREDICTED BY IDOCK:    1.13 KCAL/MOL
REMARK 927      BINDING AFFINITY PREDICTED BY RF-SCORE:    0.00 PKD
ROOT
HETATM    1  C   UNL     1     -11.885   5.352  67.465  1.00  0.00     3.770 C  
HETATM    2  C   UNL     1     -12.603   4.948  68.614  1.00  0.00    14.107 C  
HETATM    3  C   UNL     1     -11.583   6.015  68.871  1.00  0.00     0.460 C  
HETATM    4  C   UNL     1     -10.755   6.991  67.250  1.00  0.00    -0.342 C  
HETATM    5  C   UNL     1      -8.110   2.629  68.451  1.00  0.00    -0.068 C  
HETATM    6  O   UNL     1     -11.186   6.662  65.870  1.00  0.00     0.841 OA 
HETATM    7  C   UNL     1     -11.861   7.218  68.001  1.00  0.00     1.696 C  
HETATM    8  C   UNL     1     -10.411   7.706  69.192  1.00  0.00    -0.217 C  
HETATM    9  H   UNL     1     -10.805   7.111  65.124  1.00  0.00     0.000 HD 
HETATM   10  C   UNL     1      -7.354   1.654  68.993  1.00  0.00    -0.043 C  
HETATM   11  C   UNL     1      -6.276   2.051  69.915  1.00  0.00    -0.024 C  
HETATM   12  C   UNL     1     -13.161   7.961  67.754  1.00  0.00    13.948 C  
HETATM   13  C   UNL     1      -9.011   6.645  68.928  1.00  0.00    -0.130 C  
HETATM   14  C   UNL     1      -6.642   3.148  70.860  1.00  0.00    -0.031 C  
HETATM   15  C   UNL     1      -6.843   4.527  67.583  1.00  0.00    -0.055 C  
HETATM   16  O   UNL     1      -8.314   7.217  67.807  1.00  0.00    -0.117 OA 
HETATM   17  C   UNL     1      -9.186   4.991  68.680  1.00  0.00    -0.158 C  
HETATM   18  C   UNL     1      -7.832   4.131  68.697  1.00  0.00    -0.072 C  
HETATM   19  C   UNL     1      -7.119   4.378  70.092  1.00  0.00    -0.045 C  
HETATM   20  H   UNL     1      -7.565   6.649  67.665  1.00  0.00     0.000 HD 
HETATM   21  C   UNL     1     -10.256   4.548  67.493  1.00  0.00    -0.023 C  
HETATM   22  C   UNL     1     -10.457   3.021  67.557  1.00  0.00     2.713 C  
HETATM   23  O   UNL     1      -5.194   1.477  69.911  1.00  0.00    -0.006 OA 
HETATM   24  C   UNL     1      -9.151   2.245  67.429  1.00  0.00    -0.182 C  
ENDROOT
BRANCH   4  25
HETATM   25  C   UNL     1     -10.579   8.690  66.808  1.00  0.00    -0.153 C  
HETATM   26  O   UNL     1     -10.243   9.108  65.687  1.00  0.00    -0.041 OA 
BRANCH  25  27
HETATM   27  C   UNL     1     -10.803   9.796  67.873  1.00  0.00    -0.242 C  
BRANCH  27  28
HETATM   28  O   UNL     1     -10.557  11.105  67.257  1.00  0.00    -0.213 OA 
BRANCH  28  29
HETATM   29  C   UNL     1     -10.224  12.175  68.045  1.00  0.00    -0.201 C  
HETATM   30  O   UNL     1     -10.835  12.480  69.065  1.00  0.00    -0.211 OA 
BRANCH  29  31
HETATM   31  C   UNL     1      -9.003  12.932  67.456  1.00  0.00    -0.193 C  
BRANCH  31  32
HETATM   32  N   UNL     1      -8.801  14.323  67.985  1.00  0.00    -0.170 NA 
BRANCH  32  33
HETATM   33  C   UNL     1      -7.662  14.423  68.911  1.00  0.00    -0.128 C  
HETATM   34  C   UNL     1      -6.749  13.203  68.985  1.00  0.00    -0.103 C  
ENDBRANCH  32  33
BRANCH  32  35
HETATM   35  C   UNL     1      -8.728  15.295  66.869  1.00  0.00    -0.258 C  
HETATM   36  C   UNL     1     -10.052  15.977  66.505  1.00  0.00    -0.297 C  
ENDBRANCH  32  35
ENDBRANCH  31  32
ENDBRANCH  29  31
ENDBRANCH  28  29
ENDBRANCH  27  28
ENDBRANCH  25  27
ENDBRANCH   4  25
TORSDOF 8
ENDMDL
MODEL      168
REMARK 921   NORMALIZED FREE ENERGY PREDICTED BY IDOCK:   26.15 KCAL/MOL
REMARK 922        TOTAL FREE ENERGY PREDICTED BY IDOCK:   38.24 KCAL/MOL
REMARK 923 INTER-LIGAND FREE ENERGY PREDICTED BY IDOCK:   21.66 KCAL/MOL
REMARK 924 INTRA-LIGAND FREE ENERGY PREDICTED BY IDOCK:   16.58 KCAL/MOL
REMARK 927      BINDING AFFINITY PREDICTED BY RF-SCORE:    0.00 PKD
ROOT
HETATM    1  C   UNL     1     -12.278  12.957  66.717  1.00  0.00    -0.204 C  
HETATM    2  C   UNL     1     -13.273  12.466  65.841  1.00  0.00     2.663 C  
HETATM    3  C   UNL     1     -12.682  11.425  66.744  1.00  0.00     4.035 C  
HETATM    4  C   UNL     1     -11.532  12.053  68.341  1.00  0.00    -0.301 C  
HETATM    5  C   UNL     1      -8.670  11.487  63.987  1.00  0.00     0.528 C  
HETATM    6  O   UNL     1     -11.326  13.498  68.601  1.00  0.00    -0.251 OA 
HETATM    7  C   UNL     1     -12.861  11.831  68.188  1.00  0.00     2.677 C  
HETATM    8  C   UNL     1     -12.112  10.042  68.192  1.00  0.00     1.849 C  
HETATM    9  H   UNL     1     -10.797  13.787  69.336  1.00  0.00     0.000 HD 
HETATM   10  C   UNL     1      -7.985  11.063  62.907  1.00  0.00     0.116 C  
HETATM   11  C   UNL     1      -7.450   9.690  62.926  1.00  0.00    -0.116 C  
HETATM   12  C   UNL     1     -14.097  12.331  68.913  1.00  0.00    10.330 C  
HETATM   13  C   UNL     1     -10.524  10.036  67.396  1.00  0.00    -0.260 C  
HETATM   14  C   UNL     1      -8.373   8.673  63.511  1.00  0.00    -0.117 C  
HETATM   15  C   UNL     1      -7.608  10.969  66.124  1.00  0.00    -0.084 C  
HETATM   16  O   UNL     1      -9.594  10.453  68.412  1.00  0.00    -0.141 OA 
HETATM   17  C   UNL     1     -10.233  10.913  65.992  1.00  0.00    -0.311 C  
HETATM   18  C   UNL     1      -8.835  10.622  65.260  1.00  0.00    -0.204 C  
HETATM   19  C   UNL     1      -8.775   9.072  64.929  1.00  0.00    -0.200 C  
HETATM   20  H   UNL     1      -8.745  10.449  67.986  1.00  0.00     0.000 HD 
HETATM   21  C   UNL     1     -10.650  12.516  66.042  1.00  0.00    -0.289 C  
HETATM   22  C   UNL     1     -10.527  13.102  64.621  1.00  0.00    -0.411 C  
HETATM   23  O   UNL     1      -6.351   9.432  62.450  1.00  0.00    -0.097 OA 
HETATM   24  C   UNL     1      -9.137  12.921  64.024  1.00  0.00     2.126 C  
ENDROOT
BRANCH   4  25
HETATM   25  C   UNL     1     -11.571  11.728  70.074  1.00  0.00    -0.236 C  
HETATM   26  O   UNL     1     -12.353  12.253  70.884  1.00  0.00    -0.376 OA 
BRANCH  25  27
HETATM   27  C   UNL     1     -10.543  10.752  70.704  1.00  0.00     0.845 C  
BRANCH  27  28
HETATM   28  O   UNL     1      -9.208  11.067  70.183  1.00  0.00     1.013 OA 
BRANCH  28  29
HETATM   29  C   UNL     1      -8.518  10.126  69.466  1.00  0.00    -0.168 C  
HETATM   30  O   UNL     1      -7.678  10.406  68.615  1.00  0.00    -0.091 OA 
BRANCH  29  31
HETATM   31  C   UNL     1      -8.963   8.693  69.867  1.00  0.00    -0.149 C  
BRANCH  31  32
HETATM   32  N   UNL     1      -9.183   7.750  68.720  1.00  0.00    -0.140 NA 
BRANCH  32  33
HETATM   33  C   UNL     1      -9.244   6.341  69.141  1.00  0.00    -0.128 C  
HETATM   34  C   UNL     1      -8.115   5.444  68.642  1.00  0.00    -0.091 C  
ENDBRANCH  32  33
BRANCH  32  35
HETATM   35  C   UNL     1     -10.361   8.169  67.926  1.00  0.00    -0.220 C  
HETATM   36  C   UNL     1     -11.289   7.032  67.478  1.00  0.00     0.066 C  
ENDBRANCH  32  35
ENDBRANCH  31  32
ENDBRANCH  29  31
ENDBRANCH  28  29
ENDBRANCH  27  28
ENDBRANCH  25  27
ENDBRANCH   4  25
TORSDOF 8
ENDMDL
MODEL      169
REMARK 921   NORMALIZED FREE ENERGY PREDICTED BY IDOCK:   28.98 KCAL/MOL
REMARK 922        TOTAL FREE ENERGY PREDICTED BY IDOCK:   42.39 KCAL/MOL
REMARK 923 INTER-LIGAND FREE ENERGY PREDICTED BY IDOCK:   38.98 KCAL/MOL
REMARK 924 INTRA-LIGAND FREE ENERGY PREDICTED BY IDOCK:    3.41 KCAL/MOL
REMARK 927      BINDING AFFINITY PREDICTED BY RF-SCORE:    0.00 PKD
ROOT
HETATM    1  C   UNL     1      -8.547  12.893  65.362  1.00  0.00     1.793 C  
HETATM    2  C   UNL     1      -7.873  13.151  64.146  1.00  0.00     9.960 C  
HETATM    3  C   UNL     1      -7.215  13.751  65.352  1.00  0.00     8.926 C  
HETATM    4  C   UNL     1      -7.836  13.126  67.220  1.00  0.00    -0.117 C  
HETATM    5  C   UNL     1     -10.729  17.120  65.444  1.00  0.00    -0.097 C  
HETATM    6  O   UNL     1      -8.885  12.088  67.359  1.00  0.00    -0.165 OA 
HETATM    7  C   UNL     1      -6.894  12.671  66.358  1.00  0.00     1.542 C  
HETATM    8  C   UNL     1      -6.119  14.317  67.029  1.00  0.00     1.172 C  
HETATM    9  H   UNL     1      -9.171  11.801  68.219  1.00  0.00     0.000 HD 
HETATM   10  C   UNL     1     -11.233  18.297  65.025  1.00  0.00     1.616 C  
HETATM   11  C   UNL     1     -10.608  19.532  65.531  1.00  0.00    -0.208 C  
HETATM   12  C   UNL     1      -6.216  11.328  66.161  1.00  0.00    -0.014 C  
HETATM   13  C   UNL     1      -7.388  15.529  67.308  1.00  0.00    -0.214 C  
HETATM   14  C   UNL     1      -9.117  19.488  65.602  1.00  0.00     0.342 C  
HETATM   15  C   UNL     1     -10.312  16.995  67.847  1.00  0.00    -0.338 C  
HETATM   16  O   UNL     1      -7.920  15.221  68.608  1.00  0.00    -0.133 OA 
HETATM   17  C   UNL     1      -8.660  15.743  66.230  1.00  0.00    -0.307 C  
HETATM   18  C   UNL     1      -9.589  17.026  66.487  1.00  0.00    -0.295 C  
HETATM   19  C   UNL     1      -8.659  18.310  66.459  1.00  0.00    -0.283 C  
HETATM   20  H   UNL     1      -8.599  15.869  68.757  1.00  0.00     0.000 HD 
HETATM   21  C   UNL     1      -9.497  14.373  65.818  1.00  0.00    -0.130 C  
HETATM   22  C   UNL     1     -10.466  14.714  64.668  1.00  0.00    -0.207 C  
HETATM   23  O   UNL     1     -11.282  20.513  65.817  1.00  0.00     0.540 OA 
HETATM   24  C   UNL     1     -11.421  15.850  65.015  1.00  0.00    -0.079 C  
ENDROOT
BRANCH   4  25
HETATM   25  C   UNL     1      -6.996  12.493  68.636  1.00  0.00    -0.091 C  
HETATM   26  O   UNL     1      -7.516  11.800  69.527  1.00  0.00     0.106 OA 
BRANCH  25  27
HETATM   27  C   UNL     1      -5.499  12.830  68.866  1.00  0.00    -0.067 C  
BRANCH  27  28
HETATM   28  O   UNL     1      -5.227  12.824  70.308  1.00  0.00    -0.091 OA 
BRANCH  28  29
HETATM   29  C   UNL     1      -5.718  13.831  71.097  1.00  0.00    -0.212 C  
HETATM   30  O   UNL     1      -5.893  13.718  72.306  1.00  0.00    -0.431 OA 
BRANCH  29  31
HETATM   31  C   UNL     1      -6.029  15.093  70.247  1.00  0.00    -0.139 C  
BRANCH  31  32
HETATM   32  N   UNL     1      -6.101  16.379  71.020  1.00  0.00     0.691 NA 
BRANCH  32  33
HETATM   33  C   UNL     1      -7.471  16.723  71.432  1.00  0.00     6.440 C  
HETATM   34  C   UNL     1      -8.315  17.465  70.400  1.00  0.00     3.625 C  
ENDBRANCH  32  33
BRANCH  32  35
HETATM   35  C   UNL     1      -5.144  16.356  72.150  1.00  0.00     0.809 C  
HETATM   36  C   UNL     1      -5.701  16.849  73.491  1.00  0.00     5.034 C  
ENDBRANCH  32  35
ENDBRANCH  31  32
ENDBRANCH  29  31
ENDBRANCH  28  29
ENDBRANCH  27  28
ENDBRANCH  25  27
ENDBRANCH   4  25
TORSDOF 8
ENDMDL
MODEL      170
REMARK 921   NORMALIZED FREE ENERGY PREDICTED BY IDOCK:   34.12 KCAL/MOL
REMARK 922        TOTAL FREE ENERGY PREDICTED BY IDOCK:   49.93 KCAL/MOL
REMARK 923 INTER-LIGAND FREE ENERGY PREDICTED BY IDOCK:   49.15 KCAL/MOL
REMARK 924 INTRA-LIGAND FREE ENERGY PREDICTED BY IDOCK:    0.78 KCAL/MOL
REMARK 927      BINDING AFFINITY PREDICTED BY RF-SCORE:    0.00 PKD
ROOT
HETATM    1  C   UNL     1     -11.812   4.597  67.879  1.00  0.00     7.681 C  
HETATM    2  C   UNL     1     -12.657   4.032  68.862  1.00  0.00    21.032 C  
HETATM    3  C   UNL     1     -11.867   5.214  69.337  1.00  0.00     4.697 C  
HETATM    4  C   UNL     1     -10.915   6.387  67.928  1.00  0.00    -0.325 C  
HETATM    5  C   UNL     1      -7.916   2.372  69.463  1.00  0.00    -0.053 C  
HETATM    6  O   UNL     1     -11.039   6.081  66.483  1.00  0.00    -0.702 OA 
HETATM    7  C   UNL     1     -12.158   6.415  68.468  1.00  0.00     2.271 C  
HETATM    8  C   UNL     1     -11.033   7.030  69.922  1.00  0.00    -0.296 C  
HETATM    9  H   UNL     1     -10.601   6.621  65.835  1.00  0.00     0.000 HD 
HETATM   10  C   UNL     1      -7.135   1.482  70.105  1.00  0.00    -0.033 C  
HETATM   11  C   UNL     1      -6.309   1.971  71.223  1.00  0.00    -0.019 C  
HETATM   12  C   UNL     1     -13.488   6.983  68.008  1.00  0.00    14.993 C  
HETATM   13  C   UNL     1      -9.467   6.190  69.889  1.00  0.00    -0.152 C  
HETATM   14  C   UNL     1      -6.995   2.950  72.117  1.00  0.00    -0.030 C  
HETATM   15  C   UNL     1      -6.807   4.474  68.904  1.00  0.00    -0.050 C  
HETATM   16  O   UNL     1      -8.673   6.917  68.935  1.00  0.00    -0.130 OA 
HETATM   17  C   UNL     1      -9.351   4.545  69.562  1.00  0.00    -0.221 C  
HETATM   18  C   UNL     1      -7.910   3.882  69.802  1.00  0.00    -0.051 C  
HETATM   19  C   UNL     1      -7.502   4.144  71.312  1.00  0.00    -0.055 C  
HETATM   20  H   UNL     1      -7.836   6.467  68.917  1.00  0.00     0.000 HD 
HETATM   21  C   UNL     1     -10.114   4.027  68.184  1.00  0.00     0.200 C  
HETATM   22  C   UNL     1     -10.097   2.485  68.162  1.00  0.00     1.170 C  
HETATM   23  O   UNL     1      -5.172   1.554  71.401  1.00  0.00    -0.003 OA 
HETATM   24  C   UNL     1      -8.690   1.907  68.253  1.00  0.00    -0.118 C  
ENDROOT
BRANCH   4  25
HETATM   25  C   UNL     1     -10.914   8.117  67.580  1.00  0.00     0.136 C  
HETATM   26  O   UNL     1     -10.520   8.634  66.521  1.00  0.00    -0.249 OA 
BRANCH  25  27
HETATM   27  C   UNL     1     -11.390   9.126  68.659  1.00  0.00     0.466 C  
BRANCH  27  28
HETATM   28  O   UNL     1     -11.110  10.488  68.191  1.00  0.00    -0.253 OA 
BRANCH  28  29
HETATM   29  C   UNL     1     -10.701  11.443  69.083  1.00  0.00    -0.189 C  
HETATM   30  O   UNL     1     -11.468  12.039  69.835  1.00  0.00    -0.253 OA 
BRANCH  29  31
HETATM   31  C   UNL     1      -9.167  11.665  68.988  1.00  0.00     0.187 C  
BRANCH  31  32
HETATM   32  N   UNL     1      -8.476  10.875  67.914  1.00  0.00    -0.127 NA 
BRANCH  32  33
HETATM   33  C   UNL     1      -8.288  11.640  66.672  1.00  0.00    -0.154 C  
HETATM   34  C   UNL     1      -8.233  10.824  65.383  1.00  0.00    -0.077 C  
ENDBRANCH  32  33
BRANCH  32  35
HETATM   35  C   UNL     1      -7.216  10.292  68.431  1.00  0.00    -0.080 C  
HETATM   36  C   UNL     1      -6.290  11.273  69.160  1.00  0.00    -0.064 C  
ENDBRANCH  32  35
ENDBRANCH  31  32
ENDBRANCH  29  31
ENDBRANCH  28  29
ENDBRANCH  27  28
ENDBRANCH  25  27
ENDBRANCH   4  25
TORSDOF 8
ENDMDL
MODEL      171
REMARK 921   NORMALIZED FREE ENERGY PREDICTED BY IDOCK:   34.50 KCAL/MOL
REMARK 922        TOTAL FREE ENERGY PREDICTED BY IDOCK:   50.48 KCAL/MOL
REMARK 923 INTER-LIGAND FREE ENERGY PREDICTED BY IDOCK:   45.66 KCAL/MOL
REMARK 924 INTRA-LIGAND FREE ENERGY PREDICTED BY IDOCK:    4.82 KCAL/MOL
REMARK 927      BINDING AFFINITY PREDICTED BY RF-SCORE:    0.00 PKD
ROOT
HETATM    1  C   UNL     1     -11.924   5.798  64.459  1.00  0.00     6.191 C  
HETATM    2  C   UNL     1     -12.498   6.221  63.239  1.00  0.00    11.591 C  
HETATM    3  C   UNL     1     -11.215   5.462  63.083  1.00  0.00     3.653 C  
HETATM    4  C   UNL     1     -10.481   4.433  64.717  1.00  0.00    -0.061 C  
HETATM    5  C   UNL     1      -8.831   9.408  64.650  1.00  0.00    -0.238 C  
HETATM    6  O   UNL     1     -11.223   4.424  66.000  1.00  0.00    -0.333 OA 
HETATM    7  C   UNL     1     -11.339   4.099  63.722  1.00  0.00     0.674 C  
HETATM    8  C   UNL     1      -9.621   4.148  62.824  1.00  0.00    -0.137 C  
HETATM    9  H   UNL     1     -10.885   3.950  66.751  1.00  0.00     0.000 HD 
HETATM   10  C   UNL     1      -8.256  10.602  64.406  1.00  0.00     0.010 C  
HETATM   11  C   UNL     1      -6.963  10.611  63.698  1.00  0.00     0.217 C  
HETATM   12  C   UNL     1     -12.435   3.059  63.590  1.00  0.00     6.062 C  
HETATM   13  C   UNL     1      -8.601   5.431  63.511  1.00  0.00    -0.001 C  
HETATM   14  C   UNL     1      -6.866   9.636  62.572  1.00  0.00    -0.101 C  
HETATM   15  C   UNL     1      -7.312   7.715  65.538  1.00  0.00    -0.074 C  
HETATM   16  O   UNL     1      -8.000   4.845  64.680  1.00  0.00    -0.090 OA 
HETATM   17  C   UNL     1      -9.225   6.940  63.911  1.00  0.00     1.904 C  
HETATM   18  C   UNL     1      -8.148   8.066  64.292  1.00  0.00    -0.117 C  
HETATM   19  C   UNL     1      -7.154   8.220  63.066  1.00  0.00    -0.091 C  
HETATM   20  H   UNL     1      -7.455   5.532  65.048  1.00  0.00     0.000 HD 
HETATM   21  C   UNL     1     -10.569   6.932  64.882  1.00  0.00     5.610 C  
HETATM   22  C   UNL     1     -11.129   8.366  64.960  1.00  0.00     7.990 C  
HETATM   23  O   UNL     1      -6.078  11.399  64.006  1.00  0.00     0.875 OA 
HETATM   24  C   UNL     1     -10.104   9.377  65.460  1.00  0.00     0.029 C  
ENDROOT
BRANCH   4  25
HETATM   25  C   UNL     1      -9.970   2.765  64.979  1.00  0.00     0.257 C  
HETATM   26  O   UNL     1      -9.274   2.097  64.196  1.00  0.00    -0.107 OA 
BRANCH  25  27
HETATM   27  C   UNL     1     -10.431   2.003  66.250  1.00  0.00     2.980 C  
BRANCH  27  28
HETATM   28  O   UNL     1      -9.313   1.939  67.197  1.00  0.00    -0.089 OA 
BRANCH  28  29
HETATM   29  C   UNL     1      -9.446   2.492  68.444  1.00  0.00    -0.154 C  
HETATM   30  O   UNL     1     -10.062   1.955  69.359  1.00  0.00     0.331 OA 
BRANCH  29  31
HETATM   31  C   UNL     1      -8.736   3.872  68.512  1.00  0.00    -0.100 C  
BRANCH  31  32
HETATM   32  N   UNL     1      -9.647   5.047  68.723  1.00  0.00    -0.140 NA 
BRANCH  32  33
HETATM   33  C   UNL     1      -9.379   5.759  69.983  1.00  0.00    -0.146 C  
HETATM   34  C   UNL     1      -8.841   7.180  69.848  1.00  0.00    -0.142 C  
ENDBRANCH  32  33
BRANCH  32  35
HETATM   35  C   UNL     1      -9.625   5.936  67.539  1.00  0.00    -0.112 C  
HETATM   36  C   UNL     1     -10.975   6.555  67.158  1.00  0.00    -0.480 C  
ENDBRANCH  32  35
ENDBRANCH  31  32
ENDBRANCH  29  31
ENDBRANCH  28  29
ENDBRANCH  27  28
ENDBRANCH  25  27
ENDBRANCH   4  25
TORSDOF 8
ENDMDL
MODEL      172
REMARK 921   NORMALIZED FREE ENERGY PREDICTED BY IDOCK:   42.74 KCAL/MOL
REMARK 922        TOTAL FREE ENERGY PREDICTED BY IDOCK:   62.58 KCAL/MOL
REMARK 923 INTER-LIGAND FREE ENERGY PREDICTED BY IDOCK:   55.08 KCAL/MOL
REMARK 924 INTRA-LIGAND FREE ENERGY PREDICTED BY IDOCK:    7.49 KCAL/MOL
REMARK 927      BINDING AFFINITY PREDICTED BY RF-SCORE:    0.00 PKD
ROOT
HETATM    1  C   UNL     1     -12.018  15.165  66.803  1.00  0.00     0.130 C  
HETATM    2  C   UNL     1     -12.920  14.193  67.293  1.00  0.00     1.517 C  
HETATM    3  C   UNL     1     -11.838  14.570  68.260  1.00  0.00    -0.347 C  
HETATM    4  C   UNL     1     -10.708  16.251  67.858  1.00  0.00    -0.329 C  
HETATM    5  C   UNL     1      -8.707  11.975  65.582  1.00  0.00     0.372 C  
HETATM    6  O   UNL     1     -10.984  17.078  66.659  1.00  0.00    -0.040 OA 
HETATM    7  C   UNL     1     -11.873  16.057  68.522  1.00  0.00    -0.126 C  
HETATM    8  C   UNL     1     -10.551  15.303  69.723  1.00  0.00    -0.293 C  
HETATM    9  H   UNL     1     -10.463  17.852  66.474  1.00  0.00     0.000 HD 
HETATM   10  C   UNL     1      -8.134  10.797  65.265  1.00  0.00    -0.021 C  
HETATM   11  C   UNL     1      -7.152  10.234  66.209  1.00  0.00    -0.117 C  
HETATM   12  C   UNL     1     -13.046  16.957  68.866  1.00  0.00     4.991 C  
HETATM   13  C   UNL     1      -9.245  14.532  68.798  1.00  0.00    -0.162 C  
HETATM   14  C   UNL     1      -7.524  10.373  67.648  1.00  0.00    -0.089 C  
HETATM   15  C   UNL     1      -7.148  13.678  66.375  1.00  0.00     2.678 C  
HETATM   16  O   UNL     1      -8.351  15.603  68.448  1.00  0.00    -0.153 OA 
HETATM   17  C   UNL     1      -9.555  13.606  67.429  1.00  0.00    -0.226 C  
HETATM   18  C   UNL     1      -8.311  12.781  66.842  1.00  0.00    -0.064 C  
HETATM   19  C   UNL     1      -7.767  11.840  67.997  1.00  0.00    -0.123 C  
HETATM   20  H   UNL     1      -7.652  15.191  67.953  1.00  0.00     0.000 HD 
HETATM   21  C   UNL     1     -10.499  14.325  66.270  1.00  0.00    -0.291 C  
HETATM   22  C   UNL     1     -10.863  13.268  65.207  1.00  0.00    -0.314 C  
HETATM   23  O   UNL     1      -6.144   9.664  65.810  1.00  0.00    -0.058 OA 
HETATM   24  C   UNL     1      -9.638  12.612  64.580  1.00  0.00     0.203 C  
ENDROOT
BRANCH   4  25
HETATM   25  C   UNL     1     -10.300  17.697  68.783  1.00  0.00    -0.348 C  
HETATM   26  O   UNL     1      -9.601  18.638  68.371  1.00  0.00    -0.324 OA 
BRANCH  25  27
HETATM   27  C   UNL     1     -10.788  17.844  70.249  1.00  0.00     1.719 C  
BRANCH  27  28
HETATM   28  O   UNL     1      -9.950  17.006  71.115  1.00  0.00     2.782 OA 
BRANCH  28  29
HETATM   29  C   UNL     1      -9.138  17.593  72.048  1.00  0.00    12.876 C  
HETATM   30  O   UNL     1      -7.913  17.596  71.972  1.00  0.00    10.621 OA 
BRANCH  29  31
HETATM   31  C   UNL     1      -9.979  18.218  73.194  1.00  0.00     6.920 C  
BRANCH  31  32
HETATM   32  N   UNL     1     -11.093  17.354  73.711  1.00  0.00     1.703 NA 
BRANCH  32  33
HETATM   33  C   UNL     1     -12.402  17.704  73.136  1.00  0.00     2.553 C  
HETATM   34  C   UNL     1     -12.606  17.348  71.667  1.00  0.00     6.101 C  
ENDBRANCH  32  33
BRANCH  32  35
HETATM   35  C   UNL     1     -10.754  15.921  73.548  1.00  0.00     3.732 C  
HETATM   36  C   UNL     1     -11.794  15.081  72.798  1.00  0.00    -0.391 C  
ENDBRANCH  32  35
ENDBRANCH  31  32
ENDBRANCH  29  31
ENDBRANCH  28  29
ENDBRANCH  27  28
ENDBRANCH  25  27
ENDBRANCH   4  25
TORSDOF 8
ENDMDL
