MODEL        1
REMARK 921   NORMALIZED FREE ENERGY PREDICTED BY IDOCK:   -7.02 KCAL/MOL
REMARK 922        TOTAL FREE ENERGY PREDICTED BY IDOCK:  -10.54 KCAL/MOL
REMARK 923 INTER-LIGAND FREE ENERGY PREDICTED BY IDOCK:  -10.31 KCAL/MOL
REMARK 924 INTRA-LIGAND FREE ENERGY PREDICTED BY IDOCK:   -0.24 KCAL/MOL
REMARK 927      BINDING AFFINITY PREDICTED BY RF-SCORE:    0.00 PKD
ROOT
HETATM    1  O   UNL     1     -11.636  16.526  63.719  1.00  0.00    -1.617 OA 
HETATM    2  C   UNL     1     -11.439  15.544  64.730  1.00  0.00    -0.313 C  
HETATM    3  H   UNL     1     -11.029  17.246  63.848  1.00  0.00     0.000 HD 
ENDROOT
BRANCH   2   4
HETATM    4  C   UNL     1     -12.410  14.391  64.523  1.00  0.00    -0.418 C  
BRANCH   4   5
HETATM    5  O   UNL     1     -11.706  13.246  64.042  1.00  0.00    -0.396 OA 
BRANCH   5   6
HETATM    6  C   UNL     1     -10.371  13.224  64.560  1.00  0.00    -0.374 C  
BRANCH   6   7
HETATM    7  C   UNL     1     -10.148  11.921  65.340  1.00  0.00    -0.253 C  
BRANCH   7   8
HETATM    8  N   UNL     1      -9.726  12.117  66.743  1.00  0.00    -0.203 NA 
HETATM    9  C   UNL     1     -10.492  13.174  67.438  1.00  0.00    -0.242 C  
HETATM   10  C   UNL     1     -11.948  12.787  67.795  1.00  0.00    -0.260 C  
HETATM   11  N   UNL     1     -12.066  11.552  68.609  1.00  0.00    -0.505 NA 
HETATM   12  C   UNL     1     -11.322  10.486  67.890  1.00  0.00    -0.222 C  
HETATM   13  C   UNL     1      -9.866  10.849  67.500  1.00  0.00    -0.168 C  
BRANCH  11  14
HETATM   14  C   UNL     1     -11.574  11.755  70.011  1.00  0.00    -0.236 C  
BRANCH  14  15
HETATM   15  C   UNL     1     -12.296  12.918  70.715  1.00  0.00    -0.385 A  
HETATM   16  C   UNL     1     -13.229  12.643  71.736  1.00  0.00    -0.457 A  
HETATM   17  C   UNL     1     -11.961  14.262  70.478  1.00  0.00    -0.402 A  
HETATM   18  C   UNL     1     -13.769  13.672  72.514  1.00  0.00    -0.663 A  
HETATM   19  C   UNL     1     -13.403  14.993  72.277  1.00  0.00    -0.497 A  
HETATM   20  C   UNL     1     -12.512  15.291  71.248  1.00  0.00    -0.435 A  
ENDBRANCH  14  15
BRANCH  14  21
HETATM   21  C   UNL     1     -11.582  10.449  70.822  1.00  0.00    -0.450 A  
HETATM   22  C   UNL     1     -10.340   8.548  71.715  1.00  0.00    -0.354 A  
HETATM   23  C   UNL     1     -12.755   8.520  71.747  1.00  0.00    -0.385 A  
HETATM   24  C   UNL     1     -10.362   9.816  71.128  1.00  0.00    -0.081 A  
HETATM   25 CL   UNL     1     -11.510   6.330  72.711  1.00  0.00    -0.247 Cl 
HETATM   26  C   UNL     1     -12.776   9.781  71.146  1.00  0.00    -0.433 A  
HETATM   27  C   UNL     1     -11.536   7.905  72.021  1.00  0.00    -0.308 A  
ENDBRANCH  14  21
ENDBRANCH  11  14
ENDBRANCH   7   8
ENDBRANCH   6   7
ENDBRANCH   5   6
ENDBRANCH   4   5
ENDBRANCH   2   4
TORSDOF 8
ENDMDL
MODEL        2
REMARK 921   NORMALIZED FREE ENERGY PREDICTED BY IDOCK:   -6.72 KCAL/MOL
REMARK 922        TOTAL FREE ENERGY PREDICTED BY IDOCK:  -10.11 KCAL/MOL
REMARK 923 INTER-LIGAND FREE ENERGY PREDICTED BY IDOCK:   -9.67 KCAL/MOL
REMARK 924 INTRA-LIGAND FREE ENERGY PREDICTED BY IDOCK:   -0.43 KCAL/MOL
REMARK 927      BINDING AFFINITY PREDICTED BY RF-SCORE:    0.00 PKD
ROOT
HETATM    1  O   UNL     1      -9.463   9.482  63.099  1.00  0.00    -0.514 OA 
HETATM    2  C   UNL     1      -9.180  10.783  62.599  1.00  0.00    -0.324 C  
HETATM    3  H   UNL     1      -8.933   8.839  62.640  1.00  0.00     0.000 HD 
ENDROOT
BRANCH   2   4
HETATM    4  C   UNL     1     -10.028  11.812  63.333  1.00  0.00    -0.423 C  
BRANCH   4   5
HETATM    5  O   UNL     1     -11.150  11.169  63.937  1.00  0.00    -0.335 OA 
BRANCH   5   6
HETATM    6  C   UNL     1     -12.327  11.972  63.792  1.00  0.00    -0.496 C  
BRANCH   6   7
HETATM    7  C   UNL     1     -11.928  13.390  63.363  1.00  0.00    -0.344 C  
BRANCH   7   8
HETATM    8  N   UNL     1     -12.359  14.452  64.297  1.00  0.00    -0.660 NA 
HETATM    9  C   UNL     1     -12.879  13.924  65.576  1.00  0.00    -0.431 C  
HETATM   10  C   UNL     1     -11.797  13.352  66.525  1.00  0.00    -0.396 C  
HETATM   11  N   UNL     1     -10.710  14.308  66.853  1.00  0.00    -0.288 NA 
HETATM   12  C   UNL     1     -10.171  14.810  65.563  1.00  0.00    -0.374 C  
HETATM   13  C   UNL     1     -11.231  15.371  64.581  1.00  0.00    -0.364 C  
BRANCH  11  14
HETATM   14  C   UNL     1     -11.185  15.412  67.750  1.00  0.00    -0.321 C  
BRANCH  14  15
HETATM   15  C   UNL     1     -11.677  14.882  69.109  1.00  0.00    -0.338 A  
HETATM   16  C   UNL     1     -12.400  15.736  69.969  1.00  0.00    -0.248 A  
HETATM   17  C   UNL     1     -11.557  13.532  69.476  1.00  0.00    -0.355 A  
HETATM   18  C   UNL     1     -13.011  15.242  71.125  1.00  0.00    -0.521 A  
HETATM   19  C   UNL     1     -12.899  13.895  71.454  1.00  0.00    -0.439 A  
HETATM   20  C   UNL     1     -12.158  13.042  70.640  1.00  0.00    -0.333 A  
ENDBRANCH  14  15
BRANCH  14  21
HETATM   21  C   UNL     1     -10.151  16.543  67.872  1.00  0.00    -0.256 A  
HETATM   22  C   UNL     1      -7.984  17.299  68.704  1.00  0.00    -0.267 A  
HETATM   23  C   UNL     1      -9.568  18.912  67.851  1.00  0.00    -0.361 A  
HETATM   24  C   UNL     1      -8.885  16.267  68.425  1.00  0.00    -0.202 A  
HETATM   25 CL   UNL     1      -7.237  19.890  68.792  1.00  0.00    -0.341 Cl 
HETATM   26  C   UNL     1     -10.473  17.881  67.586  1.00  0.00    -0.406 A  
HETATM   27  C   UNL     1      -8.331  18.617  68.417  1.00  0.00    -0.334 A  
ENDBRANCH  14  21
ENDBRANCH  11  14
ENDBRANCH   7   8
ENDBRANCH   6   7
ENDBRANCH   5   6
ENDBRANCH   4   5
ENDBRANCH   2   4
TORSDOF 8
ENDMDL
MODEL        3
REMARK 921   NORMALIZED FREE ENERGY PREDICTED BY IDOCK:   -6.61 KCAL/MOL
REMARK 922        TOTAL FREE ENERGY PREDICTED BY IDOCK:   -9.94 KCAL/MOL
REMARK 923 INTER-LIGAND FREE ENERGY PREDICTED BY IDOCK:   -9.62 KCAL/MOL
REMARK 924 INTRA-LIGAND FREE ENERGY PREDICTED BY IDOCK:   -0.32 KCAL/MOL
REMARK 927      BINDING AFFINITY PREDICTED BY RF-SCORE:    0.00 PKD
ROOT
HETATM    1  O   UNL     1      -9.631   9.548  63.199  1.00  0.00    -0.505 OA 
HETATM    2  C   UNL     1      -9.159  10.850  62.872  1.00  0.00    -0.314 C  
HETATM    3  H   UNL     1      -9.018   8.895  62.882  1.00  0.00     0.000 HD 
ENDROOT
BRANCH   2   4
HETATM    4  C   UNL     1     -10.141  11.895  63.379  1.00  0.00    -0.438 C  
BRANCH   4   5
HETATM    5  O   UNL     1     -11.356  11.262  63.781  1.00  0.00    -0.328 OA 
BRANCH   5   6
HETATM    6  C   UNL     1     -12.463  12.157  63.629  1.00  0.00    -0.549 C  
BRANCH   6   7
HETATM    7  C   UNL     1     -11.941  13.585  63.422  1.00  0.00    -0.256 C  
BRANCH   7   8
HETATM    8  N   UNL     1     -12.437  14.564  64.412  1.00  0.00    -0.673 NA 
HETATM    9  C   UNL     1     -12.841  13.942  65.691  1.00  0.00    -0.424 C  
HETATM   10  C   UNL     1     -11.665  13.455  66.571  1.00  0.00    -0.373 C  
HETATM   11  N   UNL     1     -10.668  14.507  66.891  1.00  0.00    -0.284 NA 
HETATM   12  C   UNL     1     -10.242  15.105  65.600  1.00  0.00    -0.361 C  
HETATM   13  C   UNL     1     -11.398  15.586  64.685  1.00  0.00    -0.357 C  
BRANCH  11  14
HETATM   14  C   UNL     1     -11.213  15.524  67.848  1.00  0.00    -0.325 C  
BRANCH  14  15
HETATM   15  C   UNL     1     -11.837  14.871  69.094  1.00  0.00    -0.340 A  
HETATM   16  C   UNL     1     -11.680  13.485  69.307  1.00  0.00    -0.382 A  
HETATM   17  C   UNL     1     -12.446  15.625  70.111  1.00  0.00    -0.311 A  
HETATM   18  C   UNL     1     -12.079  12.892  70.509  1.00  0.00    -0.364 A  
HETATM   19  C   UNL     1     -12.656  13.665  71.512  1.00  0.00    -0.385 A  
HETATM   20  C   UNL     1     -12.856  15.028  71.307  1.00  0.00    -0.438 A  
ENDBRANCH  14  15
BRANCH  14  21
HETATM   21  C   UNL     1     -10.182  16.616  68.180  1.00  0.00    -0.280 A  
HETATM   22  C   UNL     1      -9.505  18.955  68.018  1.00  0.00    -0.361 A  
HETATM   23  C   UNL     1      -7.920  17.300  68.785  1.00  0.00    -0.250 A  
HETATM   24  C   UNL     1     -10.478  17.961  67.884  1.00  0.00    -0.404 A  
HETATM   25 CL   UNL     1      -7.022  19.837  68.597  1.00  0.00    -0.354 Cl 
HETATM   26  C   UNL     1      -8.890  16.305  68.637  1.00  0.00    -0.226 A  
HETATM   27  C   UNL     1      -8.230  18.620  68.466  1.00  0.00    -0.341 A  
ENDBRANCH  14  21
ENDBRANCH  11  14
ENDBRANCH   7   8
ENDBRANCH   6   7
ENDBRANCH   5   6
ENDBRANCH   4   5
ENDBRANCH   2   4
TORSDOF 8
ENDMDL
MODEL        4
REMARK 921   NORMALIZED FREE ENERGY PREDICTED BY IDOCK:   -6.60 KCAL/MOL
REMARK 922        TOTAL FREE ENERGY PREDICTED BY IDOCK:   -9.92 KCAL/MOL
REMARK 923 INTER-LIGAND FREE ENERGY PREDICTED BY IDOCK:   -9.04 KCAL/MOL
REMARK 924 INTRA-LIGAND FREE ENERGY PREDICTED BY IDOCK:   -0.89 KCAL/MOL
REMARK 927      BINDING AFFINITY PREDICTED BY RF-SCORE:    0.00 PKD
ROOT
HETATM    1  O   UNL     1      -7.070  21.370  66.397  1.00  0.00    -0.663 OA 
HETATM    2  C   UNL     1      -7.298  20.091  65.816  1.00  0.00    -0.304 C  
HETATM    3  H   UNL     1      -6.349  21.800  65.952  1.00  0.00     0.000 HD 
ENDROOT
BRANCH   2   4
HETATM    4  C   UNL     1      -8.451  19.401  66.529  1.00  0.00    -0.337 C  
BRANCH   4   5
HETATM    5  O   UNL     1      -8.810  20.140  67.696  1.00  0.00    -0.328 OA 
BRANCH   5   6
HETATM    6  C   UNL     1      -9.822  19.450  68.437  1.00  0.00    -0.428 C  
BRANCH   6   7
HETATM    7  C   UNL     1      -9.504  17.950  68.461  1.00  0.00    -0.313 C  
BRANCH   7   8
HETATM    8  N   UNL     1     -10.691  17.074  68.363  1.00  0.00    -0.367 NA 
HETATM    9  C   UNL     1     -10.832  16.432  67.039  1.00  0.00    -0.145 C  
HETATM   10  C   UNL     1      -9.815  15.298  66.761  1.00  0.00    -0.236 C  
HETATM   11  N   UNL     1      -9.818  14.216  67.777  1.00  0.00    -0.227 NA 
HETATM   12  C   UNL     1      -9.644  14.866  69.101  1.00  0.00    -0.172 C  
HETATM   13  C   UNL     1     -10.634  16.019  69.403  1.00  0.00    -0.275 C  
BRANCH  11  14
HETATM   14  C   UNL     1     -11.060  13.380  67.702  1.00  0.00    -0.265 C  
BRANCH  14  15
HETATM   15  C   UNL     1     -11.236  12.727  66.319  1.00  0.00    -0.339 A  
HETATM   16  C   UNL     1     -12.406  12.980  65.573  1.00  0.00    -0.527 A  
HETATM   17  C   UNL     1     -10.210  11.992  65.701  1.00  0.00    -0.284 A  
HETATM   18  C   UNL     1     -12.520  12.549  64.247  1.00  0.00    -0.520 A  
HETATM   19  C   UNL     1     -11.481  11.845  63.648  1.00  0.00    -0.551 A  
HETATM   20  C   UNL     1     -10.332  11.551  64.379  1.00  0.00    -0.364 A  
ENDBRANCH  14  15
BRANCH  14  21
HETATM   21  C   UNL     1     -11.155  12.381  68.867  1.00  0.00    -0.307 A  
HETATM   22  C   UNL     1     -10.483  10.243  69.834  1.00  0.00    -0.304 A  
HETATM   23  C   UNL     1     -12.324  11.469  70.805  1.00  0.00    -0.472 A  
HETATM   24  C   UNL     1     -10.310  11.254  68.884  1.00  0.00    -0.214 A  
HETATM   25 CL   UNL     1     -11.725   9.095  71.935  1.00  0.00    -0.441 Cl 
HETATM   26  C   UNL     1     -12.160  12.472  69.846  1.00  0.00    -0.322 A  
HETATM   27  C   UNL     1     -11.490  10.355  70.788  1.00  0.00    -0.332 A  
ENDBRANCH  14  21
ENDBRANCH  11  14
ENDBRANCH   7   8
ENDBRANCH   6   7
ENDBRANCH   5   6
ENDBRANCH   4   5
ENDBRANCH   2   4
TORSDOF 8
ENDMDL
MODEL        5
REMARK 921   NORMALIZED FREE ENERGY PREDICTED BY IDOCK:   -6.57 KCAL/MOL
REMARK 922        TOTAL FREE ENERGY PREDICTED BY IDOCK:   -9.88 KCAL/MOL
REMARK 923 INTER-LIGAND FREE ENERGY PREDICTED BY IDOCK:   -9.29 KCAL/MOL
REMARK 924 INTRA-LIGAND FREE ENERGY PREDICTED BY IDOCK:   -0.59 KCAL/MOL
REMARK 927      BINDING AFFINITY PREDICTED BY RF-SCORE:    0.00 PKD
ROOT
HETATM    1  O   UNL     1      -5.816  20.882  70.613  1.00  0.00    -0.524 OA 
HETATM    2  C   UNL     1      -5.761  20.652  69.210  1.00  0.00    -0.373 C  
HETATM    3  H   UNL     1      -5.084  21.427  70.878  1.00  0.00     0.000 HD 
ENDROOT
BRANCH   2   4
HETATM    4  C   UNL     1      -6.932  19.778  68.785  1.00  0.00    -0.331 C  
BRANCH   4   5
HETATM    5  O   UNL     1      -7.623  20.393  67.698  1.00  0.00    -0.301 OA 
BRANCH   5   6
HETATM    6  C   UNL     1      -8.964  19.897  67.610  1.00  0.00    -0.335 C  
BRANCH   6   7
HETATM    7  C   UNL     1      -9.067  18.568  68.370  1.00  0.00    -0.322 C  
BRANCH   7   8
HETATM    8  N   UNL     1     -10.351  17.859  68.183  1.00  0.00    -0.378 NA 
HETATM    9  C   UNL     1     -10.456  17.184  66.872  1.00  0.00    -0.274 C  
HETATM   10  C   UNL     1      -9.585  15.911  66.730  1.00  0.00    -0.236 C  
HETATM   11  N   UNL     1      -9.834  14.885  67.774  1.00  0.00    -0.216 NA 
HETATM   12  C   UNL     1      -9.696  15.563  69.088  1.00  0.00    -0.252 C  
HETATM   13  C   UNL     1     -10.540  16.853  69.255  1.00  0.00    -0.325 C  
BRANCH  11  14
HETATM   14  C   UNL     1     -11.168  14.223  67.602  1.00  0.00    -0.304 C  
BRANCH  14  15
HETATM   15  C   UNL     1     -11.300  13.535  66.232  1.00  0.00    -0.327 A  
HETATM   16  C   UNL     1     -10.184  12.878  65.671  1.00  0.00    -0.295 A  
HETATM   17  C   UNL     1     -12.533  13.411  65.570  1.00  0.00    -0.534 A  
HETATM   18  C   UNL     1     -10.314  12.096  64.519  1.00  0.00    -0.335 A  
HETATM   19  C   UNL     1     -11.552  11.968  63.896  1.00  0.00    -0.536 A  
HETATM   20  C   UNL     1     -12.659  12.639  64.411  1.00  0.00    -0.470 A  
ENDBRANCH  14  15
BRANCH  14  21
HETATM   21  C   UNL     1     -11.514  13.304  68.785  1.00  0.00    -0.346 A  
HETATM   22  C   UNL     1     -11.605  11.046  69.706  1.00  0.00    -0.401 A  
HETATM   23  C   UNL     1     -12.733  12.851  70.849  1.00  0.00    -0.291 A  
HETATM   24  C   UNL     1     -11.162  11.941  68.729  1.00  0.00    -0.314 A  
HETATM   25 CL   UNL     1     -12.964  10.397  71.944  1.00  0.00    -0.559 Cl 
HETATM   26  C   UNL     1     -12.301  13.742  69.863  1.00  0.00    -0.334 A  
HETATM   27  C   UNL     1     -12.390  11.505  70.761  1.00  0.00    -0.375 A  
ENDBRANCH  14  21
ENDBRANCH  11  14
ENDBRANCH   7   8
ENDBRANCH   6   7
ENDBRANCH   5   6
ENDBRANCH   4   5
ENDBRANCH   2   4
TORSDOF 8
ENDMDL
MODEL        6
REMARK 921   NORMALIZED FREE ENERGY PREDICTED BY IDOCK:   -6.47 KCAL/MOL
REMARK 922        TOTAL FREE ENERGY PREDICTED BY IDOCK:   -9.73 KCAL/MOL
REMARK 923 INTER-LIGAND FREE ENERGY PREDICTED BY IDOCK:   -9.88 KCAL/MOL
REMARK 924 INTRA-LIGAND FREE ENERGY PREDICTED BY IDOCK:    0.15 KCAL/MOL
REMARK 927      BINDING AFFINITY PREDICTED BY RF-SCORE:    0.00 PKD
ROOT
HETATM    1  O   UNL     1      -8.231  11.572  62.525  1.00  0.00    -0.599 OA 
HETATM    2  C   UNL     1      -9.137  10.656  63.129  1.00  0.00    -0.269 C  
HETATM    3  H   UNL     1      -7.430  11.120  62.285  1.00  0.00     0.000 HD 
ENDROOT
BRANCH   2   4
HETATM    4  C   UNL     1     -10.419  11.380  63.514  1.00  0.00    -0.417 C  
BRANCH   4   5
HETATM    5  O   UNL     1     -10.161  12.777  63.655  1.00  0.00    -0.378 OA 
BRANCH   5   6
HETATM    6  C   UNL     1     -11.000  13.344  64.667  1.00  0.00    -0.377 C  
BRANCH   6   7
HETATM    7  C   UNL     1     -10.286  14.537  65.314  1.00  0.00    -0.410 C  
BRANCH   7   8
HETATM    8  N   UNL     1      -9.839  14.299  66.703  1.00  0.00    -0.271 NA 
HETATM    9  C   UNL     1     -10.399  15.269  67.668  1.00  0.00    -0.250 C  
HETATM   10  C   UNL     1     -11.902  15.071  67.982  1.00  0.00    -0.241 C  
HETATM   11  N   UNL     1     -12.248  13.714  68.474  1.00  0.00    -0.270 NA 
HETATM   12  C   UNL     1     -11.710  12.746  67.484  1.00  0.00    -0.364 C  
HETATM   13  C   UNL     1     -10.212  12.929  67.132  1.00  0.00    -0.239 C  
BRANCH  11  14
HETATM   14  C   UNL     1     -11.730  13.471  69.860  1.00  0.00    -0.271 C  
BRANCH  14  15
HETATM   15  C   UNL     1     -12.367  14.420  70.891  1.00  0.00    -0.419 A  
HETATM   16  C   UNL     1     -13.772  14.523  70.968  1.00  0.00    -0.241 A  
HETATM   17  C   UNL     1     -11.607  15.093  71.861  1.00  0.00    -0.490 A  
HETATM   18  C   UNL     1     -14.385  15.235  72.003  1.00  0.00    -0.689 A  
HETATM   19  C   UNL     1     -13.611  15.872  72.968  1.00  0.00    -0.616 A  
HETATM   20  C   UNL     1     -12.221  15.817  72.888  1.00  0.00    -0.586 A  
ENDBRANCH  14  15
BRANCH  14  21
HETATM   21  C   UNL     1     -11.817  11.988  70.257  1.00  0.00    -0.356 A  
HETATM   22  C   UNL     1     -12.895  10.253  71.593  1.00  0.00    -0.568 A  
HETATM   23  C   UNL     1     -10.818   9.771  70.456  1.00  0.00    -0.387 A  
HETATM   24  C   UNL     1     -12.876  11.552  71.077  1.00  0.00    -0.358 A  
HETATM   25 CL   UNL     1     -11.869   7.782  71.944  1.00  0.00    -0.315 Cl 
HETATM   26  C   UNL     1     -10.793  11.075  69.953  1.00  0.00    -0.142 A  
HETATM   27  C   UNL     1     -11.865   9.369  71.281  1.00  0.00    -0.360 A  
ENDBRANCH  14  21
ENDBRANCH  11  14
ENDBRANCH   7   8
ENDBRANCH   6   7
ENDBRANCH   5   6
ENDBRANCH   4   5
ENDBRANCH   2   4
TORSDOF 8
ENDMDL
MODEL        7
REMARK 921   NORMALIZED FREE ENERGY PREDICTED BY IDOCK:   -6.46 KCAL/MOL
REMARK 922        TOTAL FREE ENERGY PREDICTED BY IDOCK:   -9.72 KCAL/MOL
REMARK 923 INTER-LIGAND FREE ENERGY PREDICTED BY IDOCK:   -9.81 KCAL/MOL
REMARK 924 INTRA-LIGAND FREE ENERGY PREDICTED BY IDOCK:    0.09 KCAL/MOL
REMARK 927      BINDING AFFINITY PREDICTED BY RF-SCORE:    0.00 PKD
ROOT
HETATM    1  O   UNL     1     -11.978  11.649  63.374  1.00  0.00    -0.736 OA 
HETATM    2  C   UNL     1     -12.278  13.018  63.127  1.00  0.00    -0.222 C  
HETATM    3  H   UNL     1     -11.915  11.181  62.550  1.00  0.00     0.000 HD 
ENDROOT
BRANCH   2   4
HETATM    4  C   UNL     1     -12.380  13.768  64.447  1.00  0.00    -0.344 C  
BRANCH   4   5
HETATM    5  O   UNL     1     -12.000  15.132  64.258  1.00  0.00    -0.425 OA 
BRANCH   5   6
HETATM    6  C   UNL     1     -10.914  15.476  65.126  1.00  0.00    -0.409 C  
BRANCH   6   7
HETATM    7  C   UNL     1     -10.120  14.211  65.476  1.00  0.00    -0.336 C  
BRANCH   7   8
HETATM    8  N   UNL     1      -9.735  14.108  66.899  1.00  0.00    -0.260 NA 
HETATM    9  C   UNL     1     -10.509  15.012  67.777  1.00  0.00    -0.249 C  
HETATM   10  C   UNL     1     -11.978  14.581  68.010  1.00  0.00    -0.270 C  
HETATM   11  N   UNL     1     -12.130  13.207  68.551  1.00  0.00    -0.266 NA 
HETATM   12  C   UNL     1     -11.377  12.301  67.647  1.00  0.00    -0.311 C  
HETATM   13  C   UNL     1      -9.908  12.715  67.376  1.00  0.00    -0.205 C  
BRANCH  11  14
HETATM   14  C   UNL     1     -11.675  13.112  69.976  1.00  0.00    -0.221 C  
BRANCH  14  15
HETATM   15  C   UNL     1     -12.310  14.200  70.861  1.00  0.00    -0.438 A  
HETATM   16  C   UNL     1     -13.712  14.246  71.011  1.00  0.00    -0.155 A  
HETATM   17  C   UNL     1     -11.538  15.074  71.644  1.00  0.00    -0.416 A  
HETATM   18  C   UNL     1     -14.308  15.103  71.940  1.00  0.00    -0.693 A  
HETATM   19  C   UNL     1     -13.521  15.942  72.723  1.00  0.00    -0.594 A  
HETATM   20  C   UNL     1     -12.137  15.941  72.564  1.00  0.00    -0.611 A  
ENDBRANCH  14  15
BRANCH  14  21
HETATM   21  C   UNL     1     -11.838  11.691  70.542  1.00  0.00    -0.328 A  
HETATM   22  C   UNL     1     -11.195   9.338  70.468  1.00  0.00    -0.315 A  
HETATM   23  C   UNL     1     -13.131  10.011  71.748  1.00  0.00    -0.562 A  
HETATM   24  C   UNL     1     -10.972  10.669  70.105  1.00  0.00    -0.292 A  
HETATM   25 CL   UNL     1     -12.569   7.373  71.705  1.00  0.00    -0.360 Cl 
HETATM   26  C   UNL     1     -12.915  11.339  71.372  1.00  0.00    -0.482 A  
HETATM   27  C   UNL     1     -12.274   9.015  71.286  1.00  0.00    -0.312 A  
ENDBRANCH  14  21
ENDBRANCH  11  14
ENDBRANCH   7   8
ENDBRANCH   6   7
ENDBRANCH   5   6
ENDBRANCH   4   5
ENDBRANCH   2   4
TORSDOF 8
ENDMDL
MODEL        8
REMARK 921   NORMALIZED FREE ENERGY PREDICTED BY IDOCK:   -6.28 KCAL/MOL
REMARK 922        TOTAL FREE ENERGY PREDICTED BY IDOCK:   -9.45 KCAL/MOL
REMARK 923 INTER-LIGAND FREE ENERGY PREDICTED BY IDOCK:   -8.56 KCAL/MOL
REMARK 924 INTRA-LIGAND FREE ENERGY PREDICTED BY IDOCK:   -0.90 KCAL/MOL
REMARK 927      BINDING AFFINITY PREDICTED BY RF-SCORE:    0.00 PKD
ROOT
HETATM    1  O   UNL     1      -6.967  18.780  64.996  1.00  0.00    -0.468 OA 
HETATM    2  C   UNL     1      -7.334  19.671  66.043  1.00  0.00    -0.298 C  
HETATM    3  H   UNL     1      -6.055  18.913  64.765  1.00  0.00     0.000 HD 
ENDROOT
BRANCH   2   4
HETATM    4  C   UNL     1      -8.794  19.458  66.412  1.00  0.00    -0.359 C  
BRANCH   4   5
HETATM    5  O   UNL     1      -9.070  20.079  67.668  1.00  0.00    -0.330 OA 
BRANCH   5   6
HETATM    6  C   UNL     1     -10.034  19.318  68.403  1.00  0.00    -0.419 C  
BRANCH   6   7
HETATM    7  C   UNL     1      -9.650  17.833  68.364  1.00  0.00    -0.323 C  
BRANCH   7   8
HETATM    8  N   UNL     1     -10.795  16.913  68.200  1.00  0.00    -0.370 NA 
HETATM    9  C   UNL     1     -10.866  16.310  66.852  1.00  0.00    -0.151 C  
HETATM   10  C   UNL     1      -9.793  15.230  66.571  1.00  0.00    -0.266 C  
HETATM   11  N   UNL     1      -9.782  14.115  67.551  1.00  0.00    -0.230 NA 
HETATM   12  C   UNL     1      -9.678  14.726  68.900  1.00  0.00    -0.215 C  
HETATM   13  C   UNL     1     -10.726  15.827  69.206  1.00  0.00    -0.246 C  
BRANCH  11  14
HETATM   14  C   UNL     1     -10.984  13.230  67.408  1.00  0.00    -0.271 C  
BRANCH  14  15
HETATM   15  C   UNL     1     -11.255  12.855  65.940  1.00  0.00    -0.323 A  
HETATM   16  C   UNL     1     -10.255  12.200  65.191  1.00  0.00    -0.308 A  
HETATM   17  C   UNL     1     -12.519  13.015  65.346  1.00  0.00    -0.531 A  
HETATM   18  C   UNL     1     -10.527  11.690  63.918  1.00  0.00    -0.433 A  
HETATM   19  C   UNL     1     -11.794  11.838  63.362  1.00  0.00    -0.435 A  
HETATM   20  C   UNL     1     -12.786  12.516  64.068  1.00  0.00    -0.416 A  
ENDBRANCH  14  15
BRANCH  14  21
HETATM   21  C   UNL     1     -10.923  12.015  68.349  1.00  0.00    -0.276 A  
HETATM   22  C   UNL     1     -11.849  10.821  70.265  1.00  0.00    -0.438 A  
HETATM   23  C   UNL     1      -9.699  10.171  69.374  1.00  0.00    -0.247 A  
HETATM   24  C   UNL     1     -11.954  11.815  69.287  1.00  0.00    -0.354 A  
HETATM   25 CL   UNL     1     -10.576   8.806  71.529  1.00  0.00    -0.351 Cl 
HETATM   26  C   UNL     1      -9.799  11.174  68.407  1.00  0.00    -0.188 A  
HETATM   27  C   UNL     1     -10.721  10.005  70.305  1.00  0.00    -0.309 A  
ENDBRANCH  14  21
ENDBRANCH  11  14
ENDBRANCH   7   8
ENDBRANCH   6   7
ENDBRANCH   5   6
ENDBRANCH   4   5
ENDBRANCH   2   4
TORSDOF 8
ENDMDL
MODEL        9
REMARK 921   NORMALIZED FREE ENERGY PREDICTED BY IDOCK:   -6.27 KCAL/MOL
REMARK 922        TOTAL FREE ENERGY PREDICTED BY IDOCK:   -9.43 KCAL/MOL
REMARK 923 INTER-LIGAND FREE ENERGY PREDICTED BY IDOCK:   -9.44 KCAL/MOL
REMARK 924 INTRA-LIGAND FREE ENERGY PREDICTED BY IDOCK:    0.01 KCAL/MOL
REMARK 927      BINDING AFFINITY PREDICTED BY RF-SCORE:    0.00 PKD
ROOT
HETATM    1  O   UNL     1     -14.258   8.613  72.987  1.00  0.00    -1.016 OA 
HETATM    2  C   UNL     1     -13.993   7.968  71.746  1.00  0.00    -0.406 C  
HETATM    3  H   UNL     1     -15.001   9.197  72.893  1.00  0.00     0.000 HD 
ENDROOT
BRANCH   2   4
HETATM    4  C   UNL     1     -12.803   7.033  71.895  1.00  0.00    -0.259 C  
BRANCH   4   5
HETATM    5  O   UNL     1     -12.209   6.799  70.618  1.00  0.00    -0.386 OA 
BRANCH   5   6
HETATM    6  C   UNL     1     -10.848   7.242  70.609  1.00  0.00    -0.242 C  
BRANCH   6   7
HETATM    7  C   UNL     1     -10.523   7.864  69.244  1.00  0.00    -0.216 C  
BRANCH   7   8
HETATM    8  N   UNL     1      -9.899   9.202  69.318  1.00  0.00    -0.170 NA 
HETATM    9  C   UNL     1      -9.921   9.926  68.029  1.00  0.00    -0.152 C  
HETATM   10  C   UNL     1     -11.315  10.457  67.612  1.00  0.00    -0.082 C  
HETATM   11  N   UNL     1     -11.956  11.338  68.621  1.00  0.00    -0.537 NA 
HETATM   12  C   UNL     1     -11.959  10.592  69.905  1.00  0.00    -0.310 C  
HETATM   13  C   UNL     1     -10.582  10.028  70.342  1.00  0.00    -0.280 C  
BRANCH  11  14
HETATM   14  C   UNL     1     -11.268  12.666  68.724  1.00  0.00    -0.280 C  
BRANCH  14  15
HETATM   15  C   UNL     1     -11.263  13.421  67.383  1.00  0.00    -0.311 A  
HETATM   16  C   UNL     1     -10.034  13.772  66.786  1.00  0.00    -0.270 A  
HETATM   17  C   UNL     1     -12.438  13.658  66.651  1.00  0.00    -0.291 A  
HETATM   18  C   UNL     1      -9.987  14.298  65.491  1.00  0.00    -0.341 A  
HETATM   19  C   UNL     1     -11.164  14.500  64.776  1.00  0.00    -0.395 A  
HETATM   20  C   UNL     1     -12.391  14.196  65.361  1.00  0.00    -0.475 A  
ENDBRANCH  14  15
BRANCH  14  21
HETATM   21  C   UNL     1     -11.804  13.504  69.897  1.00  0.00    -0.386 A  
HETATM   22  C   UNL     1     -13.229  13.643  71.873  1.00  0.00    -0.497 A  
HETATM   23  C   UNL     1     -12.288  15.659  70.932  1.00  0.00    -0.479 A  
HETATM   24  C   UNL     1     -12.589  12.885  70.889  1.00  0.00    -0.355 A  
HETATM   25 CL   UNL     1     -13.891  15.964  73.080  1.00  0.00    -0.610 Cl 
HETATM   26  C   UNL     1     -11.662  14.901  69.939  1.00  0.00    -0.347 A  
HETATM   27  C   UNL     1     -13.076  15.027  71.889  1.00  0.00    -0.349 A  
ENDBRANCH  14  21
ENDBRANCH  11  14
ENDBRANCH   7   8
ENDBRANCH   6   7
ENDBRANCH   5   6
ENDBRANCH   4   5
ENDBRANCH   2   4
TORSDOF 8
ENDMDL
MODEL       10
REMARK 921   NORMALIZED FREE ENERGY PREDICTED BY IDOCK:   -6.24 KCAL/MOL
REMARK 922        TOTAL FREE ENERGY PREDICTED BY IDOCK:   -9.40 KCAL/MOL
REMARK 923 INTER-LIGAND FREE ENERGY PREDICTED BY IDOCK:   -8.46 KCAL/MOL
REMARK 924 INTRA-LIGAND FREE ENERGY PREDICTED BY IDOCK:   -0.95 KCAL/MOL
REMARK 927      BINDING AFFINITY PREDICTED BY RF-SCORE:    0.00 PKD
ROOT
HETATM    1  O   UNL     1     -11.354  11.223  63.059  1.00  0.00    -0.847 OA 
HETATM    2  C   UNL     1     -12.512  11.909  63.522  1.00  0.00    -0.492 C  
HETATM    3  H   UNL     1     -11.499  10.285  63.100  1.00  0.00     0.000 HD 
ENDROOT
BRANCH   2   4
HETATM    4  C   UNL     1     -12.280  13.411  63.457  1.00  0.00    -0.400 C  
BRANCH   4   5
HETATM    5  O   UNL     1     -12.709  14.019  64.675  1.00  0.00    -0.648 OA 
BRANCH   5   6
HETATM    6  C   UNL     1     -11.609  14.657  65.333  1.00  0.00    -0.345 C  
BRANCH   6   7
HETATM    7  C   UNL     1     -11.737  14.459  66.850  1.00  0.00    -0.402 C  
BRANCH   7   8
HETATM    8  N   UNL     1     -10.620  13.708  67.462  1.00  0.00    -0.240 NA 
HETATM    9  C   UNL     1     -10.854  13.376  68.883  1.00  0.00    -0.220 C  
HETATM   10  C   UNL     1     -11.903  12.263  69.122  1.00  0.00    -0.301 C  
HETATM   11  N   UNL     1     -11.609  10.990  68.417  1.00  0.00    -0.420 NA 
HETATM   12  C   UNL     1     -11.408  11.326  66.985  1.00  0.00    -0.187 C  
HETATM   13  C   UNL     1     -10.378  12.452  66.712  1.00  0.00    -0.221 C  
BRANCH  11  14
HETATM   14  C   UNL     1     -10.434  10.276  69.015  1.00  0.00    -0.217 C  
BRANCH  14  15
HETATM   15  C   UNL     1     -10.770   9.650  70.380  1.00  0.00    -0.356 A  
HETATM   16  C   UNL     1     -12.115   9.571  70.799  1.00  0.00    -0.305 A  
HETATM   17  C   UNL     1      -9.798   9.023  71.177  1.00  0.00    -0.371 A  
HETATM   18  C   UNL     1     -12.471   8.854  71.946  1.00  0.00    -0.445 A  
HETATM   19  C   UNL     1     -11.492   8.220  72.705  1.00  0.00    -0.423 A  
HETATM   20  C   UNL     1     -10.154   8.318  72.332  1.00  0.00    -0.383 A  
ENDBRANCH  14  15
BRANCH  14  21
HETATM   21  C   UNL     1      -9.797   9.284  68.027  1.00  0.00    -0.191 A  
HETATM   22  C   UNL     1      -9.927   7.152  66.846  1.00  0.00    -0.293 A  
HETATM   23  C   UNL     1      -7.850   8.386  66.864  1.00  0.00    -0.095 A  
HETATM   24  C   UNL     1     -10.531   8.157  67.608  1.00  0.00    -0.300 A  
HETATM   25 CL   UNL     1      -7.837   6.018  65.572  1.00  0.00    -0.099 Cl 
HETATM   26  C   UNL     1      -8.451   9.382  67.638  1.00  0.00    -0.119 A  
HETATM   27  C   UNL     1      -8.590   7.271  66.480  1.00  0.00    -0.133 A  
ENDBRANCH  14  21
ENDBRANCH  11  14
ENDBRANCH   7   8
ENDBRANCH   6   7
ENDBRANCH   5   6
ENDBRANCH   4   5
ENDBRANCH   2   4
TORSDOF 8
ENDMDL
MODEL       11
REMARK 921   NORMALIZED FREE ENERGY PREDICTED BY IDOCK:   -6.16 KCAL/MOL
REMARK 922        TOTAL FREE ENERGY PREDICTED BY IDOCK:   -9.27 KCAL/MOL
REMARK 923 INTER-LIGAND FREE ENERGY PREDICTED BY IDOCK:   -8.58 KCAL/MOL
REMARK 924 INTRA-LIGAND FREE ENERGY PREDICTED BY IDOCK:   -0.69 KCAL/MOL
REMARK 927      BINDING AFFINITY PREDICTED BY RF-SCORE:    0.00 PKD
ROOT
HETATM    1  O   UNL     1      -8.855   8.018  64.621  1.00  0.00    -0.383 OA 
HETATM    2  C   UNL     1      -8.445   9.280  64.109  1.00  0.00    -0.192 C  
HETATM    3  H   UNL     1      -8.187   7.366  64.441  1.00  0.00     0.000 HD 
ENDROOT
BRANCH   2   4
HETATM    4  C   UNL     1      -9.514  10.324  64.396  1.00  0.00    -0.302 C  
BRANCH   4   5
HETATM    5  O   UNL     1      -9.603  11.238  63.302  1.00  0.00    -0.295 OA 
BRANCH   5   6
HETATM    6  C   UNL     1     -10.547  12.275  63.589  1.00  0.00    -0.462 C  
BRANCH   6   7
HETATM    7  C   UNL     1     -10.797  12.333  65.102  1.00  0.00    -0.301 C  
BRANCH   7   8
HETATM    8  N   UNL     1     -11.576  13.509  65.545  1.00  0.00    -0.313 NA 
HETATM    9  C   UNL     1     -12.141  13.353  66.903  1.00  0.00    -0.354 C  
HETATM   10  C   UNL     1     -11.103  13.449  68.048  1.00  0.00    -0.255 C  
HETATM   11  N   UNL     1     -10.308  14.703  68.043  1.00  0.00    -0.232 NA 
HETATM   12  C   UNL     1      -9.718  14.837  66.687  1.00  0.00    -0.267 C  
HETATM   13  C   UNL     1     -10.728  14.724  65.516  1.00  0.00    -0.357 C  
BRANCH  11  14
HETATM   14  C   UNL     1     -11.134  15.892  68.434  1.00  0.00    -0.345 C  
BRANCH  14  15
HETATM   15  C   UNL     1     -11.795  15.710  69.813  1.00  0.00    -0.376 A  
HETATM   16  C   UNL     1     -11.059  15.995  70.982  1.00  0.00    -0.238 A  
HETATM   17  C   UNL     1     -13.157  15.400  69.955  1.00  0.00     0.126 A  
HETATM   18  C   UNL     1     -11.678  16.011  72.235  1.00  0.00    -0.581 A  
HETATM   19  C   UNL     1     -13.035  15.726  72.349  1.00  0.00    -0.546 A  
HETATM   20  C   UNL     1     -13.772  15.404  71.212  1.00  0.00    -0.558 A  
ENDBRANCH  14  15
BRANCH  14  21
HETATM   21  C   UNL     1     -10.351  17.209  68.300  1.00  0.00    -0.354 A  
HETATM   22  C   UNL     1     -10.131  19.398  67.245  1.00  0.00    -0.497 A  
HETATM   23  C   UNL     1      -8.297  18.503  68.538  1.00  0.00    -0.359 A  
HETATM   24  C   UNL     1     -10.886  18.256  67.525  1.00  0.00    -0.282 A  
HETATM   25 CL   UNL     1      -7.897  20.905  67.379  1.00  0.00    -0.310 Cl 
HETATM   26  C   UNL     1      -9.048  17.355  68.805  1.00  0.00    -0.227 A  
HETATM   27  C   UNL     1      -8.839  19.516  67.752  1.00  0.00    -0.318 A  
ENDBRANCH  14  21
ENDBRANCH  11  14
ENDBRANCH   7   8
ENDBRANCH   6   7
ENDBRANCH   5   6
ENDBRANCH   4   5
ENDBRANCH   2   4
TORSDOF 8
ENDMDL
MODEL       12
REMARK 921   NORMALIZED FREE ENERGY PREDICTED BY IDOCK:   -6.15 KCAL/MOL
REMARK 922        TOTAL FREE ENERGY PREDICTED BY IDOCK:   -9.26 KCAL/MOL
REMARK 923 INTER-LIGAND FREE ENERGY PREDICTED BY IDOCK:   -8.39 KCAL/MOL
REMARK 924 INTRA-LIGAND FREE ENERGY PREDICTED BY IDOCK:   -0.87 KCAL/MOL
REMARK 927      BINDING AFFINITY PREDICTED BY RF-SCORE:    0.00 PKD
ROOT
HETATM    1  O   UNL     1     -11.646  11.468  63.069  1.00  0.00    -0.848 OA 
HETATM    2  C   UNL     1     -10.256  11.768  63.048  1.00  0.00    -0.210 C  
HETATM    3  H   UNL     1     -12.142  12.221  62.767  1.00  0.00     0.000 HD 
ENDROOT
BRANCH   2   4
HETATM    4  C   UNL     1      -9.462  10.563  63.531  1.00  0.00    -0.312 C  
BRANCH   4   5
HETATM    5  O   UNL     1     -10.025  10.070  64.747  1.00  0.00    -0.321 OA 
BRANCH   5   6
HETATM    6  C   UNL     1      -9.439  10.729  65.875  1.00  0.00    -0.197 C  
BRANCH   6   7
HETATM    7  C   UNL     1     -10.478  10.841  66.998  1.00  0.00    -0.247 C  
BRANCH   7   8
HETATM    8  N   UNL     1     -11.303  12.066  66.944  1.00  0.00    -0.326 NA 
HETATM    9  C   UNL     1     -12.019  12.341  68.208  1.00  0.00    -0.200 C  
HETATM   10  C   UNL     1     -11.118  12.844  69.363  1.00  0.00    -0.068 C  
HETATM   11  N   UNL     1     -10.329  14.057  69.033  1.00  0.00    -0.178 NA 
HETATM   12  C   UNL     1      -9.588  13.763  67.779  1.00  0.00    -0.219 C  
HETATM   13  C   UNL     1     -10.458  13.237  66.609  1.00  0.00    -0.279 C  
BRANCH  11  14
HETATM   14  C   UNL     1     -11.194  15.276  68.920  1.00  0.00    -0.285 C  
BRANCH  14  15
HETATM   15  C   UNL     1     -11.982  15.548  70.215  1.00  0.00    -0.401 A  
HETATM   16  C   UNL     1     -13.365  15.271  70.260  1.00  0.00     0.045 A  
HETATM   17  C   UNL     1     -11.352  15.935  71.409  1.00  0.00    -0.407 A  
HETATM   18  C   UNL     1     -14.073  15.338  71.463  1.00  0.00    -0.625 A  
HETATM   19  C   UNL     1     -13.421  15.699  72.639  1.00  0.00    -0.655 A  
HETATM   20  C   UNL     1     -12.064  16.014  72.610  1.00  0.00    -0.640 A  
ENDBRANCH  14  15
BRANCH  14  21
HETATM   21  C   UNL     1     -10.409  16.498  68.414  1.00  0.00    -0.294 A  
HETATM   22  C   UNL     1      -8.430  17.915  68.587  1.00  0.00    -0.272 A  
HETATM   23  C   UNL     1     -10.319  18.652  67.274  1.00  0.00    -0.440 A  
HETATM   24  C   UNL     1      -9.106  16.731  68.895  1.00  0.00    -0.230 A  
HETATM   25 CL   UNL     1      -8.222  20.342  67.427  1.00  0.00    -0.383 Cl 
HETATM   26  C   UNL     1     -10.999  17.475  67.595  1.00  0.00    -0.111 A  
HETATM   27  C   UNL     1      -9.040  18.870  67.779  1.00  0.00    -0.290 A  
ENDBRANCH  14  21
ENDBRANCH  11  14
ENDBRANCH   7   8
ENDBRANCH   6   7
ENDBRANCH   5   6
ENDBRANCH   4   5
ENDBRANCH   2   4
TORSDOF 8
ENDMDL
MODEL       13
REMARK 921   NORMALIZED FREE ENERGY PREDICTED BY IDOCK:   -6.14 KCAL/MOL
REMARK 922        TOTAL FREE ENERGY PREDICTED BY IDOCK:   -9.24 KCAL/MOL
REMARK 923 INTER-LIGAND FREE ENERGY PREDICTED BY IDOCK:   -8.34 KCAL/MOL
REMARK 924 INTRA-LIGAND FREE ENERGY PREDICTED BY IDOCK:   -0.91 KCAL/MOL
REMARK 927      BINDING AFFINITY PREDICTED BY RF-SCORE:    0.00 PKD
ROOT
HETATM    1  O   UNL     1      -6.696  18.739  69.387  1.00  0.00    -0.278 OA 
HETATM    2  C   UNL     1      -6.064  18.640  68.116  1.00  0.00    -0.201 C  
HETATM    3  H   UNL     1      -6.165  18.305  70.044  1.00  0.00     0.000 HD 
ENDROOT
BRANCH   2   4
HETATM    4  C   UNL     1      -6.914  19.336  67.063  1.00  0.00    -0.198 C  
BRANCH   4   5
HETATM    5  O   UNL     1      -7.548  20.481  67.633  1.00  0.00    -0.303 OA 
BRANCH   5   6
HETATM    6  C   UNL     1      -8.906  20.575  67.190  1.00  0.00    -0.284 C  
BRANCH   6   7
HETATM    7  C   UNL     1      -9.177  19.490  66.140  1.00  0.00    -0.318 C  
BRANCH   7   8
HETATM    8  N   UNL     1     -10.450  18.763  66.330  1.00  0.00    -0.438 NA 
HETATM    9  C   UNL     1     -10.445  17.415  65.724  1.00  0.00    -0.215 C  
HETATM   10  C   UNL     1      -9.588  16.371  66.480  1.00  0.00    -0.270 C  
HETATM   11  N   UNL     1      -9.950  16.208  67.910  1.00  0.00    -0.236 NA 
HETATM   12  C   UNL     1      -9.922  17.562  68.520  1.00  0.00    -0.344 C  
HETATM   13  C   UNL     1     -10.755  18.636  67.775  1.00  0.00    -0.342 C  
BRANCH  11  14
HETATM   14  C   UNL     1     -11.274  15.525  68.079  1.00  0.00    -0.332 C  
BRANCH  14  15
HETATM   15  C   UNL     1     -11.355  14.213  67.277  1.00  0.00    -0.349 A  
HETATM   16  C   UNL     1     -12.316  14.080  66.253  1.00  0.00    -0.482 A  
HETATM   17  C   UNL     1     -10.414  13.182  67.430  1.00  0.00    -0.243 A  
HETATM   18  C   UNL     1     -12.303  12.978  65.393  1.00  0.00    -0.538 A  
HETATM   19  C   UNL     1     -11.344  11.982  65.548  1.00  0.00    -0.381 A  
HETATM   20  C   UNL     1     -10.410  12.073  66.577  1.00  0.00    -0.240 A  
ENDBRANCH  14  15
BRANCH  14  21
HETATM   21  C   UNL     1     -11.657  15.362  69.559  1.00  0.00    -0.346 A  
HETATM   22  C   UNL     1     -13.397  15.372  71.271  1.00  0.00    -0.598 A  
HETATM   23  C   UNL     1     -11.072  15.379  71.927  1.00  0.00    -0.241 A  
HETATM   24  C   UNL     1     -13.017  15.350  69.925  1.00  0.00     0.111 A  
HETATM   25 CL   UNL     1     -12.889  15.450  73.919  1.00  0.00    -0.644 Cl 
HETATM   26  C   UNL     1     -10.694  15.372  70.582  1.00  0.00    -0.255 A  
HETATM   27  C   UNL     1     -12.423  15.388  72.265  1.00  0.00    -0.375 A  
ENDBRANCH  14  21
ENDBRANCH  11  14
ENDBRANCH   7   8
ENDBRANCH   6   7
ENDBRANCH   5   6
ENDBRANCH   4   5
ENDBRANCH   2   4
TORSDOF 8
ENDMDL
MODEL       14
REMARK 921   NORMALIZED FREE ENERGY PREDICTED BY IDOCK:   -6.07 KCAL/MOL
REMARK 922        TOTAL FREE ENERGY PREDICTED BY IDOCK:   -9.15 KCAL/MOL
REMARK 923 INTER-LIGAND FREE ENERGY PREDICTED BY IDOCK:   -8.68 KCAL/MOL
REMARK 924 INTRA-LIGAND FREE ENERGY PREDICTED BY IDOCK:   -0.47 KCAL/MOL
REMARK 927      BINDING AFFINITY PREDICTED BY RF-SCORE:    0.00 PKD
ROOT
HETATM    1  O   UNL     1     -14.211   8.824  73.562  1.00  0.00    -1.110 OA 
HETATM    2  C   UNL     1     -14.032   9.087  72.175  1.00  0.00    -0.435 C  
HETATM    3  H   UNL     1     -14.948   8.237  73.684  1.00  0.00     0.000 HD 
ENDROOT
BRANCH   2   4
HETATM    4  C   UNL     1     -12.852  10.027  71.978  1.00  0.00    -0.389 C  
BRANCH   4   5
HETATM    5  O   UNL     1     -13.270  11.178  71.243  1.00  0.00    -0.305 OA 
BRANCH   5   6
HETATM    6  C   UNL     1     -13.048  12.369  72.005  1.00  0.00    -0.365 C  
BRANCH   6   7
HETATM    7  C   UNL     1     -12.730  13.532  71.056  1.00  0.00    -0.322 C  
BRANCH   7   8
HETATM    8  N   UNL     1     -11.431  13.411  70.360  1.00  0.00     0.047 NA 
HETATM    9  C   UNL     1     -11.503  12.586  69.135  1.00  0.00    -0.305 C  
HETATM   10  C   UNL     1     -12.224  13.263  67.943  1.00  0.00    -0.087 C  
HETATM   11  N   UNL     1     -11.654  14.578  67.555  1.00  0.00    -0.365 NA 
HETATM   12  C   UNL     1     -11.614  15.412  68.784  1.00  0.00    -0.368 C  
HETATM   13  C   UNL     1     -10.916  14.755  70.002  1.00  0.00    -0.156 C  
BRANCH  11  14
HETATM   14  C   UNL     1     -10.309  14.437  66.908  1.00  0.00    -0.265 C  
BRANCH  14  15
HETATM   15  C   UNL     1     -10.335  13.449  65.728  1.00  0.00    -0.296 A  
HETATM   16  C   UNL     1      -9.693  12.198  65.851  1.00  0.00    -0.253 A  
HETATM   17  C   UNL     1     -11.094  13.684  64.570  1.00  0.00    -0.396 A  
HETATM   18  C   UNL     1      -9.846  11.212  64.872  1.00  0.00    -0.316 A  
HETATM   19  C   UNL     1     -10.624  11.460  63.746  1.00  0.00    -0.464 A  
HETATM   20  C   UNL     1     -11.235  12.701  63.585  1.00  0.00    -0.525 A  
ENDBRANCH  14  15
BRANCH  14  21
HETATM   21  C   UNL     1      -9.692  15.800  66.553  1.00  0.00    -0.285 A  
HETATM   22  C   UNL     1      -7.711  17.220  66.440  1.00  0.00    -0.347 A  
HETATM   23  C   UNL     1      -9.902  18.198  66.160  1.00  0.00    -0.255 A  
HETATM   24  C   UNL     1      -8.293  15.959  66.594  1.00  0.00    -0.328 A  
HETATM   25 CL   UNL     1      -7.804  19.891  66.071  1.00  0.00    -0.343 Cl 
HETATM   26  C   UNL     1     -10.484  16.939  66.328  1.00  0.00    -0.263 A  
HETATM   27  C   UNL     1      -8.518  18.334  66.225  1.00  0.00    -0.191 A  
ENDBRANCH  14  21
ENDBRANCH  11  14
ENDBRANCH   7   8
ENDBRANCH   6   7
ENDBRANCH   5   6
ENDBRANCH   4   5
ENDBRANCH   2   4
TORSDOF 8
ENDMDL
MODEL       15
REMARK 921   NORMALIZED FREE ENERGY PREDICTED BY IDOCK:   -6.05 KCAL/MOL
REMARK 922        TOTAL FREE ENERGY PREDICTED BY IDOCK:   -9.12 KCAL/MOL
REMARK 923 INTER-LIGAND FREE ENERGY PREDICTED BY IDOCK:   -8.70 KCAL/MOL
REMARK 924 INTRA-LIGAND FREE ENERGY PREDICTED BY IDOCK:   -0.42 KCAL/MOL
REMARK 927      BINDING AFFINITY PREDICTED BY RF-SCORE:    0.00 PKD
ROOT
HETATM    1  O   UNL     1     -14.136   8.782  73.302  1.00  0.00    -1.180 OA 
HETATM    2  C   UNL     1     -13.298   8.896  72.158  1.00  0.00    -0.440 C  
HETATM    3  H   UNL     1     -15.019   9.055  73.081  1.00  0.00     0.000 HD 
ENDROOT
BRANCH   2   4
HETATM    4  C   UNL     1     -11.884   8.460  72.511  1.00  0.00    -0.358 C  
BRANCH   4   5
HETATM    5  O   UNL     1     -11.391   7.564  71.513  1.00  0.00    -0.248 OA 
BRANCH   5   6
HETATM    6  C   UNL     1      -9.992   7.776  71.294  1.00  0.00    -0.175 C  
BRANCH   6   7
HETATM    7  C   UNL     1      -9.722   7.885  69.788  1.00  0.00    -0.176 C  
BRANCH   7   8
HETATM    8  N   UNL     1      -9.160   9.185  69.363  1.00  0.00    -0.144 NA 
HETATM    9  C   UNL     1      -9.262   9.412  67.905  1.00  0.00    -0.129 C  
HETATM   10  C   UNL     1     -10.693   9.720  67.399  1.00  0.00    -0.249 C  
HETATM   11  N   UNL     1     -11.340  10.875  68.071  1.00  0.00    -0.365 NA 
HETATM   12  C   UNL     1     -11.262  10.624  69.533  1.00  0.00    -0.272 C  
HETATM   13  C   UNL     1      -9.846  10.293  70.069  1.00  0.00    -0.030 C  
BRANCH  11  14
HETATM   14  C   UNL     1     -10.713  12.178  67.673  1.00  0.00    -0.220 C  
BRANCH  14  15
HETATM   15  C   UNL     1     -10.985  12.525  66.198  1.00  0.00    -0.318 A  
HETATM   16  C   UNL     1     -10.085  12.092  65.203  1.00  0.00    -0.295 A  
HETATM   17  C   UNL     1     -12.176  13.144  65.781  1.00  0.00    -0.514 A  
HETATM   18  C   UNL     1     -10.390  12.235  63.846  1.00  0.00    -0.455 A  
HETATM   19  C   UNL     1     -11.587  12.828  63.457  1.00  0.00    -0.565 A  
HETATM   20  C   UNL     1     -12.473  13.298  64.424  1.00  0.00    -0.356 A  
ENDBRANCH  14  15
BRANCH  14  21
HETATM   21  C   UNL     1     -11.073  13.313  68.646  1.00  0.00    -0.301 A  
HETATM   22  C   UNL     1     -10.346  15.247  69.944  1.00  0.00    -0.258 A  
HETATM   23  C   UNL     1     -12.519  14.277  70.357  1.00  0.00    -0.426 A  
HETATM   24  C   UNL     1     -10.113  14.300  68.943  1.00  0.00    -0.179 A  
HETATM   25 CL   UNL     1     -11.820  16.373  71.904  1.00  0.00    -0.524 Cl 
HETATM   26  C   UNL     1     -12.280  13.322  69.366  1.00  0.00    -0.210 A  
HETATM   27  C   UNL     1     -11.547  15.230  70.648  1.00  0.00    -0.319 A  
ENDBRANCH  14  21
ENDBRANCH  11  14
ENDBRANCH   7   8
ENDBRANCH   6   7
ENDBRANCH   5   6
ENDBRANCH   4   5
ENDBRANCH   2   4
TORSDOF 8
ENDMDL
MODEL       16
REMARK 921   NORMALIZED FREE ENERGY PREDICTED BY IDOCK:   -6.03 KCAL/MOL
REMARK 922        TOTAL FREE ENERGY PREDICTED BY IDOCK:   -9.09 KCAL/MOL
REMARK 923 INTER-LIGAND FREE ENERGY PREDICTED BY IDOCK:   -8.92 KCAL/MOL
REMARK 924 INTRA-LIGAND FREE ENERGY PREDICTED BY IDOCK:   -0.17 KCAL/MOL
REMARK 927      BINDING AFFINITY PREDICTED BY RF-SCORE:    0.00 PKD
ROOT
HETATM    1  O   UNL     1     -11.529   4.422  64.960  1.00  0.00    -1.090 OA 
HETATM    2  C   UNL     1     -10.463   4.650  65.874  1.00  0.00    -0.268 C  
HETATM    3  H   UNL     1     -11.331   3.668  64.416  1.00  0.00     0.000 HD 
ENDROOT
BRANCH   2   4
HETATM    4  C   UNL     1     -10.780   5.857  66.744  1.00  0.00    -0.299 C  
BRANCH   4   5
HETATM    5  O   UNL     1     -10.058   5.770  67.973  1.00  0.00    -0.138 OA 
BRANCH   5   6
HETATM    6  C   UNL     1      -9.321   6.974  68.209  1.00  0.00    -0.126 C  
BRANCH   6   7
HETATM    7  C   UNL     1     -10.181   7.948  69.025  1.00  0.00    -0.209 C  
BRANCH   7   8
HETATM    8  N   UNL     1      -9.656   9.329  69.074  1.00  0.00    -0.157 NA 
HETATM    9  C   UNL     1      -9.907  10.090  67.831  1.00  0.00    -0.145 C  
HETATM   10  C   UNL     1     -11.380  10.521  67.626  1.00  0.00    -0.154 C  
HETATM   11  N   UNL     1     -11.944  11.313  68.748  1.00  0.00    -0.506 NA 
HETATM   12  C   UNL     1     -11.717  10.527  69.988  1.00  0.00    -0.312 C  
HETATM   13  C   UNL     1     -10.255  10.063  70.214  1.00  0.00    -0.206 C  
BRANCH  11  14
HETATM   14  C   UNL     1     -11.351  12.688  68.817  1.00  0.00    -0.289 C  
BRANCH  14  15
HETATM   15  C   UNL     1     -11.344  13.385  67.445  1.00  0.00    -0.338 A  
HETATM   16  C   UNL     1     -10.117  13.774  66.867  1.00  0.00    -0.260 A  
HETATM   17  C   UNL     1     -12.508  13.531  66.672  1.00  0.00    -0.263 A  
HETATM   18  C   UNL     1     -10.059  14.246  65.552  1.00  0.00    -0.370 A  
HETATM   19  C   UNL     1     -11.223  14.357  64.797  1.00  0.00    -0.391 A  
HETATM   20  C   UNL     1     -12.450  14.016  65.361  1.00  0.00    -0.520 A  
ENDBRANCH  14  15
BRANCH  14  21
HETATM   21  C   UNL     1     -11.987  13.536  69.931  1.00  0.00    -0.416 A  
HETATM   22  C   UNL     1     -12.035  15.634  71.177  1.00  0.00    -0.457 A  
HETATM   23  C   UNL     1     -13.271  13.727  71.996  1.00  0.00    -0.520 A  
HETATM   24  C   UNL     1     -11.605  14.884  70.078  1.00  0.00    -0.331 A  
HETATM   25 CL   UNL     1     -13.364  15.963  73.501  1.00  0.00    -0.599 Cl 
HETATM   26  C   UNL     1     -12.829  12.974  70.905  1.00  0.00    -0.222 A  
HETATM   27  C   UNL     1     -12.864  15.051  72.131  1.00  0.00    -0.335 A  
ENDBRANCH  14  21
ENDBRANCH  11  14
ENDBRANCH   7   8
ENDBRANCH   6   7
ENDBRANCH   5   6
ENDBRANCH   4   5
ENDBRANCH   2   4
TORSDOF 8
ENDMDL
MODEL       17
REMARK 921   NORMALIZED FREE ENERGY PREDICTED BY IDOCK:   -5.97 KCAL/MOL
REMARK 922        TOTAL FREE ENERGY PREDICTED BY IDOCK:   -9.00 KCAL/MOL
REMARK 923 INTER-LIGAND FREE ENERGY PREDICTED BY IDOCK:   -8.11 KCAL/MOL
REMARK 924 INTRA-LIGAND FREE ENERGY PREDICTED BY IDOCK:   -0.89 KCAL/MOL
REMARK 927      BINDING AFFINITY PREDICTED BY RF-SCORE:    0.00 PKD
ROOT
HETATM    1  O   UNL     1     -14.172   8.873  73.355  1.00  0.00    -1.241 OA 
HETATM    2  C   UNL     1     -14.302   8.363  72.033  1.00  0.00    -0.464 C  
HETATM    3  H   UNL     1     -14.965   9.336  73.600  1.00  0.00     0.000 HD 
ENDROOT
BRANCH   2   4
HETATM    4  C   UNL     1     -13.032   7.623  71.640  1.00  0.00    -0.350 C  
BRANCH   4   5
HETATM    5  O   UNL     1     -11.930   8.114  72.404  1.00  0.00    -0.352 OA 
BRANCH   5   6
HETATM    6  C   UNL     1     -10.692   7.659  71.850  1.00  0.00    -0.220 C  
BRANCH   6   7
HETATM    7  C   UNL     1     -10.762   7.725  70.319  1.00  0.00    -0.236 C  
BRANCH   7   8
HETATM    8  N   UNL     1      -9.765   8.625  69.702  1.00  0.00    -0.177 NA 
HETATM    9  C   UNL     1      -9.677   8.474  68.234  1.00  0.00    -0.155 C  
HETATM   10  C   UNL     1     -10.879   9.060  67.452  1.00  0.00    -0.045 C  
HETATM   11  N   UNL     1     -11.145  10.493  67.731  1.00  0.00    -0.309 NA 
HETATM   12  C   UNL     1     -11.264  10.632  69.206  1.00  0.00    -0.273 C  
HETATM   13  C   UNL     1     -10.086  10.037  70.019  1.00  0.00    -0.239 C  
BRANCH  11  14
HETATM   14  C   UNL     1     -10.088  11.384  67.151  1.00  0.00    -0.198 C  
BRANCH  14  15
HETATM   15  C   UNL     1      -9.927  11.179  65.634  1.00  0.00    -0.297 A  
HETATM   16  C   UNL     1     -10.889  11.715  64.752  1.00  0.00    -0.367 A  
HETATM   17  C   UNL     1      -8.781  10.592  65.074  1.00  0.00    -0.193 A  
HETATM   18  C   UNL     1     -10.684  11.701  63.369  1.00  0.00    -0.460 A  
HETATM   19  C   UNL     1      -9.528  11.137  62.839  1.00  0.00    -0.382 A  
HETATM   20  C   UNL     1      -8.583  10.567  63.689  1.00  0.00    -0.156 A  
ENDBRANCH  14  15
BRANCH  14  21
HETATM   21  C   UNL     1     -10.287  12.855  67.552  1.00  0.00    -0.223 A  
HETATM   22  C   UNL     1     -11.708  14.839  67.541  1.00  0.00    -0.370 A  
HETATM   23  C   UNL     1      -9.391  15.030  68.195  1.00  0.00    -0.187 A  
HETATM   24  C   UNL     1     -11.539  13.465  67.344  1.00  0.00    -0.394 A  
HETATM   25 CL   UNL     1     -10.830  17.311  68.171  1.00  0.00    -0.353 Cl 
HETATM   26  C   UNL     1      -9.220  13.660  67.984  1.00  0.00    -0.197 A  
HETATM   27  C   UNL     1     -10.632  15.615  67.963  1.00  0.00    -0.271 A  
ENDBRANCH  14  21
ENDBRANCH  11  14
ENDBRANCH   7   8
ENDBRANCH   6   7
ENDBRANCH   5   6
ENDBRANCH   4   5
ENDBRANCH   2   4
TORSDOF 8
ENDMDL
MODEL       18
REMARK 921   NORMALIZED FREE ENERGY PREDICTED BY IDOCK:   -5.96 KCAL/MOL
REMARK 922        TOTAL FREE ENERGY PREDICTED BY IDOCK:   -8.98 KCAL/MOL
REMARK 923 INTER-LIGAND FREE ENERGY PREDICTED BY IDOCK:   -8.11 KCAL/MOL
REMARK 924 INTRA-LIGAND FREE ENERGY PREDICTED BY IDOCK:   -0.87 KCAL/MOL
REMARK 927      BINDING AFFINITY PREDICTED BY RF-SCORE:    0.00 PKD
ROOT
HETATM    1  O   UNL     1     -11.540  16.432  63.823  1.00  0.00    -1.605 OA 
HETATM    2  C   UNL     1     -11.193  15.311  64.628  1.00  0.00    -0.356 C  
HETATM    3  H   UNL     1     -10.858  17.091  63.878  1.00  0.00     0.000 HD 
ENDROOT
BRANCH   2   4
HETATM    4  C   UNL     1     -12.285  14.256  64.541  1.00  0.00    -0.455 C  
BRANCH   4   5
HETATM    5  O   UNL     1     -12.515  13.690  65.831  1.00  0.00    -0.453 OA 
BRANCH   5   6
HETATM    6  C   UNL     1     -11.439  14.011  66.719  1.00  0.00    -0.363 C  
BRANCH   6   7
HETATM    7  C   UNL     1     -11.594  13.211  68.019  1.00  0.00    -0.334 C  
BRANCH   7   8
HETATM    8  N   UNL     1     -11.940  11.788  67.820  1.00  0.00    -0.600 NA 
HETATM    9  C   UNL     1     -10.897  11.032  67.095  1.00  0.00    -0.282 C  
HETATM   10  C   UNL     1      -9.621  10.738  67.921  1.00  0.00    -0.160 C  
HETATM   11  N   UNL     1      -9.875  10.023  69.197  1.00  0.00    -0.193 NA 
HETATM   12  C   UNL     1     -10.900  10.804  69.934  1.00  0.00    -0.202 C  
HETATM   13  C   UNL     1     -12.182  11.133  69.128  1.00  0.00    -0.175 C  
BRANCH  11  14
HETATM   14  C   UNL     1     -10.286   8.599  68.969  1.00  0.00    -0.213 C  
BRANCH  14  15
HETATM   15  C   UNL     1      -9.345   7.874  67.990  1.00  0.00    -0.152 A  
HETATM   16  C   UNL     1      -7.970   7.777  68.289  1.00  0.00    -0.122 A  
HETATM   17  C   UNL     1      -9.823   7.176  66.868  1.00  0.00    -0.271 A  
HETATM   18  C   UNL     1      -7.121   6.979  67.516  1.00  0.00    -0.085 A  
HETATM   19  C   UNL     1      -7.622   6.277  66.425  1.00  0.00    -0.094 A  
HETATM   20  C   UNL     1      -8.970   6.388  66.089  1.00  0.00    -0.162 A  
ENDBRANCH  14  15
BRANCH  14  21
HETATM   21  C   UNL     1     -10.499   7.841  70.290  1.00  0.00    -0.225 A  
HETATM   22  C   UNL     1      -9.547   6.953  72.354  1.00  0.00    -0.167 A  
HETATM   23  C   UNL     1     -11.766   6.283  71.674  1.00  0.00    -0.342 A  
HETATM   24  C   UNL     1      -9.447   7.769  71.224  1.00  0.00    -0.173 A  
HETATM   25 CL   UNL     1     -10.815   5.181  73.945  1.00  0.00    -0.340 Cl 
HETATM   26  C   UNL     1     -11.660   7.088  70.538  1.00  0.00    -0.364 A  
HETATM   27  C   UNL     1     -10.706   6.213  72.573  1.00  0.00    -0.224 A  
ENDBRANCH  14  21
ENDBRANCH  11  14
ENDBRANCH   7   8
ENDBRANCH   6   7
ENDBRANCH   5   6
ENDBRANCH   4   5
ENDBRANCH   2   4
TORSDOF 8
ENDMDL
MODEL       19
REMARK 921   NORMALIZED FREE ENERGY PREDICTED BY IDOCK:   -5.83 KCAL/MOL
REMARK 922        TOTAL FREE ENERGY PREDICTED BY IDOCK:   -8.80 KCAL/MOL
REMARK 923 INTER-LIGAND FREE ENERGY PREDICTED BY IDOCK:   -8.33 KCAL/MOL
REMARK 924 INTRA-LIGAND FREE ENERGY PREDICTED BY IDOCK:   -0.47 KCAL/MOL
REMARK 927      BINDING AFFINITY PREDICTED BY RF-SCORE:    0.00 PKD
ROOT
HETATM    1  O   UNL     1      -9.946  20.166  67.449  1.00  0.00    -0.390 OA 
HETATM    2  C   UNL     1     -10.108  19.494  66.204  1.00  0.00    -0.469 C  
HETATM    3  H   UNL     1      -9.721  21.076  67.295  1.00  0.00     0.000 HD 
ENDROOT
BRANCH   2   4
HETATM    4  C   UNL     1     -10.467  18.037  66.450  1.00  0.00    -0.339 C  
BRANCH   4   5
HETATM    5  O   UNL     1     -10.674  17.373  65.202  1.00  0.00    -0.684 OA 
BRANCH   5   6
HETATM    6  C   UNL     1     -10.493  15.961  65.348  1.00  0.00    -0.405 C  
BRANCH   6   7
HETATM    7  C   UNL     1     -10.977  15.525  66.737  1.00  0.00    -0.257 C  
BRANCH   7   8
HETATM    8  N   UNL     1     -10.066  14.592  67.434  1.00  0.00    -0.232 NA 
HETATM    9  C   UNL     1     -10.463  14.329  68.833  1.00  0.00    -0.238 C  
HETATM   10  C   UNL     1     -11.712  13.427  68.990  1.00  0.00    -0.323 C  
HETATM   11  N   UNL     1     -11.602  12.112  68.310  1.00  0.00    -0.305 NA 
HETATM   12  C   UNL     1     -11.234  12.386  66.897  1.00  0.00    -0.305 C  
HETATM   13  C   UNL     1      -9.999  13.303  66.705  1.00  0.00    -0.263 C  
BRANCH  11  14
HETATM   14  C   UNL     1     -10.625  11.206  68.997  1.00  0.00    -0.218 C  
BRANCH  14  15
HETATM   15  C   UNL     1     -11.252  10.490  70.207  1.00  0.00    -0.391 A  
HETATM   16  C   UNL     1     -12.627  10.654  70.479  1.00  0.00    -0.433 A  
HETATM   17  C   UNL     1     -10.537   9.563  70.983  1.00  0.00    -0.392 A  
HETATM   18  C   UNL     1     -13.263   9.885  71.458  1.00  0.00    -0.501 A  
HETATM   19  C   UNL     1     -12.538   8.953  72.195  1.00  0.00    -0.467 A  
HETATM   20  C   UNL     1     -11.172   8.803  71.971  1.00  0.00    -0.443 A  
ENDBRANCH  14  15
BRANCH  14  21
HETATM   21  C   UNL     1      -9.933  10.249  68.012  1.00  0.00    -0.177 A  
HETATM   22  C   UNL     1     -10.074   8.276  66.583  1.00  0.00    -0.351 A  
HETATM   23  C   UNL     1      -7.917   9.248  67.071  1.00  0.00    -0.102 A  
HETATM   24  C   UNL     1     -10.694   9.264  67.353  1.00  0.00    -0.263 A  
HETATM   25 CL   UNL     1      -7.922   7.036  65.528  1.00  0.00    -0.122 Cl 
HETATM   26  C   UNL     1      -8.537  10.227  67.853  1.00  0.00    -0.118 A  
HETATM   27  C   UNL     1      -8.688   8.272  66.447  1.00  0.00    -0.142 A  
ENDBRANCH  14  21
ENDBRANCH  11  14
ENDBRANCH   7   8
ENDBRANCH   6   7
ENDBRANCH   5   6
ENDBRANCH   4   5
ENDBRANCH   2   4
TORSDOF 8
ENDMDL
MODEL       20
REMARK 921   NORMALIZED FREE ENERGY PREDICTED BY IDOCK:   -5.82 KCAL/MOL
REMARK 922        TOTAL FREE ENERGY PREDICTED BY IDOCK:   -8.79 KCAL/MOL
REMARK 923 INTER-LIGAND FREE ENERGY PREDICTED BY IDOCK:   -8.92 KCAL/MOL
REMARK 924 INTRA-LIGAND FREE ENERGY PREDICTED BY IDOCK:    0.13 KCAL/MOL
REMARK 927      BINDING AFFINITY PREDICTED BY RF-SCORE:    0.00 PKD
ROOT
HETATM    1  O   UNL     1      -7.548  21.381  67.199  1.00  0.00    -0.789 OA 
HETATM    2  C   UNL     1      -6.367  20.912  67.840  1.00  0.00    -0.343 C  
HETATM    3  H   UNL     1      -8.005  21.986  67.772  1.00  0.00     0.000 HD 
ENDROOT
BRANCH   2   4
HETATM    4  C   UNL     1      -5.635  19.942  66.924  1.00  0.00    -0.172 C  
BRANCH   4   5
HETATM    5  O   UNL     1      -6.146  18.622  67.110  1.00  0.00    -0.168 OA 
BRANCH   5   6
HETATM    6  C   UNL     1      -6.975  18.243  66.007  1.00  0.00    -0.280 C  
BRANCH   6   7
HETATM    7  C   UNL     1      -8.334  17.760  66.530  1.00  0.00    -0.265 C  
BRANCH   7   8
HETATM    8  N   UNL     1      -8.267  16.538  67.360  1.00  0.00    -0.159 NA 
HETATM    9  C   UNL     1      -8.801  16.733  68.724  1.00  0.00    -0.258 C  
HETATM   10  C   UNL     1     -10.343  16.856  68.802  1.00  0.00    -0.324 C  
HETATM   11  N   UNL     1     -11.075  15.711  68.203  1.00  0.00    -0.316 NA 
HETATM   12  C   UNL     1     -10.556  15.542  66.821  1.00  0.00    -0.307 C  
HETATM   13  C   UNL     1      -9.013  15.436  66.707  1.00  0.00    -0.259 C  
BRANCH  11  14
HETATM   14  C   UNL     1     -10.941  14.466  69.027  1.00  0.00    -0.256 C  
BRANCH  14  15
HETATM   15  C   UNL     1     -12.069  14.336  70.066  1.00  0.00    -0.400 A  
HETATM   16  C   UNL     1     -12.339  13.080  70.649  1.00  0.00    -0.391 A  
HETATM   17  C   UNL     1     -12.759  15.452  70.568  1.00  0.00    -0.455 A  
HETATM   18  C   UNL     1     -13.231  12.959  71.718  1.00  0.00    -0.479 A  
HETATM   19  C   UNL     1     -13.884  14.084  72.214  1.00  0.00    -0.655 A  
HETATM   20  C   UNL     1     -13.662  15.328  71.629  1.00  0.00    -0.600 A  
ENDBRANCH  14  15
BRANCH  14  21
HETATM   21  C   UNL     1     -10.764  13.212  68.156  1.00  0.00    -0.258 A  
HETATM   22  C   UNL     1      -9.320  11.400  67.389  1.00  0.00    -0.171 A  
HETATM   23  C   UNL     1     -11.409  11.828  66.253  1.00  0.00    -0.350 A  
HETATM   24  C   UNL     1      -9.589  12.445  68.278  1.00  0.00    -0.211 A  
HETATM   25 CL   UNL     1      -9.884   9.834  65.266  1.00  0.00    -0.384 Cl 
HETATM   26  C   UNL     1     -11.669  12.882  67.133  1.00  0.00    -0.437 A  
HETATM   27  C   UNL     1     -10.231  11.097  66.380  1.00  0.00    -0.233 A  
ENDBRANCH  14  21
ENDBRANCH  11  14
ENDBRANCH   7   8
ENDBRANCH   6   7
ENDBRANCH   5   6
ENDBRANCH   4   5
ENDBRANCH   2   4
TORSDOF 8
ENDMDL
MODEL       21
REMARK 921   NORMALIZED FREE ENERGY PREDICTED BY IDOCK:   -5.82 KCAL/MOL
REMARK 922        TOTAL FREE ENERGY PREDICTED BY IDOCK:   -8.78 KCAL/MOL
REMARK 923 INTER-LIGAND FREE ENERGY PREDICTED BY IDOCK:   -8.24 KCAL/MOL
REMARK 924 INTRA-LIGAND FREE ENERGY PREDICTED BY IDOCK:   -0.54 KCAL/MOL
REMARK 927      BINDING AFFINITY PREDICTED BY RF-SCORE:    0.00 PKD
ROOT
HETATM    1  O   UNL     1     -12.460  13.874  62.847  1.00  0.00    -1.034 OA 
HETATM    2  C   UNL     1     -12.027  12.651  63.430  1.00  0.00    -0.528 C  
HETATM    3  H   UNL     1     -12.216  13.897  61.929  1.00  0.00     0.000 HD 
ENDROOT
BRANCH   2   4
HETATM    4  C   UNL     1     -12.417  12.615  64.900  1.00  0.00    -0.494 C  
BRANCH   4   5
HETATM    5  O   UNL     1     -12.801  13.921  65.330  1.00  0.00    -0.689 OA 
BRANCH   5   6
HETATM    6  C   UNL     1     -12.255  14.206  66.622  1.00  0.00    -0.418 C  
BRANCH   6   7
HETATM    7  C   UNL     1     -10.859  13.578  66.735  1.00  0.00    -0.282 C  
BRANCH   7   8
HETATM    8  N   UNL     1     -10.461  13.224  68.115  1.00  0.00    -0.238 NA 
HETATM    9  C   UNL     1     -11.551  12.594  68.890  1.00  0.00    -0.317 C  
HETATM   10  C   UNL     1     -11.880  11.139  68.474  1.00  0.00    -0.260 C  
HETATM   11  N   UNL     1     -10.719  10.216  68.521  1.00  0.00    -0.218 NA 
HETATM   12  C   UNL     1      -9.639  10.840  67.714  1.00  0.00    -0.162 C  
HETATM   13  C   UNL     1      -9.299  12.305  68.091  1.00  0.00    -0.205 C  
BRANCH  11  14
HETATM   14  C   UNL     1     -10.293   9.921  69.927  1.00  0.00    -0.258 C  
BRANCH  14  15
HETATM   15  C   UNL     1     -11.433   9.311  70.762  1.00  0.00    -0.351 A  
HETATM   16  C   UNL     1     -12.310  10.159  71.469  1.00  0.00    -0.505 A  
HETATM   17  C   UNL     1     -11.726   7.937  70.740  1.00  0.00    -0.230 A  
HETATM   18  C   UNL     1     -13.456   9.653  72.090  1.00  0.00    -0.516 A  
HETATM   19  C   UNL     1     -13.739   8.291  72.032  1.00  0.00    -0.381 A  
HETATM   20  C   UNL     1     -12.866   7.430  71.372  1.00  0.00    -0.408 A  
ENDBRANCH  14  15
BRANCH  14  21
HETATM   21  C   UNL     1      -8.992   9.103  69.978  1.00  0.00    -0.201 A  
HETATM   22  C   UNL     1      -7.812   7.037  69.432  1.00  0.00    -0.113 A  
HETATM   23  C   UNL     1      -6.816   8.615  70.967  1.00  0.00    -0.066 A  
HETATM   24  C   UNL     1      -8.913   7.885  69.275  1.00  0.00    -0.145 A  
HETATM   25 CL   UNL     1      -5.431   6.348  70.498  1.00  0.00    -0.018 Cl 
HETATM   26  C   UNL     1      -7.923   9.454  70.820  1.00  0.00    -0.154 A  
HETATM   27  C   UNL     1      -6.770   7.406  70.278  1.00  0.00    -0.047 A  
ENDBRANCH  14  21
ENDBRANCH  11  14
ENDBRANCH   7   8
ENDBRANCH   6   7
ENDBRANCH   5   6
ENDBRANCH   4   5
ENDBRANCH   2   4
TORSDOF 8
ENDMDL
MODEL       22
REMARK 921   NORMALIZED FREE ENERGY PREDICTED BY IDOCK:   -5.82 KCAL/MOL
REMARK 922        TOTAL FREE ENERGY PREDICTED BY IDOCK:   -8.78 KCAL/MOL
REMARK 923 INTER-LIGAND FREE ENERGY PREDICTED BY IDOCK:   -9.22 KCAL/MOL
REMARK 924 INTRA-LIGAND FREE ENERGY PREDICTED BY IDOCK:    0.44 KCAL/MOL
REMARK 927      BINDING AFFINITY PREDICTED BY RF-SCORE:    0.00 PKD
ROOT
HETATM    1  O   UNL     1      -7.497  11.185  62.350  1.00  0.00    -0.400 OA 
HETATM    2  C   UNL     1      -8.104  10.337  63.318  1.00  0.00    -0.157 C  
HETATM    3  H   UNL     1      -6.587  10.937  62.231  1.00  0.00     0.000 HD 
ENDROOT
BRANCH   2   4
HETATM    4  C   UNL     1      -9.560  10.734  63.509  1.00  0.00    -0.320 C  
BRANCH   4   5
HETATM    5  O   UNL     1      -9.704  12.144  63.332  1.00  0.00    -0.330 OA 
BRANCH   5   6
HETATM    6  C   UNL     1     -11.054  12.546  63.583  1.00  0.00    -0.467 C  
BRANCH   6   7
HETATM    7  C   UNL     1     -11.104  13.398  64.859  1.00  0.00    -0.335 C  
BRANCH   7   8
HETATM    8  N   UNL     1     -12.131  12.973  65.834  1.00  0.00    -0.433 NA 
HETATM    9  C   UNL     1     -11.752  11.756  66.584  1.00  0.00    -0.093 C  
HETATM   10  C   UNL     1     -10.648  11.973  67.648  1.00  0.00    -0.210 C  
HETATM   11  N   UNL     1     -10.964  13.025  68.647  1.00  0.00    -0.256 NA 
HETATM   12  C   UNL     1     -11.314  14.252  67.887  1.00  0.00    -0.297 C  
HETATM   13  C   UNL     1     -12.402  14.065  66.799  1.00  0.00    -0.332 C  
BRANCH  11  14
HETATM   14  C   UNL     1     -12.052  12.597  69.586  1.00  0.00    -0.213 C  
BRANCH  14  15
HETATM   15  C   UNL     1     -11.842  11.161  70.099  1.00  0.00    -0.449 A  
HETATM   16  C   UNL     1     -10.554  10.587  70.057  1.00  0.00    -0.223 A  
HETATM   17  C   UNL     1     -12.861  10.438  70.742  1.00  0.00    -0.450 A  
HETATM   18  C   UNL     1     -10.294   9.359  70.673  1.00  0.00    -0.349 A  
HETATM   19  C   UNL     1     -11.313   8.674  71.326  1.00  0.00    -0.341 A  
HETATM   20  C   UNL     1     -12.602   9.204  71.346  1.00  0.00    -0.390 A  
ENDBRANCH  14  15
BRANCH  14  21
HETATM   21  C   UNL     1     -12.282  13.621  70.709  1.00  0.00    -0.424 A  
HETATM   22  C   UNL     1     -11.463  15.544  71.970  1.00  0.00    -0.515 A  
HETATM   23  C   UNL     1     -13.370  14.304  72.783  1.00  0.00    -0.621 A  
HETATM   24  C   UNL     1     -11.382  14.693  70.863  1.00  0.00    -0.140 A  
HETATM   25 CL   UNL     1     -12.535  16.370  74.304  1.00  0.00    -0.605 Cl 
HETATM   26  C   UNL     1     -13.279  13.446  71.684  1.00  0.00    -0.449 A  
HETATM   27  C   UNL     1     -12.456  15.345  72.925  1.00  0.00    -0.418 A  
ENDBRANCH  14  21
ENDBRANCH  11  14
ENDBRANCH   7   8
ENDBRANCH   6   7
ENDBRANCH   5   6
ENDBRANCH   4   5
ENDBRANCH   2   4
TORSDOF 8
ENDMDL
MODEL       23
REMARK 921   NORMALIZED FREE ENERGY PREDICTED BY IDOCK:   -5.78 KCAL/MOL
REMARK 922        TOTAL FREE ENERGY PREDICTED BY IDOCK:   -8.73 KCAL/MOL
REMARK 923 INTER-LIGAND FREE ENERGY PREDICTED BY IDOCK:   -7.88 KCAL/MOL
REMARK 924 INTRA-LIGAND FREE ENERGY PREDICTED BY IDOCK:   -0.84 KCAL/MOL
REMARK 927      BINDING AFFINITY PREDICTED BY RF-SCORE:    0.00 PKD
ROOT
HETATM    1  O   UNL     1      -8.320  10.636  70.000  1.00  0.00    -0.305 OA 
HETATM    2  C   UNL     1      -8.970   9.408  70.310  1.00  0.00    -0.240 C  
HETATM    3  H   UNL     1      -7.562  10.748  70.562  1.00  0.00     0.000 HD 
ENDROOT
BRANCH   2   4
HETATM    4  C   UNL     1     -10.184   9.229  69.411  1.00  0.00    -0.210 C  
BRANCH   4   5
HETATM    5  O   UNL     1      -9.837   9.539  68.062  1.00  0.00    -0.148 OA 
BRANCH   5   6
HETATM    6  C   UNL     1     -10.983  10.007  67.343  1.00  0.00    -0.191 C  
BRANCH   6   7
HETATM    7  C   UNL     1     -10.586  11.207  66.473  1.00  0.00    -0.262 C  
BRANCH   7   8
HETATM    8  N   UNL     1     -11.444  12.398  66.652  1.00  0.00    -0.349 NA 
HETATM    9  C   UNL     1     -11.995  12.518  68.018  1.00  0.00    -0.223 C  
HETATM   10  C   UNL     1     -10.964  12.941  69.094  1.00  0.00    -0.133 C  
HETATM   11  N   UNL     1     -10.257  14.211  68.793  1.00  0.00    -0.233 NA 
HETATM   12  C   UNL     1      -9.679  14.071  67.431  1.00  0.00    -0.233 C  
HETATM   13  C   UNL     1     -10.681  13.629  66.334  1.00  0.00    -0.281 C  
BRANCH  11  14
HETATM   14  C   UNL     1     -11.161  15.400  68.917  1.00  0.00    -0.292 C  
BRANCH  14  15
HETATM   15  C   UNL     1     -11.919  15.413  70.258  1.00  0.00    -0.386 A  
HETATM   16  C   UNL     1     -11.304  15.967  71.400  1.00  0.00    -0.407 A  
HETATM   17  C   UNL     1     -13.262  15.018  70.364  1.00  0.00    -0.147 A  
HETATM   18  C   UNL     1     -12.023  16.155  72.584  1.00  0.00    -0.653 A  
HETATM   19  C   UNL     1     -13.361  15.779  72.657  1.00  0.00    -0.607 A  
HETATM   20  C   UNL     1     -13.977  15.194  71.553  1.00  0.00    -0.614 A  
ENDBRANCH  14  15
BRANCH  14  21
HETATM   21  C   UNL     1     -10.429  16.717  68.615  1.00  0.00    -0.333 A  
HETATM   22  C   UNL     1     -10.400  18.860  67.447  1.00  0.00    -0.496 A  
HETATM   23  C   UNL     1      -8.385  18.043  68.498  1.00  0.00    -0.313 A  
HETATM   24  C   UNL     1     -11.088  17.723  67.881  1.00  0.00     0.070 A  
HETATM   25 CL   UNL     1      -8.197  20.395  67.192  1.00  0.00    -0.381 Cl 
HETATM   26  C   UNL     1      -9.069  16.900  68.920  1.00  0.00    -0.223 A  
HETATM   27  C   UNL     1      -9.052  19.014  67.756  1.00  0.00    -0.292 A  
ENDBRANCH  14  21
ENDBRANCH  11  14
ENDBRANCH   7   8
ENDBRANCH   6   7
ENDBRANCH   5   6
ENDBRANCH   4   5
ENDBRANCH   2   4
TORSDOF 8
ENDMDL
MODEL       24
REMARK 921   NORMALIZED FREE ENERGY PREDICTED BY IDOCK:   -5.69 KCAL/MOL
REMARK 922        TOTAL FREE ENERGY PREDICTED BY IDOCK:   -8.59 KCAL/MOL
REMARK 923 INTER-LIGAND FREE ENERGY PREDICTED BY IDOCK:   -7.81 KCAL/MOL
REMARK 924 INTRA-LIGAND FREE ENERGY PREDICTED BY IDOCK:   -0.79 KCAL/MOL
REMARK 927      BINDING AFFINITY PREDICTED BY RF-SCORE:    0.00 PKD
ROOT
HETATM    1  O   UNL     1     -14.166   8.875  73.370  1.00  0.00    -1.241 OA 
HETATM    2  C   UNL     1     -14.094   8.600  71.975  1.00  0.00    -0.453 C  
HETATM    3  H   UNL     1     -15.064   9.070  73.612  1.00  0.00     0.000 HD 
ENDROOT
BRANCH   2   4
HETATM    4  C   UNL     1     -12.656   8.288  71.587  1.00  0.00    -0.327 C  
BRANCH   4   5
HETATM    5  O   UNL     1     -12.551   6.923  71.181  1.00  0.00    -0.376 OA 
BRANCH   5   6
HETATM    6  C   UNL     1     -11.359   6.717  70.415  1.00  0.00    -0.347 C  
BRANCH   6   7
HETATM    7  C   UNL     1     -10.525   8.005  70.412  1.00  0.00    -0.218 C  
BRANCH   7   8
HETATM    8  N   UNL     1      -9.850   8.290  69.128  1.00  0.00    -0.175 NA 
HETATM    9  C   UNL     1     -10.786   8.688  68.055  1.00  0.00    -0.074 C  
HETATM   10  C   UNL     1     -11.374  10.113  68.209  1.00  0.00    -0.114 C  
HETATM   11  N   UNL     1     -10.352  11.183  68.320  1.00  0.00    -0.173 NA 
HETATM   12  C   UNL     1      -9.434  10.792  69.420  1.00  0.00    -0.012 C  
HETATM   13  C   UNL     1      -8.843   9.363  69.308  1.00  0.00    -0.150 C  
BRANCH  11  14
HETATM   14  C   UNL     1      -9.635  11.412  67.023  1.00  0.00    -0.176 C  
BRANCH  14  15
HETATM   15  C   UNL     1     -10.609  11.705  65.867  1.00  0.00    -0.318 A  
HETATM   16  C   UNL     1     -11.774  12.463  66.112  1.00  0.00    -0.460 A  
HETATM   17  C   UNL     1     -10.318  11.364  64.536  1.00  0.00    -0.369 A  
HETATM   18  C   UNL     1     -12.585  12.896  65.059  1.00  0.00    -0.538 A  
HETATM   19  C   UNL     1     -12.261  12.567  63.746  1.00  0.00    -0.615 A  
HETATM   20  C   UNL     1     -11.137  11.786  63.485  1.00  0.00    -0.503 A  
ENDBRANCH  14  15
BRANCH  14  21
HETATM   21  C   UNL     1      -8.514  12.455  67.158  1.00  0.00    -0.185 A  
HETATM   22  C   UNL     1      -6.151  12.930  67.538  1.00  0.00    -0.143 A  
HETATM   23  C   UNL     1      -7.761  14.729  67.617  1.00  0.00    -0.199 A  
HETATM   24  C   UNL     1      -7.176  12.025  67.248  1.00  0.00    -0.150 A  
HETATM   25 CL   UNL     1      -5.192  15.385  68.113  1.00  0.00    -0.114 Cl 
HETATM   26  C   UNL     1      -8.786  13.821  67.342  1.00  0.00    -0.211 A  
HETATM   27  C   UNL     1      -6.448  14.277  67.722  1.00  0.00    -0.166 A  
ENDBRANCH  14  21
ENDBRANCH  11  14
ENDBRANCH   7   8
ENDBRANCH   6   7
ENDBRANCH   5   6
ENDBRANCH   4   5
ENDBRANCH   2   4
TORSDOF 8
ENDMDL
MODEL       25
REMARK 921   NORMALIZED FREE ENERGY PREDICTED BY IDOCK:   -5.69 KCAL/MOL
REMARK 922        TOTAL FREE ENERGY PREDICTED BY IDOCK:   -8.58 KCAL/MOL
REMARK 923 INTER-LIGAND FREE ENERGY PREDICTED BY IDOCK:   -8.42 KCAL/MOL
REMARK 924 INTRA-LIGAND FREE ENERGY PREDICTED BY IDOCK:   -0.17 KCAL/MOL
REMARK 927      BINDING AFFINITY PREDICTED BY RF-SCORE:    0.00 PKD
ROOT
HETATM    1  O   UNL     1     -11.451   4.531  64.861  1.00  0.00    -1.056 OA 
HETATM    2  C   UNL     1     -10.137   4.010  65.022  1.00  0.00    -0.195 C  
HETATM    3  H   UNL     1     -11.753   4.371  63.975  1.00  0.00     0.000 HD 
ENDROOT
BRANCH   2   4
HETATM    4  C   UNL     1      -9.652   4.266  66.441  1.00  0.00    -0.198 C  
BRANCH   4   5
HETATM    5  O   UNL     1      -9.131   5.592  66.542  1.00  0.00    -0.130 OA 
BRANCH   5   6
HETATM    6  C   UNL     1      -8.721   5.870  67.885  1.00  0.00    -0.104 C  
BRANCH   6   7
HETATM    7  C   UNL     1      -8.697   7.388  68.108  1.00  0.00    -0.122 C  
BRANCH   7   8
HETATM    8  N   UNL     1      -9.998   8.055  67.889  1.00  0.00    -0.171 NA 
HETATM    9  C   UNL     1     -10.624   8.532  69.141  1.00  0.00    -0.173 C  
HETATM   10  C   UNL     1      -9.946   9.775  69.767  1.00  0.00    -0.236 C  
HETATM   11  N   UNL     1      -9.849  10.941  68.853  1.00  0.00    -0.197 NA 
HETATM   12  C   UNL     1      -9.192  10.462  67.610  1.00  0.00    -0.148 C  
HETATM   13  C   UNL     1      -9.834   9.205  66.968  1.00  0.00    -0.207 C  
BRANCH  11  14
HETATM   14  C   UNL     1     -11.189  11.563  68.595  1.00  0.00    -0.248 C  
BRANCH  14  15
HETATM   15  C   UNL     1     -11.849  12.072  69.889  1.00  0.00    -0.405 A  
HETATM   16  C   UNL     1     -11.983  13.460  70.104  1.00  0.00    -0.396 A  
HETATM   17  C   UNL     1     -12.456  11.205  70.813  1.00  0.00    -0.479 A  
HETATM   18  C   UNL     1     -12.731  13.953  71.178  1.00  0.00    -0.441 A  
HETATM   19  C   UNL     1     -13.344  13.073  72.065  1.00  0.00    -0.588 A  
HETATM   20  C   UNL     1     -13.193  11.699  71.893  1.00  0.00    -0.475 A  
ENDBRANCH  14  15
BRANCH  14  21
HETATM   21  C   UNL     1     -11.129  12.622  67.481  1.00  0.00    -0.313 A  
HETATM   22  C   UNL     1     -10.318  14.793  66.717  1.00  0.00    -0.268 A  
HETATM   23  C   UNL     1     -12.040  13.651  65.466  1.00  0.00    -0.440 A  
HETATM   24  C   UNL     1     -10.275  13.733  67.627  1.00  0.00    -0.242 A  
HETATM   25 CL   UNL     1     -11.280  16.068  64.543  1.00  0.00    -0.420 Cl 
HETATM   26  C   UNL     1     -12.007  12.598  66.384  1.00  0.00    -0.425 A  
HETATM   27  C   UNL     1     -11.202  14.748  65.642  1.00  0.00    -0.343 A  
ENDBRANCH  14  21
ENDBRANCH  11  14
ENDBRANCH   7   8
ENDBRANCH   6   7
ENDBRANCH   5   6
ENDBRANCH   4   5
ENDBRANCH   2   4
TORSDOF 8
ENDMDL
MODEL       26
REMARK 921   NORMALIZED FREE ENERGY PREDICTED BY IDOCK:   -5.66 KCAL/MOL
REMARK 922        TOTAL FREE ENERGY PREDICTED BY IDOCK:   -8.54 KCAL/MOL
REMARK 923 INTER-LIGAND FREE ENERGY PREDICTED BY IDOCK:   -7.76 KCAL/MOL
REMARK 924 INTRA-LIGAND FREE ENERGY PREDICTED BY IDOCK:   -0.78 KCAL/MOL
REMARK 927      BINDING AFFINITY PREDICTED BY RF-SCORE:    0.00 PKD
ROOT
HETATM    1  O   UNL     1     -14.275   8.940  73.154  1.00  0.00    -1.144 OA 
HETATM    2  C   UNL     1     -14.405   8.072  72.034  1.00  0.00    -0.410 C  
HETATM    3  H   UNL     1     -15.112   9.349  73.343  1.00  0.00     0.000 HD 
ENDROOT
BRANCH   2   4
HETATM    4  C   UNL     1     -13.065   7.418  71.731  1.00  0.00    -0.317 C  
BRANCH   4   5
HETATM    5  O   UNL     1     -12.052   7.986  72.563  1.00  0.00    -0.338 OA 
BRANCH   5   6
HETATM    6  C   UNL     1     -10.955   8.451  71.770  1.00  0.00    -0.291 C  
BRANCH   6   7
HETATM    7  C   UNL     1     -11.296   9.828  71.185  1.00  0.00    -0.389 C  
BRANCH   7   8
HETATM    8  N   UNL     1     -11.711   9.801  69.767  1.00  0.00    -0.037 NA 
HETATM    9  C   UNL     1     -12.059  11.137  69.238  1.00  0.00    -0.308 C  
HETATM   10  C   UNL     1     -10.847  12.071  68.998  1.00  0.00    -0.177 C  
HETATM   11  N   UNL     1      -9.808  11.500  68.103  1.00  0.00    -0.188 NA 
HETATM   12  C   UNL     1      -9.441  10.173  68.658  1.00  0.00    -0.164 C  
HETATM   13  C   UNL     1     -10.634   9.221  68.930  1.00  0.00    -0.199 C  
BRANCH  11  14
HETATM   14  C   UNL     1     -10.274  11.423  66.680  1.00  0.00    -0.222 C  
BRANCH  14  15
HETATM   15  C   UNL     1     -10.813  12.774  66.174  1.00  0.00    -0.303 A  
HETATM   16  C   UNL     1      -9.914  13.831  65.917  1.00  0.00    -0.308 A  
HETATM   17  C   UNL     1     -12.160  12.959  65.821  1.00  0.00    -0.513 A  
HETATM   18  C   UNL     1     -10.345  15.005  65.292  1.00  0.00    -0.424 A  
HETATM   19  C   UNL     1     -11.680  15.155  64.929  1.00  0.00    -0.290 A  
HETATM   20  C   UNL     1     -12.592  14.139  65.208  1.00  0.00    -0.460 A  
ENDBRANCH  14  15
BRANCH  14  21
HETATM   21  C   UNL     1      -9.213  10.803  65.757  1.00  0.00    -0.215 A  
HETATM   22  C   UNL     1      -8.696   9.352  63.864  1.00  0.00    -0.225 A  
HETATM   23  C   UNL     1      -6.916  10.116  65.307  1.00  0.00    -0.137 A  
HETATM   24  C   UNL     1      -9.623  10.067  64.628  1.00  0.00    -0.363 A  
HETATM   25 CL   UNL     1      -6.211   8.471  63.289  1.00  0.00    -0.085 Cl 
HETATM   26  C   UNL     1      -7.845  10.818  66.079  1.00  0.00    -0.149 A  
HETATM   27  C   UNL     1      -7.347   9.379  64.208  1.00  0.00    -0.109 A  
ENDBRANCH  14  21
ENDBRANCH  11  14
ENDBRANCH   7   8
ENDBRANCH   6   7
ENDBRANCH   5   6
ENDBRANCH   4   5
ENDBRANCH   2   4
TORSDOF 8
ENDMDL
MODEL       27
REMARK 921   NORMALIZED FREE ENERGY PREDICTED BY IDOCK:   -5.63 KCAL/MOL
REMARK 922        TOTAL FREE ENERGY PREDICTED BY IDOCK:   -8.50 KCAL/MOL
REMARK 923 INTER-LIGAND FREE ENERGY PREDICTED BY IDOCK:   -7.80 KCAL/MOL
REMARK 924 INTRA-LIGAND FREE ENERGY PREDICTED BY IDOCK:   -0.70 KCAL/MOL
REMARK 927      BINDING AFFINITY PREDICTED BY RF-SCORE:    0.00 PKD
ROOT
HETATM    1  O   UNL     1     -13.409  16.287  73.978  1.00  0.00    -0.948 OA 
HETATM    2  C   UNL     1     -13.304  15.649  72.710  1.00  0.00    -0.549 C  
HETATM    3  H   UNL     1     -14.235  16.053  74.387  1.00  0.00     0.000 HD 
ENDROOT
BRANCH   2   4
HETATM    4  C   UNL     1     -11.983  16.024  72.054  1.00  0.00    -0.537 C  
BRANCH   4   5
HETATM    5  O   UNL     1     -11.449  14.895  71.363  1.00  0.00    -0.331 OA 
BRANCH   5   6
HETATM    6  C   UNL     1     -12.298  14.526  70.271  1.00  0.00    -0.349 C  
BRANCH   6   7
HETATM    7  C   UNL     1     -11.478  14.495  68.975  1.00  0.00    -0.290 C  
BRANCH   7   8
HETATM    8  N   UNL     1     -11.863  13.418  68.037  1.00  0.00    -0.355 NA 
HETATM    9  C   UNL     1     -10.984  13.339  66.851  1.00  0.00    -0.283 C  
HETATM   10  C   UNL     1      -9.572  12.767  67.132  1.00  0.00    -0.219 C  
HETATM   11  N   UNL     1      -9.575  11.425  67.766  1.00  0.00    -0.169 NA 
HETATM   12  C   UNL     1     -10.434  11.520  68.974  1.00  0.00    -0.145 C  
HETATM   13  C   UNL     1     -11.848  12.108  68.731  1.00  0.00    -0.303 C  
BRANCH  11  14
HETATM   14  C   UNL     1     -10.029  10.357  66.816  1.00  0.00    -0.206 C  
BRANCH  14  15
HETATM   15  C   UNL     1      -9.343  10.474  65.443  1.00  0.00    -0.255 A  
HETATM   16  C   UNL     1      -7.992  10.089  65.304  1.00  0.00    -0.143 A  
HETATM   17  C   UNL     1     -10.048  10.822  64.279  1.00  0.00    -0.427 A  
HETATM   18  C   UNL     1      -7.392  10.015  64.043  1.00  0.00    -0.132 A  
HETATM   19  C   UNL     1      -8.119  10.339  62.902  1.00  0.00    -0.156 A  
HETATM   20  C   UNL     1      -9.442  10.760  63.020  1.00  0.00    -0.372 A  
ENDBRANCH  14  15
BRANCH  14  21
HETATM   21  C   UNL     1      -9.927   8.953  67.434  1.00  0.00    -0.267 A  
HETATM   22  C   UNL     1     -10.796   6.677  67.579  1.00  0.00    -0.417 A  
HETATM   23  C   UNL     1      -9.197   7.454  69.214  1.00  0.00    -0.147 A  
HETATM   24  C   UNL     1     -10.741   7.917  66.936  1.00  0.00    -0.219 A  
HETATM   25 CL   UNL     1     -10.118   4.938  69.527  1.00  0.00    -0.300 Cl 
HETATM   26  C   UNL     1      -9.154   8.697  68.579  1.00  0.00    -0.138 A  
HETATM   27  C   UNL     1     -10.025   6.452  68.716  1.00  0.00    -0.147 A  
ENDBRANCH  14  21
ENDBRANCH  11  14
ENDBRANCH   7   8
ENDBRANCH   6   7
ENDBRANCH   5   6
ENDBRANCH   4   5
ENDBRANCH   2   4
TORSDOF 8
ENDMDL
MODEL       28
REMARK 921   NORMALIZED FREE ENERGY PREDICTED BY IDOCK:   -5.60 KCAL/MOL
REMARK 922        TOTAL FREE ENERGY PREDICTED BY IDOCK:   -8.46 KCAL/MOL
REMARK 923 INTER-LIGAND FREE ENERGY PREDICTED BY IDOCK:   -7.59 KCAL/MOL
REMARK 924 INTRA-LIGAND FREE ENERGY PREDICTED BY IDOCK:   -0.87 KCAL/MOL
REMARK 927      BINDING AFFINITY PREDICTED BY RF-SCORE:    0.00 PKD
ROOT
HETATM    1  O   UNL     1     -14.267   8.903  73.542  1.00  0.00    -1.194 OA 
HETATM    2  C   UNL     1     -14.343   8.302  72.254  1.00  0.00    -0.335 C  
HETATM    3  H   UNL     1     -15.109   8.835  73.978  1.00  0.00     0.000 HD 
ENDROOT
BRANCH   2   4
HETATM    4  C   UNL     1     -12.996   8.411  71.556  1.00  0.00    -0.301 C  
BRANCH   4   5
HETATM    5  O   UNL     1     -11.960   8.571  72.526  1.00  0.00    -0.389 OA 
BRANCH   5   6
HETATM    6  C   UNL     1     -10.680   8.638  71.888  1.00  0.00    -0.344 C  
BRANCH   6   7
HETATM    7  C   UNL     1     -10.872   8.802  70.374  1.00  0.00    -0.228 C  
BRANCH   7   8
HETATM    8  N   UNL     1      -9.844   9.638  69.718  1.00  0.00    -0.214 NA 
HETATM    9  C   UNL     1      -9.283   9.017  68.499  1.00  0.00    -0.136 C  
HETATM   10  C   UNL     1     -10.239   9.011  67.281  1.00  0.00    -0.256 C  
HETATM   11  N   UNL     1     -10.744  10.353  66.898  1.00  0.00    -0.236 NA 
HETATM   12  C   UNL     1     -11.334  10.957  68.120  1.00  0.00    -0.315 C  
HETATM   13  C   UNL     1     -10.410  10.961  69.364  1.00  0.00    -0.145 C  
BRANCH  11  14
HETATM   14  C   UNL     1      -9.669  11.205  66.292  1.00  0.00    -0.211 C  
BRANCH  14  15
HETATM   15  C   UNL     1      -9.028  10.541  65.061  1.00  0.00    -0.223 A  
HETATM   16  C   UNL     1      -9.793  10.361  63.889  1.00  0.00    -0.332 A  
HETATM   17  C   UNL     1      -7.661  10.226  65.005  1.00  0.00    -0.124 A  
HETATM   18  C   UNL     1      -9.197   9.926  62.701  1.00  0.00    -0.297 A  
HETATM   19  C   UNL     1      -7.835   9.645  62.664  1.00  0.00    -0.122 A  
HETATM   20  C   UNL     1      -7.069   9.778  63.820  1.00  0.00    -0.121 A  
ENDBRANCH  14  15
BRANCH  14  21
HETATM   21  C   UNL     1     -10.150  12.643  66.032  1.00  0.00    -0.274 A  
HETATM   22  C   UNL     1     -11.693  14.143  64.882  1.00  0.00    -0.395 A  
HETATM   23  C   UNL     1      -9.761  15.051  66.013  1.00  0.00    -0.359 A  
HETATM   24  C   UNL     1     -11.320  12.855  65.278  1.00  0.00    -0.333 A  
HETATM   25 CL   UNL     1     -11.350  16.815  64.733  1.00  0.00    -0.088 Cl 
HETATM   26  C   UNL     1      -9.382  13.762  66.396  1.00  0.00    -0.215 A  
HETATM   27  C   UNL     1     -10.911  15.234  65.250  1.00  0.00    -0.403 A  
ENDBRANCH  14  21
ENDBRANCH  11  14
ENDBRANCH   7   8
ENDBRANCH   6   7
ENDBRANCH   5   6
ENDBRANCH   4   5
ENDBRANCH   2   4
TORSDOF 8
ENDMDL
MODEL       29
REMARK 921   NORMALIZED FREE ENERGY PREDICTED BY IDOCK:   -5.60 KCAL/MOL
REMARK 922        TOTAL FREE ENERGY PREDICTED BY IDOCK:   -8.45 KCAL/MOL
REMARK 923 INTER-LIGAND FREE ENERGY PREDICTED BY IDOCK:   -8.05 KCAL/MOL
REMARK 924 INTRA-LIGAND FREE ENERGY PREDICTED BY IDOCK:   -0.40 KCAL/MOL
REMARK 927      BINDING AFFINITY PREDICTED BY RF-SCORE:    0.00 PKD
ROOT
HETATM    1  O   UNL     1      -9.084   8.602  64.502  1.00  0.00    -0.405 OA 
HETATM    2  C   UNL     1      -8.358   9.208  63.438  1.00  0.00    -0.192 C  
HETATM    3  H   UNL     1      -8.505   8.044  65.009  1.00  0.00     0.000 HD 
ENDROOT
BRANCH   2   4
HETATM    4  C   UNL     1      -9.284  10.101  62.626  1.00  0.00    -0.299 C  
BRANCH   4   5
HETATM    5  O   UNL     1      -9.165  11.452  63.071  1.00  0.00    -0.304 OA 
BRANCH   5   6
HETATM    6  C   UNL     1     -10.452  12.076  63.135  1.00  0.00    -0.229 C  
BRANCH   6   7
HETATM    7  C   UNL     1     -11.031  11.908  64.546  1.00  0.00    -0.322 C  
BRANCH   7   8
HETATM    8  N   UNL     1     -11.564  13.154  65.137  1.00  0.00    -0.308 NA 
HETATM    9  C   UNL     1     -12.403  12.918  66.331  1.00  0.00    -0.075 C  
HETATM   10  C   UNL     1     -11.617  12.502  67.599  1.00  0.00    -0.355 C  
HETATM   11  N   UNL     1     -10.551  13.457  67.993  1.00  0.00    -0.237 NA 
HETATM   12  C   UNL     1      -9.694  13.665  66.798  1.00  0.00    -0.275 C  
HETATM   13  C   UNL     1     -10.452  14.062  65.505  1.00  0.00    -0.327 C  
BRANCH  11  14
HETATM   14  C   UNL     1     -11.115  14.738  68.530  1.00  0.00    -0.264 C  
BRANCH  14  15
HETATM   15  C   UNL     1     -11.906  14.521  69.832  1.00  0.00    -0.373 A  
HETATM   16  C   UNL     1     -12.638  15.591  70.389  1.00  0.00    -0.421 A  
HETATM   17  C   UNL     1     -12.044  13.254  70.424  1.00  0.00    -0.401 A  
HETATM   18  C   UNL     1     -13.505  15.385  71.467  1.00  0.00    -0.601 A  
HETATM   19  C   UNL     1     -13.645  14.115  72.019  1.00  0.00    -0.540 A  
HETATM   20  C   UNL     1     -12.902  13.052  71.510  1.00  0.00    -0.386 A  
ENDBRANCH  14  15
BRANCH  14  21
HETATM   21  C   UNL     1     -10.047  15.839  68.638  1.00  0.00    -0.211 A  
HETATM   22  C   UNL     1      -9.192  17.989  67.863  1.00  0.00    -0.268 A  
HETATM   23  C   UNL     1      -7.814  16.590  69.269  1.00  0.00    -0.121 A  
HETATM   24  C   UNL     1     -10.216  17.039  67.921  1.00  0.00    -0.317 A  
HETATM   25 CL   UNL     1      -6.723  18.912  68.437  1.00  0.00    -0.259 Cl 
HETATM   26  C   UNL     1      -8.833  15.634  69.314  1.00  0.00    -0.264 A  
HETATM   27  C   UNL     1      -7.996  17.759  68.536  1.00  0.00    -0.294 A  
ENDBRANCH  14  21
ENDBRANCH  11  14
ENDBRANCH   7   8
ENDBRANCH   6   7
ENDBRANCH   5   6
ENDBRANCH   4   5
ENDBRANCH   2   4
TORSDOF 8
ENDMDL
MODEL       30
REMARK 921   NORMALIZED FREE ENERGY PREDICTED BY IDOCK:   -5.58 KCAL/MOL
REMARK 922        TOTAL FREE ENERGY PREDICTED BY IDOCK:   -8.43 KCAL/MOL
REMARK 923 INTER-LIGAND FREE ENERGY PREDICTED BY IDOCK:   -8.30 KCAL/MOL
REMARK 924 INTRA-LIGAND FREE ENERGY PREDICTED BY IDOCK:   -0.13 KCAL/MOL
REMARK 927      BINDING AFFINITY PREDICTED BY RF-SCORE:    0.00 PKD
ROOT
HETATM    1  O   UNL     1      -7.471  10.426  65.158  1.00  0.00    -0.172 OA 
HETATM    2  C   UNL     1      -7.365  10.186  63.759  1.00  0.00    -0.113 C  
HETATM    3  H   UNL     1      -6.611  10.610  65.518  1.00  0.00     0.000 HD 
ENDROOT
BRANCH   2   4
HETATM    4  C   UNL     1      -8.741   9.891  63.182  1.00  0.00    -0.222 C  
BRANCH   4   5
HETATM    5  O   UNL     1      -9.746  10.505  63.990  1.00  0.00    -0.280 OA 
BRANCH   5   6
HETATM    6  C   UNL     1     -10.537  11.406  63.208  1.00  0.00    -0.305 C  
BRANCH   6   7
HETATM    7  C   UNL     1     -11.140  12.480  64.123  1.00  0.00    -0.376 C  
BRANCH   7   8
HETATM    8  N   UNL     1     -10.260  12.896  65.236  1.00  0.00    -0.290 NA 
HETATM    9  C   UNL     1      -9.921  14.334  65.203  1.00  0.00    -0.231 C  
HETATM   10  C   UNL     1     -11.081  15.279  65.598  1.00  0.00    -0.308 C  
HETATM   11  N   UNL     1     -11.667  14.997  66.933  1.00  0.00    -0.244 NA 
HETATM   12  C   UNL     1     -12.035  13.558  66.948  1.00  0.00    -0.399 C  
HETATM   13  C   UNL     1     -10.900  12.585  66.536  1.00  0.00    -0.256 C  
BRANCH  11  14
HETATM   14  C   UNL     1     -10.733  15.367  68.045  1.00  0.00    -0.279 C  
BRANCH  14  15
HETATM   15  C   UNL     1     -10.071  16.738  67.814  1.00  0.00    -0.281 A  
HETATM   16  C   UNL     1     -10.873  17.853  67.495  1.00  0.00    -0.239 A  
HETATM   17  C   UNL     1      -8.703  16.958  68.045  1.00  0.00    -0.215 A  
HETATM   18  C   UNL     1     -10.330  19.141  67.452  1.00  0.00    -0.522 A  
HETATM   19  C   UNL     1      -8.977  19.338  67.710  1.00  0.00    -0.354 A  
HETATM   20  C   UNL     1      -8.159  18.245  67.989  1.00  0.00    -0.279 A  
ENDBRANCH  14  15
BRANCH  14  21
HETATM   21  C   UNL     1     -11.396  15.232  69.426  1.00  0.00    -0.304 A  
HETATM   22  C   UNL     1     -11.749  16.146  71.661  1.00  0.00    -0.558 A  
HETATM   23  C   UNL     1     -12.424  13.878  71.175  1.00  0.00    -0.450 A  
HETATM   24  C   UNL     1     -11.305  16.296  70.344  1.00  0.00    -0.313 A  
HETATM   25 CL   UNL     1     -12.819  14.741  73.700  1.00  0.00    -0.561 Cl 
HETATM   26  C   UNL     1     -11.967  14.025  69.863  1.00  0.00    -0.399 A  
HETATM   27  C   UNL     1     -12.305  14.938  72.071  1.00  0.00    -0.344 A  
ENDBRANCH  14  21
ENDBRANCH  11  14
ENDBRANCH   7   8
ENDBRANCH   6   7
ENDBRANCH   5   6
ENDBRANCH   4   5
ENDBRANCH   2   4
TORSDOF 8
ENDMDL
MODEL       31
REMARK 921   NORMALIZED FREE ENERGY PREDICTED BY IDOCK:   -5.55 KCAL/MOL
REMARK 922        TOTAL FREE ENERGY PREDICTED BY IDOCK:   -8.39 KCAL/MOL
REMARK 923 INTER-LIGAND FREE ENERGY PREDICTED BY IDOCK:   -7.47 KCAL/MOL
REMARK 924 INTRA-LIGAND FREE ENERGY PREDICTED BY IDOCK:   -0.92 KCAL/MOL
REMARK 927      BINDING AFFINITY PREDICTED BY RF-SCORE:    0.00 PKD
ROOT
HETATM    1  O   UNL     1     -13.847   9.240  72.873  1.00  0.00    -0.824 OA 
HETATM    2  C   UNL     1     -12.941   9.948  72.034  1.00  0.00    -0.423 C  
HETATM    3  H   UNL     1     -14.465   9.848  73.263  1.00  0.00     0.000 HD 
ENDROOT
BRANCH   2   4
HETATM    4  C   UNL     1     -11.951   8.976  71.411  1.00  0.00    -0.332 C  
BRANCH   4   5
HETATM    5  O   UNL     1     -10.752   8.946  72.186  1.00  0.00    -0.342 OA 
BRANCH   5   6
HETATM    6  C   UNL     1      -9.604   8.889  71.332  1.00  0.00    -0.289 C  
BRANCH   6   7
HETATM    7  C   UNL     1     -10.052   8.614  69.891  1.00  0.00    -0.194 C  
BRANCH   7   8
HETATM    8  N   UNL     1      -9.357   9.429  68.872  1.00  0.00    -0.152 NA 
HETATM    9  C   UNL     1     -10.122   9.560  67.613  1.00  0.00    -0.205 C  
HETATM   10  C   UNL     1     -11.356  10.492  67.702  1.00  0.00    -0.154 C  
HETATM   11  N   UNL     1     -11.047  11.865  68.174  1.00  0.00    -0.225 NA 
HETATM   12  C   UNL     1     -10.307  11.726  69.454  1.00  0.00     0.237 C  
HETATM   13  C   UNL     1      -9.077  10.784  69.404  1.00  0.00     0.040 C  
BRANCH  11  14
HETATM   14  C   UNL     1     -10.288  12.653  67.149  1.00  0.00    -0.231 C  
BRANCH  14  15
HETATM   15  C   UNL     1     -10.869  12.475  65.735  1.00  0.00    -0.310 A  
HETATM   16  C   UNL     1     -10.087  11.866  64.731  1.00  0.00    -0.295 A  
HETATM   17  C   UNL     1     -12.208  12.772  65.432  1.00  0.00    -0.532 A  
HETATM   18  C   UNL     1     -10.641  11.531  63.492  1.00  0.00    -0.487 A  
HETATM   19  C   UNL     1     -11.977  11.812  63.225  1.00  0.00    -0.354 A  
HETATM   20  C   UNL     1     -12.758  12.448  64.188  1.00  0.00    -0.446 A  
ENDBRANCH  14  15
BRANCH  14  21
HETATM   21  C   UNL     1     -10.117  14.124  67.561  1.00  0.00    -0.236 A  
HETATM   22  C   UNL     1     -11.143  16.199  68.335  1.00  0.00    -0.359 A  
HETATM   23  C   UNL     1      -8.869  16.220  67.520  1.00  0.00    -0.194 A  
HETATM   24  C   UNL     1     -11.213  14.822  68.106  1.00  0.00    -0.307 A  
HETATM   25 CL   UNL     1      -9.897  18.592  68.289  1.00  0.00    -0.367 Cl 
HETATM   26  C   UNL     1      -8.945  14.846  67.278  1.00  0.00    -0.212 A  
HETATM   27  C   UNL     1      -9.972  16.892  68.040  1.00  0.00    -0.279 A  
ENDBRANCH  14  21
ENDBRANCH  11  14
ENDBRANCH   7   8
ENDBRANCH   6   7
ENDBRANCH   5   6
ENDBRANCH   4   5
ENDBRANCH   2   4
TORSDOF 8
ENDMDL
MODEL       32
REMARK 921   NORMALIZED FREE ENERGY PREDICTED BY IDOCK:   -5.54 KCAL/MOL
REMARK 922        TOTAL FREE ENERGY PREDICTED BY IDOCK:   -8.36 KCAL/MOL
REMARK 923 INTER-LIGAND FREE ENERGY PREDICTED BY IDOCK:   -8.48 KCAL/MOL
REMARK 924 INTRA-LIGAND FREE ENERGY PREDICTED BY IDOCK:    0.11 KCAL/MOL
REMARK 927      BINDING AFFINITY PREDICTED BY RF-SCORE:    0.00 PKD
ROOT
HETATM    1  O   UNL     1     -10.690  20.148  69.310  1.00  0.00    -0.446 OA 
HETATM    2  C   UNL     1      -9.515  19.390  69.573  1.00  0.00     0.095 C  
HETATM    3  H   UNL     1     -11.297  20.062  70.036  1.00  0.00     0.000 HD 
ENDROOT
BRANCH   2   4
HETATM    4  C   UNL     1      -8.543  19.528  68.411  1.00  0.00    -0.349 C  
BRANCH   4   5
HETATM    5  O   UNL     1      -9.147  20.288  67.364  1.00  0.00    -0.345 OA 
BRANCH   5   6
HETATM    6  C   UNL     1      -9.128  19.553  66.135  1.00  0.00    -0.310 C  
BRANCH   6   7
HETATM    7  C   UNL     1      -9.032  18.052  66.439  1.00  0.00    -0.230 C  
BRANCH   7   8
HETATM    8  N   UNL     1     -10.281  17.300  66.190  1.00  0.00    -0.391 NA 
HETATM    9  C   UNL     1     -10.072  16.082  65.378  1.00  0.00    -0.225 C  
HETATM   10  C   UNL     1      -9.371  14.921  66.126  1.00  0.00    -0.272 C  
HETATM   11  N   UNL     1     -10.052  14.504  67.377  1.00  0.00    -0.235 NA 
HETATM   12  C   UNL     1     -10.230  15.727  68.201  1.00  0.00    -0.230 C  
HETATM   13  C   UNL     1     -10.911  16.916  67.476  1.00  0.00    -0.207 C  
BRANCH  11  14
HETATM   14  C   UNL     1     -11.347  13.799  67.103  1.00  0.00    -0.324 C  
BRANCH  14  15
HETATM   15  C   UNL     1     -11.304  13.002  65.787  1.00  0.00    -0.331 A  
HETATM   16  C   UNL     1     -12.264  13.258  64.785  1.00  0.00    -0.466 A  
HETATM   17  C   UNL     1     -10.257  12.117  65.480  1.00  0.00    -0.294 A  
HETATM   18  C   UNL     1     -12.151  12.682  63.516  1.00  0.00    -0.648 A  
HETATM   19  C   UNL     1     -11.090  11.829  63.228  1.00  0.00    -0.370 A  
HETATM   20  C   UNL     1     -10.152  11.532  64.214  1.00  0.00    -0.338 A  
ENDBRANCH  14  15
BRANCH  14  21
HETATM   21  C   UNL     1     -11.819  12.968  68.307  1.00  0.00    -0.381 A  
HETATM   22  C   UNL     1     -12.382  12.880  70.680  1.00  0.00    -0.385 A  
HETATM   23  C   UNL     1     -12.113  10.827  69.437  1.00  0.00    -0.315 A  
HETATM   24  C   UNL     1     -12.113  13.616  69.523  1.00  0.00    -0.368 A  
HETATM   25 CL   UNL     1     -12.677  10.583  72.063  1.00  0.00    -0.421 Cl 
HETATM   26  C   UNL     1     -11.830  11.563  68.284  1.00  0.00    -0.327 A  
HETATM   27  C   UNL     1     -12.380  11.489  70.632  1.00  0.00    -0.364 A  
ENDBRANCH  14  21
ENDBRANCH  11  14
ENDBRANCH   7   8
ENDBRANCH   6   7
ENDBRANCH   5   6
ENDBRANCH   4   5
ENDBRANCH   2   4
TORSDOF 8
ENDMDL
MODEL       33
REMARK 921   NORMALIZED FREE ENERGY PREDICTED BY IDOCK:   -5.54 KCAL/MOL
REMARK 922        TOTAL FREE ENERGY PREDICTED BY IDOCK:   -8.36 KCAL/MOL
REMARK 923 INTER-LIGAND FREE ENERGY PREDICTED BY IDOCK:   -8.11 KCAL/MOL
REMARK 924 INTRA-LIGAND FREE ENERGY PREDICTED BY IDOCK:   -0.25 KCAL/MOL
REMARK 927      BINDING AFFINITY PREDICTED BY RF-SCORE:    0.00 PKD
ROOT
HETATM    1  O   UNL     1     -11.751   4.691  65.185  1.00  0.00    -1.054 OA 
HETATM    2  C   UNL     1     -10.443   4.527  65.721  1.00  0.00    -0.233 C  
HETATM    3  H   UNL     1     -12.045   3.874  64.799  1.00  0.00     0.000 HD 
ENDROOT
BRANCH   2   4
HETATM    4  C   UNL     1      -9.973   5.835  66.339  1.00  0.00    -0.131 C  
BRANCH   4   5
HETATM    5  O   UNL     1     -10.893   6.251  67.349  1.00  0.00    -0.289 OA 
BRANCH   5   6
HETATM    6  C   UNL     1     -10.342   7.324  68.119  1.00  0.00    -0.194 C  
BRANCH   6   7
HETATM    7  C   UNL     1     -10.722   8.663  67.474  1.00  0.00    -0.139 C  
BRANCH   7   8
HETATM    8  N   UNL     1      -9.963   9.823  67.988  1.00  0.00    -0.152 NA 
HETATM    9  C   UNL     1      -9.915  10.954  67.036  1.00  0.00    -0.192 C  
HETATM   10  C   UNL     1     -11.248  11.729  66.889  1.00  0.00    -0.327 C  
HETATM   11  N   UNL     1     -11.791  12.253  68.168  1.00  0.00    -0.394 NA 
HETATM   12  C   UNL     1     -11.865  11.106  69.108  1.00  0.00    -0.350 C  
HETATM   13  C   UNL     1     -10.552  10.296  69.263  1.00  0.00    -0.230 C  
BRANCH  11  14
HETATM   14  C   UNL     1     -10.969  13.387  68.703  1.00  0.00    -0.260 C  
BRANCH  14  15
HETATM   15  C   UNL     1     -10.410  14.278  67.579  1.00  0.00    -0.248 A  
HETATM   16  C   UNL     1     -11.295  15.046  66.793  1.00  0.00    -0.293 A  
HETATM   17  C   UNL     1      -9.031  14.467  67.388  1.00  0.00    -0.207 A  
HETATM   18  C   UNL     1     -10.813  15.995  65.886  1.00  0.00    -0.210 A  
HETATM   19  C   UNL     1      -9.443  16.183  65.733  1.00  0.00    -0.254 A  
HETATM   20  C   UNL     1      -8.550  15.408  66.471  1.00  0.00    -0.294 A  
ENDBRANCH  14  15
BRANCH  14  21
HETATM   21  C   UNL     1     -11.711  14.174  69.796  1.00  0.00    -0.370 A  
HETATM   22  C   UNL     1     -11.699  15.999  71.415  1.00  0.00    -0.536 A  
HETATM   23  C   UNL     1     -13.448  14.335  71.501  1.00  0.00    -0.426 A  
HETATM   24  C   UNL     1     -11.137  15.352  70.311  1.00  0.00    -0.331 A  
HETATM   25 CL   UNL     1     -13.523  16.262  73.386  1.00  0.00    -0.466 Cl 
HETATM   26  C   UNL     1     -12.877  13.681  70.406  1.00  0.00    -0.108 A  
HETATM   27  C   UNL     1     -12.851  15.487  72.006  1.00  0.00    -0.420 A  
ENDBRANCH  14  21
ENDBRANCH  11  14
ENDBRANCH   7   8
ENDBRANCH   6   7
ENDBRANCH   5   6
ENDBRANCH   4   5
ENDBRANCH   2   4
TORSDOF 8
ENDMDL
MODEL       34
REMARK 921   NORMALIZED FREE ENERGY PREDICTED BY IDOCK:   -5.52 KCAL/MOL
REMARK 922        TOTAL FREE ENERGY PREDICTED BY IDOCK:   -8.33 KCAL/MOL
REMARK 923 INTER-LIGAND FREE ENERGY PREDICTED BY IDOCK:   -7.49 KCAL/MOL
REMARK 924 INTRA-LIGAND FREE ENERGY PREDICTED BY IDOCK:   -0.84 KCAL/MOL
REMARK 927      BINDING AFFINITY PREDICTED BY RF-SCORE:    0.00 PKD
ROOT
HETATM    1  O   UNL     1     -11.537  16.371  63.755  1.00  0.00    -1.605 OA 
HETATM    2  C   UNL     1     -12.110  15.184  64.291  1.00  0.00    -0.261 C  
HETATM    3  H   UNL     1     -12.221  16.922  63.391  1.00  0.00     0.000 HD 
ENDROOT
BRANCH   2   4
HETATM    4  C   UNL     1     -11.015  14.302  64.873  1.00  0.00    -0.404 C  
BRANCH   4   5
HETATM    5  O   UNL     1     -10.785  13.186  64.012  1.00  0.00    -0.399 OA 
BRANCH   5   6
HETATM    6  C   UNL     1      -9.968  12.209  64.665  1.00  0.00    -0.202 C  
BRANCH   6   7
HETATM    7  C   UNL     1     -10.074  12.387  66.185  1.00  0.00    -0.248 C  
BRANCH   7   8
HETATM    8  N   UNL     1      -9.184  11.500  66.965  1.00  0.00    -0.173 NA 
HETATM    9  C   UNL     1      -9.581  11.384  68.385  1.00  0.00    -0.197 C  
HETATM   10  C   UNL     1     -10.853  10.536  68.631  1.00  0.00    -0.237 C  
HETATM   11  N   UNL     1     -10.783   9.160  68.080  1.00  0.00    -0.177 NA 
HETATM   12  C   UNL     1     -10.416   9.286  66.646  1.00  0.00    -0.167 C  
HETATM   13  C   UNL     1      -9.157  10.146  66.363  1.00  0.00    -0.152 C  
BRANCH  11  14
HETATM   14  C   UNL     1      -9.827   8.296  68.848  1.00  0.00    -0.180 C  
BRANCH  14  15
HETATM   15  C   UNL     1     -10.218   8.179  70.332  1.00  0.00    -0.203 A  
HETATM   16  C   UNL     1     -11.494   7.687  70.680  1.00  0.00    -0.276 A  
HETATM   17  C   UNL     1      -9.300   8.412  71.370  1.00  0.00    -0.247 A  
HETATM   18  C   UNL     1     -11.816   7.402  72.011  1.00  0.00    -0.335 A  
HETATM   19  C   UNL     1     -10.881   7.617  73.018  1.00  0.00    -0.457 A  
HETATM   20  C   UNL     1      -9.628   8.139  72.701  1.00  0.00    -0.352 A  
ENDBRANCH  14  15
BRANCH  14  21
HETATM   21  C   UNL     1      -9.600   6.937  68.165  1.00  0.00    -0.124 A  
HETATM   22  C   UNL     1      -8.055   5.382  67.092  1.00  0.00    -0.101 A  
HETATM   23  C   UNL     1     -10.435   4.996  66.948  1.00  0.00    -0.243 A  
HETATM   24  C   UNL     1      -8.288   6.528  67.858  1.00  0.00    -0.115 A  
HETATM   25 CL   UNL     1      -8.846   3.232  65.667  1.00  0.00    -0.128 Cl 
HETATM   26  C   UNL     1     -10.667   6.149  67.701  1.00  0.00    -0.388 A  
HETATM   27  C   UNL     1      -9.130   4.622  66.639  1.00  0.00    -0.119 A  
ENDBRANCH  14  21
ENDBRANCH  11  14
ENDBRANCH   7   8
ENDBRANCH   6   7
ENDBRANCH   5   6
ENDBRANCH   4   5
ENDBRANCH   2   4
TORSDOF 8
ENDMDL
MODEL       35
REMARK 921   NORMALIZED FREE ENERGY PREDICTED BY IDOCK:   -5.51 KCAL/MOL
REMARK 922        TOTAL FREE ENERGY PREDICTED BY IDOCK:   -8.32 KCAL/MOL
REMARK 923 INTER-LIGAND FREE ENERGY PREDICTED BY IDOCK:   -7.50 KCAL/MOL
REMARK 924 INTRA-LIGAND FREE ENERGY PREDICTED BY IDOCK:   -0.81 KCAL/MOL
REMARK 927      BINDING AFFINITY PREDICTED BY RF-SCORE:    0.00 PKD
ROOT
HETATM    1  O   UNL     1     -11.634  16.302  63.777  1.00  0.00    -1.539 OA 
HETATM    2  C   UNL     1     -12.319  15.098  64.105  1.00  0.00    -0.094 C  
HETATM    3  H   UNL     1     -12.085  16.744  63.066  1.00  0.00     0.000 HD 
ENDROOT
BRANCH   2   4
HETATM    4  C   UNL     1     -11.598  14.390  65.242  1.00  0.00    -0.353 C  
BRANCH   4   5
HETATM    5  O   UNL     1     -10.375  15.067  65.535  1.00  0.00    -0.317 OA 
BRANCH   5   6
HETATM    6  C   UNL     1      -9.576  14.293  66.435  1.00  0.00    -0.298 C  
BRANCH   6   7
HETATM    7  C   UNL     1     -10.208  12.907  66.617  1.00  0.00    -0.247 C  
BRANCH   7   8
HETATM    8  N   UNL     1      -9.344  11.931  67.314  1.00  0.00    -0.174 NA 
HETATM    9  C   UNL     1      -9.866  11.535  68.639  1.00  0.00    -0.177 C  
HETATM   10  C   UNL     1     -11.101  10.602  68.593  1.00  0.00    -0.263 C  
HETATM   11  N   UNL     1     -10.893   9.356  67.814  1.00  0.00    -0.222 NA 
HETATM   12  C   UNL     1     -10.398   9.763  66.473  1.00  0.00    -0.192 C  
HETATM   13  C   UNL     1      -9.174  10.714  66.485  1.00  0.00    -0.166 C  
BRANCH  11  14
HETATM   14  C   UNL     1      -9.963   8.408  68.510  1.00  0.00    -0.187 C  
BRANCH  14  15
HETATM   15  C   UNL     1     -10.412   8.112  69.952  1.00  0.00    -0.226 A  
HETATM   16  C   UNL     1      -9.645   8.593  71.034  1.00  0.00    -0.264 A  
HETATM   17  C   UNL     1     -11.640   7.494  70.244  1.00  0.00    -0.114 A  
HETATM   18  C   UNL     1     -10.113   8.496  72.348  1.00  0.00    -0.365 A  
HETATM   19  C   UNL     1     -11.344   7.903  72.609  1.00  0.00    -0.468 A  
HETATM   20  C   UNL     1     -12.101   7.386  71.560  1.00  0.00    -0.357 A  
ENDBRANCH  14  15
BRANCH  14  21
HETATM   21  C   UNL     1      -9.700   7.142  67.679  1.00  0.00    -0.172 A  
HETATM   22  C   UNL     1     -10.597   5.179  66.538  1.00  0.00    -0.320 A  
HETATM   23  C   UNL     1      -8.218   5.360  66.917  1.00  0.00    -0.104 A  
HETATM   24  C   UNL     1     -10.790   6.420  67.154  1.00  0.00    -0.467 A  
HETATM   25 CL   UNL     1      -9.079   3.113  65.699  1.00  0.00    -0.149 Cl 
HETATM   26  C   UNL     1      -8.414   6.593  67.545  1.00  0.00    -0.121 A  
HETATM   27  C   UNL     1      -9.313   4.655  66.424  1.00  0.00    -0.149 A  
ENDBRANCH  14  21
ENDBRANCH  11  14
ENDBRANCH   7   8
ENDBRANCH   6   7
ENDBRANCH   5   6
ENDBRANCH   4   5
ENDBRANCH   2   4
TORSDOF 8
ENDMDL
MODEL       36
REMARK 921   NORMALIZED FREE ENERGY PREDICTED BY IDOCK:   -5.49 KCAL/MOL
REMARK 922        TOTAL FREE ENERGY PREDICTED BY IDOCK:   -8.29 KCAL/MOL
REMARK 923 INTER-LIGAND FREE ENERGY PREDICTED BY IDOCK:   -7.41 KCAL/MOL
REMARK 924 INTRA-LIGAND FREE ENERGY PREDICTED BY IDOCK:   -0.88 KCAL/MOL
REMARK 927      BINDING AFFINITY PREDICTED BY RF-SCORE:    0.00 PKD
ROOT
HETATM    1  O   UNL     1     -11.558   6.705  73.057  1.00  0.00    -0.490 OA 
HETATM    2  C   UNL     1     -11.980   6.740  71.699  1.00  0.00    -0.347 C  
HETATM    3  H   UNL     1     -10.958   5.980  73.189  1.00  0.00     0.000 HD 
ENDROOT
BRANCH   2   4
HETATM    4  C   UNL     1     -12.942   7.899  71.489  1.00  0.00    -0.311 C  
BRANCH   4   5
HETATM    5  O   UNL     1     -12.582   8.986  72.341  1.00  0.00    -0.376 OA 
BRANCH   5   6
HETATM    6  C   UNL     1     -13.123  10.215  71.845  1.00  0.00    -0.466 C  
BRANCH   6   7
HETATM    7  C   UNL     1     -12.781  10.359  70.356  1.00  0.00    -0.218 C  
BRANCH   7   8
HETATM    8  N   UNL     1     -11.441  10.924  70.091  1.00  0.00    -0.313 NA 
HETATM    9  C   UNL     1     -10.687  10.173  69.065  1.00  0.00    -0.221 C  
HETATM   10  C   UNL     1     -11.197  10.371  67.616  1.00  0.00    -0.213 C  
HETATM   11  N   UNL     1     -11.245  11.788  67.177  1.00  0.00    -0.298 NA 
HETATM   12  C   UNL     1     -12.030  12.530  68.196  1.00  0.00    -0.219 C  
HETATM   13  C   UNL     1     -11.558  12.337  69.660  1.00  0.00    -0.278 C  
BRANCH  11  14
HETATM   14  C   UNL     1      -9.873  12.360  66.976  1.00  0.00    -0.211 C  
BRANCH  14  15
HETATM   15  C   UNL     1      -9.038  11.526  65.987  1.00  0.00    -0.206 A  
HETATM   16  C   UNL     1      -7.753  11.082  66.362  1.00  0.00    -0.146 A  
HETATM   17  C   UNL     1      -9.560  11.067  64.766  1.00  0.00    -0.292 A  
HETATM   18  C   UNL     1      -7.043  10.180  65.564  1.00  0.00    -0.138 A  
HETATM   19  C   UNL     1      -7.591   9.719  64.371  1.00  0.00    -0.135 A  
HETATM   20  C   UNL     1      -8.843  10.175  63.963  1.00  0.00    -0.247 A  
ENDBRANCH  14  15
BRANCH  14  21
HETATM   21  C   UNL     1      -9.916  13.857  66.630  1.00  0.00    -0.279 A  
HETATM   22  C   UNL     1      -9.656  16.170  67.367  1.00  0.00    -0.229 A  
HETATM   23  C   UNL     1     -10.681  15.702  65.230  1.00  0.00    -0.444 A  
HETATM   24  C   UNL     1      -9.477  14.800  67.581  1.00  0.00    -0.204 A  
HETATM   25 CL   UNL     1     -10.511  18.297  65.946  1.00  0.00    -0.400 Cl 
HETATM   26  C   UNL     1     -10.515  14.333  65.452  1.00  0.00    -0.382 A  
HETATM   27  C   UNL     1     -10.259  16.614  66.194  1.00  0.00    -0.348 A  
ENDBRANCH  14  21
ENDBRANCH  11  14
ENDBRANCH   7   8
ENDBRANCH   6   7
ENDBRANCH   5   6
ENDBRANCH   4   5
ENDBRANCH   2   4
TORSDOF 8
ENDMDL
MODEL       37
REMARK 921   NORMALIZED FREE ENERGY PREDICTED BY IDOCK:   -5.47 KCAL/MOL
REMARK 922        TOTAL FREE ENERGY PREDICTED BY IDOCK:   -8.26 KCAL/MOL
REMARK 923 INTER-LIGAND FREE ENERGY PREDICTED BY IDOCK:   -7.29 KCAL/MOL
REMARK 924 INTRA-LIGAND FREE ENERGY PREDICTED BY IDOCK:   -0.97 KCAL/MOL
REMARK 927      BINDING AFFINITY PREDICTED BY RF-SCORE:    0.00 PKD
ROOT
HETATM    1  O   UNL     1     -12.573  11.409  62.906  1.00  0.00    -0.970 OA 
HETATM    2  C   UNL     1     -12.014  12.637  63.358  1.00  0.00    -0.528 C  
HETATM    3  H   UNL     1     -12.264  11.219  62.028  1.00  0.00     0.000 HD 
ENDROOT
BRANCH   2   4
HETATM    4  C   UNL     1     -12.510  12.941  64.764  1.00  0.00    -0.455 C  
BRANCH   4   5
HETATM    5  O   UNL     1     -11.925  14.157  65.230  1.00  0.00    -0.351 OA 
BRANCH   5   6
HETATM    6  C   UNL     1     -10.756  13.885  66.009  1.00  0.00    -0.287 C  
BRANCH   6   7
HETATM    7  C   UNL     1     -11.170  13.302  67.367  1.00  0.00    -0.289 C  
BRANCH   7   8
HETATM    8  N   UNL     1     -10.165  12.406  67.977  1.00  0.00    -0.213 NA 
HETATM    9  C   UNL     1     -10.610  11.821  69.259  1.00  0.00    -0.008 C  
HETATM   10  C   UNL     1     -11.694  10.723  69.124  1.00  0.00    -0.296 C  
HETATM   11  N   UNL     1     -11.311   9.597  68.237  1.00  0.00     0.061 NA 
HETATM   12  C   UNL     1     -10.895  10.190  66.940  1.00  0.00    -0.106 C  
HETATM   13  C   UNL     1      -9.825  11.308  67.042  1.00  0.00    -0.191 C  
BRANCH  11  14
HETATM   14  C   UNL     1     -10.245   8.738  68.848  1.00  0.00    -0.207 C  
BRANCH  14  15
HETATM   15  C   UNL     1     -10.542   8.408  70.322  1.00  0.00    -0.234 A  
HETATM   16  C   UNL     1     -11.612   7.545  70.641  1.00  0.00    -0.272 A  
HETATM   17  C   UNL     1      -9.702   8.823  71.368  1.00  0.00    -0.351 A  
HETATM   18  C   UNL     1     -11.800   7.085  71.948  1.00  0.00    -0.341 A  
HETATM   19  C   UNL     1     -10.938   7.490  72.962  1.00  0.00    -0.443 A  
HETATM   20  C   UNL     1      -9.899   8.373  72.677  1.00  0.00    -0.329 A  
ENDBRANCH  14  15
BRANCH  14  21
HETATM   21  C   UNL     1      -9.940   7.497  67.992  1.00  0.00    -0.204 A  
HETATM   22  C   UNL     1      -8.355   6.268  66.603  1.00  0.00    -0.112 A  
HETATM   23  C   UNL     1     -10.677   5.605  66.641  1.00  0.00    -0.339 A  
HETATM   24  C   UNL     1      -8.631   7.290  67.516  1.00  0.00    -0.122 A  
HETATM   25 CL   UNL     1      -9.047   4.198  65.018  1.00  0.00    -0.135 Cl 
HETATM   26  C   UNL     1     -10.955   6.635  67.543  1.00  0.00    -0.416 A  
HETATM   27  C   UNL     1      -9.379   5.432  66.168  1.00  0.00    -0.157 A  
ENDBRANCH  14  21
ENDBRANCH  11  14
ENDBRANCH   7   8
ENDBRANCH   6   7
ENDBRANCH   5   6
ENDBRANCH   4   5
ENDBRANCH   2   4
TORSDOF 8
ENDMDL
MODEL       38
REMARK 921   NORMALIZED FREE ENERGY PREDICTED BY IDOCK:   -5.45 KCAL/MOL
REMARK 922        TOTAL FREE ENERGY PREDICTED BY IDOCK:   -8.24 KCAL/MOL
REMARK 923 INTER-LIGAND FREE ENERGY PREDICTED BY IDOCK:   -7.97 KCAL/MOL
REMARK 924 INTRA-LIGAND FREE ENERGY PREDICTED BY IDOCK:   -0.27 KCAL/MOL
REMARK 927      BINDING AFFINITY PREDICTED BY RF-SCORE:    0.00 PKD
ROOT
HETATM    1  O   UNL     1     -11.258   5.111  65.860  1.00  0.00    -0.794 OA 
HETATM    2  C   UNL     1     -10.870   5.911  66.971  1.00  0.00    -0.295 C  
HETATM    3  H   UNL     1     -12.158   5.305  65.624  1.00  0.00     0.000 HD 
ENDROOT
BRANCH   2   4
HETATM    4  C   UNL     1      -9.430   5.601  67.351  1.00  0.00    -0.114 C  
BRANCH   4   5
HETATM    5  O   UNL     1      -8.567   5.894  66.252  1.00  0.00    -0.123 OA 
BRANCH   5   6
HETATM    6  C   UNL     1      -7.822   7.090  66.502  1.00  0.00    -0.106 C  
BRANCH   6   7
HETATM    7  C   UNL     1      -8.310   8.201  65.563  1.00  0.00    -0.153 C  
BRANCH   7   8
HETATM    8  N   UNL     1      -8.153   9.568  66.104  1.00  0.00    -0.110 NA 
HETATM    9  C   UNL     1      -8.822  10.598  65.283  1.00  0.00    -0.189 C  
HETATM   10  C   UNL     1     -10.368  10.599  65.383  1.00  0.00    -0.233 C  
HETATM   11  N   UNL     1     -10.887  10.734  66.766  1.00  0.00    -0.230 NA 
HETATM   12  C   UNL     1     -10.234   9.676  67.579  1.00  0.00    -0.220 C  
HETATM   13  C   UNL     1      -8.687   9.635  67.485  1.00  0.00    -0.125 C  
BRANCH  11  14
HETATM   14  C   UNL     1     -10.660  12.110  67.318  1.00  0.00    -0.227 C  
BRANCH  14  15
HETATM   15  C   UNL     1     -10.853  13.201  66.250  1.00  0.00    -0.292 A  
HETATM   16  C   UNL     1     -12.094  13.320  65.591  1.00  0.00    -0.488 A  
HETATM   17  C   UNL     1      -9.880  14.183  65.998  1.00  0.00    -0.329 A  
HETATM   18  C   UNL     1     -12.360  14.404  64.748  1.00  0.00    -0.427 A  
HETATM   19  C   UNL     1     -11.390  15.378  64.534  1.00  0.00    -0.321 A  
HETATM   20  C   UNL     1     -10.143  15.259  65.144  1.00  0.00    -0.323 A  
ENDBRANCH  14  15
BRANCH  14  21
HETATM   21  C   UNL     1     -11.471  12.359  68.601  1.00  0.00    -0.348 A  
HETATM   22  C   UNL     1     -12.367  13.952  70.218  1.00  0.00    -0.413 A  
HETATM   23  C   UNL     1     -12.394  11.590  70.724  1.00  0.00    -0.472 A  
HETATM   24  C   UNL     1     -11.779  13.680  68.979  1.00  0.00    -0.375 A  
HETATM   25 CL   UNL     1     -13.360  13.243  72.624  1.00  0.00    -0.559 Cl 
HETATM   26  C   UNL     1     -11.793  11.321  69.492  1.00  0.00    -0.427 A  
HETATM   27  C   UNL     1     -12.670  12.906  71.085  1.00  0.00    -0.276 A  
ENDBRANCH  14  21
ENDBRANCH  11  14
ENDBRANCH   7   8
ENDBRANCH   6   7
ENDBRANCH   5   6
ENDBRANCH   4   5
ENDBRANCH   2   4
TORSDOF 8
ENDMDL
MODEL       39
REMARK 921   NORMALIZED FREE ENERGY PREDICTED BY IDOCK:   -5.35 KCAL/MOL
REMARK 922        TOTAL FREE ENERGY PREDICTED BY IDOCK:   -8.09 KCAL/MOL
REMARK 923 INTER-LIGAND FREE ENERGY PREDICTED BY IDOCK:   -7.53 KCAL/MOL
REMARK 924 INTRA-LIGAND FREE ENERGY PREDICTED BY IDOCK:   -0.56 KCAL/MOL
REMARK 927      BINDING AFFINITY PREDICTED BY RF-SCORE:    0.00 PKD
ROOT
HETATM    1  O   UNL     1     -11.549   4.542  65.073  1.00  0.00    -1.101 OA 
HETATM    2  C   UNL     1     -10.487   4.692  66.008  1.00  0.00    -0.264 C  
HETATM    3  H   UNL     1     -12.367   4.818  65.469  1.00  0.00     0.000 HD 
ENDROOT
BRANCH   2   4
HETATM    4  C   UNL     1      -9.177   4.249  65.374  1.00  0.00    -0.152 C  
BRANCH   4   5
HETATM    5  O   UNL     1      -8.757   5.213  64.408  1.00  0.00    -0.145 OA 
BRANCH   5   6
HETATM    6  C   UNL     1      -7.821   6.129  64.986  1.00  0.00    -0.110 C  
BRANCH   6   7
HETATM    7  C   UNL     1      -8.153   7.555  64.528  1.00  0.00    -0.086 C  
BRANCH   7   8
HETATM    8  N   UNL     1      -7.882   8.598  65.541  1.00  0.00    -0.095 NA 
HETATM    9  C   UNL     1      -8.306   9.948  65.112  1.00  0.00    -0.148 C  
HETATM   10  C   UNL     1      -9.838  10.170  65.106  1.00  0.00    -0.325 C  
HETATM   11  N   UNL     1     -10.498   9.895  66.407  1.00  0.00    -0.172 NA 
HETATM   12  C   UNL     1     -10.093   8.526  66.816  1.00  0.00    -0.299 C  
HETATM   13  C   UNL     1      -8.565   8.263  66.813  1.00  0.00    -0.127 C  
BRANCH  11  14
HETATM   14  C   UNL     1     -10.159  10.930  67.438  1.00  0.00    -0.191 C  
BRANCH  14  15
HETATM   15  C   UNL     1     -10.424  12.360  66.932  1.00  0.00    -0.243 A  
HETATM   16  C   UNL     1     -11.715  12.714  66.487  1.00  0.00    -0.463 A  
HETATM   17  C   UNL     1      -9.460  13.378  67.022  1.00  0.00    -0.247 A  
HETATM   18  C   UNL     1     -12.034  14.042  66.189  1.00  0.00    -0.440 A  
HETATM   19  C   UNL     1     -11.070  15.037  66.311  1.00  0.00    -0.334 A  
HETATM   20  C   UNL     1      -9.777  14.704  66.711  1.00  0.00    -0.267 A  
ENDBRANCH  14  15
BRANCH  14  21
HETATM   21  C   UNL     1     -10.815  10.630  68.796  1.00  0.00    -0.269 A  
HETATM   22  C   UNL     1     -10.789   9.368  70.884  1.00  0.00    -0.392 A  
HETATM   23  C   UNL     1     -12.757  10.628  70.272  1.00  0.00    -0.277 A  
HETATM   24  C   UNL     1     -10.152   9.794  69.715  1.00  0.00    -0.268 A  
HETATM   25 CL   UNL     1     -12.886   9.232  72.576  1.00  0.00    -0.409 Cl 
HETATM   26  C   UNL     1     -12.124  11.043  69.097  1.00  0.00    -0.333 A  
HETATM   27  C   UNL     1     -12.089   9.785  71.156  1.00  0.00    -0.370 A  
ENDBRANCH  14  21
ENDBRANCH  11  14
ENDBRANCH   7   8
ENDBRANCH   6   7
ENDBRANCH   5   6
ENDBRANCH   4   5
ENDBRANCH   2   4
TORSDOF 8
ENDMDL
MODEL       40
REMARK 921   NORMALIZED FREE ENERGY PREDICTED BY IDOCK:   -5.35 KCAL/MOL
REMARK 922        TOTAL FREE ENERGY PREDICTED BY IDOCK:   -8.09 KCAL/MOL
REMARK 923 INTER-LIGAND FREE ENERGY PREDICTED BY IDOCK:   -7.68 KCAL/MOL
REMARK 924 INTRA-LIGAND FREE ENERGY PREDICTED BY IDOCK:   -0.41 KCAL/MOL
REMARK 927      BINDING AFFINITY PREDICTED BY RF-SCORE:    0.00 PKD
ROOT
HETATM    1  O   UNL     1     -11.169   7.020  73.512  1.00  0.00    -0.537 OA 
HETATM    2  C   UNL     1     -11.136   6.870  72.097  1.00  0.00    -0.243 C  
HETATM    3  H   UNL     1     -11.470   7.893  73.735  1.00  0.00     0.000 HD 
ENDROOT
BRANCH   2   4
HETATM    4  C   UNL     1     -10.652   5.473  71.739  1.00  0.00    -0.235 C  
BRANCH   4   5
HETATM    5  O   UNL     1      -9.574   5.559  70.807  1.00  0.00    -0.160 OA 
BRANCH   5   6
HETATM    6  C   UNL     1      -9.240   6.926  70.550  1.00  0.00    -0.156 C  
BRANCH   6   7
HETATM    7  C   UNL     1      -9.168   7.158  69.035  1.00  0.00    -0.135 C  
BRANCH   7   8
HETATM    8  N   UNL     1      -8.676   8.498  68.647  1.00  0.00    -0.138 NA 
HETATM    9  C   UNL     1      -9.056   8.880  67.271  1.00  0.00    -0.134 C  
HETATM   10  C   UNL     1     -10.552   9.237  67.091  1.00  0.00    -0.216 C  
HETATM   11  N   UNL     1     -11.033  10.312  67.995  1.00  0.00    -0.283 NA 
HETATM   12  C   UNL     1     -10.676   9.906  69.378  1.00  0.00    -0.232 C  
HETATM   13  C   UNL     1      -9.188   9.522  69.588  1.00  0.00    -0.200 C  
BRANCH  11  14
HETATM   14  C   UNL     1     -10.472  11.651  67.622  1.00  0.00    -0.191 C  
BRANCH  14  15
HETATM   15  C   UNL     1     -10.862  12.064  66.191  1.00  0.00    -0.325 A  
HETATM   16  C   UNL     1      -9.943  11.877  65.137  1.00  0.00    -0.276 A  
HETATM   17  C   UNL     1     -12.157  12.497  65.862  1.00  0.00    -0.420 A  
HETATM   18  C   UNL     1     -10.325  12.075  63.807  1.00  0.00    -0.457 A  
HETATM   19  C   UNL     1     -11.622  12.479  63.504  1.00  0.00    -0.584 A  
HETATM   20  C   UNL     1     -12.534  12.707  64.532  1.00  0.00    -0.525 A  
ENDBRANCH  14  15
BRANCH  14  21
HETATM   21  C   UNL     1     -10.788  12.725  68.677  1.00  0.00    -0.284 A  
HETATM   22  C   UNL     1     -12.297  13.566  70.400  1.00  0.00    -0.397 A  
HETATM   23  C   UNL     1     -10.518  14.976  69.575  1.00  0.00    -0.245 A  
HETATM   24  C   UNL     1     -11.881  12.541  69.545  1.00  0.00    -0.375 A  
HETATM   25 CL   UNL     1     -12.148  16.052  71.436  1.00  0.00    -0.488 Cl 
HETATM   26  C   UNL     1     -10.112  13.956  68.711  1.00  0.00    -0.161 A  
HETATM   27  C   UNL     1     -11.615  14.779  70.410  1.00  0.00    -0.279 A  
ENDBRANCH  14  21
ENDBRANCH  11  14
ENDBRANCH   7   8
ENDBRANCH   6   7
ENDBRANCH   5   6
ENDBRANCH   4   5
ENDBRANCH   2   4
TORSDOF 8
ENDMDL
MODEL       41
REMARK 921   NORMALIZED FREE ENERGY PREDICTED BY IDOCK:   -5.33 KCAL/MOL
REMARK 922        TOTAL FREE ENERGY PREDICTED BY IDOCK:   -8.06 KCAL/MOL
REMARK 923 INTER-LIGAND FREE ENERGY PREDICTED BY IDOCK:   -7.16 KCAL/MOL
REMARK 924 INTRA-LIGAND FREE ENERGY PREDICTED BY IDOCK:   -0.91 KCAL/MOL
REMARK 927      BINDING AFFINITY PREDICTED BY RF-SCORE:    0.00 PKD
ROOT
HETATM    1  O   UNL     1      -6.542  17.006  69.429  1.00  0.00    -0.229 OA 
HETATM    2  C   UNL     1      -6.852  17.886  68.354  1.00  0.00    -0.227 C  
HETATM    3  H   UNL     1      -5.600  16.893  69.490  1.00  0.00     0.000 HD 
ENDROOT
BRANCH   2   4
HETATM    4  C   UNL     1      -8.360  18.066  68.255  1.00  0.00    -0.290 C  
BRANCH   4   5
HETATM    5  O   UNL     1      -8.756  18.076  66.884  1.00  0.00    -0.238 OA 
BRANCH   5   6
HETATM    6  C   UNL     1     -10.177  17.938  66.771  1.00  0.00    -0.360 C  
BRANCH   6   7
HETATM    7  C   UNL     1     -10.714  17.174  67.988  1.00  0.00    -0.372 C  
BRANCH   7   8
HETATM    8  N   UNL     1     -11.470  15.949  67.652  1.00  0.00    -0.154 NA 
HETATM    9  C   UNL     1     -10.886  15.198  66.520  1.00  0.00    -0.317 C  
HETATM   10  C   UNL     1      -9.572  14.449  66.853  1.00  0.00    -0.256 C  
HETATM   11  N   UNL     1      -9.681  13.508  67.996  1.00  0.00    -0.221 NA 
HETATM   12  C   UNL     1     -10.239  14.277  69.138  1.00  0.00    -0.089 C  
HETATM   13  C   UNL     1     -11.545  15.055  68.832  1.00  0.00    -0.326 C  
BRANCH  11  14
HETATM   14  C   UNL     1     -10.505  12.303  67.653  1.00  0.00    -0.214 C  
BRANCH  14  15
HETATM   15  C   UNL     1      -9.895  11.496  66.493  1.00  0.00    -0.228 A  
HETATM   16  C   UNL     1     -10.636  11.311  65.306  1.00  0.00    -0.323 A  
HETATM   17  C   UNL     1      -8.564  11.046  66.511  1.00  0.00    -0.165 A  
HETATM   18  C   UNL     1     -10.049  10.738  64.174  1.00  0.00    -0.418 A  
HETATM   19  C   UNL     1      -8.721  10.324  64.208  1.00  0.00    -0.217 A  
HETATM   20  C   UNL     1      -7.982  10.462  65.381  1.00  0.00    -0.147 A  
ENDBRANCH  14  15
BRANCH  14  21
HETATM   21  C   UNL     1     -10.825  11.449  68.891  1.00  0.00    -0.259 A  
HETATM   22  C   UNL     1     -10.154   9.667  70.417  1.00  0.00    -0.336 A  
HETATM   23  C   UNL     1     -12.420  10.503  70.475  1.00  0.00    -0.433 A  
HETATM   24  C   UNL     1      -9.845  10.576  69.401  1.00  0.00    -0.205 A  
HETATM   25 CL   UNL     1     -11.831   8.493  72.175  1.00  0.00    -0.423 Cl 
HETATM   26  C   UNL     1     -12.113  11.400  69.449  1.00  0.00    -0.358 A  
HETATM   27  C   UNL     1     -11.440   9.634  70.949  1.00  0.00    -0.353 A  
ENDBRANCH  14  21
ENDBRANCH  11  14
ENDBRANCH   7   8
ENDBRANCH   6   7
ENDBRANCH   5   6
ENDBRANCH   4   5
ENDBRANCH   2   4
TORSDOF 8
ENDMDL
MODEL       42
REMARK 921   NORMALIZED FREE ENERGY PREDICTED BY IDOCK:   -5.33 KCAL/MOL
REMARK 922        TOTAL FREE ENERGY PREDICTED BY IDOCK:   -8.06 KCAL/MOL
REMARK 923 INTER-LIGAND FREE ENERGY PREDICTED BY IDOCK:   -7.28 KCAL/MOL
REMARK 924 INTRA-LIGAND FREE ENERGY PREDICTED BY IDOCK:   -0.78 KCAL/MOL
REMARK 927      BINDING AFFINITY PREDICTED BY RF-SCORE:    0.00 PKD
ROOT
HETATM    1  O   UNL     1     -12.006   6.700  69.640  1.00  0.00    -0.653 OA 
HETATM    2  C   UNL     1     -10.659   6.341  69.359  1.00  0.00    -0.271 C  
HETATM    3  H   UNL     1     -12.481   5.941  69.960  1.00  0.00     0.000 HD 
ENDROOT
BRANCH   2   4
HETATM    4  C   UNL     1      -9.899   7.555  68.846  1.00  0.00    -0.159 C  
BRANCH   4   5
HETATM    5  O   UNL     1      -8.509   7.415  69.141  1.00  0.00    -0.131 OA 
BRANCH   5   6
HETATM    6  C   UNL     1      -7.715   8.029  68.120  1.00  0.00    -0.118 C  
BRANCH   6   7
HETATM    7  C   UNL     1      -7.424   9.485  68.506  1.00  0.00    -0.080 C  
BRANCH   7   8
HETATM    8  N   UNL     1      -7.411  10.426  67.365  1.00  0.00    -0.092 NA 
HETATM    9  C   UNL     1      -8.663  10.405  66.580  1.00  0.00    -0.135 C  
HETATM   10  C   UNL     1      -9.874  11.070  67.280  1.00  0.00    -0.178 C  
HETATM   11  N   UNL     1      -9.640  12.476  67.695  1.00  0.00    -0.185 NA 
HETATM   12  C   UNL     1      -8.397  12.484  68.509  1.00  0.00    -0.069 C  
HETATM   13  C   UNL     1      -7.171  11.808  67.846  1.00  0.00    -0.092 C  
BRANCH  11  14
HETATM   14  C   UNL     1      -9.566  13.403  66.519  1.00  0.00    -0.272 C  
BRANCH  14  15
HETATM   15  C   UNL     1     -10.609  13.054  65.441  1.00  0.00    -0.307 A  
HETATM   16  C   UNL     1     -10.180  12.569  64.187  1.00  0.00    -0.376 A  
HETATM   17  C   UNL     1     -11.989  13.067  65.701  1.00  0.00    -0.479 A  
HETATM   18  C   UNL     1     -11.098  12.079  63.254  1.00  0.00    -0.400 A  
HETATM   19  C   UNL     1     -12.459  12.078  63.545  1.00  0.00    -0.654 A  
HETATM   20  C   UNL     1     -12.907  12.588  64.761  1.00  0.00    -0.287 A  
ENDBRANCH  14  15
BRANCH  14  21
HETATM   21  C   UNL     1      -9.596  14.880  66.945  1.00  0.00    -0.256 A  
HETATM   22  C   UNL     1     -10.665  16.648  68.243  1.00  0.00    -0.351 A  
HETATM   23  C   UNL     1      -9.022  17.220  66.567  1.00  0.00    -0.294 A  
HETATM   24  C   UNL     1     -10.493  15.293  67.949  1.00  0.00    -0.253 A  
HETATM   25 CL   UNL     1     -10.167  19.276  67.886  1.00  0.00    -0.477 Cl 
HETATM   26  C   UNL     1      -8.862  15.866  66.264  1.00  0.00    -0.386 A  
HETATM   27  C   UNL     1      -9.930  17.606  67.549  1.00  0.00    -0.322 A  
ENDBRANCH  14  21
ENDBRANCH  11  14
ENDBRANCH   7   8
ENDBRANCH   6   7
ENDBRANCH   5   6
ENDBRANCH   4   5
ENDBRANCH   2   4
TORSDOF 8
ENDMDL
MODEL       43
REMARK 921   NORMALIZED FREE ENERGY PREDICTED BY IDOCK:   -5.31 KCAL/MOL
REMARK 922        TOTAL FREE ENERGY PREDICTED BY IDOCK:   -8.04 KCAL/MOL
REMARK 923 INTER-LIGAND FREE ENERGY PREDICTED BY IDOCK:   -7.28 KCAL/MOL
REMARK 924 INTRA-LIGAND FREE ENERGY PREDICTED BY IDOCK:   -0.76 KCAL/MOL
REMARK 927      BINDING AFFINITY PREDICTED BY RF-SCORE:    0.00 PKD
ROOT
HETATM    1  O   UNL     1     -13.567  15.680  70.663  1.00  0.00    -0.841 OA 
HETATM    2  C   UNL     1     -12.521  14.814  70.236  1.00  0.00    -0.340 C  
HETATM    3  H   UNL     1     -14.131  15.223  71.277  1.00  0.00     0.000 HD 
ENDROOT
BRANCH   2   4
HETATM    4  C   UNL     1     -11.618  15.545  69.253  1.00  0.00    -0.357 C  
BRANCH   4   5
HETATM    5  O   UNL     1     -11.904  15.113  67.922  1.00  0.00    -0.320 OA 
BRANCH   5   6
HETATM    6  C   UNL     1     -10.756  15.278  67.083  1.00  0.00    -0.316 C  
BRANCH   6   7
HETATM    7  C   UNL     1     -10.244  13.901  66.641  1.00  0.00    -0.276 C  
BRANCH   7   8
HETATM    8  N   UNL     1     -11.004  12.762  67.197  1.00  0.00    -0.256 NA 
HETATM    9  C   UNL     1     -11.138  11.635  66.250  1.00  0.00    -0.290 C  
HETATM   10  C   UNL     1      -9.839  10.824  66.024  1.00  0.00    -0.235 C  
HETATM   11  N   UNL     1      -9.237  10.282  67.268  1.00  0.00    -0.141 NA 
HETATM   12  C   UNL     1      -9.076  11.424  68.204  1.00  0.00    -0.174 C  
HETATM   13  C   UNL     1     -10.354  12.270  68.436  1.00  0.00    -0.224 C  
BRANCH  11  14
HETATM   14  C   UNL     1     -10.058   9.170  67.850  1.00  0.00    -0.199 C  
BRANCH  14  15
HETATM   15  C   UNL     1      -9.879   7.852  67.075  1.00  0.00    -0.293 A  
HETATM   16  C   UNL     1      -8.681   7.616  66.368  1.00  0.00    -0.166 A  
HETATM   17  C   UNL     1     -10.810   6.803  67.154  1.00  0.00    -0.462 A  
HETATM   18  C   UNL     1      -8.413   6.366  65.803  1.00  0.00    -0.148 A  
HETATM   19  C   UNL     1      -9.340   5.334  65.917  1.00  0.00    -0.165 A  
HETATM   20  C   UNL     1     -10.546   5.557  66.577  1.00  0.00    -0.343 A  
ENDBRANCH  14  15
BRANCH  14  21
HETATM   21  C   UNL     1      -9.841   9.023  69.365  1.00  0.00    -0.183 A  
HETATM   22  C   UNL     1      -8.406   8.294  71.200  1.00  0.00    -0.149 A  
HETATM   23  C   UNL     1     -10.711   8.869  71.639  1.00  0.00    -0.418 A  
HETATM   24  C   UNL     1      -8.588   8.598  69.847  1.00  0.00    -0.131 A  
HETATM   25 CL   UNL     1      -9.255   8.023  73.746  1.00  0.00    -0.279 Cl 
HETATM   26  C   UNL     1     -10.895   9.158  70.284  1.00  0.00    -0.282 A  
HETATM   27  C   UNL     1      -9.468   8.430  72.088  1.00  0.00    -0.290 A  
ENDBRANCH  14  21
ENDBRANCH  11  14
ENDBRANCH   7   8
ENDBRANCH   6   7
ENDBRANCH   5   6
ENDBRANCH   4   5
ENDBRANCH   2   4
TORSDOF 8
ENDMDL
MODEL       44
REMARK 921   NORMALIZED FREE ENERGY PREDICTED BY IDOCK:   -5.31 KCAL/MOL
REMARK 922        TOTAL FREE ENERGY PREDICTED BY IDOCK:   -8.03 KCAL/MOL
REMARK 923 INTER-LIGAND FREE ENERGY PREDICTED BY IDOCK:   -7.39 KCAL/MOL
REMARK 924 INTRA-LIGAND FREE ENERGY PREDICTED BY IDOCK:   -0.64 KCAL/MOL
REMARK 927      BINDING AFFINITY PREDICTED BY RF-SCORE:    0.00 PKD
ROOT
HETATM    1  O   UNL     1      -7.399  21.319  67.143  1.00  0.00    -0.726 OA 
HETATM    2  C   UNL     1      -6.058  21.141  67.582  1.00  0.00    -0.362 C  
HETATM    3  H   UNL     1      -7.438  22.026  66.509  1.00  0.00     0.000 HD 
ENDROOT
BRANCH   2   4
HETATM    4  C   UNL     1      -5.995  20.010  68.598  1.00  0.00    -0.265 C  
BRANCH   4   5
HETATM    5  O   UNL     1      -6.486  18.805  68.009  1.00  0.00    -0.212 OA 
BRANCH   5   6
HETATM    6  C   UNL     1      -7.678  18.371  68.673  1.00  0.00    -0.301 C  
BRANCH   6   7
HETATM    7  C   UNL     1      -8.778  18.117  67.634  1.00  0.00    -0.248 C  
BRANCH   7   8
HETATM    8  N   UNL     1      -9.709  17.024  67.988  1.00  0.00    -0.253 NA 
HETATM    9  C   UNL     1     -10.409  16.456  66.817  1.00  0.00    -0.293 C  
HETATM   10  C   UNL     1      -9.523  15.576  65.900  1.00  0.00    -0.342 C  
HETATM   11  N   UNL     1      -8.853  14.452  66.600  1.00  0.00    -0.204 NA 
HETATM   12  C   UNL     1      -8.126  15.034  67.757  1.00  0.00    -0.149 C  
HETATM   13  C   UNL     1      -8.980  15.937  68.683  1.00  0.00    -0.203 C  
BRANCH  11  14
HETATM   14  C   UNL     1      -9.825  13.385  67.006  1.00  0.00    -0.250 C  
BRANCH  14  15
HETATM   15  C   UNL     1     -10.670  12.889  65.818  1.00  0.00    -0.293 A  
HETATM   16  C   UNL     1     -12.035  13.238  65.740  1.00  0.00    -0.463 A  
HETATM   17  C   UNL     1     -10.103  12.212  64.726  1.00  0.00    -0.276 A  
HETATM   18  C   UNL     1     -12.784  12.956  64.593  1.00  0.00    -0.403 A  
HETATM   19  C   UNL     1     -12.194  12.307  63.514  1.00  0.00    -0.669 A  
HETATM   20  C   UNL     1     -10.857  11.918  63.585  1.00  0.00    -0.510 A  
ENDBRANCH  14  15
BRANCH  14  21
HETATM   21  C   UNL     1      -9.145  12.250  67.789  1.00  0.00    -0.191 A  
HETATM   22  C   UNL     1      -7.229  10.761  68.048  1.00  0.00    -0.086 A  
HETATM   23  C   UNL     1      -9.253  10.335  69.296  1.00  0.00    -0.215 A  
HETATM   24  C   UNL     1      -7.819  11.891  67.475  1.00  0.00    -0.152 A  
HETATM   25 CL   UNL     1      -7.235   8.578  69.633  1.00  0.00    -0.052 Cl 
HETATM   26  C   UNL     1      -9.847  11.456  68.711  1.00  0.00    -0.175 A  
HETATM   27  C   UNL     1      -7.949   9.988  68.954  1.00  0.00    -0.101 A  
ENDBRANCH  14  21
ENDBRANCH  11  14
ENDBRANCH   7   8
ENDBRANCH   6   7
ENDBRANCH   5   6
ENDBRANCH   4   5
ENDBRANCH   2   4
TORSDOF 8
ENDMDL
MODEL       45
REMARK 921   NORMALIZED FREE ENERGY PREDICTED BY IDOCK:   -5.29 KCAL/MOL
REMARK 922        TOTAL FREE ENERGY PREDICTED BY IDOCK:   -8.00 KCAL/MOL
REMARK 923 INTER-LIGAND FREE ENERGY PREDICTED BY IDOCK:   -7.08 KCAL/MOL
REMARK 924 INTRA-LIGAND FREE ENERGY PREDICTED BY IDOCK:   -0.92 KCAL/MOL
REMARK 927      BINDING AFFINITY PREDICTED BY RF-SCORE:    0.00 PKD
ROOT
HETATM    1  O   UNL     1      -9.330   8.880  72.083  1.00  0.00    -0.348 OA 
HETATM    2  C   UNL     1      -8.285   8.397  71.246  1.00  0.00    -0.134 C  
HETATM    3  H   UNL     1      -9.536   8.231  72.745  1.00  0.00     0.000 HD 
ENDROOT
BRANCH   2   4
HETATM    4  C   UNL     1      -7.954   9.436  70.185  1.00  0.00    -0.150 C  
BRANCH   4   5
HETATM    5  O   UNL     1      -6.959  10.332  70.679  1.00  0.00    -0.323 OA 
BRANCH   5   6
HETATM    6  C   UNL     1      -6.213  10.901  69.598  1.00  0.00    -0.085 C  
BRANCH   6   7
HETATM    7  C   UNL     1      -6.340  12.429  69.638  1.00  0.00    -0.107 C  
BRANCH   7   8
HETATM    8  N   UNL     1      -6.504  13.062  68.312  1.00  0.00    -0.082 NA 
HETATM    9  C   UNL     1      -7.506  12.382  67.464  1.00  0.00    -0.150 C  
HETATM   10  C   UNL     1      -8.976  12.609  67.896  1.00  0.00    -0.189 C  
HETATM   11  N   UNL     1      -9.371  14.037  67.983  1.00  0.00    -0.198 NA 
HETATM   12  C   UNL     1      -8.378  14.707  68.862  1.00  0.00    -0.142 C  
HETATM   13  C   UNL     1      -6.895  14.483  68.469  1.00  0.00    -0.096 C  
BRANCH  11  14
HETATM   14  C   UNL     1      -9.469  14.675  66.630  1.00  0.00    -0.278 C  
BRANCH  14  15
HETATM   15  C   UNL     1     -10.543  14.008  65.752  1.00  0.00    -0.303 A  
HETATM   16  C   UNL     1     -10.176  13.434  64.516  1.00  0.00    -0.321 A  
HETATM   17  C   UNL     1     -11.864  13.822  66.194  1.00  0.00    -0.424 A  
HETATM   18  C   UNL     1     -11.086  12.670  63.780  1.00  0.00    -0.504 A  
HETATM   19  C   UNL     1     -12.381  12.478  64.251  1.00  0.00    -0.541 A  
HETATM   20  C   UNL     1     -12.776  13.068  65.450  1.00  0.00    -0.369 A  
ENDBRANCH  14  15
BRANCH  14  21
HETATM   21  C   UNL     1      -9.614  16.203  66.721  1.00  0.00    -0.256 A  
HETATM   22  C   UNL     1      -8.672  18.411  66.283  1.00  0.00    -0.209 A  
HETATM   23  C   UNL     1     -10.595  18.196  67.729  1.00  0.00    -0.407 A  
HETATM   24  C   UNL     1      -8.667  17.028  66.084  1.00  0.00    -0.254 A  
HETATM   25 CL   UNL     1      -9.620  20.687  67.379  1.00  0.00    -0.584 Cl 
HETATM   26  C   UNL     1     -10.579  16.812  67.541  1.00  0.00    -0.309 A  
HETATM   27  C   UNL     1      -9.635  18.989  67.106  1.00  0.00    -0.312 A  
ENDBRANCH  14  21
ENDBRANCH  11  14
ENDBRANCH   7   8
ENDBRANCH   6   7
ENDBRANCH   5   6
ENDBRANCH   4   5
ENDBRANCH   2   4
TORSDOF 8
ENDMDL
MODEL       46
REMARK 921   NORMALIZED FREE ENERGY PREDICTED BY IDOCK:   -5.28 KCAL/MOL
REMARK 922        TOTAL FREE ENERGY PREDICTED BY IDOCK:   -7.99 KCAL/MOL
REMARK 923 INTER-LIGAND FREE ENERGY PREDICTED BY IDOCK:   -8.28 KCAL/MOL
REMARK 924 INTRA-LIGAND FREE ENERGY PREDICTED BY IDOCK:    0.28 KCAL/MOL
REMARK 927      BINDING AFFINITY PREDICTED BY RF-SCORE:    0.00 PKD
ROOT
HETATM    1  O   UNL     1      -8.031   5.677  70.519  1.00  0.00    -0.099 OA 
HETATM    2  C   UNL     1      -8.833   5.466  71.675  1.00  0.00    -0.135 C  
HETATM    3  H   UNL     1      -7.113   5.706  70.766  1.00  0.00     0.000 HD 
ENDROOT
BRANCH   2   4
HETATM    4  C   UNL     1     -10.301   5.420  71.281  1.00  0.00    -0.228 C  
BRANCH   4   5
HETATM    5  O   UNL     1     -10.987   6.540  71.840  1.00  0.00    -0.233 OA 
BRANCH   5   6
HETATM    6  C   UNL     1     -11.778   7.194  70.842  1.00  0.00    -0.328 C  
BRANCH   6   7
HETATM    7  C   UNL     1     -10.874   7.643  69.686  1.00  0.00    -0.191 C  
BRANCH   7   8
HETATM    8  N   UNL     1     -10.241   8.965  69.887  1.00  0.00    -0.194 NA 
HETATM    9  C   UNL     1      -9.966   9.674  68.620  1.00  0.00    -0.165 C  
HETATM   10  C   UNL     1     -11.221  10.240  67.911  1.00  0.00    -0.220 C  
HETATM   11  N   UNL     1     -12.038  11.148  68.755  1.00  0.00    -0.552 NA 
HETATM   12  C   UNL     1     -12.338  10.417  70.012  1.00  0.00    -0.159 C  
HETATM   13  C   UNL     1     -11.104   9.820  70.736  1.00  0.00    -0.345 C  
BRANCH  11  14
HETATM   14  C   UNL     1     -11.350  12.458  68.997  1.00  0.00    -0.283 C  
BRANCH  14  15
HETATM   15  C   UNL     1     -10.995  13.178  67.684  1.00  0.00    -0.282 A  
HETATM   16  C   UNL     1     -12.002  13.412  66.723  1.00  0.00    -0.447 A  
HETATM   17  C   UNL     1      -9.729  13.741  67.456  1.00  0.00    -0.230 A  
HETATM   18  C   UNL     1     -11.756  14.213  65.605  1.00  0.00    -0.357 A  
HETATM   19  C   UNL     1     -10.501  14.781  65.413  1.00  0.00    -0.401 A  
HETATM   20  C   UNL     1      -9.481  14.532  66.329  1.00  0.00    -0.310 A  
ENDBRANCH  14  15
BRANCH  14  21
HETATM   21  C   UNL     1     -12.123  13.342  69.990  1.00  0.00    -0.385 A  
HETATM   22  C   UNL     1     -12.632  15.578  70.824  1.00  0.00    -0.505 A  
HETATM   23  C   UNL     1     -13.317  13.643  72.096  1.00  0.00    -0.587 A  
HETATM   24  C   UNL     1     -12.082  14.742  69.848  1.00  0.00    -0.381 A  
HETATM   25 CL   UNL     1     -13.891  16.053  73.162  1.00  0.00    -0.539 Cl 
HETATM   26  C   UNL     1     -12.754  12.808  71.127  1.00  0.00    -0.355 A  
HETATM   27  C   UNL     1     -13.245  15.024  71.944  1.00  0.00    -0.363 A  
ENDBRANCH  14  21
ENDBRANCH  11  14
ENDBRANCH   7   8
ENDBRANCH   6   7
ENDBRANCH   5   6
ENDBRANCH   4   5
ENDBRANCH   2   4
TORSDOF 8
ENDMDL
MODEL       47
REMARK 921   NORMALIZED FREE ENERGY PREDICTED BY IDOCK:   -5.27 KCAL/MOL
REMARK 922        TOTAL FREE ENERGY PREDICTED BY IDOCK:   -7.97 KCAL/MOL
REMARK 923 INTER-LIGAND FREE ENERGY PREDICTED BY IDOCK:   -7.13 KCAL/MOL
REMARK 924 INTRA-LIGAND FREE ENERGY PREDICTED BY IDOCK:   -0.85 KCAL/MOL
REMARK 927      BINDING AFFINITY PREDICTED BY RF-SCORE:    0.00 PKD
ROOT
HETATM    1  O   UNL     1      -5.659  11.310  65.381  1.00  0.00    -0.481 OA 
HETATM    2  C   UNL     1      -5.251  10.181  64.617  1.00  0.00    -0.098 C  
HETATM    3  H   UNL     1      -4.937  11.924  65.457  1.00  0.00     0.000 HD 
ENDROOT
BRANCH   2   4
HETATM    4  C   UNL     1      -6.405   9.197  64.496  1.00  0.00    -0.075 C  
BRANCH   4   5
HETATM    5  O   UNL     1      -6.479   8.391  65.673  1.00  0.00    -0.051 OA 
BRANCH   5   6
HETATM    6  C   UNL     1      -7.841   8.088  65.989  1.00  0.00    -0.094 C  
BRANCH   6   7
HETATM    7  C   UNL     1      -8.219   8.761  67.315  1.00  0.00    -0.104 C  
BRANCH   7   8
HETATM    8  N   UNL     1      -8.148  10.238  67.290  1.00  0.00    -0.119 NA 
HETATM    9  C   UNL     1      -9.146  10.852  66.388  1.00  0.00    -0.172 C  
HETATM   10  C   UNL     1     -10.603  10.803  66.910  1.00  0.00    -0.258 C  
HETATM   11  N   UNL     1     -10.789  11.413  68.251  1.00  0.00    -0.196 NA 
HETATM   12  C   UNL     1      -9.806  10.769  69.158  1.00  0.00    -0.175 C  
HETATM   13  C   UNL     1      -8.339  10.782  68.656  1.00  0.00    -0.141 C  
BRANCH  11  14
HETATM   14  C   UNL     1     -10.650  12.905  68.213  1.00  0.00    -0.246 C  
BRANCH  14  15
HETATM   15  C   UNL     1     -11.080  13.492  66.856  1.00  0.00    -0.309 A  
HETATM   16  C   UNL     1     -12.421  13.367  66.436  1.00  0.00    -0.297 A  
HETATM   17  C   UNL     1     -10.218  14.277  66.072  1.00  0.00    -0.327 A  
HETATM   18  C   UNL     1     -12.884  14.037  65.300  1.00  0.00    -0.418 A  
HETATM   19  C   UNL     1     -12.018  14.829  64.553  1.00  0.00    -0.451 A  
HETATM   20  C   UNL     1     -10.680  14.936  64.928  1.00  0.00    -0.426 A  
ENDBRANCH  14  15
BRANCH  14  21
HETATM   21  C   UNL     1     -11.330  13.580  69.415  1.00  0.00    -0.293 A  
HETATM   22  C   UNL     1     -11.393  15.438  70.996  1.00  0.00    -0.411 A  
HETATM   23  C   UNL     1     -12.742  13.476  71.402  1.00  0.00    -0.423 A  
HETATM   24  C   UNL     1     -10.916  14.866  69.813  1.00  0.00    -0.280 A  
HETATM   25 CL   UNL     1     -12.863  15.429  73.258  1.00  0.00    -0.571 Cl 
HETATM   26  C   UNL     1     -12.254  12.899  70.227  1.00  0.00    -0.362 A  
HETATM   27  C   UNL     1     -12.302  14.740  71.785  1.00  0.00    -0.346 A  
ENDBRANCH  14  21
ENDBRANCH  11  14
ENDBRANCH   7   8
ENDBRANCH   6   7
ENDBRANCH   5   6
ENDBRANCH   4   5
ENDBRANCH   2   4
TORSDOF 8
ENDMDL
MODEL       48
REMARK 921   NORMALIZED FREE ENERGY PREDICTED BY IDOCK:   -5.26 KCAL/MOL
REMARK 922        TOTAL FREE ENERGY PREDICTED BY IDOCK:   -7.95 KCAL/MOL
REMARK 923 INTER-LIGAND FREE ENERGY PREDICTED BY IDOCK:   -7.10 KCAL/MOL
REMARK 924 INTRA-LIGAND FREE ENERGY PREDICTED BY IDOCK:   -0.85 KCAL/MOL
REMARK 927      BINDING AFFINITY PREDICTED BY RF-SCORE:    0.00 PKD
ROOT
HETATM    1  O   UNL     1     -13.426  15.799  70.636  1.00  0.00    -0.777 OA 
HETATM    2  C   UNL     1     -12.041  15.470  70.606  1.00  0.00    -0.389 C  
HETATM    3  H   UNL     1     -13.727  15.837  71.537  1.00  0.00     0.000 HD 
ENDROOT
BRANCH   2   4
HETATM    4  C   UNL     1     -11.559  15.409  69.164  1.00  0.00    -0.339 C  
BRANCH   4   5
HETATM    5  O   UNL     1     -12.408  14.546  68.407  1.00  0.00    -0.173 OA 
BRANCH   5   6
HETATM    6  C   UNL     1     -11.630  13.680  67.574  1.00  0.00    -0.350 C  
BRANCH   6   7
HETATM    7  C   UNL     1     -10.977  12.592  68.438  1.00  0.00    -0.257 C  
BRANCH   7   8
HETATM    8  N   UNL     1     -11.665  11.284  68.390  1.00  0.00    -0.474 NA 
HETATM    9  C   UNL     1     -11.148  10.395  67.328  1.00  0.00    -0.179 C  
HETATM   10  C   UNL     1      -9.750   9.794  67.613  1.00  0.00    -0.156 C  
HETATM   11  N   UNL     1      -9.659   9.048  68.893  1.00  0.00    -0.155 NA 
HETATM   12  C   UNL     1     -10.149   9.958  69.960  1.00  0.00    -0.260 C  
HETATM   13  C   UNL     1     -11.538  10.593  69.695  1.00  0.00    -0.296 C  
BRANCH  11  14
HETATM   14  C   UNL     1     -10.415   7.755  68.843  1.00  0.00    -0.194 C  
BRANCH  14  15
HETATM   15  C   UNL     1      -9.858   6.799  67.773  1.00  0.00    -0.148 A  
HETATM   16  C   UNL     1      -8.468   6.748  67.539  1.00  0.00    -0.121 A  
HETATM   17  C   UNL     1     -10.669   5.865  67.107  1.00  0.00    -0.387 A  
HETATM   18  C   UNL     1      -7.914   5.772  66.706  1.00  0.00    -0.102 A  
HETATM   19  C   UNL     1      -8.735   4.841  66.077  1.00  0.00    -0.118 A  
HETATM   20  C   UNL     1     -10.115   4.897  66.263  1.00  0.00    -0.285 A  
ENDBRANCH  14  15
BRANCH  14  21
HETATM   21  C   UNL     1     -10.547   7.108  70.232  1.00  0.00    -0.245 A  
HETATM   22  C   UNL     1      -9.489   5.910  72.077  1.00  0.00    -0.164 A  
HETATM   23  C   UNL     1     -11.896   6.098  71.996  1.00  0.00    -0.336 A  
HETATM   24  C   UNL     1      -9.391   6.649  70.894  1.00  0.00    -0.159 A  
HETATM   25 CL   UNL     1     -10.863   4.698  74.057  1.00  0.00    -0.350 Cl 
HETATM   26  C   UNL     1     -11.798   6.824  70.806  1.00  0.00    -0.446 A  
HETATM   27  C   UNL     1     -10.741   5.637  72.621  1.00  0.00    -0.242 A  
ENDBRANCH  14  21
ENDBRANCH  11  14
ENDBRANCH   7   8
ENDBRANCH   6   7
ENDBRANCH   5   6
ENDBRANCH   4   5
ENDBRANCH   2   4
TORSDOF 8
ENDMDL
MODEL       49
REMARK 921   NORMALIZED FREE ENERGY PREDICTED BY IDOCK:   -5.21 KCAL/MOL
REMARK 922        TOTAL FREE ENERGY PREDICTED BY IDOCK:   -7.89 KCAL/MOL
REMARK 923 INTER-LIGAND FREE ENERGY PREDICTED BY IDOCK:   -7.04 KCAL/MOL
REMARK 924 INTRA-LIGAND FREE ENERGY PREDICTED BY IDOCK:   -0.85 KCAL/MOL
REMARK 927      BINDING AFFINITY PREDICTED BY RF-SCORE:    0.00 PKD
ROOT
HETATM    1  O   UNL     1     -12.907  14.818  69.590  1.00  0.00    -0.577 OA 
HETATM    2  C   UNL     1     -11.764  15.066  68.780  1.00  0.00    -0.334 C  
HETATM    3  H   UNL     1     -12.819  15.275  70.418  1.00  0.00     0.000 HD 
ENDROOT
BRANCH   2   4
HETATM    4  C   UNL     1     -11.905  14.334  67.454  1.00  0.00    -0.409 C  
BRANCH   4   5
HETATM    5  O   UNL     1     -10.946  14.833  66.522  1.00  0.00    -0.314 OA 
BRANCH   5   6
HETATM    6  C   UNL     1      -9.683  14.185  66.704  1.00  0.00    -0.288 C  
BRANCH   6   7
HETATM    7  C   UNL     1      -9.787  12.725  66.244  1.00  0.00    -0.267 C  
BRANCH   7   8
HETATM    8  N   UNL     1      -9.033  11.768  67.081  1.00  0.00    -0.171 NA 
HETATM    9  C   UNL     1      -9.689  11.486  68.375  1.00  0.00    -0.202 C  
HETATM   10  C   UNL     1     -10.955  10.600  68.277  1.00  0.00    -0.263 C  
HETATM   11  N   UNL     1     -10.733   9.295  67.604  1.00  0.00    -0.255 NA 
HETATM   12  C   UNL     1     -10.103   9.588  66.291  1.00  0.00    -0.257 C  
HETATM   13  C   UNL     1      -8.844  10.491  66.353  1.00  0.00    -0.153 C  
BRANCH  11  14
HETATM   14  C   UNL     1      -9.913   8.363  68.444  1.00  0.00    -0.187 C  
BRANCH  14  15
HETATM   15  C   UNL     1     -10.489   8.203  69.862  1.00  0.00    -0.226 A  
HETATM   16  C   UNL     1     -11.519   7.267  70.094  1.00  0.00    -0.197 A  
HETATM   17  C   UNL     1      -9.935   8.857  70.975  1.00  0.00    -0.324 A  
HETATM   18  C   UNL     1     -11.942   6.970  71.394  1.00  0.00    -0.380 A  
HETATM   19  C   UNL     1     -11.359   7.612  72.482  1.00  0.00    -0.409 A  
HETATM   20  C   UNL     1     -10.368   8.569  72.273  1.00  0.00    -0.402 A  
ENDBRANCH  14  15
BRANCH  14  21
HETATM   21  C   UNL     1      -9.652   7.024  67.735  1.00  0.00    -0.138 A  
HETATM   22  C   UNL     1     -10.533   5.143  66.454  1.00  0.00    -0.356 A  
HETATM   23  C   UNL     1      -8.318   5.008  67.408  1.00  0.00    -0.106 A  
HETATM   24  C   UNL     1     -10.678   6.433  66.973  1.00  0.00    -0.434 A  
HETATM   25 CL   UNL     1      -9.190   2.836  66.068  1.00  0.00    -0.119 Cl 
HETATM   26  C   UNL     1      -8.470   6.292  67.938  1.00  0.00    -0.117 A  
HETATM   27  C   UNL     1      -9.355   4.436  66.675  1.00  0.00    -0.160 A  
ENDBRANCH  14  21
ENDBRANCH  11  14
ENDBRANCH   7   8
ENDBRANCH   6   7
ENDBRANCH   5   6
ENDBRANCH   4   5
ENDBRANCH   2   4
TORSDOF 8
ENDMDL
MODEL       50
REMARK 921   NORMALIZED FREE ENERGY PREDICTED BY IDOCK:   -5.19 KCAL/MOL
REMARK 922        TOTAL FREE ENERGY PREDICTED BY IDOCK:   -7.86 KCAL/MOL
REMARK 923 INTER-LIGAND FREE ENERGY PREDICTED BY IDOCK:   -7.55 KCAL/MOL
REMARK 924 INTRA-LIGAND FREE ENERGY PREDICTED BY IDOCK:   -0.32 KCAL/MOL
REMARK 927      BINDING AFFINITY PREDICTED BY RF-SCORE:    0.00 PKD
ROOT
HETATM    1  O   UNL     1      -9.398   8.989  62.549  1.00  0.00    -0.544 OA 
HETATM    2  C   UNL     1      -7.988   9.177  62.533  1.00  0.00    -0.128 C  
HETATM    3  H   UNL     1      -9.801   9.525  61.875  1.00  0.00     0.000 HD 
ENDROOT
BRANCH   2   4
HETATM    4  C   UNL     1      -7.343   8.319  63.611  1.00  0.00    -0.108 C  
BRANCH   4   5
HETATM    5  O   UNL     1      -8.346   7.819  64.495  1.00  0.00    -0.104 OA 
BRANCH   5   6
HETATM    6  C   UNL     1      -7.769   7.447  65.751  1.00  0.00    -0.102 C  
BRANCH   6   7
HETATM    7  C   UNL     1      -8.116   8.505  66.807  1.00  0.00    -0.098 C  
BRANCH   7   8
HETATM    8  N   UNL     1      -9.511   8.989  66.748  1.00  0.00    -0.169 NA 
HETATM    9  C   UNL     1     -10.196   8.947  68.057  1.00  0.00    -0.213 C  
HETATM   10  C   UNL     1      -9.729  10.027  69.064  1.00  0.00    -0.199 C  
HETATM   11  N   UNL     1      -9.836  11.418  68.557  1.00  0.00    -0.195 NA 
HETATM   12  C   UNL     1      -9.118  11.460  67.257  1.00  0.00    -0.162 C  
HETATM   13  C   UNL     1      -9.548  10.379  66.233  1.00  0.00    -0.182 C  
BRANCH  11  14
HETATM   14  C   UNL     1     -11.262  11.866  68.445  1.00  0.00    -0.258 C  
BRANCH  14  15
HETATM   15  C   UNL     1     -11.906  12.098  69.824  1.00  0.00    -0.397 A  
HETATM   16  C   UNL     1     -12.123  13.415  70.279  1.00  0.00    -0.419 A  
HETATM   17  C   UNL     1     -12.419  11.044  70.598  1.00  0.00    -0.465 A  
HETATM   18  C   UNL     1     -12.861  13.662  71.441  1.00  0.00    -0.442 A  
HETATM   19  C   UNL     1     -13.381  12.603  72.177  1.00  0.00    -0.570 A  
HETATM   20  C   UNL     1     -13.146  11.292  71.767  1.00  0.00    -0.527 A  
ENDBRANCH  14  15
BRANCH  14  21
HETATM   21  C   UNL     1     -11.419  13.060  67.488  1.00  0.00    -0.375 A  
HETATM   22  C   UNL     1     -12.300  13.939  65.389  1.00  0.00    -0.494 A  
HETATM   23  C   UNL     1     -10.685  15.226  66.641  1.00  0.00    -0.309 A  
HETATM   24  C   UNL     1     -12.262  12.940  66.366  1.00  0.00    -0.301 A  
HETATM   25 CL   UNL     1     -11.531  16.290  64.311  1.00  0.00    -0.267 Cl 
HETATM   26  C   UNL     1     -10.637  14.220  67.610  1.00  0.00    -0.253 A  
HETATM   27  C   UNL     1     -11.511  15.077  65.530  1.00  0.00    -0.265 A  
ENDBRANCH  14  21
ENDBRANCH  11  14
ENDBRANCH   7   8
ENDBRANCH   6   7
ENDBRANCH   5   6
ENDBRANCH   4   5
ENDBRANCH   2   4
TORSDOF 8
ENDMDL
MODEL       51
REMARK 921   NORMALIZED FREE ENERGY PREDICTED BY IDOCK:   -5.15 KCAL/MOL
REMARK 922        TOTAL FREE ENERGY PREDICTED BY IDOCK:   -7.80 KCAL/MOL
REMARK 923 INTER-LIGAND FREE ENERGY PREDICTED BY IDOCK:   -7.45 KCAL/MOL
REMARK 924 INTRA-LIGAND FREE ENERGY PREDICTED BY IDOCK:   -0.35 KCAL/MOL
REMARK 927      BINDING AFFINITY PREDICTED BY RF-SCORE:    0.00 PKD
ROOT
HETATM    1  O   UNL     1      -6.924   7.664  64.040  1.00  0.00    -0.058 OA 
HETATM    2  C   UNL     1      -8.112   8.092  63.385  1.00  0.00    -0.116 C  
HETATM    3  H   UNL     1      -7.014   6.756  64.307  1.00  0.00     0.000 HD 
ENDROOT
BRANCH   2   4
HETATM    4  C   UNL     1      -7.969   9.545  62.959  1.00  0.00    -0.135 C  
BRANCH   4   5
HETATM    5  O   UNL     1      -9.229  10.043  62.507  1.00  0.00    -0.271 OA 
BRANCH   5   6
HETATM    6  C   UNL     1      -9.536  11.287  63.145  1.00  0.00    -0.353 C  
BRANCH   6   7
HETATM    7  C   UNL     1     -10.390  11.025  64.392  1.00  0.00    -0.358 C  
BRANCH   7   8
HETATM    8  N   UNL     1      -9.763  11.452  65.661  1.00  0.00    -0.224 NA 
HETATM    9  C   UNL     1     -10.358  12.687  66.215  1.00  0.00    -0.252 C  
HETATM   10  C   UNL     1     -11.769  12.504  66.826  1.00  0.00    -0.384 C  
HETATM   11  N   UNL     1     -11.843  11.467  67.885  1.00  0.00    -0.632 NA 
HETATM   12  C   UNL     1     -11.273  10.221  67.310  1.00  0.00    -0.011 C  
HETATM   13  C   UNL     1      -9.869  10.374  66.672  1.00  0.00    -0.202 C  
BRANCH  11  14
HETATM   14  C   UNL     1     -11.146  11.896  69.141  1.00  0.00    -0.228 C  
BRANCH  14  15
HETATM   15  C   UNL     1     -11.729  13.202  69.709  1.00  0.00    -0.350 A  
HETATM   16  C   UNL     1     -12.763  13.145  70.668  1.00  0.00    -0.203 A  
HETATM   17  C   UNL     1     -11.177  14.460  69.415  1.00  0.00    -0.317 A  
HETATM   18  C   UNL     1     -13.192  14.298  71.332  1.00  0.00    -0.419 A  
HETATM   19  C   UNL     1     -12.612  15.529  71.042  1.00  0.00    -0.513 A  
HETATM   20  C   UNL     1     -11.617  15.614  70.071  1.00  0.00    -0.360 A  
ENDBRANCH  14  15
BRANCH  14  21
HETATM   21  C   UNL     1     -11.066  10.760  70.175  1.00  0.00    -0.298 A  
HETATM   22  C   UNL     1      -9.748   8.999  71.231  1.00  0.00    -0.371 A  
HETATM   23  C   UNL     1     -12.135   9.087  71.592  1.00  0.00    -0.422 A  
HETATM   24  C   UNL     1      -9.827  10.139  70.426  1.00  0.00     0.073 A  
HETATM   25 CL   UNL     1     -10.810   7.055  72.771  1.00  0.00    -0.294 Cl 
HETATM   26  C   UNL     1     -12.215  10.218  70.775  1.00  0.00    -0.447 A  
HETATM   27  C   UNL     1     -10.902   8.478  71.809  1.00  0.00    -0.304 A  
ENDBRANCH  14  21
ENDBRANCH  11  14
ENDBRANCH   7   8
ENDBRANCH   6   7
ENDBRANCH   5   6
ENDBRANCH   4   5
ENDBRANCH   2   4
TORSDOF 8
ENDMDL
MODEL       52
REMARK 921   NORMALIZED FREE ENERGY PREDICTED BY IDOCK:   -5.15 KCAL/MOL
REMARK 922        TOTAL FREE ENERGY PREDICTED BY IDOCK:   -7.79 KCAL/MOL
REMARK 923 INTER-LIGAND FREE ENERGY PREDICTED BY IDOCK:   -7.29 KCAL/MOL
REMARK 924 INTRA-LIGAND FREE ENERGY PREDICTED BY IDOCK:   -0.51 KCAL/MOL
REMARK 927      BINDING AFFINITY PREDICTED BY RF-SCORE:    0.00 PKD
ROOT
HETATM    1  O   UNL     1      -6.967   9.006  72.110  1.00  0.00    -0.305 OA 
HETATM    2  C   UNL     1      -7.916   8.005  72.459  1.00  0.00    -0.131 C  
HETATM    3  H   UNL     1      -7.081   9.765  72.669  1.00  0.00     0.000 HD 
ENDROOT
BRANCH   2   4
HETATM    4  C   UNL     1      -7.735   6.789  71.563  1.00  0.00    -0.096 C  
BRANCH   4   5
HETATM    5  O   UNL     1      -7.549   7.209  70.211  1.00  0.00    -0.087 OA 
BRANCH   5   6
HETATM    6  C   UNL     1      -8.562   6.650  69.368  1.00  0.00    -0.135 C  
BRANCH   6   7
HETATM    7  C   UNL     1      -8.680   7.487  68.087  1.00  0.00    -0.122 C  
BRANCH   7   8
HETATM    8  N   UNL     1      -9.996   8.133  67.901  1.00  0.00    -0.173 NA 
HETATM    9  C   UNL     1     -10.575   8.645  69.162  1.00  0.00    -0.178 C  
HETATM   10  C   UNL     1      -9.886   9.916  69.717  1.00  0.00    -0.236 C  
HETATM   11  N   UNL     1      -9.842  11.051  68.761  1.00  0.00    -0.197 NA 
HETATM   12  C   UNL     1      -9.231  10.537  67.509  1.00  0.00    -0.142 C  
HETATM   13  C   UNL     1      -9.884   9.253  66.937  1.00  0.00    -0.214 C  
BRANCH  11  14
HETATM   14  C   UNL     1     -11.198  11.651  68.539  1.00  0.00    -0.256 C  
BRANCH  14  15
HETATM   15  C   UNL     1     -11.826  12.164  69.848  1.00  0.00    -0.392 A  
HETATM   16  C   UNL     1     -11.822  13.547  70.127  1.00  0.00    -0.348 A  
HETATM   17  C   UNL     1     -12.531  11.321  70.722  1.00  0.00    -0.471 A  
HETATM   18  C   UNL     1     -12.535  14.063  71.213  1.00  0.00    -0.448 A  
HETATM   19  C   UNL     1     -13.248  13.210  72.050  1.00  0.00    -0.543 A  
HETATM   20  C   UNL     1     -13.233  11.837  71.816  1.00  0.00    -0.434 A  
ENDBRANCH  14  15
BRANCH  14  21
HETATM   21  C   UNL     1     -11.190  12.697  67.412  1.00  0.00    -0.337 A  
HETATM   22  C   UNL     1     -10.391  14.847  66.577  1.00  0.00    -0.295 A  
HETATM   23  C   UNL     1     -12.206  13.723  65.447  1.00  0.00    -0.465 A  
HETATM   24  C   UNL     1     -10.310  13.794  67.493  1.00  0.00    -0.241 A  
HETATM   25 CL   UNL     1     -11.464  16.118  64.453  1.00  0.00    -0.364 Cl 
HETATM   26  C   UNL     1     -12.134  12.678  66.372  1.00  0.00    -0.330 A  
HETATM   27  C   UNL     1     -11.340  14.807  65.559  1.00  0.00    -0.343 A  
ENDBRANCH  14  21
ENDBRANCH  11  14
ENDBRANCH   7   8
ENDBRANCH   6   7
ENDBRANCH   5   6
ENDBRANCH   4   5
ENDBRANCH   2   4
TORSDOF 8
ENDMDL
MODEL       53
REMARK 921   NORMALIZED FREE ENERGY PREDICTED BY IDOCK:   -5.12 KCAL/MOL
REMARK 922        TOTAL FREE ENERGY PREDICTED BY IDOCK:   -7.76 KCAL/MOL
REMARK 923 INTER-LIGAND FREE ENERGY PREDICTED BY IDOCK:   -8.20 KCAL/MOL
REMARK 924 INTRA-LIGAND FREE ENERGY PREDICTED BY IDOCK:    0.44 KCAL/MOL
REMARK 927      BINDING AFFINITY PREDICTED BY RF-SCORE:    0.00 PKD
ROOT
HETATM    1  O   UNL     1     -12.144   7.355  72.856  1.00  0.00    -0.542 OA 
HETATM    2  C   UNL     1     -12.726   8.066  71.769  1.00  0.00    -0.329 C  
HETATM    3  H   UNL     1     -11.663   6.604  72.528  1.00  0.00     0.000 HD 
ENDROOT
BRANCH   2   4
HETATM    4  C   UNL     1     -13.497   9.267  72.294  1.00  0.00    -0.482 C  
BRANCH   4   5
HETATM    5  O   UNL     1     -13.537  10.289  71.297  1.00  0.00    -0.249 OA 
BRANCH   5   6
HETATM    6  C   UNL     1     -13.066  11.531  71.831  1.00  0.00    -0.387 C  
BRANCH   6   7
HETATM    7  C   UNL     1     -11.974  12.098  70.915  1.00  0.00     0.108 C  
BRANCH   7   8
HETATM    8  N   UNL     1     -12.478  12.978  69.839  1.00  0.00    -0.080 NA 
HETATM    9  C   UNL     1     -12.414  14.414  70.185  1.00  0.00    -0.339 C  
HETATM   10  C   UNL     1     -10.986  15.014  70.181  1.00  0.00    -0.221 C  
HETATM   11  N   UNL     1     -10.255  14.837  68.902  1.00  0.00    -0.233 NA 
HETATM   12  C   UNL     1     -10.297  13.388  68.577  1.00  0.00    -0.236 C  
HETATM   13  C   UNL     1     -11.710  12.751  68.592  1.00  0.00    -0.324 C  
BRANCH  11  14
HETATM   14  C   UNL     1     -10.824  15.691  67.808  1.00  0.00    -0.307 C  
BRANCH  14  15
HETATM   15  C   UNL     1      -9.990  16.964  67.576  1.00  0.00    -0.268 A  
HETATM   16  C   UNL     1     -10.279  17.794  66.471  1.00  0.00    -0.358 A  
HETATM   17  C   UNL     1      -9.035  17.415  68.501  1.00  0.00    -0.276 A  
HETATM   18  C   UNL     1      -9.664  19.041  66.329  1.00  0.00    -0.392 A  
HETATM   19  C   UNL     1      -8.739  19.477  67.273  1.00  0.00    -0.348 A  
HETATM   20  C   UNL     1      -8.411  18.657  68.351  1.00  0.00    -0.362 A  
ENDBRANCH  14  15
BRANCH  14  21
HETATM   21  C   UNL     1     -11.085  14.887  66.524  1.00  0.00    -0.341 A  
HETATM   22  C   UNL     1     -12.668  13.681  65.111  1.00  0.00    -0.443 A  
HETATM   23  C   UNL     1     -10.298  13.494  64.683  1.00  0.00    -0.406 A  
HETATM   24  C   UNL     1     -12.407  14.549  66.176  1.00  0.00    -0.229 A  
HETATM   25 CL   UNL     1     -11.931  12.062  63.083  1.00  0.00    -0.418 Cl 
HETATM   26  C   UNL     1     -10.038  14.349  65.756  1.00  0.00    -0.361 A  
HETATM   27  C   UNL     1     -11.612  13.157  64.371  1.00  0.00    -0.377 A  
ENDBRANCH  14  21
ENDBRANCH  11  14
ENDBRANCH   7   8
ENDBRANCH   6   7
ENDBRANCH   5   6
ENDBRANCH   4   5
ENDBRANCH   2   4
TORSDOF 8
ENDMDL
MODEL       54
REMARK 921   NORMALIZED FREE ENERGY PREDICTED BY IDOCK:   -5.12 KCAL/MOL
REMARK 922        TOTAL FREE ENERGY PREDICTED BY IDOCK:   -7.75 KCAL/MOL
REMARK 923 INTER-LIGAND FREE ENERGY PREDICTED BY IDOCK:   -6.97 KCAL/MOL
REMARK 924 INTRA-LIGAND FREE ENERGY PREDICTED BY IDOCK:   -0.78 KCAL/MOL
REMARK 927      BINDING AFFINITY PREDICTED BY RF-SCORE:    0.00 PKD
ROOT
HETATM    1  O   UNL     1     -12.056  16.479  72.167  1.00  0.00    -0.605 OA 
HETATM    2  C   UNL     1     -13.237  15.695  72.034  1.00  0.00    -0.457 C  
HETATM    3  H   UNL     1     -12.121  17.252  71.618  1.00  0.00     0.000 HD 
ENDROOT
BRANCH   2   4
HETATM    4  C   UNL     1     -13.133  14.457  72.912  1.00  0.00    -0.517 C  
BRANCH   4   5
HETATM    5  O   UNL     1     -14.087  13.483  72.488  1.00  0.00    -0.731 OA 
BRANCH   5   6
HETATM    6  C   UNL     1     -13.436  12.250  72.165  1.00  0.00    -0.327 C  
BRANCH   6   7
HETATM    7  C   UNL     1     -12.498  12.466  70.970  1.00  0.00    -0.256 C  
BRANCH   7   8
HETATM    8  N   UNL     1     -12.628  11.452  69.902  1.00  0.00    -0.101 NA 
HETATM    9  C   UNL     1     -11.821  11.764  68.704  1.00  0.00    -0.310 C  
HETATM   10  C   UNL     1     -10.296  11.565  68.883  1.00  0.00    -0.169 C  
HETATM   11  N   UNL     1      -9.910  10.203  69.331  1.00  0.00    -0.218 NA 
HETATM   12  C   UNL     1     -10.701   9.909  70.553  1.00  0.00    -0.317 C  
HETATM   13  C   UNL     1     -12.231  10.119  70.413  1.00  0.00    -0.218 C  
BRANCH  11  14
HETATM   14  C   UNL     1     -10.110   9.181  68.253  1.00  0.00    -0.191 C  
BRANCH  14  15
HETATM   15  C   UNL     1      -9.340   9.536  66.968  1.00  0.00    -0.183 A  
HETATM   16  C   UNL     1      -7.935   9.657  67.008  1.00  0.00    -0.109 A  
HETATM   17  C   UNL     1      -9.968   9.611  65.714  1.00  0.00    -0.342 A  
HETATM   18  C   UNL     1      -7.192   9.803  65.833  1.00  0.00    -0.103 A  
HETATM   19  C   UNL     1      -7.835   9.849  64.600  1.00  0.00    -0.142 A  
HETATM   20  C   UNL     1      -9.225   9.771  64.540  1.00  0.00    -0.310 A  
ENDBRANCH  14  15
BRANCH  14  21
HETATM   21  C   UNL     1      -9.839   7.752  68.753  1.00  0.00    -0.171 A  
HETATM   22  C   UNL     1     -10.712   5.538  69.292  1.00  0.00    -0.288 A  
HETATM   23  C   UNL     1      -8.480   6.146  69.986  1.00  0.00    -0.129 A  
HETATM   24  C   UNL     1     -10.869   6.792  68.696  1.00  0.00    -0.277 A  
HETATM   25 CL   UNL     1      -9.339   3.691  70.700  1.00  0.00    -0.213 Cl 
HETATM   26  C   UNL     1      -8.643   7.405  69.403  1.00  0.00    -0.134 A  
HETATM   27  C   UNL     1      -9.519   5.221  69.936  1.00  0.00    -0.155 A  
ENDBRANCH  14  21
ENDBRANCH  11  14
ENDBRANCH   7   8
ENDBRANCH   6   7
ENDBRANCH   5   6
ENDBRANCH   4   5
ENDBRANCH   2   4
TORSDOF 8
ENDMDL
MODEL       55
REMARK 921   NORMALIZED FREE ENERGY PREDICTED BY IDOCK:   -5.11 KCAL/MOL
REMARK 922        TOTAL FREE ENERGY PREDICTED BY IDOCK:   -7.74 KCAL/MOL
REMARK 923 INTER-LIGAND FREE ENERGY PREDICTED BY IDOCK:   -6.73 KCAL/MOL
REMARK 924 INTRA-LIGAND FREE ENERGY PREDICTED BY IDOCK:   -1.02 KCAL/MOL
REMARK 927      BINDING AFFINITY PREDICTED BY RF-SCORE:    0.00 PKD
ROOT
HETATM    1  O   UNL     1     -11.009   5.352  66.041  1.00  0.00    -0.712 OA 
HETATM    2  C   UNL     1      -9.981   4.395  66.269  1.00  0.00    -0.235 C  
HETATM    3  H   UNL     1     -11.222   5.381  65.115  1.00  0.00     0.000 HD 
ENDROOT
BRANCH   2   4
HETATM    4  C   UNL     1      -9.640   4.350  67.751  1.00  0.00    -0.160 C  
BRANCH   4   5
HETATM    5  O   UNL     1      -8.652   5.336  68.050  1.00  0.00    -0.104 OA 
BRANCH   5   6
HETATM    6  C   UNL     1      -8.922   5.950  69.314  1.00  0.00    -0.117 C  
BRANCH   6   7
HETATM    7  C   UNL     1      -9.630   7.293  69.089  1.00  0.00    -0.155 C  
BRANCH   7   8
HETATM    8  N   UNL     1      -9.053   8.110  68.000  1.00  0.00    -0.134 NA 
HETATM    9  C   UNL     1     -10.066   8.597  67.040  1.00  0.00    -0.272 C  
HETATM   10  C   UNL     1     -10.976   9.727  67.580  1.00  0.00    -0.162 C  
HETATM   11  N   UNL     1     -10.238  10.915  68.079  1.00  0.00    -0.173 NA 
HETATM   12  C   UNL     1      -9.244  10.422  69.067  1.00  0.00    -0.187 C  
HETATM   13  C   UNL     1      -8.330   9.275  68.564  1.00  0.00    -0.119 C  
BRANCH  11  14
HETATM   14  C   UNL     1      -9.608  11.693  66.964  1.00  0.00    -0.184 C  
BRANCH  14  15
HETATM   15  C   UNL     1     -10.570  11.889  65.778  1.00  0.00    -0.309 A  
HETATM   16  C   UNL     1     -11.808  12.535  65.985  1.00  0.00    -0.478 A  
HETATM   17  C   UNL     1     -10.209  11.573  64.459  1.00  0.00    -0.338 A  
HETATM   18  C   UNL     1     -12.625  12.886  64.906  1.00  0.00    -0.525 A  
HETATM   19  C   UNL     1     -12.233  12.584  63.605  1.00  0.00    -0.642 A  
HETATM   20  C   UNL     1     -11.033  11.913  63.381  1.00  0.00    -0.470 A  
ENDBRANCH  14  15
BRANCH  14  21
HETATM   21  C   UNL     1      -8.973  13.003  67.459  1.00  0.00    -0.193 A  
HETATM   22  C   UNL     1      -6.959  14.338  67.804  1.00  0.00    -0.191 A  
HETATM   23  C   UNL     1      -9.035  15.017  68.835  1.00  0.00    -0.202 A  
HETATM   24  C   UNL     1      -7.604  13.241  67.226  1.00  0.00    -0.079 A  
HETATM   25 CL   UNL     1      -6.876  16.549  69.347  1.00  0.00    -0.227 Cl 
HETATM   26  C   UNL     1      -9.676  13.912  68.269  1.00  0.00    -0.223 A  
HETATM   27  C   UNL     1      -7.677  15.219  68.607  1.00  0.00    -0.135 A  
ENDBRANCH  14  21
ENDBRANCH  11  14
ENDBRANCH   7   8
ENDBRANCH   6   7
ENDBRANCH   5   6
ENDBRANCH   4   5
ENDBRANCH   2   4
TORSDOF 8
ENDMDL
MODEL       56
REMARK 921   NORMALIZED FREE ENERGY PREDICTED BY IDOCK:   -5.05 KCAL/MOL
REMARK 922        TOTAL FREE ENERGY PREDICTED BY IDOCK:   -7.65 KCAL/MOL
REMARK 923 INTER-LIGAND FREE ENERGY PREDICTED BY IDOCK:   -8.05 KCAL/MOL
REMARK 924 INTRA-LIGAND FREE ENERGY PREDICTED BY IDOCK:    0.41 KCAL/MOL
REMARK 927      BINDING AFFINITY PREDICTED BY RF-SCORE:    0.00 PKD
ROOT
HETATM    1  O   UNL     1      -5.895  11.415  65.614  1.00  0.00    -0.483 OA 
HETATM    2  C   UNL     1      -5.303  10.121  65.608  1.00  0.00    -0.063 C  
HETATM    3  H   UNL     1      -5.237  12.068  65.825  1.00  0.00     0.000 HD 
ENDROOT
BRANCH   2   4
HETATM    4  C   UNL     1      -6.356   9.076  65.271  1.00  0.00    -0.064 C  
BRANCH   4   5
HETATM    5  O   UNL     1      -7.429   9.685  64.553  1.00  0.00    -0.116 OA 
BRANCH   5   6
HETATM    6  C   UNL     1      -8.689   9.319  65.126  1.00  0.00    -0.185 C  
BRANCH   6   7
HETATM    7  C   UNL     1      -9.439  10.585  65.561  1.00  0.00    -0.216 C  
BRANCH   7   8
HETATM    8  N   UNL     1     -10.679  10.325  66.323  1.00  0.00    -0.067 NA 
HETATM    9  C   UNL     1     -10.477   9.417  67.471  1.00  0.00    -0.280 C  
HETATM   10  C   UNL     1      -9.723  10.048  68.667  1.00  0.00    -0.159 C  
HETATM   11  N   UNL     1     -10.346  11.288  69.193  1.00  0.00    -0.175 NA 
HETATM   12  C   UNL     1     -10.518  12.208  68.040  1.00  0.00    -0.212 C  
HETATM   13  C   UNL     1     -11.251  11.601  66.817  1.00  0.00    -0.308 C  
BRANCH  11  14
HETATM   14  C   UNL     1     -11.635  11.009  69.907  1.00  0.00    -0.337 C  
BRANCH  14  15
HETATM   15  C   UNL     1     -11.546   9.753  70.792  1.00  0.00    -0.417 A  
HETATM   16  C   UNL     1     -10.330   9.436  71.433  1.00  0.00    -0.326 A  
HETATM   17  C   UNL     1     -12.673   8.974  71.104  1.00  0.00    -0.242 A  
HETATM   18  C   UNL     1     -10.261   8.409  72.379  1.00  0.00    -0.399 A  
HETATM   19  C   UNL     1     -11.397   7.668  72.691  1.00  0.00    -0.423 A  
HETATM   20  C   UNL     1     -12.600   7.938  72.041  1.00  0.00    -0.327 A  
ENDBRANCH  14  15
BRANCH  14  21
HETATM   21  C   UNL     1     -12.164  12.246  70.651  1.00  0.00    -0.378 A  
HETATM   22  C   UNL     1     -13.643  13.172  72.357  1.00  0.00    -0.667 A  
HETATM   23  C   UNL     1     -12.568  14.648  70.776  1.00  0.00    -0.415 A  
HETATM   24  C   UNL     1     -13.012  12.075  71.762  1.00  0.00    -0.445 A  
HETATM   25 CL   UNL     1     -14.221  15.798  72.570  1.00  0.00    -0.558 Cl 
HETATM   26  C   UNL     1     -11.950  13.550  70.173  1.00  0.00    -0.399 A  
HETATM   27  C   UNL     1     -13.419  14.453  71.860  1.00  0.00    -0.393 A  
ENDBRANCH  14  21
ENDBRANCH  11  14
ENDBRANCH   7   8
ENDBRANCH   6   7
ENDBRANCH   5   6
ENDBRANCH   4   5
ENDBRANCH   2   4
TORSDOF 8
ENDMDL
MODEL       57
REMARK 921   NORMALIZED FREE ENERGY PREDICTED BY IDOCK:   -5.04 KCAL/MOL
REMARK 922        TOTAL FREE ENERGY PREDICTED BY IDOCK:   -7.64 KCAL/MOL
REMARK 923 INTER-LIGAND FREE ENERGY PREDICTED BY IDOCK:   -6.93 KCAL/MOL
REMARK 924 INTRA-LIGAND FREE ENERGY PREDICTED BY IDOCK:   -0.70 KCAL/MOL
REMARK 927      BINDING AFFINITY PREDICTED BY RF-SCORE:    0.00 PKD
ROOT
HETATM    1  O   UNL     1      -9.749   2.496  66.481  1.00  0.00    -0.371 OA 
HETATM    2  C   UNL     1      -9.333   3.820  66.797  1.00  0.00    -0.190 C  
HETATM    3  H   UNL     1      -9.106   1.873  66.801  1.00  0.00     0.000 HD 
ENDROOT
BRANCH   2   4
HETATM    4  C   UNL     1     -10.361   4.817  66.285  1.00  0.00    -0.291 C  
BRANCH   4   5
HETATM    5  O   UNL     1     -10.272   6.030  67.032  1.00  0.00    -0.160 OA 
BRANCH   5   6
HETATM    6  C   UNL     1      -8.903   6.389  67.247  1.00  0.00    -0.108 C  
BRANCH   6   7
HETATM    7  C   UNL     1      -8.817   7.427  68.373  1.00  0.00    -0.121 C  
BRANCH   7   8
HETATM    8  N   UNL     1      -8.390   8.771  67.931  1.00  0.00    -0.118 NA 
HETATM    9  C   UNL     1      -9.041   9.204  66.676  1.00  0.00    -0.148 C  
HETATM   10  C   UNL     1     -10.534   9.587  66.824  1.00  0.00    -0.193 C  
HETATM   11  N   UNL     1     -10.794  10.638  67.839  1.00  0.00    -0.254 NA 
HETATM   12  C   UNL     1     -10.165  10.182  69.105  1.00  0.00    -0.214 C  
HETATM   13  C   UNL     1      -8.674   9.771  68.987  1.00  0.00    -0.148 C  
BRANCH  11  14
HETATM   14  C   UNL     1     -10.296  11.981  67.397  1.00  0.00    -0.207 C  
BRANCH  14  15
HETATM   15  C   UNL     1     -10.873  12.392  66.030  1.00  0.00    -0.308 A  
HETATM   16  C   UNL     1     -10.029  12.433  64.901  1.00  0.00    -0.207 A  
HETATM   17  C   UNL     1     -12.248  12.596  65.828  1.00  0.00    -0.427 A  
HETATM   18  C   UNL     1     -10.551  12.628  63.619  1.00  0.00    -0.378 A  
HETATM   19  C   UNL     1     -11.920  12.803  63.441  1.00  0.00    -0.613 A  
HETATM   20  C   UNL     1     -12.768  12.804  64.546  1.00  0.00    -0.405 A  
ENDBRANCH  14  15
BRANCH  14  21
HETATM   21  C   UNL     1     -10.478  13.052  68.485  1.00  0.00    -0.261 A  
HETATM   22  C   UNL     1     -11.830  13.963  70.301  1.00  0.00    -0.360 A  
HETATM   23  C   UNL     1     -10.000  15.260  69.406  1.00  0.00    -0.257 A  
HETATM   24  C   UNL     1     -11.535  12.929  69.408  1.00  0.00    -0.323 A  
HETATM   25 CL   UNL     1     -11.447  16.411  71.369  1.00  0.00    -0.382 Cl 
HETATM   26  C   UNL     1      -9.714  14.232  68.503  1.00  0.00    -0.225 A  
HETATM   27  C   UNL     1     -11.062  15.124  70.294  1.00  0.00    -0.262 A  
ENDBRANCH  14  21
ENDBRANCH  11  14
ENDBRANCH   7   8
ENDBRANCH   6   7
ENDBRANCH   5   6
ENDBRANCH   4   5
ENDBRANCH   2   4
TORSDOF 8
ENDMDL
MODEL       58
REMARK 921   NORMALIZED FREE ENERGY PREDICTED BY IDOCK:   -4.98 KCAL/MOL
REMARK 922        TOTAL FREE ENERGY PREDICTED BY IDOCK:   -7.55 KCAL/MOL
REMARK 923 INTER-LIGAND FREE ENERGY PREDICTED BY IDOCK:   -6.81 KCAL/MOL
REMARK 924 INTRA-LIGAND FREE ENERGY PREDICTED BY IDOCK:   -0.74 KCAL/MOL
REMARK 927      BINDING AFFINITY PREDICTED BY RF-SCORE:    0.00 PKD
ROOT
HETATM    1  O   UNL     1      -7.619  10.063  68.341  1.00  0.00    -0.082 OA 
HETATM    2  C   UNL     1      -6.324  10.479  68.759  1.00  0.00    -0.047 C  
HETATM    3  H   UNL     1      -7.612   9.880  67.409  1.00  0.00     0.000 HD 
ENDROOT
BRANCH   2   4
HETATM    4  C   UNL     1      -6.334  10.773  70.252  1.00  0.00    -0.142 C  
BRANCH   4   5
HETATM    5  O   UNL     1      -5.809  12.079  70.491  1.00  0.00    -0.165 OA 
BRANCH   5   6
HETATM    6  C   UNL     1      -5.456  12.712  69.257  1.00  0.00    -0.073 C  
BRANCH   6   7
HETATM    7  C   UNL     1      -5.814  14.203  69.327  1.00  0.00    -0.089 C  
BRANCH   7   8
HETATM    8  N   UNL     1      -7.256  14.474  69.513  1.00  0.00    -0.130 NA 
HETATM    9  C   UNL     1      -7.601  15.904  69.360  1.00  0.00    -0.210 C  
HETATM   10  C   UNL     1      -7.560  16.425  67.903  1.00  0.00    -0.148 C  
HETATM   11  N   UNL     1      -8.416  15.663  66.960  1.00  0.00    -0.205 NA 
HETATM   12  C   UNL     1      -8.041  14.232  67.096  1.00  0.00    -0.129 C  
HETATM   13  C   UNL     1      -8.053  13.683  68.545  1.00  0.00    -0.118 C  
BRANCH  11  14
HETATM   14  C   UNL     1      -9.875  15.904  67.207  1.00  0.00    -0.234 C  
BRANCH  14  15
HETATM   15  C   UNL     1     -10.227  17.403  67.180  1.00  0.00    -0.323 A  
HETATM   16  C   UNL     1     -10.241  18.137  68.385  1.00  0.00    -0.401 A  
HETATM   17  C   UNL     1     -10.402  18.110  65.979  1.00  0.00    -0.360 A  
HETATM   18  C   UNL     1     -10.381  19.528  68.377  1.00  0.00    -0.486 A  
HETATM   19  C   UNL     1     -10.528  20.210  67.173  1.00  0.00    -0.429 A  
HETATM   20  C   UNL     1     -10.556  19.500  65.974  1.00  0.00    -0.589 A  
ENDBRANCH  14  15
BRANCH  14  21
HETATM   21  C   UNL     1     -10.766  15.050  66.290  1.00  0.00    -0.322 A  
HETATM   22  C   UNL     1     -12.648  13.513  66.063  1.00  0.00    -0.408 A  
HETATM   23  C   UNL     1     -11.143  13.844  64.203  1.00  0.00    -0.128 A  
HETATM   24  C   UNL     1     -11.911  14.427  66.822  1.00  0.00    -0.423 A  
HETATM   25 CL   UNL     1     -13.145  12.074  63.836  1.00  0.00    -0.336 Cl 
HETATM   26  C   UNL     1     -10.399  14.747  64.968  1.00  0.00    -0.420 A  
HETATM   27  C   UNL     1     -12.259  13.225  64.758  1.00  0.00    -0.417 A  
ENDBRANCH  14  21
ENDBRANCH  11  14
ENDBRANCH   7   8
ENDBRANCH   6   7
ENDBRANCH   5   6
ENDBRANCH   4   5
ENDBRANCH   2   4
TORSDOF 8
ENDMDL
MODEL       59
REMARK 921   NORMALIZED FREE ENERGY PREDICTED BY IDOCK:   -4.95 KCAL/MOL
REMARK 922        TOTAL FREE ENERGY PREDICTED BY IDOCK:   -7.50 KCAL/MOL
REMARK 923 INTER-LIGAND FREE ENERGY PREDICTED BY IDOCK:   -6.68 KCAL/MOL
REMARK 924 INTRA-LIGAND FREE ENERGY PREDICTED BY IDOCK:   -0.82 KCAL/MOL
REMARK 927      BINDING AFFINITY PREDICTED BY RF-SCORE:    0.00 PKD
ROOT
HETATM    1  O   UNL     1     -12.095   5.442  72.965  1.00  0.00    -0.547 OA 
HETATM    2  C   UNL     1     -10.769   5.213  72.501  1.00  0.00    -0.229 C  
HETATM    3  H   UNL     1     -12.244   4.953  73.766  1.00  0.00     0.000 HD 
ENDROOT
BRANCH   2   4
HETATM    4  C   UNL     1     -10.530   5.996  71.218  1.00  0.00    -0.230 C  
BRANCH   4   5
HETATM    5  O   UNL     1      -9.171   6.429  71.162  1.00  0.00    -0.155 OA 
BRANCH   5   6
HETATM    6  C   UNL     1      -8.749   6.584  69.803  1.00  0.00    -0.143 C  
BRANCH   6   7
HETATM    7  C   UNL     1      -9.705   7.540  69.078  1.00  0.00    -0.162 C  
BRANCH   7   8
HETATM    8  N   UNL     1      -9.053   8.408  68.075  1.00  0.00    -0.137 NA 
HETATM    9  C   UNL     1      -9.961   8.817  66.982  1.00  0.00    -0.240 C  
HETATM   10  C   UNL     1     -11.025   9.867  67.388  1.00  0.00    -0.145 C  
HETATM   11  N   UNL     1     -10.461  11.107  67.978  1.00  0.00    -0.181 NA 
HETATM   12  C   UNL     1      -9.574  10.690  69.094  1.00  0.00    -0.177 C  
HETATM   13  C   UNL     1      -8.511   9.624  68.727  1.00  0.00    -0.123 C  
BRANCH  11  14
HETATM   14  C   UNL     1      -9.749  11.942  66.955  1.00  0.00    -0.194 C  
BRANCH  14  15
HETATM   15  C   UNL     1     -10.624  12.213  65.719  1.00  0.00    -0.295 A  
HETATM   16  C   UNL     1     -10.163  11.832  64.441  1.00  0.00    -0.332 A  
HETATM   17  C   UNL     1     -11.936  12.704  65.822  1.00  0.00    -0.503 A  
HETATM   18  C   UNL     1     -11.001  11.901  63.324  1.00  0.00    -0.399 A  
HETATM   19  C   UNL     1     -12.305  12.368  63.455  1.00  0.00    -0.648 A  
HETATM   20  C   UNL     1     -12.769  12.786  64.701  1.00  0.00    -0.439 A  
ENDBRANCH  14  15
BRANCH  14  21
HETATM   21  C   UNL     1      -9.144  13.215  67.568  1.00  0.00    -0.205 A  
HETATM   22  C   UNL     1      -9.499  15.369  68.659  1.00  0.00    -0.205 A  
HETATM   23  C   UNL     1      -7.314  14.812  67.793  1.00  0.00    -0.186 A  
HETATM   24  C   UNL     1      -9.983  14.128  68.237  1.00  0.00    -0.241 A  
HETATM   25 CL   UNL     1      -7.580  17.248  68.921  1.00  0.00    -0.256 Cl 
HETATM   26  C   UNL     1      -7.802  13.577  67.359  1.00  0.00    -0.157 A  
HETATM   27  C   UNL     1      -8.167  15.706  68.434  1.00  0.00    -0.146 A  
ENDBRANCH  14  21
ENDBRANCH  11  14
ENDBRANCH   7   8
ENDBRANCH   6   7
ENDBRANCH   5   6
ENDBRANCH   4   5
ENDBRANCH   2   4
TORSDOF 8
ENDMDL
MODEL       60
REMARK 921   NORMALIZED FREE ENERGY PREDICTED BY IDOCK:   -4.93 KCAL/MOL
REMARK 922        TOTAL FREE ENERGY PREDICTED BY IDOCK:   -7.47 KCAL/MOL
REMARK 923 INTER-LIGAND FREE ENERGY PREDICTED BY IDOCK:   -7.67 KCAL/MOL
REMARK 924 INTRA-LIGAND FREE ENERGY PREDICTED BY IDOCK:    0.21 KCAL/MOL
REMARK 927      BINDING AFFINITY PREDICTED BY RF-SCORE:    0.00 PKD
ROOT
HETATM    1  O   UNL     1      -8.694  11.672  62.811  1.00  0.00    -0.634 OA 
HETATM    2  C   UNL     1      -9.648  10.663  63.122  1.00  0.00    -0.348 C  
HETATM    3  H   UNL     1      -7.957  11.286  62.352  1.00  0.00     0.000 HD 
ENDROOT
BRANCH   2   4
HETATM    4  C   UNL     1     -10.828  11.280  63.857  1.00  0.00    -0.354 C  
BRANCH   4   5
HETATM    5  O   UNL     1     -10.365  12.293  64.750  1.00  0.00    -0.275 OA 
BRANCH   5   6
HETATM    6  C   UNL     1     -10.047  11.731  66.027  1.00  0.00    -0.231 C  
BRANCH   6   7
HETATM    7  C   UNL     1      -8.577  12.020  66.361  1.00  0.00    -0.037 C  
BRANCH   7   8
HETATM    8  N   UNL     1      -8.381  12.883  67.545  1.00  0.00    -0.171 NA 
HETATM    9  C   UNL     1      -7.839  14.217  67.208  1.00  0.00    -0.147 C  
HETATM   10  C   UNL     1      -8.850  15.169  66.523  1.00  0.00    -0.277 C  
HETATM   11  N   UNL     1     -10.100  15.385  67.293  1.00  0.00    -0.236 NA 
HETATM   12  C   UNL     1     -10.656  14.042  67.601  1.00  0.00    -0.249 C  
HETATM   13  C   UNL     1      -9.663  13.056  68.269  1.00  0.00    -0.221 C  
BRANCH  11  14
HETATM   14  C   UNL     1      -9.866  16.209  68.524  1.00  0.00    -0.226 C  
BRANCH  14  15
HETATM   15  C   UNL     1      -9.748  17.709  68.202  1.00  0.00    -0.310 A  
HETATM   16  C   UNL     1      -8.531  18.380  68.444  1.00  0.00    -0.345 A  
HETATM   17  C   UNL     1     -10.766  18.417  67.542  1.00  0.00    -0.399 A  
HETATM   18  C   UNL     1      -8.332  19.692  68.002  1.00  0.00    -0.341 A  
HETATM   19  C   UNL     1      -9.347  20.364  67.328  1.00  0.00    -0.547 A  
HETATM   20  C   UNL     1     -10.571  19.734  67.112  1.00  0.00    -0.577 A  
ENDBRANCH  14  15
BRANCH  14  21
HETATM   21  C   UNL     1     -10.888  15.899  69.630  1.00  0.00    -0.314 A  
HETATM   22  C   UNL     1     -11.318  15.168  71.919  1.00  0.00    -0.381 A  
HETATM   23  C   UNL     1     -13.145  15.310  70.345  1.00  0.00    -0.240 A  
HETATM   24  C   UNL     1     -10.434  15.616  70.933  1.00  0.00     0.206 A  
HETATM   25 CL   UNL     1     -13.751  14.433  72.823  1.00  0.00    -0.531 Cl 
HETATM   26  C   UNL     1     -12.258  15.743  69.356  1.00  0.00    -0.149 A  
HETATM   27  C   UNL     1     -12.669  15.016  71.620  1.00  0.00    -0.340 A  
ENDBRANCH  14  21
ENDBRANCH  11  14
ENDBRANCH   7   8
ENDBRANCH   6   7
ENDBRANCH   5   6
ENDBRANCH   4   5
ENDBRANCH   2   4
TORSDOF 8
ENDMDL
MODEL       61
REMARK 921   NORMALIZED FREE ENERGY PREDICTED BY IDOCK:   -4.92 KCAL/MOL
REMARK 922        TOTAL FREE ENERGY PREDICTED BY IDOCK:   -7.46 KCAL/MOL
REMARK 923 INTER-LIGAND FREE ENERGY PREDICTED BY IDOCK:   -6.89 KCAL/MOL
REMARK 924 INTRA-LIGAND FREE ENERGY PREDICTED BY IDOCK:   -0.57 KCAL/MOL
REMARK 927      BINDING AFFINITY PREDICTED BY RF-SCORE:    0.00 PKD
ROOT
HETATM    1  O   UNL     1      -8.731   7.729  62.554  1.00  0.00    -0.406 OA 
HETATM    2  C   UNL     1      -7.985   8.224  63.660  1.00  0.00    -0.153 C  
HETATM    3  H   UNL     1      -8.660   8.332  61.823  1.00  0.00     0.000 HD 
ENDROOT
BRANCH   2   4
HETATM    4  C   UNL     1      -8.099   7.259  64.830  1.00  0.00    -0.108 C  
BRANCH   4   5
HETATM    5  O   UNL     1      -8.306   5.932  64.344  1.00  0.00    -0.122 OA 
BRANCH   5   6
HETATM    6  C   UNL     1      -8.961   5.131  65.333  1.00  0.00    -0.156 C  
BRANCH   6   7
HETATM    7  C   UNL     1      -8.792   5.783  66.712  1.00  0.00    -0.117 C  
BRANCH   7   8
HETATM    8  N   UNL     1      -9.960   5.630  67.605  1.00  0.00    -0.139 NA 
HETATM    9  C   UNL     1      -9.586   5.355  69.009  1.00  0.00    -0.141 C  
HETATM   10  C   UNL     1      -9.002   6.571  69.770  1.00  0.00    -0.142 C  
HETATM   11  N   UNL     1      -9.884   7.765  69.775  1.00  0.00    -0.177 NA 
HETATM   12  C   UNL     1     -10.230   8.054  68.360  1.00  0.00    -0.207 C  
HETATM   13  C   UNL     1     -10.798   6.851  67.563  1.00  0.00    -0.292 C  
BRANCH  11  14
HETATM   14  C   UNL     1     -11.094   7.564  70.637  1.00  0.00    -0.265 C  
BRANCH  14  15
HETATM   15  C   UNL     1     -10.760   6.813  71.939  1.00  0.00    -0.250 A  
HETATM   16  C   UNL     1     -10.036   7.471  72.956  1.00  0.00    -0.342 A  
HETATM   17  C   UNL     1     -11.268   5.534  72.219  1.00  0.00    -0.281 A  
HETATM   18  C   UNL     1      -9.869   6.884  74.214  1.00  0.00    -0.312 A  
HETATM   19  C   UNL     1     -10.404   5.626  74.475  1.00  0.00    -0.254 A  
HETATM   20  C   UNL     1     -11.089   4.942  73.473  1.00  0.00    -0.405 A  
ENDBRANCH  14  15
BRANCH  14  21
HETATM   21  C   UNL     1     -11.865   8.875  70.867  1.00  0.00    -0.283 A  
HETATM   22  C   UNL     1     -11.915  11.310  70.719  1.00  0.00    -0.383 A  
HETATM   23  C   UNL     1     -13.611  10.153  71.992  1.00  0.00    -0.328 A  
HETATM   24  C   UNL     1     -11.330  10.085  70.385  1.00  0.00    -0.392 A  
HETATM   25 CL   UNL     1     -13.752  12.847  71.961  1.00  0.00    -0.471 Cl 
HETATM   26  C   UNL     1     -13.016   8.931  71.670  1.00  0.00    -0.404 A  
HETATM   27  C   UNL     1     -13.052  11.338  71.521  1.00  0.00    -0.355 A  
ENDBRANCH  14  21
ENDBRANCH  11  14
ENDBRANCH   7   8
ENDBRANCH   6   7
ENDBRANCH   5   6
ENDBRANCH   4   5
ENDBRANCH   2   4
TORSDOF 8
ENDMDL
MODEL       62
REMARK 921   NORMALIZED FREE ENERGY PREDICTED BY IDOCK:   -4.90 KCAL/MOL
REMARK 922        TOTAL FREE ENERGY PREDICTED BY IDOCK:   -7.42 KCAL/MOL
REMARK 923 INTER-LIGAND FREE ENERGY PREDICTED BY IDOCK:   -6.85 KCAL/MOL
REMARK 924 INTRA-LIGAND FREE ENERGY PREDICTED BY IDOCK:   -0.57 KCAL/MOL
REMARK 927      BINDING AFFINITY PREDICTED BY RF-SCORE:    0.00 PKD
ROOT
HETATM    1  O   UNL     1     -12.383  16.743  74.251  1.00  0.00    -0.628 OA 
HETATM    2  C   UNL     1     -12.387  16.015  73.028  1.00  0.00    -0.520 C  
HETATM    3  H   UNL     1     -11.975  17.592  74.118  1.00  0.00     0.000 HD 
ENDROOT
BRANCH   2   4
HETATM    4  C   UNL     1     -13.038  14.657  73.241  1.00  0.00    -0.393 C  
BRANCH   4   5
HETATM    5  O   UNL     1     -13.317  14.052  71.978  1.00  0.00    -0.360 OA 
BRANCH   5   6
HETATM    6  C   UNL     1     -13.462  12.635  72.122  1.00  0.00    -0.460 C  
BRANCH   6   7
HETATM    7  C   UNL     1     -12.348  11.926  71.341  1.00  0.00    -0.015 C  
BRANCH   7   8
HETATM    8  N   UNL     1     -12.642  11.728  69.905  1.00  0.00     0.015 NA 
HETATM    9  C   UNL     1     -12.408  12.940  69.092  1.00  0.00     0.134 C  
HETATM   10  C   UNL     1     -10.916  13.289  68.870  1.00  0.00    -0.240 C  
HETATM   11  N   UNL     1     -10.119  12.193  68.264  1.00  0.00    -0.206 NA 
HETATM   12  C   UNL     1     -10.334  10.987  69.104  1.00  0.00    -0.188 C  
HETATM   13  C   UNL     1     -11.818  10.622  69.363  1.00  0.00    -0.253 C  
BRANCH  11  14
HETATM   14  C   UNL     1     -10.478  11.968  66.826  1.00  0.00    -0.214 C  
BRANCH  14  15
HETATM   15  C   UNL     1     -10.821  13.282  66.101  1.00  0.00    -0.290 A  
HETATM   16  C   UNL     1      -9.851  14.303  66.014  1.00  0.00    -0.336 A  
HETATM   17  C   UNL     1     -12.023  13.458  65.397  1.00  0.00    -0.419 A  
HETATM   18  C   UNL     1     -10.065  15.431  65.216  1.00  0.00    -0.354 A  
HETATM   19  C   UNL     1     -11.254  15.571  64.507  1.00  0.00    -0.327 A  
HETATM   20  C   UNL     1     -12.241  14.594  64.610  1.00  0.00    -0.447 A  
ENDBRANCH  14  15
BRANCH  14  21
HETATM   21  C   UNL     1      -9.424  11.121  66.092  1.00  0.00    -0.229 A  
HETATM   22  C   UNL     1      -7.078  10.516  65.804  1.00  0.00    -0.124 A  
HETATM   23  C   UNL     1      -8.706   9.810  64.165  1.00  0.00    -0.233 A  
HETATM   24  C   UNL     1      -8.089  11.137  66.542  1.00  0.00    -0.163 A  
HETATM   25 CL   UNL     1      -6.141   9.122  63.692  1.00  0.00    -0.087 Cl 
HETATM   26  C   UNL     1      -9.714  10.444  64.896  1.00  0.00    -0.372 A  
HETATM   27  C   UNL     1      -7.391   9.856  64.618  1.00  0.00    -0.140 A  
ENDBRANCH  14  21
ENDBRANCH  11  14
ENDBRANCH   7   8
ENDBRANCH   6   7
ENDBRANCH   5   6
ENDBRANCH   4   5
ENDBRANCH   2   4
TORSDOF 8
ENDMDL
MODEL       63
REMARK 921   NORMALIZED FREE ENERGY PREDICTED BY IDOCK:   -4.89 KCAL/MOL
REMARK 922        TOTAL FREE ENERGY PREDICTED BY IDOCK:   -7.41 KCAL/MOL
REMARK 923 INTER-LIGAND FREE ENERGY PREDICTED BY IDOCK:   -6.54 KCAL/MOL
REMARK 924 INTRA-LIGAND FREE ENERGY PREDICTED BY IDOCK:   -0.87 KCAL/MOL
REMARK 927      BINDING AFFINITY PREDICTED BY RF-SCORE:    0.00 PKD
ROOT
HETATM    1  O   UNL     1     -10.329   5.243  71.277  1.00  0.00    -0.216 OA 
HETATM    2  C   UNL     1      -9.431   5.981  72.097  1.00  0.00    -0.148 C  
HETATM    3  H   UNL     1      -9.846   4.805  70.585  1.00  0.00     0.000 HD 
ENDROOT
BRANCH   2   4
HETATM    4  C   UNL     1     -10.204   6.683  73.204  1.00  0.00    -0.219 C  
BRANCH   4   5
HETATM    5  O   UNL     1     -10.434   8.045  72.844  1.00  0.00    -0.329 OA 
BRANCH   5   6
HETATM    6  C   UNL     1     -11.793   8.232  72.432  1.00  0.00    -0.396 C  
BRANCH   6   7
HETATM    7  C   UNL     1     -11.835   8.521  70.926  1.00  0.00    -0.217 C  
BRANCH   7   8
HETATM    8  N   UNL     1     -10.668   9.274  70.418  1.00  0.00    -0.233 NA 
HETATM    9  C   UNL     1     -10.123   8.721  69.160  1.00  0.00    -0.198 C  
HETATM   10  C   UNL     1     -10.998   8.982  67.909  1.00  0.00     0.066 C  
HETATM   11  N   UNL     1     -11.298  10.415  67.665  1.00  0.00    -0.375 NA 
HETATM   12  C   UNL     1     -11.875  10.956  68.923  1.00  0.00    -0.270 C  
HETATM   13  C   UNL     1     -11.033  10.694  70.198  1.00  0.00    -0.222 C  
BRANCH  11  14
HETATM   14  C   UNL     1     -10.087  11.172  67.212  1.00  0.00    -0.188 C  
BRANCH  14  15
HETATM   15  C   UNL     1      -9.608  10.720  65.820  1.00  0.00    -0.254 A  
HETATM   16  C   UNL     1     -10.390  11.015  64.684  1.00  0.00    -0.410 A  
HETATM   17  C   UNL     1      -8.346  10.139  65.614  1.00  0.00    -0.153 A  
HETATM   18  C   UNL     1      -9.904  10.777  63.395  1.00  0.00    -0.400 A  
HETATM   19  C   UNL     1      -8.639  10.224  63.215  1.00  0.00    -0.194 A  
HETATM   20  C   UNL     1      -7.866   9.889  64.324  1.00  0.00    -0.139 A  
ENDBRANCH  14  15
BRANCH  14  21
HETATM   21  C   UNL     1     -10.279  12.694  67.327  1.00  0.00    -0.227 A  
HETATM   22  C   UNL     1      -9.559  14.812  68.301  1.00  0.00    -0.215 A  
HETATM   23  C   UNL     1     -11.669  14.689  67.131  1.00  0.00    -0.392 A  
HETATM   24  C   UNL     1      -9.332  13.459  68.034  1.00  0.00    -0.217 A  
HETATM   25 CL   UNL     1     -11.024  17.076  68.208  1.00  0.00    -0.335 Cl 
HETATM   26  C   UNL     1     -11.447  13.333  66.878  1.00  0.00    -0.376 A  
HETATM   27  C   UNL     1     -10.728  15.420  67.850  1.00  0.00    -0.286 A  
ENDBRANCH  14  21
ENDBRANCH  11  14
ENDBRANCH   7   8
ENDBRANCH   6   7
ENDBRANCH   5   6
ENDBRANCH   4   5
ENDBRANCH   2   4
TORSDOF 8
ENDMDL
MODEL       64
REMARK 921   NORMALIZED FREE ENERGY PREDICTED BY IDOCK:   -4.87 KCAL/MOL
REMARK 922        TOTAL FREE ENERGY PREDICTED BY IDOCK:   -7.38 KCAL/MOL
REMARK 923 INTER-LIGAND FREE ENERGY PREDICTED BY IDOCK:   -7.40 KCAL/MOL
REMARK 924 INTRA-LIGAND FREE ENERGY PREDICTED BY IDOCK:    0.02 KCAL/MOL
REMARK 927      BINDING AFFINITY PREDICTED BY RF-SCORE:    0.00 PKD
ROOT
HETATM    1  O   UNL     1      -9.639  19.095  69.365  1.00  0.00    -0.208 OA 
HETATM    2  C   UNL     1      -9.267  19.850  68.217  1.00  0.00    -0.260 C  
HETATM    3  H   UNL     1      -8.972  19.182  70.036  1.00  0.00     0.000 HD 
ENDROOT
BRANCH   2   4
HETATM    4  C   UNL     1     -10.334  19.711  67.142  1.00  0.00    -0.457 C  
BRANCH   4   5
HETATM    5  O   UNL     1      -9.736  19.273  65.922  1.00  0.00    -0.435 OA 
BRANCH   5   6
HETATM    6  C   UNL     1      -9.158  17.974  66.085  1.00  0.00    -0.102 C  
BRANCH   6   7
HETATM    7  C   UNL     1     -10.204  17.018  66.673  1.00  0.00    -0.310 C  
BRANCH   7   8
HETATM    8  N   UNL     1      -9.662  16.045  67.645  1.00  0.00    -0.223 NA 
HETATM    9  C   UNL     1     -10.554  15.819  68.801  1.00  0.00    -0.239 C  
HETATM   10  C   UNL     1     -11.823  14.990  68.484  1.00  0.00    -0.291 C  
HETATM   11  N   UNL     1     -11.546  13.663  67.878  1.00  0.00    -0.320 NA 
HETATM   12  C   UNL     1     -10.675  13.901  66.698  1.00  0.00    -0.281 C  
HETATM   13  C   UNL     1      -9.406  14.746  66.978  1.00  0.00    -0.233 C  
BRANCH  11  14
HETATM   14  C   UNL     1     -10.937  12.712  68.864  1.00  0.00    -0.229 C  
BRANCH  14  15
HETATM   15  C   UNL     1     -11.934  12.302  69.963  1.00  0.00    -0.379 A  
HETATM   16  C   UNL     1     -12.144  10.934  70.239  1.00  0.00    -0.440 A  
HETATM   17  C   UNL     1     -12.547  13.242  70.807  1.00  0.00    -0.357 A  
HETATM   18  C   UNL     1     -12.903  10.531  71.342  1.00  0.00    -0.551 A  
HETATM   19  C   UNL     1     -13.479  11.482  72.179  1.00  0.00    -0.219 A  
HETATM   20  C   UNL     1     -13.317  12.838  71.903  1.00  0.00    -0.510 A  
ENDBRANCH  14  15
BRANCH  14  21
HETATM   21  C   UNL     1     -10.263  11.515  68.172  1.00  0.00    -0.205 A  
HETATM   22  C   UNL     1     -10.499   9.435  66.919  1.00  0.00    -0.281 A  
HETATM   23  C   UNL     1      -8.358  10.023  67.870  1.00  0.00    -0.117 A  
HETATM   24  C   UNL     1     -11.047  10.619  67.420  1.00  0.00    -0.341 A  
HETATM   25 CL   UNL     1      -8.491   7.668  66.561  1.00  0.00    -0.127 Cl 
HETATM   26  C   UNL     1      -8.910  11.199  68.383  1.00  0.00    -0.157 A  
HETATM   27  C   UNL     1      -9.157   9.142  67.148  1.00  0.00    -0.126 A  
ENDBRANCH  14  21
ENDBRANCH  11  14
ENDBRANCH   7   8
ENDBRANCH   6   7
ENDBRANCH   5   6
ENDBRANCH   4   5
ENDBRANCH   2   4
TORSDOF 8
ENDMDL
MODEL       65
REMARK 921   NORMALIZED FREE ENERGY PREDICTED BY IDOCK:   -4.87 KCAL/MOL
REMARK 922        TOTAL FREE ENERGY PREDICTED BY IDOCK:   -7.38 KCAL/MOL
REMARK 923 INTER-LIGAND FREE ENERGY PREDICTED BY IDOCK:   -7.21 KCAL/MOL
REMARK 924 INTRA-LIGAND FREE ENERGY PREDICTED BY IDOCK:   -0.17 KCAL/MOL
REMARK 927      BINDING AFFINITY PREDICTED BY RF-SCORE:    0.00 PKD
ROOT
HETATM    1  O   UNL     1     -10.836   1.712  63.942  1.00  0.00    -0.383 OA 
HETATM    2  C   UNL     1     -10.468   2.996  63.450  1.00  0.00    -0.215 C  
HETATM    3  H   UNL     1     -10.638   1.050  63.289  1.00  0.00     0.000 HD 
ENDROOT
BRANCH   2   4
HETATM    4  C   UNL     1     -10.786   4.056  64.494  1.00  0.00    -0.158 C  
BRANCH   4   5
HETATM    5  O   UNL     1      -9.828   3.996  65.551  1.00  0.00    -0.184 OA 
BRANCH   5   6
HETATM    6  C   UNL     1      -8.987   5.154  65.534  1.00  0.00    -0.155 C  
BRANCH   6   7
HETATM    7  C   UNL     1      -8.841   5.701  66.960  1.00  0.00    -0.111 C  
BRANCH   7   8
HETATM    8  N   UNL     1     -10.085   5.660  67.757  1.00  0.00    -0.157 NA 
HETATM    9  C   UNL     1      -9.852   5.332  69.180  1.00  0.00    -0.187 C  
HETATM   10  C   UNL     1      -9.208   6.472  70.007  1.00  0.00    -0.157 C  
HETATM   11  N   UNL     1      -9.960   7.751  69.969  1.00  0.00    -0.185 NA 
HETATM   12  C   UNL     1     -10.163   8.090  68.537  1.00  0.00    -0.207 C  
HETATM   13  C   UNL     1     -10.788   6.963  67.676  1.00  0.00    -0.263 C  
BRANCH  11  14
HETATM   14  C   UNL     1     -11.249   7.667  70.731  1.00  0.00    -0.268 C  
BRANCH  14  15
HETATM   15  C   UNL     1     -11.091   6.893  72.052  1.00  0.00    -0.279 A  
HETATM   16  C   UNL     1     -11.658   5.607  72.178  1.00  0.00    -0.202 A  
HETATM   17  C   UNL     1     -10.280   7.357  73.101  1.00  0.00    -0.363 A  
HETATM   18  C   UNL     1     -11.386   4.808  73.292  1.00  0.00    -0.408 A  
HETATM   19  C   UNL     1     -10.559   5.280  74.307  1.00  0.00    -0.262 A  
HETATM   20  C   UNL     1     -10.019   6.561  74.221  1.00  0.00    -0.362 A  
ENDBRANCH  14  15
BRANCH  14  21
HETATM   21  C   UNL     1     -11.908   9.045  70.904  1.00  0.00    -0.302 A  
HETATM   22  C   UNL     1     -11.816  11.456  70.536  1.00  0.00    -0.394 A  
HETATM   23  C   UNL     1     -13.456  10.540  72.054  1.00  0.00    -0.330 A  
HETATM   24  C   UNL     1     -11.344  10.168  70.267  1.00  0.00    -0.387 A  
HETATM   25 CL   UNL     1     -13.426  13.223  71.785  1.00  0.00    -0.464 Cl 
HETATM   26  C   UNL     1     -12.974   9.254  71.796  1.00  0.00    -0.471 A  
HETATM   27  C   UNL     1     -12.868  11.636  71.428  1.00  0.00    -0.356 A  
ENDBRANCH  14  21
ENDBRANCH  11  14
ENDBRANCH   7   8
ENDBRANCH   6   7
ENDBRANCH   5   6
ENDBRANCH   4   5
ENDBRANCH   2   4
TORSDOF 8
ENDMDL
MODEL       66
REMARK 921   NORMALIZED FREE ENERGY PREDICTED BY IDOCK:   -4.82 KCAL/MOL
REMARK 922        TOTAL FREE ENERGY PREDICTED BY IDOCK:   -7.31 KCAL/MOL
REMARK 923 INTER-LIGAND FREE ENERGY PREDICTED BY IDOCK:   -6.68 KCAL/MOL
REMARK 924 INTRA-LIGAND FREE ENERGY PREDICTED BY IDOCK:   -0.63 KCAL/MOL
REMARK 927      BINDING AFFINITY PREDICTED BY RF-SCORE:    0.00 PKD
ROOT
HETATM    1  O   UNL     1      -9.542  15.297  69.909  1.00  0.00    -0.439 OA 
HETATM    2  C   UNL     1     -10.676  16.136  69.718  1.00  0.00    -0.336 C  
HETATM    3  H   UNL     1      -8.747  15.815  69.857  1.00  0.00     0.000 HD 
ENDROOT
BRANCH   2   4
HETATM    4  C   UNL     1     -11.949  15.307  69.801  1.00  0.00    -0.347 C  
BRANCH   4   5
HETATM    5  O   UNL     1     -11.930  14.510  70.985  1.00  0.00    -0.316 OA 
BRANCH   5   6
HETATM    6  C   UNL     1     -12.408  13.189  70.710  1.00  0.00    -0.321 C  
BRANCH   6   7
HETATM    7  C   UNL     1     -11.700  12.639  69.465  1.00  0.00    -0.308 C  
BRANCH   7   8
HETATM    8  N   UNL     1     -12.147  11.290  69.056  1.00  0.00    -0.454 NA 
HETATM    9  C   UNL     1     -11.353  10.728  67.943  1.00  0.00    -0.299 C  
HETATM   10  C   UNL     1      -9.926  10.274  68.335  1.00  0.00    -0.157 C  
HETATM   11  N   UNL     1      -9.883   9.291  69.446  1.00  0.00    -0.168 NA 
HETATM   12  C   UNL     1     -10.656   9.877  70.571  1.00  0.00    -0.293 C  
HETATM   13  C   UNL     1     -12.083  10.360  70.208  1.00  0.00    -0.286 C  
BRANCH  11  14
HETATM   14  C   UNL     1     -10.401   7.948  69.026  1.00  0.00    -0.214 C  
BRANCH  14  15
HETATM   15  C   UNL     1      -9.589   7.353  67.861  1.00  0.00    -0.157 A  
HETATM   16  C   UNL     1      -8.186   7.502  67.842  1.00  0.00    -0.123 A  
HETATM   17  C   UNL     1     -10.176   6.541  66.877  1.00  0.00    -0.279 A  
HETATM   18  C   UNL     1      -7.405   6.827  66.899  1.00  0.00    -0.082 A  
HETATM   19  C   UNL     1      -8.007   6.007  65.949  1.00  0.00    -0.111 A  
HETATM   20  C   UNL     1      -9.394   5.877  65.926  1.00  0.00    -0.071 A  
ENDBRANCH  14  15
BRANCH  14  21
HETATM   21  C   UNL     1     -10.554   6.989  70.219  1.00  0.00    -0.247 A  
HETATM   22  C   UNL     1     -11.944   6.131  72.031  1.00  0.00    -0.310 A  
HETATM   23  C   UNL     1      -9.588   5.599  71.975  1.00  0.00    -0.173 A  
HETATM   24  C   UNL     1     -11.808   6.861  70.847  1.00  0.00    -0.424 A  
HETATM   25 CL   UNL     1     -10.994   4.634  74.065  1.00  0.00    -0.329 Cl 
HETATM   26  C   UNL     1      -9.450   6.342  70.800  1.00  0.00    -0.179 A  
HETATM   27  C   UNL     1     -10.834   5.504  72.590  1.00  0.00    -0.257 A  
ENDBRANCH  14  21
ENDBRANCH  11  14
ENDBRANCH   7   8
ENDBRANCH   6   7
ENDBRANCH   5   6
ENDBRANCH   4   5
ENDBRANCH   2   4
TORSDOF 8
ENDMDL
MODEL       67
REMARK 921   NORMALIZED FREE ENERGY PREDICTED BY IDOCK:   -4.79 KCAL/MOL
REMARK 922        TOTAL FREE ENERGY PREDICTED BY IDOCK:   -7.27 KCAL/MOL
REMARK 923 INTER-LIGAND FREE ENERGY PREDICTED BY IDOCK:   -6.52 KCAL/MOL
REMARK 924 INTRA-LIGAND FREE ENERGY PREDICTED BY IDOCK:   -0.75 KCAL/MOL
REMARK 927      BINDING AFFINITY PREDICTED BY RF-SCORE:    0.00 PKD
ROOT
HETATM    1  O   UNL     1     -10.197   5.174  71.890  1.00  0.00    -0.196 OA 
HETATM    2  C   UNL     1      -9.499   6.115  72.697  1.00  0.00    -0.145 C  
HETATM    3  H   UNL     1      -9.575   4.652  71.395  1.00  0.00     0.000 HD 
ENDROOT
BRANCH   2   4
HETATM    4  C   UNL     1     -10.493   6.951  73.489  1.00  0.00    -0.352 C  
BRANCH   4   5
HETATM    5  O   UNL     1     -10.625   8.241  72.889  1.00  0.00    -0.320 OA 
BRANCH   5   6
HETATM    6  C   UNL     1     -11.975   8.463  72.468  1.00  0.00    -0.350 C  
BRANCH   6   7
HETATM    7  C   UNL     1     -11.993   8.817  70.976  1.00  0.00    -0.251 C  
BRANCH   7   8
HETATM    8  N   UNL     1     -10.860   9.659  70.536  1.00  0.00    -0.284 NA 
HETATM    9  C   UNL     1     -10.061   9.040  69.457  1.00  0.00    -0.197 C  
HETATM   10  C   UNL     1     -10.753   9.024  68.072  1.00  0.00    -0.125 C  
HETATM   11  N   UNL     1     -11.181  10.362  67.590  1.00  0.00    -0.348 NA 
HETATM   12  C   UNL     1     -12.009  10.964  68.666  1.00  0.00    -0.115 C  
HETATM   13  C   UNL     1     -11.353  10.977  70.071  1.00  0.00    -0.277 C  
BRANCH  11  14
HETATM   14  C   UNL     1     -10.013  11.221  67.210  1.00  0.00    -0.183 C  
BRANCH  14  15
HETATM   15  C   UNL     1      -8.980  10.454  66.364  1.00  0.00    -0.166 A  
HETATM   16  C   UNL     1      -7.657  10.317  66.834  1.00  0.00    -0.105 A  
HETATM   17  C   UNL     1      -9.336   9.758  65.197  1.00  0.00    -0.322 A  
HETATM   18  C   UNL     1      -6.745   9.482  66.182  1.00  0.00    -0.082 A  
HETATM   19  C   UNL     1      -7.129   8.783  65.041  1.00  0.00    -0.080 A  
HETATM   20  C   UNL     1      -8.419   8.933  64.538  1.00  0.00    -0.178 A  
ENDBRANCH  14  15
BRANCH  14  21
HETATM   21  C   UNL     1     -10.455  12.551  66.578  1.00  0.00    -0.258 A  
HETATM   22  C   UNL     1     -12.046  13.760  65.177  1.00  0.00    -0.416 A  
HETATM   23  C   UNL     1      -9.966  14.814  65.808  1.00  0.00    -0.375 A  
HETATM   24  C   UNL     1     -11.689  12.620  65.903  1.00  0.00    -0.470 A  
HETATM   25 CL   UNL     1     -11.604  16.240  64.210  1.00  0.00    -0.241 Cl 
HETATM   26  C   UNL     1      -9.604  13.668  66.522  1.00  0.00    -0.294 A  
HETATM   27  C   UNL     1     -11.182  14.851  65.132  1.00  0.00    -0.386 A  
ENDBRANCH  14  21
ENDBRANCH  11  14
ENDBRANCH   7   8
ENDBRANCH   6   7
ENDBRANCH   5   6
ENDBRANCH   4   5
ENDBRANCH   2   4
TORSDOF 8
ENDMDL
MODEL       68
REMARK 921   NORMALIZED FREE ENERGY PREDICTED BY IDOCK:   -4.79 KCAL/MOL
REMARK 922        TOTAL FREE ENERGY PREDICTED BY IDOCK:   -7.27 KCAL/MOL
REMARK 923 INTER-LIGAND FREE ENERGY PREDICTED BY IDOCK:   -7.30 KCAL/MOL
REMARK 924 INTRA-LIGAND FREE ENERGY PREDICTED BY IDOCK:    0.03 KCAL/MOL
REMARK 927      BINDING AFFINITY PREDICTED BY RF-SCORE:    0.00 PKD
ROOT
HETATM    1  O   UNL     1      -7.231   3.920  64.541  1.00  0.00    -0.063 OA 
HETATM    2  C   UNL     1      -8.143   4.941  64.152  1.00  0.00    -0.115 C  
HETATM    3  H   UNL     1      -7.078   3.331  63.812  1.00  0.00     0.000 HD 
ENDROOT
BRANCH   2   4
HETATM    4  C   UNL     1      -8.389   5.884  65.320  1.00  0.00    -0.146 C  
BRANCH   4   5
HETATM    5  O   UNL     1      -8.403   7.234  64.857  1.00  0.00    -0.111 OA 
BRANCH   5   6
HETATM    6  C   UNL     1      -7.913   8.118  65.870  1.00  0.00    -0.102 C  
BRANCH   6   7
HETATM    7  C   UNL     1      -8.827   9.348  65.961  1.00  0.00    -0.156 C  
BRANCH   7   8
HETATM    8  N   UNL     1     -10.128   9.092  66.614  1.00  0.00    -0.278 NA 
HETATM    9  C   UNL     1     -10.004   8.336  67.879  1.00  0.00    -0.183 C  
HETATM   10  C   UNL     1      -9.425   9.150  69.062  1.00  0.00    -0.152 C  
HETATM   11  N   UNL     1     -10.172  10.396  69.367  1.00  0.00    -0.227 NA 
HETATM   12  C   UNL     1     -10.265  11.165  68.099  1.00  0.00    -0.181 C  
HETATM   13  C   UNL     1     -10.822  10.373  66.889  1.00  0.00    -0.161 C  
BRANCH  11  14
HETATM   14  C   UNL     1     -11.515  10.111  69.970  1.00  0.00    -0.277 C  
BRANCH  14  15
HETATM   15  C   UNL     1     -11.452   8.985  71.017  1.00  0.00    -0.358 A  
HETATM   16  C   UNL     1     -12.371   7.916  70.947  1.00  0.00    -0.095 A  
HETATM   17  C   UNL     1     -10.422   8.901  71.968  1.00  0.00    -0.383 A  
HETATM   18  C   UNL     1     -12.232   6.793  71.768  1.00  0.00    -0.402 A  
HETATM   19  C   UNL     1     -11.188   6.723  72.686  1.00  0.00    -0.291 A  
HETATM   20  C   UNL     1     -10.293   7.783  72.799  1.00  0.00    -0.374 A  
ENDBRANCH  14  15
BRANCH  14  21
HETATM   21  C   UNL     1     -12.199  11.388  70.486  1.00  0.00    -0.478 A  
HETATM   22  C   UNL     1     -12.344  13.825  70.460  1.00  0.00    -0.429 A  
HETATM   23  C   UNL     1     -13.522  12.573  72.158  1.00  0.00    -0.523 A  
HETATM   24  C   UNL     1     -11.870  12.631  69.909  1.00  0.00    -0.364 A  
HETATM   25 CL   UNL     1     -13.722  15.260  72.283  1.00  0.00    -0.554 Cl 
HETATM   26  C   UNL     1     -13.036  11.381  71.614  1.00  0.00    -0.523 A  
HETATM   27  C   UNL     1     -13.167  13.790  71.583  1.00  0.00    -0.371 A  
ENDBRANCH  14  21
ENDBRANCH  11  14
ENDBRANCH   7   8
ENDBRANCH   6   7
ENDBRANCH   5   6
ENDBRANCH   4   5
ENDBRANCH   2   4
TORSDOF 8
ENDMDL
MODEL       69
REMARK 921   NORMALIZED FREE ENERGY PREDICTED BY IDOCK:   -4.78 KCAL/MOL
REMARK 922        TOTAL FREE ENERGY PREDICTED BY IDOCK:   -7.25 KCAL/MOL
REMARK 923 INTER-LIGAND FREE ENERGY PREDICTED BY IDOCK:   -7.24 KCAL/MOL
REMARK 924 INTRA-LIGAND FREE ENERGY PREDICTED BY IDOCK:   -0.01 KCAL/MOL
REMARK 927      BINDING AFFINITY PREDICTED BY RF-SCORE:    0.00 PKD
ROOT
HETATM    1  O   UNL     1      -9.075  15.421  69.775  1.00  0.00    -0.374 OA 
HETATM    2  C   UNL     1      -8.810  16.246  68.645  1.00  0.00    -0.226 C  
HETATM    3  H   UNL     1      -8.256  15.137  70.163  1.00  0.00     0.000 HD 
ENDROOT
BRANCH   2   4
HETATM    4  C   UNL     1     -10.121  16.701  68.022  1.00  0.00    -0.262 C  
BRANCH   4   5
HETATM    5  O   UNL     1     -10.226  16.193  66.692  1.00  0.00    -0.271 OA 
BRANCH   5   6
HETATM    6  C   UNL     1     -11.202  15.148  66.629  1.00  0.00    -0.274 C  
BRANCH   6   7
HETATM    7  C   UNL     1     -10.542  13.863  66.112  1.00  0.00    -0.291 C  
BRANCH   7   8
HETATM    8  N   UNL     1      -9.830  13.086  67.148  1.00  0.00    -0.226 NA 
HETATM    9  C   UNL     1     -10.599  12.949  68.403  1.00  0.00    -0.253 C  
HETATM   10  C   UNL     1     -11.802  11.978  68.320  1.00  0.00    -0.287 C  
HETATM   11  N   UNL     1     -11.448  10.608  67.871  1.00  0.00    -0.475 NA 
HETATM   12  C   UNL     1     -10.703  10.751  66.594  1.00  0.00    -0.207 C  
HETATM   13  C   UNL     1      -9.504  11.733  66.638  1.00  0.00    -0.205 C  
BRANCH  11  14
HETATM   14  C   UNL     1     -10.671   9.860  68.913  1.00  0.00    -0.221 C  
BRANCH  14  15
HETATM   15  C   UNL     1     -11.482   9.658  70.206  1.00  0.00    -0.288 A  
HETATM   16  C   UNL     1     -12.272  10.715  70.705  1.00  0.00    -0.474 A  
HETATM   17  C   UNL     1     -11.579   8.410  70.842  1.00  0.00    -0.288 A  
HETATM   18  C   UNL     1     -13.154  10.512  71.771  1.00  0.00    -0.570 A  
HETATM   19  C   UNL     1     -13.251   9.259  72.369  1.00  0.00    -0.501 A  
HETATM   20  C   UNL     1     -12.452   8.211  71.917  1.00  0.00    -0.368 A  
ENDBRANCH  14  15
BRANCH  14  21
HETATM   21  C   UNL     1     -10.066   8.559  68.360  1.00  0.00    -0.221 A  
HETATM   22  C   UNL     1      -8.076   7.232  67.877  1.00  0.00    -0.119 A  
HETATM   23  C   UNL     1     -10.208   6.569  66.957  1.00  0.00    -0.277 A  
HETATM   24  C   UNL     1      -8.686   8.319  68.510  1.00  0.00    -0.133 A  
HETATM   25 CL   UNL     1      -8.082   5.046  66.296  1.00  0.00    -0.107 Cl 
HETATM   26  C   UNL     1     -10.815   7.664  67.578  1.00  0.00    -0.205 A  
HETATM   27  C   UNL     1      -8.839   6.363  67.103  1.00  0.00    -0.113 A  
ENDBRANCH  14  21
ENDBRANCH  11  14
ENDBRANCH   7   8
ENDBRANCH   6   7
ENDBRANCH   5   6
ENDBRANCH   4   5
ENDBRANCH   2   4
TORSDOF 8
ENDMDL
MODEL       70
REMARK 921   NORMALIZED FREE ENERGY PREDICTED BY IDOCK:   -4.78 KCAL/MOL
REMARK 922        TOTAL FREE ENERGY PREDICTED BY IDOCK:   -7.25 KCAL/MOL
REMARK 923 INTER-LIGAND FREE ENERGY PREDICTED BY IDOCK:   -7.14 KCAL/MOL
REMARK 924 INTRA-LIGAND FREE ENERGY PREDICTED BY IDOCK:   -0.11 KCAL/MOL
REMARK 927      BINDING AFFINITY PREDICTED BY RF-SCORE:    0.00 PKD
ROOT
HETATM    1  O   UNL     1     -11.493   6.582  69.461  1.00  0.00    -0.533 OA 
HETATM    2  C   UNL     1     -10.968   7.905  69.484  1.00  0.00    -0.071 C  
HETATM    3  H   UNL     1     -11.955   6.406  70.272  1.00  0.00     0.000 HD 
ENDROOT
BRANCH   2   4
HETATM    4  C   UNL     1     -10.227   8.188  68.186  1.00  0.00    -0.209 C  
BRANCH   4   5
HETATM    5  O   UNL     1     -10.801   9.325  67.540  1.00  0.00    -0.259 OA 
BRANCH   5   6
HETATM    6  C   UNL     1     -10.082   9.638  66.342  1.00  0.00    -0.247 C  
BRANCH   6   7
HETATM    7  C   UNL     1     -10.131  11.152  66.099  1.00  0.00    -0.238 C  
BRANCH   7   8
HETATM    8  N   UNL     1      -9.600  11.965  67.213  1.00  0.00    -0.176 NA 
HETATM    9  C   UNL     1      -8.830  13.142  66.758  1.00  0.00    -0.132 C  
HETATM   10  C   UNL     1      -9.690  14.285  66.165  1.00  0.00    -0.303 C  
HETATM   11  N   UNL     1     -10.754  14.780  67.074  1.00  0.00    -0.294 NA 
HETATM   12  C   UNL     1     -11.543  13.596  67.502  1.00  0.00    -0.350 C  
HETATM   13  C   UNL     1     -10.709  12.425  68.083  1.00  0.00    -0.221 C  
BRANCH  11  14
HETATM   14  C   UNL     1     -10.190  15.548  68.232  1.00  0.00    -0.222 C  
BRANCH  14  15
HETATM   15  C   UNL     1      -9.941  17.026  67.880  1.00  0.00    -0.281 A  
HETATM   16  C   UNL     1     -10.630  17.610  66.797  1.00  0.00    -0.224 A  
HETATM   17  C   UNL     1      -9.152  17.865  68.684  1.00  0.00    -0.263 A  
HETATM   18  C   UNL     1     -10.563  18.986  66.560  1.00  0.00    -0.495 A  
HETATM   19  C   UNL     1      -9.795  19.802  67.386  1.00  0.00    -0.519 A  
HETATM   20  C   UNL     1      -9.075  19.240  68.438  1.00  0.00    -0.408 A  
ENDBRANCH  14  15
BRANCH  14  21
HETATM   21  C   UNL     1     -11.018  15.355  69.513  1.00  0.00    -0.276 A  
HETATM   22  C   UNL     1     -13.184  15.494  70.629  1.00  0.00    -0.293 A  
HETATM   23  C   UNL     1     -11.181  15.166  71.939  1.00  0.00    -0.275 A  
HETATM   24  C   UNL     1     -12.418  15.498  69.460  1.00  0.00    -0.081 A  
HETATM   25 CL   UNL     1     -13.498  15.360  73.305  1.00  0.00    -0.533 Cl 
HETATM   26  C   UNL     1     -10.415  15.184  70.771  1.00  0.00     0.112 A  
HETATM   27  C   UNL     1     -12.561  15.330  71.863  1.00  0.00    -0.353 A  
ENDBRANCH  14  21
ENDBRANCH  11  14
ENDBRANCH   7   8
ENDBRANCH   6   7
ENDBRANCH   5   6
ENDBRANCH   4   5
ENDBRANCH   2   4
TORSDOF 8
ENDMDL
MODEL       71
REMARK 921   NORMALIZED FREE ENERGY PREDICTED BY IDOCK:   -4.77 KCAL/MOL
REMARK 922        TOTAL FREE ENERGY PREDICTED BY IDOCK:   -7.23 KCAL/MOL
REMARK 923 INTER-LIGAND FREE ENERGY PREDICTED BY IDOCK:   -8.85 KCAL/MOL
REMARK 924 INTRA-LIGAND FREE ENERGY PREDICTED BY IDOCK:    1.62 KCAL/MOL
REMARK 927      BINDING AFFINITY PREDICTED BY RF-SCORE:    0.00 PKD
ROOT
HETATM    1  O   UNL     1     -11.010  19.199  65.107  1.00  0.00    -0.464 OA 
HETATM    2  C   UNL     1     -10.532  18.781  66.380  1.00  0.00    -0.429 C  
HETATM    3  H   UNL     1     -11.509  20.003  65.199  1.00  0.00     0.000 HD 
ENDROOT
BRANCH   2   4
HETATM    4  C   UNL     1      -9.734  17.494  66.233  1.00  0.00    -0.258 C  
BRANCH   4   5
HETATM    5  O   UNL     1     -10.321  16.674  65.222  1.00  0.00    -0.609 OA 
BRANCH   5   6
HETATM    6  C   UNL     1     -10.015  15.295  65.453  1.00  0.00    -0.329 C  
BRANCH   6   7
HETATM    7  C   UNL     1     -11.109  14.418  64.830  1.00  0.00    -0.394 C  
BRANCH   7   8
HETATM    8  N   UNL     1     -12.047  13.828  65.808  1.00  0.00    -0.402 NA 
HETATM    9  C   UNL     1     -11.704  12.438  66.177  1.00  0.00    -0.400 C  
HETATM   10  C   UNL     1     -10.463  12.302  67.093  1.00  0.00    -0.219 C  
HETATM   11  N   UNL     1     -10.549  13.083  68.353  1.00  0.00    -0.246 NA 
HETATM   12  C   UNL     1     -10.862  14.484  67.973  1.00  0.00    -0.244 C  
HETATM   13  C   UNL     1     -12.088  14.654  67.039  1.00  0.00    -0.186 C  
BRANCH  11  14
HETATM   14  C   UNL     1     -11.552  12.504  69.304  1.00  0.00    -0.319 C  
BRANCH  14  15
HETATM   15  C   UNL     1     -11.171  11.081  69.753  1.00  0.00    -0.339 A  
HETATM   16  C   UNL     1      -9.826  10.662  69.672  1.00  0.00    -0.052 A  
HETATM   17  C   UNL     1     -12.090  10.219  70.375  1.00  0.00    -0.373 A  
HETATM   18  C   UNL     1      -9.417   9.448  70.232  1.00  0.00    -0.294 A  
HETATM   19  C   UNL     1     -10.341   8.623  70.865  1.00  0.00    -0.262 A  
HETATM   20  C   UNL     1     -11.681   8.999  70.922  1.00  0.00    -0.327 A  
ENDBRANCH  14  15
BRANCH  14  21
HETATM   21  C   UNL     1     -11.855  13.454  70.475  1.00  0.00    -0.236 A  
HETATM   22  C   UNL     1     -13.255  14.007  72.395  1.00  0.00    -0.585 A  
HETATM   23  C   UNL     1     -11.694  15.641  71.542  1.00  0.00    -0.504 A  
HETATM   24  C   UNL     1     -12.838  13.098  71.419  1.00  0.00    -0.401 A  
HETATM   25 CL   UNL     1     -13.220  16.405  73.631  1.00  0.00    -0.371 Cl 
HETATM   26  C   UNL     1     -11.288  14.737  70.557  1.00  0.00    -0.242 A  
HETATM   27  C   UNL     1     -12.683  15.275  72.452  1.00  0.00    -0.363 A  
ENDBRANCH  14  21
ENDBRANCH  11  14
ENDBRANCH   7   8
ENDBRANCH   6   7
ENDBRANCH   5   6
ENDBRANCH   4   5
ENDBRANCH   2   4
TORSDOF 8
ENDMDL
MODEL       72
REMARK 921   NORMALIZED FREE ENERGY PREDICTED BY IDOCK:   -4.72 KCAL/MOL
REMARK 922        TOTAL FREE ENERGY PREDICTED BY IDOCK:   -7.16 KCAL/MOL
REMARK 923 INTER-LIGAND FREE ENERGY PREDICTED BY IDOCK:   -6.94 KCAL/MOL
REMARK 924 INTRA-LIGAND FREE ENERGY PREDICTED BY IDOCK:   -0.21 KCAL/MOL
REMARK 927      BINDING AFFINITY PREDICTED BY RF-SCORE:    0.00 PKD
ROOT
HETATM    1  O   UNL     1      -5.671  11.181  63.956  1.00  0.00    -0.382 OA 
HETATM    2  C   UNL     1      -5.515  10.208  62.929  1.00  0.00    -0.116 C  
HETATM    3  H   UNL     1      -4.821  11.408  64.315  1.00  0.00     0.000 HD 
ENDROOT
BRANCH   2   4
HETATM    4  C   UNL     1      -6.876   9.844  62.355  1.00  0.00    -0.110 C  
BRANCH   4   5
HETATM    5  O   UNL     1      -7.759  10.961  62.459  1.00  0.00    -0.124 OA 
BRANCH   5   6
HETATM    6  C   UNL     1      -9.056  10.538  62.891  1.00  0.00    -0.282 C  
BRANCH   6   7
HETATM    7  C   UNL     1      -9.429  11.274  64.185  1.00  0.00    -0.177 C  
BRANCH   7   8
HETATM    8  N   UNL     1     -10.416  10.564  65.026  1.00  0.00    -0.237 NA 
HETATM    9  C   UNL     1      -9.796   9.613  65.973  1.00  0.00    -0.274 C  
HETATM   10  C   UNL     1      -9.064  10.275  67.166  1.00  0.00    -0.142 C  
HETATM   11  N   UNL     1      -9.912  11.198  67.963  1.00  0.00    -0.172 NA 
HETATM   12  C   UNL     1     -10.507  12.169  67.010  1.00  0.00    -0.220 C  
HETATM   13  C   UNL     1     -11.229  11.539  65.792  1.00  0.00    -0.164 C  
BRANCH  11  14
HETATM   14  C   UNL     1     -10.948  10.461  68.758  1.00  0.00    -0.245 C  
BRANCH  14  15
HETATM   15  C   UNL     1     -10.351   9.259  69.513  1.00  0.00    -0.223 A  
HETATM   16  C   UNL     1      -9.371   9.475  70.504  1.00  0.00    -0.296 A  
HETATM   17  C   UNL     1     -10.844   7.954  69.353  1.00  0.00    -0.114 A  
HETATM   18  C   UNL     1      -8.938   8.431  71.327  1.00  0.00    -0.224 A  
HETATM   19  C   UNL     1      -9.460   7.152  71.166  1.00  0.00    -0.157 A  
HETATM   20  C   UNL     1     -10.400   6.907  70.168  1.00  0.00    -0.218 A  
ENDBRANCH  14  15
BRANCH  14  21
HETATM   21  C   UNL     1     -11.764  11.404  69.658  1.00  0.00    -0.415 A  
HETATM   22  C   UNL     1     -12.263  13.685  70.369  1.00  0.00    -0.434 A  
HETATM   23  C   UNL     1     -13.101  11.820  71.655  1.00  0.00    -0.443 A  
HETATM   24  C   UNL     1     -11.668  12.796  69.468  1.00  0.00    -0.383 A  
HETATM   25 CL   UNL     1     -13.677  14.285  72.587  1.00  0.00    -0.582 Cl 
HETATM   26  C   UNL     1     -12.494  10.933  70.762  1.00  0.00    -0.489 A  
HETATM   27  C   UNL     1     -12.975  13.192  71.459  1.00  0.00    -0.321 A  
ENDBRANCH  14  21
ENDBRANCH  11  14
ENDBRANCH   7   8
ENDBRANCH   6   7
ENDBRANCH   5   6
ENDBRANCH   4   5
ENDBRANCH   2   4
TORSDOF 8
ENDMDL
MODEL       73
REMARK 921   NORMALIZED FREE ENERGY PREDICTED BY IDOCK:   -4.69 KCAL/MOL
REMARK 922        TOTAL FREE ENERGY PREDICTED BY IDOCK:   -7.13 KCAL/MOL
REMARK 923 INTER-LIGAND FREE ENERGY PREDICTED BY IDOCK:   -6.71 KCAL/MOL
REMARK 924 INTRA-LIGAND FREE ENERGY PREDICTED BY IDOCK:   -0.42 KCAL/MOL
REMARK 927      BINDING AFFINITY PREDICTED BY RF-SCORE:    0.00 PKD
ROOT
HETATM    1  O   UNL     1      -8.243  11.665  62.508  1.00  0.00    -0.638 OA 
HETATM    2  C   UNL     1      -9.393  10.932  62.914  1.00  0.00    -0.349 C  
HETATM    3  H   UNL     1      -7.515  11.070  62.371  1.00  0.00     0.000 HD 
ENDROOT
BRANCH   2   4
HETATM    4  C   UNL     1     -10.559  11.885  63.134  1.00  0.00    -0.263 C  
BRANCH   4   5
HETATM    5  O   UNL     1     -10.261  12.772  64.212  1.00  0.00    -0.367 OA 
BRANCH   5   6
HETATM    6  C   UNL     1     -10.781  12.259  65.443  1.00  0.00    -0.284 C  
BRANCH   6   7
HETATM    7  C   UNL     1      -9.913  12.752  66.609  1.00  0.00    -0.245 C  
BRANCH   7   8
HETATM    8  N   UNL     1      -9.044  11.713  67.201  1.00  0.00    -0.167 NA 
HETATM    9  C   UNL     1      -9.292  11.501  68.643  1.00  0.00    -0.137 C  
HETATM   10  C   UNL     1     -10.613  10.761  68.968  1.00  0.00    -0.219 C  
HETATM   11  N   UNL     1     -10.752   9.443  68.300  1.00  0.00    -0.204 NA 
HETATM   12  C   UNL     1     -10.533   9.669  66.848  1.00  0.00    -0.212 C  
HETATM   13  C   UNL     1      -9.228  10.426  66.490  1.00  0.00    -0.160 C  
BRANCH  11  14
HETATM   14  C   UNL     1      -9.816   8.422  68.874  1.00  0.00    -0.180 C  
BRANCH  14  15
HETATM   15  C   UNL     1     -10.154   8.084  70.337  1.00  0.00    -0.194 A  
HETATM   16  C   UNL     1      -9.200   8.330  71.347  1.00  0.00    -0.218 A  
HETATM   17  C   UNL     1     -11.435   7.666  70.733  1.00  0.00    -0.295 A  
HETATM   18  C   UNL     1      -9.535   8.202  72.699  1.00  0.00    -0.346 A  
HETATM   19  C   UNL     1     -10.818   7.811  73.067  1.00  0.00    -0.451 A  
HETATM   20  C   UNL     1     -11.765   7.526  72.085  1.00  0.00    -0.344 A  
ENDBRANCH  14  15
BRANCH  14  21
HETATM   21  C   UNL     1      -9.690   7.182  67.973  1.00  0.00    -0.152 A  
HETATM   22  C   UNL     1      -8.321   5.839  66.464  1.00  0.00    -0.111 A  
HETATM   23  C   UNL     1     -10.694   5.416  66.623  1.00  0.00    -0.309 A  
HETATM   24  C   UNL     1      -8.438   6.856  67.416  1.00  0.00    -0.121 A  
HETATM   25 CL   UNL     1      -9.312   3.897  64.874  1.00  0.00    -0.147 Cl 
HETATM   26  C   UNL     1     -10.812   6.442  67.564  1.00  0.00    -0.438 A  
HETATM   27  C   UNL     1      -9.449   5.125  66.071  1.00  0.00    -0.160 A  
ENDBRANCH  14  21
ENDBRANCH  11  14
ENDBRANCH   7   8
ENDBRANCH   6   7
ENDBRANCH   5   6
ENDBRANCH   4   5
ENDBRANCH   2   4
TORSDOF 8
ENDMDL
MODEL       74
REMARK 921   NORMALIZED FREE ENERGY PREDICTED BY IDOCK:   -4.66 KCAL/MOL
REMARK 922        TOTAL FREE ENERGY PREDICTED BY IDOCK:   -7.08 KCAL/MOL
REMARK 923 INTER-LIGAND FREE ENERGY PREDICTED BY IDOCK:   -7.09 KCAL/MOL
REMARK 924 INTRA-LIGAND FREE ENERGY PREDICTED BY IDOCK:    0.01 KCAL/MOL
REMARK 927      BINDING AFFINITY PREDICTED BY RF-SCORE:    0.00 PKD
ROOT
HETATM    1  O   UNL     1      -8.342   6.807  69.780  1.00  0.00    -0.128 OA 
HETATM    2  C   UNL     1      -9.361   6.973  68.802  1.00  0.00    -0.134 C  
HETATM    3  H   UNL     1      -8.665   7.082  70.630  1.00  0.00     0.000 HD 
ENDROOT
BRANCH   2   4
HETATM    4  C   UNL     1      -8.844   6.533  67.440  1.00  0.00    -0.115 C  
BRANCH   4   5
HETATM    5  O   UNL     1      -9.337   7.411  66.429  1.00  0.00    -0.177 OA 
BRANCH   5   6
HETATM    6  C   UNL     1     -10.058   8.499  67.016  1.00  0.00    -0.277 C  
BRANCH   6   7
HETATM    7  C   UNL     1      -9.446   9.827  66.552  1.00  0.00    -0.177 C  
BRANCH   7   8
HETATM    8  N   UNL     1     -10.423  10.926  66.395  1.00  0.00    -0.255 NA 
HETATM    9  C   UNL     1     -11.427  10.969  67.479  1.00  0.00    -0.185 C  
HETATM   10  C   UNL     1     -10.886  11.473  68.839  1.00  0.00    -0.218 C  
HETATM   11  N   UNL     1     -10.245  12.811  68.780  1.00  0.00    -0.141 NA 
HETATM   12  C   UNL     1      -9.215  12.750  67.711  1.00  0.00    -0.199 C  
HETATM   13  C   UNL     1      -9.720  12.230  66.341  1.00  0.00    -0.234 C  
BRANCH  11  14
HETATM   14  C   UNL     1     -11.247  13.904  68.557  1.00  0.00    -0.270 C  
BRANCH  14  15
HETATM   15  C   UNL     1     -12.153  14.118  69.783  1.00  0.00    -0.409 A  
HETATM   16  C   UNL     1     -12.368  13.054  70.685  1.00  0.00    -0.391 A  
HETATM   17  C   UNL     1     -12.671  15.379  70.121  1.00  0.00    -0.263 A  
HETATM   18  C   UNL     1     -13.037  13.262  71.895  1.00  0.00    -0.483 A  
HETATM   19  C   UNL     1     -13.519  14.526  72.219  1.00  0.00    -0.518 A  
HETATM   20  C   UNL     1     -13.352  15.582  71.326  1.00  0.00    -0.588 A  
ENDBRANCH  14  15
BRANCH  14  21
HETATM   21  C   UNL     1     -10.588  15.197  68.049  1.00  0.00    -0.258 A  
HETATM   22  C   UNL     1      -9.292  17.205  68.547  1.00  0.00    -0.274 A  
HETATM   23  C   UNL     1     -10.400  16.995  66.411  1.00  0.00    -0.304 A  
HETATM   24  C   UNL     1      -9.770  15.945  68.919  1.00  0.00    -0.230 A  
HETATM   25 CL   UNL     1      -9.053  19.289  66.852  1.00  0.00    -0.335 Cl 
HETATM   26  C   UNL     1     -10.889  15.742  66.790  1.00  0.00    -0.254 A  
HETATM   27  C   UNL     1      -9.611  17.724  67.296  1.00  0.00    -0.272 A  
ENDBRANCH  14  21
ENDBRANCH  11  14
ENDBRANCH   7   8
ENDBRANCH   6   7
ENDBRANCH   5   6
ENDBRANCH   4   5
ENDBRANCH   2   4
TORSDOF 8
ENDMDL
MODEL       75
REMARK 921   NORMALIZED FREE ENERGY PREDICTED BY IDOCK:   -4.60 KCAL/MOL
REMARK 922        TOTAL FREE ENERGY PREDICTED BY IDOCK:   -6.99 KCAL/MOL
REMARK 923 INTER-LIGAND FREE ENERGY PREDICTED BY IDOCK:   -6.14 KCAL/MOL
REMARK 924 INTRA-LIGAND FREE ENERGY PREDICTED BY IDOCK:   -0.84 KCAL/MOL
REMARK 927      BINDING AFFINITY PREDICTED BY RF-SCORE:    0.00 PKD
ROOT
HETATM    1  O   UNL     1      -9.529  18.332  66.716  1.00  0.00    -0.280 OA 
HETATM    2  C   UNL     1     -10.481  17.535  66.021  1.00  0.00    -0.274 C  
HETATM    3  H   UNL     1      -9.850  19.223  66.792  1.00  0.00     0.000 HD 
ENDROOT
BRANCH   2   4
HETATM    4  C   UNL     1      -9.966  16.109  65.898  1.00  0.00    -0.356 C  
BRANCH   4   5
HETATM    5  O   UNL     1     -10.752  15.391  64.947  1.00  0.00    -0.420 OA 
BRANCH   5   6
HETATM    6  C   UNL     1     -10.484  13.988  65.030  1.00  0.00    -0.420 C  
BRANCH   6   7
HETATM    7  C   UNL     1     -10.954  13.458  66.391  1.00  0.00    -0.289 C  
BRANCH   7   8
HETATM    8  N   UNL     1      -9.910  12.753  67.164  1.00  0.00    -0.213 NA 
HETATM    9  C   UNL     1     -10.406  12.201  68.442  1.00  0.00    -0.229 C  
HETATM   10  C   UNL     1     -11.318  10.958  68.297  1.00  0.00    -0.308 C  
HETATM   11  N   UNL     1     -10.702   9.837  67.544  1.00  0.00    -0.277 NA 
HETATM   12  C   UNL     1     -10.234  10.392  66.248  1.00  0.00    -0.222 C  
HETATM   13  C   UNL     1      -9.335  11.650  66.357  1.00  0.00    -0.213 C  
BRANCH  11  14
HETATM   14  C   UNL     1      -9.602   9.177  68.321  1.00  0.00    -0.148 C  
BRANCH  14  15
HETATM   15  C   UNL     1     -10.101   8.609  69.662  1.00  0.00    -0.201 A  
HETATM   16  C   UNL     1      -9.610   9.146  70.871  1.00  0.00    -0.347 A  
HETATM   17  C   UNL     1     -11.136   7.663  69.737  1.00  0.00    -0.115 A  
HETATM   18  C   UNL     1     -10.169   8.779  72.099  1.00  0.00    -0.371 A  
HETATM   19  C   UNL     1     -11.211   7.859  72.147  1.00  0.00    -0.363 A  
HETATM   20  C   UNL     1     -11.685   7.287  70.968  1.00  0.00    -0.340 A  
ENDBRANCH  14  15
BRANCH  14  21
HETATM   21  C   UNL     1      -8.829   8.153  67.473  1.00  0.00    -0.137 A  
HETATM   22  C   UNL     1      -6.723   7.471  66.445  1.00  0.00    -0.057 A  
HETATM   23  C   UNL     1      -8.774   6.358  65.822  1.00  0.00    -0.135 A  
HETATM   24  C   UNL     1      -7.433   8.279  67.338  1.00  0.00    -0.094 A  
HETATM   25 CL   UNL     1      -6.530   5.545  64.566  1.00  0.00    -0.036 Cl 
HETATM   26  C   UNL     1      -9.485   7.177  66.703  1.00  0.00    -0.219 A  
HETATM   27  C   UNL     1      -7.397   6.516  65.690  1.00  0.00    -0.076 A  
ENDBRANCH  14  21
ENDBRANCH  11  14
ENDBRANCH   7   8
ENDBRANCH   6   7
ENDBRANCH   5   6
ENDBRANCH   4   5
ENDBRANCH   2   4
TORSDOF 8
ENDMDL
MODEL       76
REMARK 921   NORMALIZED FREE ENERGY PREDICTED BY IDOCK:   -4.57 KCAL/MOL
REMARK 922        TOTAL FREE ENERGY PREDICTED BY IDOCK:   -6.95 KCAL/MOL
REMARK 923 INTER-LIGAND FREE ENERGY PREDICTED BY IDOCK:   -6.32 KCAL/MOL
REMARK 924 INTRA-LIGAND FREE ENERGY PREDICTED BY IDOCK:   -0.63 KCAL/MOL
REMARK 927      BINDING AFFINITY PREDICTED BY RF-SCORE:    0.00 PKD
ROOT
HETATM    1  O   UNL     1      -8.752  14.761  69.517  1.00  0.00    -0.408 OA 
HETATM    2  C   UNL     1      -9.450  15.979  69.286  1.00  0.00    -0.245 C  
HETATM    3  H   UNL     1      -7.881  14.814  69.140  1.00  0.00     0.000 HD 
ENDROOT
BRANCH   2   4
HETATM    4  C   UNL     1     -10.844  15.895  69.890  1.00  0.00    -0.333 C  
BRANCH   4   5
HETATM    5  O   UNL     1     -11.797  15.614  68.865  1.00  0.00    -0.379 OA 
BRANCH   5   6
HETATM    6  C   UNL     1     -12.122  14.219  68.850  1.00  0.00    -0.279 C  
BRANCH   6   7
HETATM    7  C   UNL     1     -11.781  13.630  67.476  1.00  0.00    -0.371 C  
BRANCH   7   8
HETATM    8  N   UNL     1     -11.967  12.167  67.377  1.00  0.00    -0.570 NA 
HETATM    9  C   UNL     1     -10.985  11.515  66.484  1.00  0.00    -0.293 C  
HETATM   10  C   UNL     1      -9.551  11.423  67.060  1.00  0.00    -0.176 C  
HETATM   11  N   UNL     1      -9.467  10.742  68.376  1.00  0.00    -0.166 NA 
HETATM   12  C   UNL     1     -10.432  11.422  69.277  1.00  0.00    -0.067 C  
HETATM   13  C   UNL     1     -11.874  11.549  68.722  1.00  0.00    -0.330 C  
BRANCH  11  14
HETATM   14  C   UNL     1      -9.721   9.269  68.262  1.00  0.00    -0.150 C  
BRANCH  14  15
HETATM   15  C   UNL     1      -8.721   8.580  67.316  1.00  0.00    -0.133 A  
HETATM   16  C   UNL     1      -9.133   8.206  66.020  1.00  0.00    -0.218 A  
HETATM   17  C   UNL     1      -7.363   8.429  67.642  1.00  0.00    -0.093 A  
HETATM   18  C   UNL     1      -8.209   7.742  65.078  1.00  0.00    -0.123 A  
HETATM   19  C   UNL     1      -6.864   7.626  65.416  1.00  0.00    -0.045 A  
HETATM   20  C   UNL     1      -6.442   7.953  66.703  1.00  0.00    -0.055 A  
ENDBRANCH  14  15
BRANCH  14  21
HETATM   21  C   UNL     1      -9.827   8.592  69.639  1.00  0.00    -0.186 A  
HETATM   22  C   UNL     1     -11.086   7.156  71.159  1.00  0.00    -0.281 A  
HETATM   23  C   UNL     1      -9.234   8.459  72.001  1.00  0.00    -0.304 A  
HETATM   24  C   UNL     1     -10.859   7.663  69.876  1.00  0.00    -0.241 A  
HETATM   25 CL   UNL     1     -10.574   6.962  73.801  1.00  0.00    -0.388 Cl 
HETATM   26  C   UNL     1      -9.018   8.976  70.722  1.00  0.00    -0.286 A  
HETATM   27  C   UNL     1     -10.273   7.558  72.216  1.00  0.00    -0.206 A  
ENDBRANCH  14  21
ENDBRANCH  11  14
ENDBRANCH   7   8
ENDBRANCH   6   7
ENDBRANCH   5   6
ENDBRANCH   4   5
ENDBRANCH   2   4
TORSDOF 8
ENDMDL
MODEL       77
REMARK 921   NORMALIZED FREE ENERGY PREDICTED BY IDOCK:   -4.56 KCAL/MOL
REMARK 922        TOTAL FREE ENERGY PREDICTED BY IDOCK:   -6.93 KCAL/MOL
REMARK 923 INTER-LIGAND FREE ENERGY PREDICTED BY IDOCK:   -6.51 KCAL/MOL
REMARK 924 INTRA-LIGAND FREE ENERGY PREDICTED BY IDOCK:   -0.43 KCAL/MOL
REMARK 927      BINDING AFFINITY PREDICTED BY RF-SCORE:    0.00 PKD
ROOT
HETATM    1  O   UNL     1      -8.019   1.950  63.871  1.00  0.00    -0.063 OA 
HETATM    2  C   UNL     1      -7.263   1.858  65.073  1.00  0.00    -0.053 C  
HETATM    3  H   UNL     1      -7.592   1.451  63.184  1.00  0.00     0.000 HD 
ENDROOT
BRANCH   2   4
HETATM    4  C   UNL     1      -7.945   2.657  66.172  1.00  0.00    -0.082 C  
BRANCH   4   5
HETATM    5  O   UNL     1      -8.416   3.898  65.646  1.00  0.00    -0.108 OA 
BRANCH   5   6
HETATM    6  C   UNL     1      -8.000   4.987  66.478  1.00  0.00    -0.107 C  
BRANCH   6   7
HETATM    7  C   UNL     1      -9.036   6.116  66.397  1.00  0.00    -0.150 C  
BRANCH   7   8
HETATM    8  N   UNL     1     -10.184   5.954  67.314  1.00  0.00    -0.175 NA 
HETATM    9  C   UNL     1      -9.783   5.595  68.690  1.00  0.00    -0.137 C  
HETATM   10  C   UNL     1      -9.139   6.749  69.496  1.00  0.00    -0.141 C  
HETATM   11  N   UNL     1      -9.979   7.970  69.588  1.00  0.00    -0.185 NA 
HETATM   12  C   UNL     1     -10.352   8.343  68.200  1.00  0.00    -0.204 C  
HETATM   13  C   UNL     1     -10.981   7.203  67.359  1.00  0.00    -0.226 C  
BRANCH  11  14
HETATM   14  C   UNL     1     -11.172   7.763  70.472  1.00  0.00    -0.257 C  
BRANCH  14  15
HETATM   15  C   UNL     1     -10.824   6.958  71.737  1.00  0.00    -0.253 A  
HETATM   16  C   UNL     1     -10.013   7.541  72.733  1.00  0.00    -0.280 A  
HETATM   17  C   UNL     1     -11.396   5.704  72.009  1.00  0.00    -0.241 A  
HETATM   18  C   UNL     1      -9.823   6.910  73.966  1.00  0.00    -0.354 A  
HETATM   19  C   UNL     1     -10.422   5.680  74.222  1.00  0.00    -0.255 A  
HETATM   20  C   UNL     1     -11.195   5.068  73.238  1.00  0.00    -0.411 A  
ENDBRANCH  14  15
BRANCH  14  21
HETATM   21  C   UNL     1     -11.906   9.082  70.769  1.00  0.00    -0.251 A  
HETATM   22  C   UNL     1     -11.972  11.514  70.578  1.00  0.00    -0.439 A  
HETATM   23  C   UNL     1     -13.497  10.389  72.076  1.00  0.00    -0.360 A  
HETATM   24  C   UNL     1     -11.434  10.280  70.200  1.00  0.00    -0.383 A  
HETATM   25 CL   UNL     1     -13.638  13.082  72.007  1.00  0.00    -0.565 Cl 
HETATM   26  C   UNL     1     -12.949   9.158  71.708  1.00  0.00    -0.448 A  
HETATM   27  C   UNL     1     -13.000  11.562  71.515  1.00  0.00    -0.380 A  
ENDBRANCH  14  21
ENDBRANCH  11  14
ENDBRANCH   7   8
ENDBRANCH   6   7
ENDBRANCH   5   6
ENDBRANCH   4   5
ENDBRANCH   2   4
TORSDOF 8
ENDMDL
MODEL       78
REMARK 921   NORMALIZED FREE ENERGY PREDICTED BY IDOCK:   -4.56 KCAL/MOL
REMARK 922        TOTAL FREE ENERGY PREDICTED BY IDOCK:   -6.93 KCAL/MOL
REMARK 923 INTER-LIGAND FREE ENERGY PREDICTED BY IDOCK:   -6.48 KCAL/MOL
REMARK 924 INTRA-LIGAND FREE ENERGY PREDICTED BY IDOCK:   -0.45 KCAL/MOL
REMARK 927      BINDING AFFINITY PREDICTED BY RF-SCORE:    0.00 PKD
ROOT
HETATM    1  O   UNL     1      -8.068  17.697  68.547  1.00  0.00    -0.269 OA 
HETATM    2  C   UNL     1      -9.337  17.987  67.973  1.00  0.00    -0.272 C  
HETATM    3  H   UNL     1      -7.380  18.079  68.014  1.00  0.00     0.000 HD 
ENDROOT
BRANCH   2   4
HETATM    4  C   UNL     1     -10.439  17.375  68.825  1.00  0.00    -0.333 C  
BRANCH   4   5
HETATM    5  O   UNL     1     -11.136  16.382  68.073  1.00  0.00    -0.348 OA 
BRANCH   5   6
HETATM    6  C   UNL     1     -11.675  15.380  68.941  1.00  0.00    -0.359 C  
BRANCH   6   7
HETATM    7  C   UNL     1     -10.825  14.107  68.842  1.00  0.00    -0.258 C  
BRANCH   7   8
HETATM    8  N   UNL     1     -11.397  13.059  67.970  1.00  0.00    -0.271 NA 
HETATM    9  C   UNL     1     -10.609  12.835  66.739  1.00  0.00    -0.252 C  
HETATM   10  C   UNL     1      -9.265  12.098  66.959  1.00  0.00    -0.202 C  
HETATM   11  N   UNL     1      -9.395  10.787  67.643  1.00  0.00    -0.147 NA 
HETATM   12  C   UNL     1     -10.159  11.025  68.894  1.00  0.00    -0.199 C  
HETATM   13  C   UNL     1     -11.502  11.779  68.711  1.00  0.00    -0.291 C  
BRANCH  11  14
HETATM   14  C   UNL     1     -10.035   9.756  66.762  1.00  0.00    -0.218 C  
BRANCH  14  15
HETATM   15  C   UNL     1      -9.475   9.791  65.328  1.00  0.00    -0.343 A  
HETATM   16  C   UNL     1      -8.370   8.980  64.992  1.00  0.00    -0.174 A  
HETATM   17  C   UNL     1     -10.107  10.499  64.293  1.00  0.00    -0.380 A  
HETATM   18  C   UNL     1      -7.949   8.854  63.665  1.00  0.00    -0.154 A  
HETATM   19  C   UNL     1      -8.607   9.546  62.653  1.00  0.00    -0.212 A  
HETATM   20  C   UNL     1      -9.676  10.382  62.968  1.00  0.00    -0.288 A  
ENDBRANCH  14  15
BRANCH  14  21
HETATM   21  C   UNL     1     -10.007   8.356  67.396  1.00  0.00    -0.274 A  
HETATM   22  C   UNL     1      -8.762   6.654  68.624  1.00  0.00    -0.124 A  
HETATM   23  C   UNL     1     -10.858   6.076  67.571  1.00  0.00    -0.393 A  
HETATM   24  C   UNL     1      -8.898   7.970  68.173  1.00  0.00    -0.132 A  
HETATM   25 CL   UNL     1      -9.558   4.085  68.844  1.00  0.00    -0.236 Cl 
HETATM   26  C   UNL     1     -10.985   7.389  67.108  1.00  0.00    -0.225 A  
HETATM   27  C   UNL     1      -9.742   5.713  68.319  1.00  0.00    -0.130 A  
ENDBRANCH  14  21
ENDBRANCH  11  14
ENDBRANCH   7   8
ENDBRANCH   6   7
ENDBRANCH   5   6
ENDBRANCH   4   5
ENDBRANCH   2   4
TORSDOF 8
ENDMDL
MODEL       79
REMARK 921   NORMALIZED FREE ENERGY PREDICTED BY IDOCK:   -4.54 KCAL/MOL
REMARK 922        TOTAL FREE ENERGY PREDICTED BY IDOCK:   -6.90 KCAL/MOL
REMARK 923 INTER-LIGAND FREE ENERGY PREDICTED BY IDOCK:   -6.74 KCAL/MOL
REMARK 924 INTRA-LIGAND FREE ENERGY PREDICTED BY IDOCK:   -0.16 KCAL/MOL
REMARK 927      BINDING AFFINITY PREDICTED BY RF-SCORE:    0.00 PKD
ROOT
HETATM    1  O   UNL     1     -12.506  11.578  71.089  1.00  0.00    -0.376 OA 
HETATM    2  C   UNL     1     -13.478  11.908  72.075  1.00  0.00    -0.231 C  
HETATM    3  H   UNL     1     -12.432  10.634  71.015  1.00  0.00     0.000 HD 
ENDROOT
BRANCH   2   4
HETATM    4  C   UNL     1     -13.596  13.420  72.194  1.00  0.00    -0.567 C  
BRANCH   4   5
HETATM    5  O   UNL     1     -12.424  13.949  72.817  1.00  0.00    -0.074 OA 
BRANCH   5   6
HETATM    6  C   UNL     1     -11.947  15.093  72.101  1.00  0.00    -0.407 C  
BRANCH   6   7
HETATM    7  C   UNL     1     -13.017  15.554  71.103  1.00  0.00    -0.496 C  
BRANCH   7   8
HETATM    8  N   UNL     1     -12.478  16.065  69.825  1.00  0.00    -0.085 NA 
HETATM    9  C   UNL     1     -11.050  16.438  69.905  1.00  0.00    -0.310 C  
HETATM   10  C   UNL     1     -10.074  15.238  69.985  1.00  0.00    -0.159 C  
HETATM   11  N   UNL     1     -10.212  14.267  68.871  1.00  0.00    -0.227 NA 
HETATM   12  C   UNL     1     -11.644  13.872  68.817  1.00  0.00    -0.335 C  
HETATM   13  C   UNL     1     -12.649  15.051  68.757  1.00  0.00     0.382 C  
BRANCH  11  14
HETATM   14  C   UNL     1      -9.718  14.829  67.572  1.00  0.00    -0.213 C  
BRANCH  14  15
HETATM   15  C   UNL     1      -8.183  14.945  67.538  1.00  0.00    -0.199 A  
HETATM   16  C   UNL     1      -7.585  16.156  67.131  1.00  0.00    -0.237 A  
HETATM   17  C   UNL     1      -7.344  13.933  68.031  1.00  0.00    -0.141 A  
HETATM   18  C   UNL     1      -6.207  16.355  67.257  1.00  0.00    -0.212 A  
HETATM   19  C   UNL     1      -5.399  15.347  67.772  1.00  0.00    -0.103 A  
HETATM   20  C   UNL     1      -5.963  14.128  68.143  1.00  0.00    -0.133 A  
ENDBRANCH  14  15
BRANCH  14  21
HETATM   21  C   UNL     1     -10.302  14.084  66.360  1.00  0.00    -0.289 A  
HETATM   22  C   UNL     1     -11.827  14.087  64.455  1.00  0.00    -0.453 A  
HETATM   23  C   UNL     1     -10.807  12.017  65.168  1.00  0.00    -0.347 A  
HETATM   24  C   UNL     1     -11.148  14.771  65.467  1.00  0.00    -0.346 A  
HETATM   25 CL   UNL     1     -12.517  11.866  63.087  1.00  0.00    -0.538 Cl 
HETATM   26  C   UNL     1     -10.141  12.699  66.189  1.00  0.00    -0.268 A  
HETATM   27  C   UNL     1     -11.655  12.713  64.311  1.00  0.00    -0.374 A  
ENDBRANCH  14  21
ENDBRANCH  11  14
ENDBRANCH   7   8
ENDBRANCH   6   7
ENDBRANCH   5   6
ENDBRANCH   4   5
ENDBRANCH   2   4
TORSDOF 8
ENDMDL
MODEL       80
REMARK 921   NORMALIZED FREE ENERGY PREDICTED BY IDOCK:   -4.50 KCAL/MOL
REMARK 922        TOTAL FREE ENERGY PREDICTED BY IDOCK:   -6.85 KCAL/MOL
REMARK 923 INTER-LIGAND FREE ENERGY PREDICTED BY IDOCK:   -6.08 KCAL/MOL
REMARK 924 INTRA-LIGAND FREE ENERGY PREDICTED BY IDOCK:   -0.77 KCAL/MOL
REMARK 927      BINDING AFFINITY PREDICTED BY RF-SCORE:    0.00 PKD
ROOT
HETATM    1  O   UNL     1     -10.182  16.494  65.292  1.00  0.00    -0.588 OA 
HETATM    2  C   UNL     1     -10.328  16.696  66.693  1.00  0.00    -0.296 C  
HETATM    3  H   UNL     1     -10.500  17.256  64.823  1.00  0.00     0.000 HD 
ENDROOT
BRANCH   2   4
HETATM    4  C   UNL     1      -9.819  15.475  67.445  1.00  0.00    -0.224 C  
BRANCH   4   5
HETATM    5  O   UNL     1      -9.941  14.315  66.622  1.00  0.00    -0.259 OA 
BRANCH   5   6
HETATM    6  C   UNL     1     -10.138  13.147  67.425  1.00  0.00    -0.229 C  
BRANCH   6   7
HETATM    7  C   UNL     1      -9.708  11.904  66.635  1.00  0.00    -0.205 C  
BRANCH   7   8
HETATM    8  N   UNL     1     -10.608  10.742  66.791  1.00  0.00    -0.255 NA 
HETATM    9  C   UNL     1     -10.138   9.542  66.066  1.00  0.00    -0.249 C  
HETATM   10  C   UNL     1      -8.914   8.842  66.705  1.00  0.00    -0.136 C  
HETATM   11  N   UNL     1      -9.108   8.450  68.123  1.00  0.00    -0.138 NA 
HETATM   12  C   UNL     1      -9.549   9.667  68.851  1.00  0.00    -0.161 C  
HETATM   13  C   UNL     1     -10.762  10.404  68.226  1.00  0.00    -0.235 C  
BRANCH  11  14
HETATM   14  C   UNL     1     -10.073   7.311  68.263  1.00  0.00    -0.170 C  
BRANCH  14  15
HETATM   15  C   UNL     1      -9.707   6.127  67.350  1.00  0.00    -0.133 A  
HETATM   16  C   UNL     1     -10.715   5.492  66.594  1.00  0.00    -0.332 A  
HETATM   17  C   UNL     1      -8.377   5.734  67.129  1.00  0.00    -0.104 A  
HETATM   18  C   UNL     1     -10.393   4.535  65.627  1.00  0.00    -0.274 A  
HETATM   19  C   UNL     1      -9.066   4.181  65.408  1.00  0.00    -0.139 A  
HETATM   20  C   UNL     1      -8.058   4.767  66.171  1.00  0.00    -0.107 A  
ENDBRANCH  14  15
BRANCH  14  21
HETATM   21  C   UNL     1     -10.283   6.909  69.732  1.00  0.00    -0.210 A  
HETATM   22  C   UNL     1      -9.356   5.966  71.783  1.00  0.00    -0.161 A  
HETATM   23  C   UNL     1     -11.743   6.284  71.584  1.00  0.00    -0.342 A  
HETATM   24  C   UNL     1      -9.179   6.495  70.502  1.00  0.00    -0.156 A  
HETATM   25 CL   UNL     1     -10.860   5.179  73.881  1.00  0.00    -0.340 Cl 
HETATM   26  C   UNL     1     -11.565   6.799  70.298  1.00  0.00    -0.417 A  
HETATM   27  C   UNL     1     -10.637   5.862  72.318  1.00  0.00    -0.217 A  
ENDBRANCH  14  21
ENDBRANCH  11  14
ENDBRANCH   7   8
ENDBRANCH   6   7
ENDBRANCH   5   6
ENDBRANCH   4   5
ENDBRANCH   2   4
TORSDOF 8
ENDMDL
MODEL       81
REMARK 921   NORMALIZED FREE ENERGY PREDICTED BY IDOCK:   -4.48 KCAL/MOL
REMARK 922        TOTAL FREE ENERGY PREDICTED BY IDOCK:   -6.82 KCAL/MOL
REMARK 923 INTER-LIGAND FREE ENERGY PREDICTED BY IDOCK:   -5.98 KCAL/MOL
REMARK 924 INTRA-LIGAND FREE ENERGY PREDICTED BY IDOCK:   -0.83 KCAL/MOL
REMARK 927      BINDING AFFINITY PREDICTED BY RF-SCORE:    0.00 PKD
ROOT
HETATM    1  O   UNL     1      -6.694  14.643  70.449  1.00  0.00    -0.297 OA 
HETATM    2  C   UNL     1      -6.703  14.771  69.032  1.00  0.00    -0.105 C  
HETATM    3  H   UNL     1      -5.828  14.383  70.742  1.00  0.00     0.000 HD 
ENDROOT
BRANCH   2   4
HETATM    4  C   UNL     1      -8.089  15.188  68.562  1.00  0.00    -0.145 C  
BRANCH   4   5
HETATM    5  O   UNL     1      -8.291  14.761  67.215  1.00  0.00    -0.185 OA 
BRANCH   5   6
HETATM    6  C   UNL     1      -9.676  14.484  66.978  1.00  0.00    -0.245 C  
BRANCH   6   7
HETATM    7  C   UNL     1      -9.832  13.037  66.495  1.00  0.00    -0.263 C  
BRANCH   7   8
HETATM    8  N   UNL     1      -9.039  12.051  67.259  1.00  0.00    -0.172 NA 
HETATM    9  C   UNL     1      -9.627  11.728  68.576  1.00  0.00    -0.170 C  
HETATM   10  C   UNL     1     -10.900  10.849  68.516  1.00  0.00    -0.220 C  
HETATM   11  N   UNL     1     -10.720   9.567  67.790  1.00  0.00    -0.262 NA 
HETATM   12  C   UNL     1     -10.159   9.901  66.456  1.00  0.00    -0.232 C  
HETATM   13  C   UNL     1      -8.894  10.798  66.480  1.00  0.00    -0.155 C  
BRANCH  11  14
HETATM   14  C   UNL     1      -9.860   8.605  68.555  1.00  0.00    -0.169 C  
BRANCH  14  15
HETATM   15  C   UNL     1     -10.378   8.378  69.987  1.00  0.00    -0.211 A  
HETATM   16  C   UNL     1     -11.430   7.465  70.210  1.00  0.00    -0.206 A  
HETATM   17  C   UNL     1      -9.751   8.943  71.109  1.00  0.00    -0.344 A  
HETATM   18  C   UNL     1     -11.804   7.103  71.508  1.00  0.00    -0.348 A  
HETATM   19  C   UNL     1     -11.151   7.657  72.604  1.00  0.00    -0.412 A  
HETATM   20  C   UNL     1     -10.136   8.590  72.407  1.00  0.00    -0.365 A  
ENDBRANCH  14  15
BRANCH  14  21
HETATM   21  C   UNL     1      -9.618   7.301  67.777  1.00  0.00    -0.158 A  
HETATM   22  C   UNL     1     -10.553   5.382  66.594  1.00  0.00    -0.359 A  
HETATM   23  C   UNL     1      -8.213   5.394  67.195  1.00  0.00    -0.104 A  
HETATM   24  C   UNL     1     -10.706   6.649  67.164  1.00  0.00    -0.440 A  
HETATM   25 CL   UNL     1      -9.127   3.186  65.943  1.00  0.00    -0.148 Cl 
HETATM   26  C   UNL     1      -8.371   6.654  67.777  1.00  0.00    -0.122 A  
HETATM   27  C   UNL     1      -9.308   4.760  66.613  1.00  0.00    -0.143 A  
ENDBRANCH  14  21
ENDBRANCH  11  14
ENDBRANCH   7   8
ENDBRANCH   6   7
ENDBRANCH   5   6
ENDBRANCH   4   5
ENDBRANCH   2   4
TORSDOF 8
ENDMDL
MODEL       82
REMARK 921   NORMALIZED FREE ENERGY PREDICTED BY IDOCK:   -4.47 KCAL/MOL
REMARK 922        TOTAL FREE ENERGY PREDICTED BY IDOCK:   -6.79 KCAL/MOL
REMARK 923 INTER-LIGAND FREE ENERGY PREDICTED BY IDOCK:   -5.95 KCAL/MOL
REMARK 924 INTRA-LIGAND FREE ENERGY PREDICTED BY IDOCK:   -0.84 KCAL/MOL
REMARK 927      BINDING AFFINITY PREDICTED BY RF-SCORE:    0.00 PKD
ROOT
HETATM    1  O   UNL     1     -11.486   2.588  63.750  1.00  0.00    -0.558 OA 
HETATM    2  C   UNL     1     -10.134   2.471  63.323  1.00  0.00    -0.125 C  
HETATM    3  H   UNL     1     -11.889   1.728  63.779  1.00  0.00     0.000 HD 
ENDROOT
BRANCH   2   4
HETATM    4  C   UNL     1      -9.489   3.848  63.275  1.00  0.00    -0.136 C  
BRANCH   4   5
HETATM    5  O   UNL     1      -8.204   3.802  63.897  1.00  0.00    -0.088 OA 
BRANCH   5   6
HETATM    6  C   UNL     1      -8.332   3.880  65.320  1.00  0.00    -0.105 C  
BRANCH   6   7
HETATM    7  C   UNL     1      -9.272   5.037  65.686  1.00  0.00    -0.157 C  
BRANCH   7   8
HETATM    8  N   UNL     1     -10.161   4.758  66.834  1.00  0.00    -0.216 NA 
HETATM    9  C   UNL     1      -9.432   4.294  68.034  1.00  0.00    -0.159 C  
HETATM   10  C   UNL     1      -8.623   5.395  68.763  1.00  0.00    -0.098 C  
HETATM   11  N   UNL     1      -9.429   6.574  69.167  1.00  0.00    -0.136 NA 
HETATM   12  C   UNL     1     -10.133   7.054  67.951  1.00  0.00    -0.169 C  
HETATM   13  C   UNL     1     -10.937   5.972  67.185  1.00  0.00    -0.268 C  
BRANCH  11  14
HETATM   14  C   UNL     1     -10.369   6.253  70.290  1.00  0.00    -0.205 C  
BRANCH  14  15
HETATM   15  C   UNL     1      -9.697   5.400  71.381  1.00  0.00    -0.213 A  
HETATM   16  C   UNL     1      -8.694   5.970  72.193  1.00  0.00    -0.132 A  
HETATM   17  C   UNL     1     -10.139   4.105  71.699  1.00  0.00    -0.198 A  
HETATM   18  C   UNL     1      -8.190   5.284  73.302  1.00  0.00    -0.111 A  
HETATM   19  C   UNL     1      -8.662   4.012  73.612  1.00  0.00    -0.094 A  
HETATM   20  C   UNL     1      -9.624   3.414  72.801  1.00  0.00    -0.179 A  
ENDBRANCH  14  15
BRANCH  14  21
HETATM   21  C   UNL     1     -11.065   7.510  70.839  1.00  0.00    -0.279 A  
HETATM   22  C   UNL     1     -13.105   8.561  71.671  1.00  0.00    -0.368 A  
HETATM   23  C   UNL     1     -11.198   9.931  71.103  1.00  0.00    -0.404 A  
HETATM   24  C   UNL     1     -12.385   7.414  71.322  1.00  0.00    -0.380 A  
HETATM   25 CL   UNL     1     -13.405  11.227  71.954  1.00  0.00    -0.497 Cl 
HETATM   26  C   UNL     1     -10.485   8.786  70.741  1.00  0.00    -0.270 A  
HETATM   27  C   UNL     1     -12.508   9.813  71.558  1.00  0.00    -0.403 A  
ENDBRANCH  14  21
ENDBRANCH  11  14
ENDBRANCH   7   8
ENDBRANCH   6   7
ENDBRANCH   5   6
ENDBRANCH   4   5
ENDBRANCH   2   4
TORSDOF 8
ENDMDL
MODEL       83
REMARK 921   NORMALIZED FREE ENERGY PREDICTED BY IDOCK:   -4.44 KCAL/MOL
REMARK 922        TOTAL FREE ENERGY PREDICTED BY IDOCK:   -6.75 KCAL/MOL
REMARK 923 INTER-LIGAND FREE ENERGY PREDICTED BY IDOCK:   -6.54 KCAL/MOL
REMARK 924 INTRA-LIGAND FREE ENERGY PREDICTED BY IDOCK:   -0.21 KCAL/MOL
REMARK 927      BINDING AFFINITY PREDICTED BY RF-SCORE:    0.00 PKD
ROOT
HETATM    1  O   UNL     1      -5.770   7.615  63.167  1.00  0.00    -0.049 OA 
HETATM    2  C   UNL     1      -7.177   7.813  63.246  1.00  0.00    -0.091 C  
HETATM    3  H   UNL     1      -5.488   7.670  62.261  1.00  0.00     0.000 HD 
ENDROOT
BRANCH   2   4
HETATM    4  C   UNL     1      -7.629   7.724  64.696  1.00  0.00    -0.113 C  
BRANCH   4   5
HETATM    5  O   UNL     1      -7.708   9.034  65.258  1.00  0.00    -0.095 OA 
BRANCH   5   6
HETATM    6  C   UNL     1      -8.915   9.685  64.848  1.00  0.00    -0.217 C  
BRANCH   6   7
HETATM    7  C   UNL     1      -9.742  10.054  66.086  1.00  0.00    -0.227 C  
BRANCH   7   8
HETATM    8  N   UNL     1      -9.101  11.048  66.973  1.00  0.00    -0.146 NA 
HETATM    9  C   UNL     1      -9.013  12.395  66.368  1.00  0.00    -0.100 C  
HETATM   10  C   UNL     1     -10.361  13.152  66.283  1.00  0.00    -0.287 C  
HETATM   11  N   UNL     1     -11.059  13.299  67.585  1.00  0.00    -0.261 NA 
HETATM   12  C   UNL     1     -11.172  11.939  68.171  1.00  0.00    -0.258 C  
HETATM   13  C   UNL     1      -9.842  11.145  68.252  1.00  0.00    -0.189 C  
BRANCH  11  14
HETATM   14  C   UNL     1     -10.356  14.263  68.492  1.00  0.00    -0.244 C  
BRANCH  14  15
HETATM   15  C   UNL     1      -9.810  15.483  67.729  1.00  0.00    -0.213 A  
HETATM   16  C   UNL     1     -10.709  16.427  67.188  1.00  0.00    -0.233 A  
HETATM   17  C   UNL     1      -8.437  15.774  67.664  1.00  0.00    -0.171 A  
HETATM   18  C   UNL     1     -10.248  17.630  66.646  1.00  0.00    -0.341 A  
HETATM   19  C   UNL     1      -8.884  17.907  66.617  1.00  0.00    -0.285 A  
HETATM   20  C   UNL     1      -7.977  16.972  67.109  1.00  0.00    -0.214 A  
ENDBRANCH  14  15
BRANCH  14  21
HETATM   21  C   UNL     1     -11.213  14.638  69.713  1.00  0.00    -0.296 A  
HETATM   22  C   UNL     1     -13.267  14.314  70.990  1.00  0.00    -0.367 A  
HETATM   23  C   UNL     1     -11.834  16.194  71.486  1.00  0.00    -0.528 A  
HETATM   24  C   UNL     1     -12.379  13.900  69.993  1.00  0.00    -0.378 A  
HETATM   25 CL   UNL     1     -14.101  15.989  72.934  1.00  0.00    -0.446 Cl 
HETATM   26  C   UNL     1     -10.955  15.788  70.479  1.00  0.00    -0.361 A  
HETATM   27  C   UNL     1     -12.991  15.460  71.731  1.00  0.00    -0.429 A  
ENDBRANCH  14  21
ENDBRANCH  11  14
ENDBRANCH   7   8
ENDBRANCH   6   7
ENDBRANCH   5   6
ENDBRANCH   4   5
ENDBRANCH   2   4
TORSDOF 8
ENDMDL
MODEL       84
REMARK 921   NORMALIZED FREE ENERGY PREDICTED BY IDOCK:   -4.43 KCAL/MOL
REMARK 922        TOTAL FREE ENERGY PREDICTED BY IDOCK:   -6.73 KCAL/MOL
REMARK 923 INTER-LIGAND FREE ENERGY PREDICTED BY IDOCK:   -6.96 KCAL/MOL
REMARK 924 INTRA-LIGAND FREE ENERGY PREDICTED BY IDOCK:    0.22 KCAL/MOL
REMARK 927      BINDING AFFINITY PREDICTED BY RF-SCORE:    0.00 PKD
ROOT
HETATM    1  O   UNL     1      -9.923  17.611  68.052  1.00  0.00    -0.294 OA 
HETATM    2  C   UNL     1      -9.852  18.791  67.260  1.00  0.00    -0.317 C  
HETATM    3  H   UNL     1      -9.614  17.796  68.932  1.00  0.00     0.000 HD 
ENDROOT
BRANCH   2   4
HETATM    4  C   UNL     1     -10.346  18.496  65.852  1.00  0.00    -0.315 C  
BRANCH   4   5
HETATM    5  O   UNL     1     -10.001  17.159  65.489  1.00  0.00    -0.565 OA 
BRANCH   5   6
HETATM    6  C   UNL     1     -11.089  16.526  64.808  1.00  0.00    -0.186 C  
BRANCH   6   7
HETATM    7  C   UNL     1     -10.662  15.124  64.354  1.00  0.00     0.194 C  
BRANCH   7   8
HETATM    8  N   UNL     1     -11.458  14.026  64.942  1.00  0.00    -0.342 NA 
HETATM    9  C   UNL     1     -10.761  12.722  64.911  1.00  0.00    -0.305 C  
HETATM   10  C   UNL     1      -9.596  12.590  65.922  1.00  0.00    -0.168 C  
HETATM   11  N   UNL     1      -9.982  12.848  67.332  1.00  0.00    -0.215 NA 
HETATM   12  C   UNL     1     -10.654  14.173  67.360  1.00  0.00    -0.279 C  
HETATM   13  C   UNL     1     -11.813  14.345  66.345  1.00  0.00    -0.388 C  
BRANCH  11  14
HETATM   14  C   UNL     1     -10.842  11.752  67.887  1.00  0.00    -0.211 C  
BRANCH  14  15
HETATM   15  C   UNL     1     -10.087  10.413  67.976  1.00  0.00    -0.189 A  
HETATM   16  C   UNL     1      -9.091  10.238  68.960  1.00  0.00    -0.187 A  
HETATM   17  C   UNL     1     -10.445   9.298  67.200  1.00  0.00    -0.319 A  
HETATM   18  C   UNL     1      -8.513   8.985  69.183  1.00  0.00    -0.128 A  
HETATM   19  C   UNL     1      -8.903   7.889  68.419  1.00  0.00    -0.130 A  
HETATM   20  C   UNL     1      -9.856   8.048  67.415  1.00  0.00    -0.244 A  
ENDBRANCH  14  15
BRANCH  14  21
HETATM   21  C   UNL     1     -11.520  12.161  69.205  1.00  0.00    -0.363 A  
HETATM   22  C   UNL     1     -13.014  11.575  71.044  1.00  0.00    -0.252 A  
HETATM   23  C   UNL     1     -12.313  13.869  70.755  1.00  0.00    -0.449 A  
HETATM   24  C   UNL     1     -12.250  11.202  69.934  1.00  0.00    -0.385 A  
HETATM   25 CL   UNL     1     -14.011  13.372  72.791  1.00  0.00    -0.341 Cl 
HETATM   26  C   UNL     1     -11.561  13.497  69.638  1.00  0.00    -0.340 A  
HETATM   27  C   UNL     1     -13.043  12.907  71.448  1.00  0.00    -0.242 A  
ENDBRANCH  14  21
ENDBRANCH  11  14
ENDBRANCH   7   8
ENDBRANCH   6   7
ENDBRANCH   5   6
ENDBRANCH   4   5
ENDBRANCH   2   4
TORSDOF 8
ENDMDL
MODEL       85
REMARK 921   NORMALIZED FREE ENERGY PREDICTED BY IDOCK:   -4.39 KCAL/MOL
REMARK 922        TOTAL FREE ENERGY PREDICTED BY IDOCK:   -6.68 KCAL/MOL
REMARK 923 INTER-LIGAND FREE ENERGY PREDICTED BY IDOCK:   -5.93 KCAL/MOL
REMARK 924 INTRA-LIGAND FREE ENERGY PREDICTED BY IDOCK:   -0.75 KCAL/MOL
REMARK 927      BINDING AFFINITY PREDICTED BY RF-SCORE:    0.00 PKD
ROOT
HETATM    1  O   UNL     1     -11.897   1.542  63.514  1.00  0.00    -0.568 OA 
HETATM    2  C   UNL     1     -10.761   2.239  63.014  1.00  0.00    -0.203 C  
HETATM    3  H   UNL     1     -12.032   0.747  63.012  1.00  0.00     0.000 HD 
ENDROOT
BRANCH   2   4
HETATM    4  C   UNL     1     -10.545   3.513  63.817  1.00  0.00    -0.275 C  
BRANCH   4   5
HETATM    5  O   UNL     1      -9.800   3.219  64.999  1.00  0.00    -0.130 OA 
BRANCH   5   6
HETATM    6  C   UNL     1      -8.537   3.892  64.977  1.00  0.00    -0.114 C  
BRANCH   6   7
HETATM    7  C   UNL     1      -8.373   4.713  66.263  1.00  0.00    -0.110 C  
BRANCH   7   8
HETATM    8  N   UNL     1      -9.605   5.400  66.708  1.00  0.00    -0.137 NA 
HETATM    9  C   UNL     1      -9.787   5.372  68.175  1.00  0.00    -0.145 C  
HETATM   10  C   UNL     1      -8.831   6.302  68.961  1.00  0.00    -0.124 C  
HETATM   11  N   UNL     1      -8.883   7.725  68.539  1.00  0.00    -0.131 NA 
HETATM   12  C   UNL     1      -8.667   7.747  67.069  1.00  0.00    -0.129 C  
HETATM   13  C   UNL     1      -9.595   6.811  66.253  1.00  0.00    -0.031 C  
BRANCH  11  14
HETATM   14  C   UNL     1     -10.167   8.384  68.944  1.00  0.00    -0.210 C  
BRANCH  14  15
HETATM   15  C   UNL     1     -10.464   8.200  70.444  1.00  0.00    -0.217 A  
HETATM   16  C   UNL     1     -11.577   7.432  70.845  1.00  0.00    -0.318 A  
HETATM   17  C   UNL     1      -9.586   8.653  71.443  1.00  0.00    -0.313 A  
HETATM   18  C   UNL     1     -11.774   7.099  72.189  1.00  0.00    -0.322 A  
HETATM   19  C   UNL     1     -10.877   7.538  73.157  1.00  0.00    -0.448 A  
HETATM   20  C   UNL     1      -9.792   8.330  72.788  1.00  0.00    -0.333 A  
ENDBRANCH  14  15
BRANCH  14  21
HETATM   21  C   UNL     1     -10.237   9.848  68.482  1.00  0.00    -0.199 A  
HETATM   22  C   UNL     1      -9.102  11.987  68.172  1.00  0.00    -0.191 A  
HETATM   23  C   UNL     1     -11.508  11.870  67.983  1.00  0.00    -0.389 A  
HETATM   24  C   UNL     1      -9.055  10.613  68.426  1.00  0.00    -0.156 A  
HETATM   25 CL   UNL     1     -10.390  14.305  67.675  1.00  0.00    -0.246 Cl 
HETATM   26  C   UNL     1     -11.460  10.499  68.251  1.00  0.00    -0.272 A  
HETATM   27  C   UNL     1     -10.328  12.609  67.953  1.00  0.00    -0.218 A  
ENDBRANCH  14  21
ENDBRANCH  11  14
ENDBRANCH   7   8
ENDBRANCH   6   7
ENDBRANCH   5   6
ENDBRANCH   4   5
ENDBRANCH   2   4
TORSDOF 8
ENDMDL
MODEL       86
REMARK 921   NORMALIZED FREE ENERGY PREDICTED BY IDOCK:   -4.39 KCAL/MOL
REMARK 922        TOTAL FREE ENERGY PREDICTED BY IDOCK:   -6.68 KCAL/MOL
REMARK 923 INTER-LIGAND FREE ENERGY PREDICTED BY IDOCK:   -5.93 KCAL/MOL
REMARK 924 INTRA-LIGAND FREE ENERGY PREDICTED BY IDOCK:   -0.75 KCAL/MOL
REMARK 927      BINDING AFFINITY PREDICTED BY RF-SCORE:    0.00 PKD
ROOT
HETATM    1  O   UNL     1     -11.555   1.916  63.557  1.00  0.00    -0.581 OA 
HETATM    2  C   UNL     1     -10.860   3.083  63.132  1.00  0.00    -0.205 C  
HETATM    3  H   UNL     1     -12.065   1.566  62.836  1.00  0.00     0.000 HD 
ENDROOT
BRANCH   2   4
HETATM    4  C   UNL     1     -10.044   3.645  64.286  1.00  0.00    -0.212 C  
BRANCH   4   5
HETATM    5  O   UNL     1      -9.434   2.577  65.012  1.00  0.00    -0.135 OA 
BRANCH   5   6
HETATM    6  C   UNL     1      -8.774   3.076  66.180  1.00  0.00    -0.132 C  
BRANCH   6   7
HETATM    7  C   UNL     1      -9.780   3.844  67.046  1.00  0.00    -0.148 C  
BRANCH   7   8
HETATM    8  N   UNL     1      -9.165   4.811  67.980  1.00  0.00    -0.117 NA 
HETATM    9  C   UNL     1      -8.380   5.861  67.296  1.00  0.00    -0.105 C  
HETATM   10  C   UNL     1      -9.231   6.922  66.555  1.00  0.00    -0.163 C  
HETATM   11  N   UNL     1     -10.228   7.609  67.413  1.00  0.00    -0.224 NA 
HETATM   12  C   UNL     1     -11.034   6.549  68.073  1.00  0.00    -0.282 C  
HETATM   13  C   UNL     1     -10.211   5.459  68.807  1.00  0.00    -0.182 C  
BRANCH  11  14
HETATM   14  C   UNL     1      -9.579   8.537  68.396  1.00  0.00    -0.147 C  
BRANCH  14  15
HETATM   15  C   UNL     1      -8.572   9.484  67.718  1.00  0.00    -0.115 A  
HETATM   16  C   UNL     1      -7.297   9.672  68.293  1.00  0.00    -0.080 A  
HETATM   17  C   UNL     1      -8.819  10.070  66.466  1.00  0.00    -0.154 A  
HETATM   18  C   UNL     1      -6.301  10.382  67.616  1.00  0.00    -0.057 A  
HETATM   19  C   UNL     1      -6.561  10.931  66.364  1.00  0.00    -0.134 A  
HETATM   20  C   UNL     1      -7.825  10.791  65.796  1.00  0.00    -0.106 A  
ENDBRANCH  14  15
BRANCH  14  21
HETATM   21  C   UNL     1     -10.611   9.266  69.272  1.00  0.00    -0.234 A  
HETATM   22  C   UNL     1     -12.057  11.203  69.605  1.00  0.00    -0.406 A  
HETATM   23  C   UNL     1     -11.667   9.672  71.432  1.00  0.00    -0.478 A  
HETATM   24  C   UNL     1     -11.243  10.424  68.778  1.00  0.00    -0.295 A  
HETATM   25 CL   UNL     1     -13.238  11.801  71.956  1.00  0.00    -0.569 Cl 
HETATM   26  C   UNL     1     -10.842   8.902  70.609  1.00  0.00    -0.286 A  
HETATM   27  C   UNL     1     -12.264  10.824  70.929  1.00  0.00    -0.384 A  
ENDBRANCH  14  21
ENDBRANCH  11  14
ENDBRANCH   7   8
ENDBRANCH   6   7
ENDBRANCH   5   6
ENDBRANCH   4   5
ENDBRANCH   2   4
TORSDOF 8
ENDMDL
MODEL       87
REMARK 921   NORMALIZED FREE ENERGY PREDICTED BY IDOCK:   -4.38 KCAL/MOL
REMARK 922        TOTAL FREE ENERGY PREDICTED BY IDOCK:   -6.66 KCAL/MOL
REMARK 923 INTER-LIGAND FREE ENERGY PREDICTED BY IDOCK:   -6.01 KCAL/MOL
REMARK 924 INTRA-LIGAND FREE ENERGY PREDICTED BY IDOCK:   -0.65 KCAL/MOL
REMARK 927      BINDING AFFINITY PREDICTED BY RF-SCORE:    0.00 PKD
ROOT
HETATM    1  O   UNL     1     -10.724  17.953  67.515  1.00  0.00    -0.389 OA 
HETATM    2  C   UNL     1     -10.494  17.878  66.112  1.00  0.00    -0.321 C  
HETATM    3  H   UNL     1     -10.971  18.839  67.753  1.00  0.00     0.000 HD 
ENDROOT
BRANCH   2   4
HETATM    4  C   UNL     1     -10.097  16.460  65.731  1.00  0.00    -0.327 C  
BRANCH   4   5
HETATM    5  O   UNL     1     -10.879  16.022  64.619  1.00  0.00    -0.608 OA 
BRANCH   5   6
HETATM    6  C   UNL     1     -11.510  14.771  64.911  1.00  0.00    -0.412 C  
BRANCH   6   7
HETATM    7  C   UNL     1     -10.798  14.104  66.096  1.00  0.00    -0.296 C  
BRANCH   7   8
HETATM    8  N   UNL     1     -10.481  12.675  65.890  1.00  0.00    -0.269 NA 
HETATM    9  C   UNL     1      -9.092  12.330  66.259  1.00  0.00    -0.125 C  
HETATM   10  C   UNL     1      -8.818  12.303  67.783  1.00  0.00    -0.174 C  
HETATM   11  N   UNL     1      -9.713  11.398  68.546  1.00  0.00    -0.196 NA 
HETATM   12  C   UNL     1     -11.107  11.771  68.195  1.00  0.00    -0.243 C  
HETATM   13  C   UNL     1     -11.410  11.827  66.675  1.00  0.00    -0.316 C  
BRANCH  11  14
HETATM   14  C   UNL     1      -9.415   9.954  68.274  1.00  0.00    -0.139 C  
BRANCH  14  15
HETATM   15  C   UNL     1      -7.912   9.704  68.056  1.00  0.00    -0.097 A  
HETATM   16  C   UNL     1      -7.039   9.697  69.164  1.00  0.00    -0.062 A  
HETATM   17  C   UNL     1      -7.385   9.342  66.805  1.00  0.00    -0.086 A  
HETATM   18  C   UNL     1      -5.705   9.301  69.026  1.00  0.00    -0.036 A  
HETATM   19  C   UNL     1      -5.213   8.922  67.781  1.00  0.00    -0.035 A  
HETATM   20  C   UNL     1      -6.048   8.958  66.666  1.00  0.00    -0.060 A  
ENDBRANCH  14  15
BRANCH  14  21
HETATM   21  C   UNL     1     -10.044   9.025  69.326  1.00  0.00    -0.197 A  
HETATM   22  C   UNL     1     -11.292   6.987  69.820  1.00  0.00    -0.226 A  
HETATM   23  C   UNL     1     -10.960   8.637  71.553  1.00  0.00    -0.360 A  
HETATM   24  C   UNL     1     -10.568   7.780  68.925  1.00  0.00    -0.168 A  
HETATM   25 CL   UNL     1     -12.407   6.460  72.219  1.00  0.00    -0.239 Cl 
HETATM   26  C   UNL     1     -10.248   9.435  70.654  1.00  0.00    -0.353 A  
HETATM   27  C   UNL     1     -11.486   7.420  71.129  1.00  0.00    -0.279 A  
ENDBRANCH  14  21
ENDBRANCH  11  14
ENDBRANCH   7   8
ENDBRANCH   6   7
ENDBRANCH   5   6
ENDBRANCH   4   5
ENDBRANCH   2   4
TORSDOF 8
ENDMDL
MODEL       88
REMARK 921   NORMALIZED FREE ENERGY PREDICTED BY IDOCK:   -4.31 KCAL/MOL
REMARK 922        TOTAL FREE ENERGY PREDICTED BY IDOCK:   -6.57 KCAL/MOL
REMARK 923 INTER-LIGAND FREE ENERGY PREDICTED BY IDOCK:   -6.75 KCAL/MOL
REMARK 924 INTRA-LIGAND FREE ENERGY PREDICTED BY IDOCK:    0.18 KCAL/MOL
REMARK 927      BINDING AFFINITY PREDICTED BY RF-SCORE:    0.00 PKD
ROOT
HETATM    1  O   UNL     1     -13.117  12.667  71.360  1.00  0.00    -0.327 OA 
HETATM    2  C   UNL     1     -13.414  13.235  72.631  1.00  0.00    -0.379 C  
HETATM    3  H   UNL     1     -13.188  11.721  71.407  1.00  0.00     0.000 HD 
ENDROOT
BRANCH   2   4
HETATM    4  C   UNL     1     -13.298  14.751  72.556  1.00  0.00    -0.434 C  
BRANCH   4   5
HETATM    5  O   UNL     1     -11.922  15.132  72.575  1.00  0.00    -0.376 OA 
BRANCH   5   6
HETATM    6  C   UNL     1     -11.589  15.867  71.392  1.00  0.00    -0.464 C  
BRANCH   6   7
HETATM    7  C   UNL     1     -12.707  15.701  70.355  1.00  0.00    -0.282 C  
BRANCH   7   8
HETATM    8  N   UNL     1     -12.249  15.765  68.951  1.00  0.00    -0.138 NA 
HETATM    9  C   UNL     1     -10.943  16.441  68.796  1.00  0.00    -0.344 C  
HETATM   10  C   UNL     1      -9.729  15.617  69.289  1.00  0.00    -0.271 C  
HETATM   11  N   UNL     1      -9.607  14.278  68.660  1.00  0.00    -0.211 NA 
HETATM   12  C   UNL     1     -10.912  13.592  68.848  1.00  0.00    -0.249 C  
HETATM   13  C   UNL     1     -12.151  14.399  68.383  1.00  0.00    -0.243 C  
BRANCH  11  14
HETATM   14  C   UNL     1      -9.204  14.369  67.219  1.00  0.00    -0.209 C  
BRANCH  14  15
HETATM   15  C   UNL     1      -8.023  15.334  67.008  1.00  0.00    -0.243 A  
HETATM   16  C   UNL     1      -8.240  16.570  66.364  1.00  0.00    -0.364 A  
HETATM   17  C   UNL     1      -6.752  15.096  67.557  1.00  0.00    -0.189 A  
HETATM   18  C   UNL     1      -7.235  17.541  66.314  1.00  0.00    -0.351 A  
HETATM   19  C   UNL     1      -5.992  17.292  66.887  1.00  0.00    -0.214 A  
HETATM   20  C   UNL     1      -5.744  16.062  67.494  1.00  0.00    -0.157 A  
ENDBRANCH  14  15
BRANCH  14  21
HETATM   21  C   UNL     1      -8.980  12.982  66.593  1.00  0.00    -0.132 A  
HETATM   22  C   UNL     1      -9.769  11.227  65.091  1.00  0.00    -0.285 A  
HETATM   23  C   UNL     1      -7.959  10.768  66.623  1.00  0.00    -0.139 A  
HETATM   24  C   UNL     1      -9.838  12.540  65.566  1.00  0.00    -0.197 A  
HETATM   25 CL   UNL     1      -8.770   8.722  65.063  1.00  0.00    -0.205 Cl 
HETATM   26  C   UNL     1      -8.038  12.076  67.107  1.00  0.00    -0.177 A  
HETATM   27  C   UNL     1      -8.831  10.347  65.623  1.00  0.00    -0.173 A  
ENDBRANCH  14  21
ENDBRANCH  11  14
ENDBRANCH   7   8
ENDBRANCH   6   7
ENDBRANCH   5   6
ENDBRANCH   4   5
ENDBRANCH   2   4
TORSDOF 8
ENDMDL
MODEL       89
REMARK 921   NORMALIZED FREE ENERGY PREDICTED BY IDOCK:   -4.31 KCAL/MOL
REMARK 922        TOTAL FREE ENERGY PREDICTED BY IDOCK:   -6.56 KCAL/MOL
REMARK 923 INTER-LIGAND FREE ENERGY PREDICTED BY IDOCK:   -6.15 KCAL/MOL
REMARK 924 INTRA-LIGAND FREE ENERGY PREDICTED BY IDOCK:   -0.41 KCAL/MOL
REMARK 927      BINDING AFFINITY PREDICTED BY RF-SCORE:    0.00 PKD
ROOT
HETATM    1  O   UNL     1      -9.426   7.531  74.145  1.00  0.00    -0.393 OA 
HETATM    2  C   UNL     1     -10.345   6.445  74.190  1.00  0.00    -0.317 C  
HETATM    3  H   UNL     1      -9.330   7.906  75.012  1.00  0.00     0.000 HD 
ENDROOT
BRANCH   2   4
HETATM    4  C   UNL     1     -10.500   5.844  72.802  1.00  0.00    -0.209 C  
BRANCH   4   5
HETATM    5  O   UNL     1     -10.367   6.867  71.815  1.00  0.00    -0.198 OA 
BRANCH   5   6
HETATM    6  C   UNL     1     -10.714   6.364  70.520  1.00  0.00    -0.257 C  
BRANCH   6   7
HETATM    7  C   UNL     1      -9.463   6.333  69.632  1.00  0.00    -0.146 C  
BRANCH   7   8
HETATM    8  N   UNL     1      -8.945   7.668  69.264  1.00  0.00    -0.136 NA 
HETATM    9  C   UNL     1      -7.927   7.621  68.193  1.00  0.00    -0.123 C  
HETATM   10  C   UNL     1      -8.487   7.307  66.784  1.00  0.00    -0.121 C  
HETATM   11  N   UNL     1      -9.554   8.236  66.334  1.00  0.00    -0.231 NA 
HETATM   12  C   UNL     1     -10.589   8.254  67.399  1.00  0.00    -0.253 C  
HETATM   13  C   UNL     1     -10.058   8.545  68.826  1.00  0.00    -0.196 C  
BRANCH  11  14
HETATM   14  C   UNL     1      -9.017   9.601  66.026  1.00  0.00    -0.162 C  
BRANCH  14  15
HETATM   15  C   UNL     1      -8.005   9.577  64.866  1.00  0.00    -0.121 A  
HETATM   16  C   UNL     1      -6.784  10.272  64.992  1.00  0.00    -0.108 A  
HETATM   17  C   UNL     1      -8.187   8.773  63.729  1.00  0.00    -0.163 A  
HETATM   18  C   UNL     1      -5.773  10.128  64.036  1.00  0.00    -0.135 A  
HETATM   19  C   UNL     1      -5.967   9.305  62.931  1.00  0.00    -0.093 A  
HETATM   20  C   UNL     1      -7.180   8.640  62.767  1.00  0.00    -0.094 A  
ENDBRANCH  14  15
BRANCH  14  21
HETATM   21  C   UNL     1     -10.139  10.635  65.839  1.00  0.00    -0.321 A  
HETATM   22  C   UNL     1     -11.457  12.022  64.324  1.00  0.00    -0.435 A  
HETATM   23  C   UNL     1     -11.568  12.412  66.705  1.00  0.00    -0.447 A  
HETATM   24  C   UNL     1     -10.561  10.970  64.538  1.00  0.00    -0.383 A  
HETATM   25 CL   UNL     1     -13.030  14.055  65.143  1.00  0.00    -0.367 Cl 
HETATM   26  C   UNL     1     -10.662  11.370  66.916  1.00  0.00    -0.308 A  
HETATM   27  C   UNL     1     -11.955  12.739  65.408  1.00  0.00    -0.436 A  
ENDBRANCH  14  21
ENDBRANCH  11  14
ENDBRANCH   7   8
ENDBRANCH   6   7
ENDBRANCH   5   6
ENDBRANCH   4   5
ENDBRANCH   2   4
TORSDOF 8
ENDMDL
MODEL       90
REMARK 921   NORMALIZED FREE ENERGY PREDICTED BY IDOCK:   -4.27 KCAL/MOL
REMARK 922        TOTAL FREE ENERGY PREDICTED BY IDOCK:   -6.50 KCAL/MOL
REMARK 923 INTER-LIGAND FREE ENERGY PREDICTED BY IDOCK:   -6.27 KCAL/MOL
REMARK 924 INTRA-LIGAND FREE ENERGY PREDICTED BY IDOCK:   -0.23 KCAL/MOL
REMARK 927      BINDING AFFINITY PREDICTED BY RF-SCORE:    0.00 PKD
ROOT
HETATM    1  O   UNL     1     -10.803   5.022  72.172  1.00  0.00    -0.193 OA 
HETATM    2  C   UNL     1     -11.152   4.944  73.550  1.00  0.00    -0.332 C  
HETATM    3  H   UNL     1     -11.303   4.382  71.678  1.00  0.00     0.000 HD 
ENDROOT
BRANCH   2   4
HETATM    4  C   UNL     1     -10.352   5.967  74.342  1.00  0.00    -0.249 C  
BRANCH   4   5
HETATM    5  O   UNL     1      -9.110   6.223  73.684  1.00  0.00    -0.127 OA 
BRANCH   5   6
HETATM    6  C   UNL     1      -8.795   7.618  73.733  1.00  0.00    -0.253 C  
BRANCH   6   7
HETATM    7  C   UNL     1      -9.420   8.326  72.524  1.00  0.00    -0.286 C  
BRANCH   7   8
HETATM    8  N   UNL     1      -8.629   8.219  71.279  1.00  0.00    -0.135 NA 
HETATM    9  C   UNL     1      -9.106   7.149  70.378  1.00  0.00    -0.156 C  
HETATM   10  C   UNL     1     -10.439   7.460  69.655  1.00  0.00    -0.232 C  
HETATM   11  N   UNL     1     -10.425   8.720  68.871  1.00  0.00    -0.214 NA 
HETATM   12  C   UNL     1      -9.976   9.797  69.791  1.00  0.00    -0.236 C  
HETATM   13  C   UNL     1      -8.654   9.507  70.546  1.00  0.00    -0.184 C  
BRANCH  11  14
HETATM   14  C   UNL     1      -9.566   8.610  67.647  1.00  0.00    -0.155 C  
BRANCH  14  15
HETATM   15  C   UNL     1      -9.595   7.193  67.046  1.00  0.00    -0.204 A  
HETATM   16  C   UNL     1      -8.385   6.500  66.837  1.00  0.00    -0.113 A  
HETATM   17  C   UNL     1     -10.795   6.499  66.820  1.00  0.00    -0.345 A  
HETATM   18  C   UNL     1      -8.383   5.153  66.461  1.00  0.00    -0.108 A  
HETATM   19  C   UNL     1      -9.585   4.479  66.268  1.00  0.00    -0.194 A  
HETATM   20  C   UNL     1     -10.792   5.156  66.431  1.00  0.00    -0.174 A  
ENDBRANCH  14  15
BRANCH  14  21
HETATM   21  C   UNL     1      -9.873   9.716  66.624  1.00  0.00    -0.285 A  
HETATM   22  C   UNL     1     -11.250  11.623  65.973  1.00  0.00    -0.299 A  
HETATM   23  C   UNL     1      -9.754  10.621  64.362  1.00  0.00    -0.368 A  
HETATM   24  C   UNL     1     -10.826  10.704  66.938  1.00  0.00    -0.267 A  
HETATM   25 CL   UNL     1     -11.260  12.683  63.492  1.00  0.00    -0.517 Cl 
HETATM   26  C   UNL     1      -9.342   9.694  65.323  1.00  0.00    -0.322 A  
HETATM   27  C   UNL     1     -10.713  11.576  64.689  1.00  0.00    -0.319 A  
ENDBRANCH  14  21
ENDBRANCH  11  14
ENDBRANCH   7   8
ENDBRANCH   6   7
ENDBRANCH   5   6
ENDBRANCH   4   5
ENDBRANCH   2   4
TORSDOF 8
ENDMDL
MODEL       91
REMARK 921   NORMALIZED FREE ENERGY PREDICTED BY IDOCK:   -4.26 KCAL/MOL
REMARK 922        TOTAL FREE ENERGY PREDICTED BY IDOCK:   -6.49 KCAL/MOL
REMARK 923 INTER-LIGAND FREE ENERGY PREDICTED BY IDOCK:   -5.94 KCAL/MOL
REMARK 924 INTRA-LIGAND FREE ENERGY PREDICTED BY IDOCK:   -0.56 KCAL/MOL
REMARK 927      BINDING AFFINITY PREDICTED BY RF-SCORE:    0.00 PKD
ROOT
HETATM    1  O   UNL     1      -8.850  11.795  62.695  1.00  0.00    -0.610 OA 
HETATM    2  C   UNL     1     -10.128  11.451  63.219  1.00  0.00    -0.387 C  
HETATM    3  H   UNL     1      -8.386  11.007  62.438  1.00  0.00     0.000 HD 
ENDROOT
BRANCH   2   4
HETATM    4  C   UNL     1     -10.872  12.712  63.631  1.00  0.00    -0.395 C  
BRANCH   4   5
HETATM    5  O   UNL     1     -10.467  13.104  64.943  1.00  0.00    -0.318 OA 
BRANCH   5   6
HETATM    6  C   UNL     1     -10.814  12.096  65.898  1.00  0.00    -0.278 C  
BRANCH   6   7
HETATM    7  C   UNL     1     -10.010  12.315  67.186  1.00  0.00    -0.205 C  
BRANCH   7   8
HETATM    8  N   UNL     1      -9.011  11.263  67.467  1.00  0.00    -0.139 NA 
HETATM    9  C   UNL     1      -9.162  10.661  68.809  1.00  0.00    -0.180 C  
HETATM   10  C   UNL     1     -10.383   9.720  68.960  1.00  0.00    -0.208 C  
HETATM   11  N   UNL     1     -10.421   8.611  67.974  1.00  0.00    -0.218 NA 
HETATM   12  C   UNL     1     -10.301   9.226  66.627  1.00  0.00    -0.222 C  
HETATM   13  C   UNL     1      -9.099  10.189  66.449  1.00  0.00    -0.152 C  
BRANCH  11  14
HETATM   14  C   UNL     1      -9.358   7.588  68.240  1.00  0.00    -0.141 C  
BRANCH  14  15
HETATM   15  C   UNL     1      -9.425   7.044  69.678  1.00  0.00    -0.147 A  
HETATM   16  C   UNL     1     -10.583   6.366  70.115  1.00  0.00    -0.294 A  
HETATM   17  C   UNL     1      -8.318   7.074  70.543  1.00  0.00    -0.132 A  
HETATM   18  C   UNL     1     -10.609   5.709  71.348  1.00  0.00    -0.317 A  
HETATM   19  C   UNL     1      -9.491   5.730  72.176  1.00  0.00    -0.164 A  
HETATM   20  C   UNL     1      -8.351   6.427  71.782  1.00  0.00    -0.120 A  
ENDBRANCH  14  15
BRANCH  14  21
HETATM   21  C   UNL     1      -9.338   6.484  67.169  1.00  0.00    -0.138 A  
HETATM   22  C   UNL     1     -10.552   4.771  65.925  1.00  0.00    -0.290 A  
HETATM   23  C   UNL     1      -8.139   4.840  65.823  1.00  0.00    -0.111 A  
HETATM   24  C   UNL     1     -10.548   5.886  66.768  1.00  0.00    -0.368 A  
HETATM   25 CL   UNL     1      -9.349   2.860  64.448  1.00  0.00    -0.138 Cl 
HETATM   26  C   UNL     1      -8.136   5.945  66.678  1.00  0.00    -0.102 A  
HETATM   27  C   UNL     1      -9.347   4.253  65.458  1.00  0.00    -0.162 A  
ENDBRANCH  14  21
ENDBRANCH  11  14
ENDBRANCH   7   8
ENDBRANCH   6   7
ENDBRANCH   5   6
ENDBRANCH   4   5
ENDBRANCH   2   4
TORSDOF 8
ENDMDL
MODEL       92
REMARK 921   NORMALIZED FREE ENERGY PREDICTED BY IDOCK:   -4.26 KCAL/MOL
REMARK 922        TOTAL FREE ENERGY PREDICTED BY IDOCK:   -6.49 KCAL/MOL
REMARK 923 INTER-LIGAND FREE ENERGY PREDICTED BY IDOCK:   -5.69 KCAL/MOL
REMARK 924 INTRA-LIGAND FREE ENERGY PREDICTED BY IDOCK:   -0.80 KCAL/MOL
REMARK 927      BINDING AFFINITY PREDICTED BY RF-SCORE:    0.00 PKD
ROOT
HETATM    1  O   UNL     1     -10.671  11.199  64.704  1.00  0.00    -0.325 OA 
HETATM    2  C   UNL     1     -12.022  11.635  64.615  1.00  0.00     0.033 C  
HETATM    3  H   UNL     1     -10.574  10.602  65.437  1.00  0.00     0.000 HD 
ENDROOT
BRANCH   2   4
HETATM    4  C   UNL     1     -12.178  12.591  63.441  1.00  0.00    -0.517 C  
BRANCH   4   5
HETATM    5  O   UNL     1     -12.699  13.839  63.900  1.00  0.00    -0.673 OA 
BRANCH   5   6
HETATM    6  C   UNL     1     -12.422  14.017  65.293  1.00  0.00    -0.475 C  
BRANCH   6   7
HETATM    7  C   UNL     1     -11.810  15.406  65.518  1.00  0.00     0.229 C  
BRANCH   7   8
HETATM    8  N   UNL     1     -10.344  15.462  65.333  1.00  0.00    -0.375 NA 
HETATM    9  C   UNL     1      -9.794  16.828  65.463  1.00  0.00     0.056 C  
HETATM   10  C   UNL     1      -9.761  17.375  66.911  1.00  0.00    -0.286 C  
HETATM   11  N   UNL     1      -9.025  16.512  67.870  1.00  0.00    -0.203 NA 
HETATM   12  C   UNL     1      -9.603  15.149  67.756  1.00  0.00    -0.203 C  
HETATM   13  C   UNL     1      -9.670  14.580  66.316  1.00  0.00    -0.309 C  
BRANCH  11  14
HETATM   14  C   UNL     1      -7.546  16.535  67.623  1.00  0.00    -0.146 C  
BRANCH  14  15
HETATM   15  C   UNL     1      -6.947  17.939  67.824  1.00  0.00    -0.202 A  
HETATM   16  C   UNL     1      -7.399  18.743  68.891  1.00  0.00    -0.325 A  
HETATM   17  C   UNL     1      -5.862  18.406  67.065  1.00  0.00    -0.165 A  
HETATM   18  C   UNL     1      -6.757  19.944  69.208  1.00  0.00    -0.361 A  
HETATM   19  C   UNL     1      -5.667  20.374  68.458  1.00  0.00    -0.313 A  
HETATM   20  C   UNL     1      -5.229  19.615  67.375  1.00  0.00    -0.161 A  
ENDBRANCH  14  15
BRANCH  14  21
HETATM   21  C   UNL     1      -6.812  15.438  68.411  1.00  0.00    -0.115 A  
HETATM   22  C   UNL     1      -5.899  13.175  68.468  1.00  0.00    -0.081 A  
HETATM   23  C   UNL     1      -6.117  14.430  70.521  1.00  0.00    -0.185 A  
HETATM   24  C   UNL     1      -6.417  14.258  67.751  1.00  0.00    -0.181 A  
HETATM   25 CL   UNL     1      -5.149  11.921  70.736  1.00  0.00    -0.116 Cl 
HETATM   26  C   UNL     1      -6.648  15.506  69.805  1.00  0.00    -0.166 A  
HETATM   27  C   UNL     1      -5.753  13.266  69.849  1.00  0.00    -0.122 A  
ENDBRANCH  14  21
ENDBRANCH  11  14
ENDBRANCH   7   8
ENDBRANCH   6   7
ENDBRANCH   5   6
ENDBRANCH   4   5
ENDBRANCH   2   4
TORSDOF 8
ENDMDL
MODEL       93
REMARK 921   NORMALIZED FREE ENERGY PREDICTED BY IDOCK:   -4.22 KCAL/MOL
REMARK 922        TOTAL FREE ENERGY PREDICTED BY IDOCK:   -6.44 KCAL/MOL
REMARK 923 INTER-LIGAND FREE ENERGY PREDICTED BY IDOCK:   -6.68 KCAL/MOL
REMARK 924 INTRA-LIGAND FREE ENERGY PREDICTED BY IDOCK:    0.25 KCAL/MOL
REMARK 927      BINDING AFFINITY PREDICTED BY RF-SCORE:    0.00 PKD
ROOT
HETATM    1  O   UNL     1     -10.470  19.955  69.187  1.00  0.00    -0.614 OA 
HETATM    2  C   UNL     1      -9.115  19.586  68.959  1.00  0.00    -0.218 C  
HETATM    3  H   UNL     1     -10.619  20.069  70.119  1.00  0.00     0.000 HD 
ENDROOT
BRANCH   2   4
HETATM    4  C   UNL     1      -8.877  19.403  67.467  1.00  0.00    -0.304 C  
BRANCH   4   5
HETATM    5  O   UNL     1     -10.117  19.143  66.808  1.00  0.00    -0.330 OA 
BRANCH   5   6
HETATM    6  C   UNL     1     -10.113  17.834  66.230  1.00  0.00    -0.344 C  
BRANCH   6   7
HETATM    7  C   UNL     1     -10.391  16.792  67.322  1.00  0.00    -0.304 C  
BRANCH   7   8
HETATM    8  N   UNL     1     -10.585  15.417  66.816  1.00  0.00    -0.305 NA 
HETATM    9  C   UNL     1      -9.320  14.660  66.693  1.00  0.00    -0.271 C  
HETATM   10  C   UNL     1      -8.702  14.214  68.041  1.00  0.00    -0.177 C  
HETATM   11  N   UNL     1      -9.615  13.410  68.892  1.00  0.00     0.067 NA 
HETATM   12  C   UNL     1     -10.870  14.190  69.037  1.00  0.00    -0.251 C  
HETATM   13  C   UNL     1     -11.505  14.670  67.706  1.00  0.00    -0.340 C  
BRANCH  11  14
HETATM   14  C   UNL     1      -9.847  12.041  68.327  1.00  0.00    -0.204 C  
BRANCH  14  15
HETATM   15  C   UNL     1      -8.556  11.421  67.762  1.00  0.00    -0.129 A  
HETATM   16  C   UNL     1      -7.518  11.048  68.642  1.00  0.00    -0.112 A  
HETATM   17  C   UNL     1      -8.420  11.080  66.406  1.00  0.00    -0.164 A  
HETATM   18  C   UNL     1      -6.413  10.325  68.185  1.00  0.00    -0.057 A  
HETATM   19  C   UNL     1      -6.312   9.977  66.841  1.00  0.00    -0.065 A  
HETATM   20  C   UNL     1      -7.306  10.368  65.948  1.00  0.00    -0.135 A  
ENDBRANCH  14  15
BRANCH  14  21
HETATM   21  C   UNL     1     -10.583  11.124  69.318  1.00  0.00    -0.212 A  
HETATM   22  C   UNL     1     -12.282  10.875  71.053  1.00  0.00    -0.464 A  
HETATM   23  C   UNL     1     -10.695   9.095  70.668  1.00  0.00    -0.313 A  
HETATM   24  C   UNL     1     -11.694  11.621  70.027  1.00  0.00    -0.402 A  
HETATM   25 CL   UNL     1     -12.479   8.713  72.654  1.00  0.00    -0.380 Cl 
HETATM   26  C   UNL     1     -10.099   9.848  69.653  1.00  0.00    -0.254 A  
HETATM   27  C   UNL     1     -11.779   9.616  71.369  1.00  0.00    -0.404 A  
ENDBRANCH  14  21
ENDBRANCH  11  14
ENDBRANCH   7   8
ENDBRANCH   6   7
ENDBRANCH   5   6
ENDBRANCH   4   5
ENDBRANCH   2   4
TORSDOF 8
ENDMDL
MODEL       94
REMARK 921   NORMALIZED FREE ENERGY PREDICTED BY IDOCK:   -4.21 KCAL/MOL
REMARK 922        TOTAL FREE ENERGY PREDICTED BY IDOCK:   -6.41 KCAL/MOL
REMARK 923 INTER-LIGAND FREE ENERGY PREDICTED BY IDOCK:   -5.36 KCAL/MOL
REMARK 924 INTRA-LIGAND FREE ENERGY PREDICTED BY IDOCK:   -1.05 KCAL/MOL
REMARK 927      BINDING AFFINITY PREDICTED BY RF-SCORE:    0.00 PKD
ROOT
HETATM    1  O   UNL     1      -7.118  12.193  69.583  1.00  0.00    -0.341 OA 
HETATM    2  C   UNL     1      -7.058  13.397  68.827  1.00  0.00    -0.101 C  
HETATM    3  H   UNL     1      -6.489  12.229  70.294  1.00  0.00     0.000 HD 
ENDROOT
BRANCH   2   4
HETATM    4  C   UNL     1      -8.066  13.339  67.688  1.00  0.00    -0.174 C  
BRANCH   4   5
HETATM    5  O   UNL     1      -9.295  13.937  68.100  1.00  0.00    -0.191 OA 
BRANCH   5   6
HETATM    6  C   UNL     1     -10.373  13.003  67.980  1.00  0.00    -0.234 C  
BRANCH   6   7
HETATM    7  C   UNL     1      -9.962  11.867  67.035  1.00  0.00    -0.202 C  
BRANCH   7   8
HETATM    8  N   UNL     1     -10.813  10.662  67.125  1.00  0.00    -0.281 NA 
HETATM    9  C   UNL     1     -10.358   9.562  66.249  1.00  0.00    -0.156 C  
HETATM   10  C   UNL     1      -9.072   8.845  66.729  1.00  0.00    -0.143 C  
HETATM   11  N   UNL     1      -9.157   8.302  68.107  1.00  0.00    -0.135 NA 
HETATM   12  C   UNL     1      -9.584   9.420  68.987  1.00  0.00    -0.164 C  
HETATM   13  C   UNL     1     -10.858  10.172  68.524  1.00  0.00    -0.237 C  
BRANCH  11  14
HETATM   14  C   UNL     1     -10.075   7.119  68.188  1.00  0.00    -0.169 C  
BRANCH  14  15
HETATM   15  C   UNL     1      -9.728   6.044  67.142  1.00  0.00    -0.148 A  
HETATM   16  C   UNL     1      -8.401   5.577  67.037  1.00  0.00    -0.107 A  
HETATM   17  C   UNL     1     -10.712   5.402  66.372  1.00  0.00    -0.284 A  
HETATM   18  C   UNL     1      -8.086   4.482  66.226  1.00  0.00    -0.103 A  
HETATM   19  C   UNL     1      -9.083   3.846  65.493  1.00  0.00    -0.143 A  
HETATM   20  C   UNL     1     -10.393   4.315  65.551  1.00  0.00    -0.210 A  
ENDBRANCH  14  15
BRANCH  14  21
HETATM   21  C   UNL     1     -10.184   6.568  69.619  1.00  0.00    -0.220 A  
HETATM   22  C   UNL     1     -11.565   6.154  71.589  1.00  0.00    -0.317 A  
HETATM   23  C   UNL     1      -9.165   5.923  71.739  1.00  0.00    -0.157 A  
HETATM   24  C   UNL     1     -11.447   6.491  70.237  1.00  0.00    -0.474 A  
HETATM   25 CL   UNL     1     -10.563   5.493  74.005  1.00  0.00    -0.303 Cl 
HETATM   26  C   UNL     1      -9.048   6.274  70.392  1.00  0.00    -0.157 A  
HETATM   27  C   UNL     1     -10.423   5.873  72.334  1.00  0.00    -0.208 A  
ENDBRANCH  14  21
ENDBRANCH  11  14
ENDBRANCH   7   8
ENDBRANCH   6   7
ENDBRANCH   5   6
ENDBRANCH   4   5
ENDBRANCH   2   4
TORSDOF 8
ENDMDL
MODEL       95
REMARK 921   NORMALIZED FREE ENERGY PREDICTED BY IDOCK:   -4.19 KCAL/MOL
REMARK 922        TOTAL FREE ENERGY PREDICTED BY IDOCK:   -6.39 KCAL/MOL
REMARK 923 INTER-LIGAND FREE ENERGY PREDICTED BY IDOCK:   -6.26 KCAL/MOL
REMARK 924 INTRA-LIGAND FREE ENERGY PREDICTED BY IDOCK:   -0.13 KCAL/MOL
REMARK 927      BINDING AFFINITY PREDICTED BY RF-SCORE:    0.00 PKD
ROOT
HETATM    1  O   UNL     1      -6.131  21.241  65.915  1.00  0.00    -0.316 OA 
HETATM    2  C   UNL     1      -6.414  19.944  66.428  1.00  0.00    -0.191 C  
HETATM    3  H   UNL     1      -5.370  21.601  66.356  1.00  0.00     0.000 HD 
ENDROOT
BRANCH   2   4
HETATM    4  C   UNL     1      -7.633  19.368  65.723  1.00  0.00    -0.196 C  
BRANCH   4   5
HETATM    5  O   UNL     1      -8.782  19.497  66.561  1.00  0.00    -0.322 OA 
BRANCH   5   6
HETATM    6  C   UNL     1      -9.934  18.936  65.925  1.00  0.00    -0.135 C  
BRANCH   6   7
HETATM    7  C   UNL     1     -10.804  18.230  66.973  1.00  0.00    -0.164 C  
BRANCH   7   8
HETATM    8  N   UNL     1     -10.061  17.313  67.863  1.00  0.00    -0.302 NA 
HETATM    9  C   UNL     1     -10.871  16.823  68.998  1.00  0.00    -0.291 C  
HETATM   10  C   UNL     1     -11.952  15.782  68.617  1.00  0.00    -0.149 C  
HETATM   11  N   UNL     1     -11.424  14.590  67.906  1.00  0.00    -0.309 NA 
HETATM   12  C   UNL     1     -10.638  15.090  66.749  1.00  0.00    -0.301 C  
HETATM   13  C   UNL     1      -9.560  16.149  67.094  1.00  0.00    -0.229 C  
BRANCH  11  14
HETATM   14  C   UNL     1     -10.621  13.707  68.813  1.00  0.00    -0.231 C  
BRANCH  14  15
HETATM   15  C   UNL     1     -11.501  12.993  69.855  1.00  0.00    -0.151 A  
HETATM   16  C   UNL     1     -12.042  13.728  70.931  1.00  0.00    -0.366 A  
HETATM   17  C   UNL     1     -11.906  11.656  69.705  1.00  0.00    -0.419 A  
HETATM   18  C   UNL     1     -12.983  13.155  71.792  1.00  0.00    -0.435 A  
HETATM   19  C   UNL     1     -13.388  11.837  71.607  1.00  0.00    -0.242 A  
HETATM   20  C   UNL     1     -12.838  11.081  70.575  1.00  0.00    -0.255 A  
ENDBRANCH  14  15
BRANCH  14  21
HETATM   21  C   UNL     1      -9.706  12.752  68.028  1.00  0.00    -0.220 A  
HETATM   22  C   UNL     1      -7.446  12.123  67.354  1.00  0.00    -0.156 A  
HETATM   23  C   UNL     1      -9.347  11.126  66.245  1.00  0.00    -0.216 A  
HETATM   24  C   UNL     1      -8.309  12.857  68.173  1.00  0.00    -0.168 A  
HETATM   25 CL   UNL     1      -6.909  10.385  65.362  1.00  0.00    -0.137 Cl 
HETATM   26  C   UNL     1     -10.208  11.872  67.054  1.00  0.00    -0.233 A  
HETATM   27  C   UNL     1      -7.969  11.262  66.393  1.00  0.00    -0.125 A  
ENDBRANCH  14  21
ENDBRANCH  11  14
ENDBRANCH   7   8
ENDBRANCH   6   7
ENDBRANCH   5   6
ENDBRANCH   4   5
ENDBRANCH   2   4
TORSDOF 8
ENDMDL
MODEL       96
REMARK 921   NORMALIZED FREE ENERGY PREDICTED BY IDOCK:   -4.18 KCAL/MOL
REMARK 922        TOTAL FREE ENERGY PREDICTED BY IDOCK:   -6.37 KCAL/MOL
REMARK 923 INTER-LIGAND FREE ENERGY PREDICTED BY IDOCK:   -6.13 KCAL/MOL
REMARK 924 INTRA-LIGAND FREE ENERGY PREDICTED BY IDOCK:   -0.24 KCAL/MOL
REMARK 927      BINDING AFFINITY PREDICTED BY RF-SCORE:    0.00 PKD
ROOT
HETATM    1  O   UNL     1     -10.552   4.578  64.283  1.00  0.00    -0.436 OA 
HETATM    2  C   UNL     1      -9.914   3.972  65.401  1.00  0.00    -0.179 C  
HETATM    3  H   UNL     1     -11.350   4.106  64.073  1.00  0.00     0.000 HD 
ENDROOT
BRANCH   2   4
HETATM    4  C   UNL     1      -8.637   4.728  65.737  1.00  0.00    -0.124 C  
BRANCH   4   5
HETATM    5  O   UNL     1      -8.526   5.882  64.903  1.00  0.00    -0.143 OA 
BRANCH   5   6
HETATM    6  C   UNL     1      -7.751   6.897  65.551  1.00  0.00    -0.101 C  
BRANCH   6   7
HETATM    7  C   UNL     1      -8.049   8.256  64.905  1.00  0.00    -0.150 C  
BRANCH   7   8
HETATM    8  N   UNL     1      -9.388   8.799  65.220  1.00  0.00    -0.050 NA 
HETATM    9  C   UNL     1      -9.863   8.427  66.570  1.00  0.00    -0.268 C  
HETATM   10  C   UNL     1      -9.150   9.164  67.730  1.00  0.00    -0.126 C  
HETATM   11  N   UNL     1      -9.208  10.645  67.637  1.00  0.00    -0.146 NA 
HETATM   12  C   UNL     1      -8.700  11.013  66.290  1.00  0.00    -0.176 C  
HETATM   13  C   UNL     1      -9.379  10.277  65.107  1.00  0.00    -0.226 C  
BRANCH  11  14
HETATM   14  C   UNL     1     -10.588  11.169  67.897  1.00  0.00    -0.198 C  
BRANCH  14  15
HETATM   15  C   UNL     1     -11.199  10.580  69.181  1.00  0.00    -0.314 A  
HETATM   16  C   UNL     1     -10.366   9.924  70.112  1.00  0.00    -0.336 A  
HETATM   17  C   UNL     1     -12.542  10.788  69.537  1.00  0.00     0.055 A  
HETATM   18  C   UNL     1     -10.852   9.535  71.363  1.00  0.00    -0.382 A  
HETATM   19  C   UNL     1     -12.180   9.775  71.703  1.00  0.00    -0.488 A  
HETATM   20  C   UNL     1     -13.031  10.386  70.784  1.00  0.00    -0.422 A  
ENDBRANCH  14  15
BRANCH  14  21
HETATM   21  C   UNL     1     -10.643  12.705  67.842  1.00  0.00    -0.232 A  
HETATM   22  C   UNL     1     -11.406  14.719  66.694  1.00  0.00    -0.347 A  
HETATM   23  C   UNL     1      -9.750  14.894  68.445  1.00  0.00    -0.209 A  
HETATM   24  C   UNL     1     -11.459  13.335  66.882  1.00  0.00    -0.376 A  
HETATM   25 CL   UNL     1     -10.460  17.190  67.220  1.00  0.00    -0.328 Cl 
HETATM   26  C   UNL     1      -9.793  13.508  68.622  1.00  0.00    -0.128 A  
HETATM   27  C   UNL     1     -10.551  15.491  67.475  1.00  0.00    -0.297 A  
ENDBRANCH  14  21
ENDBRANCH  11  14
ENDBRANCH   7   8
ENDBRANCH   6   7
ENDBRANCH   5   6
ENDBRANCH   4   5
ENDBRANCH   2   4
TORSDOF 8
ENDMDL
MODEL       97
REMARK 921   NORMALIZED FREE ENERGY PREDICTED BY IDOCK:   -4.16 KCAL/MOL
REMARK 922        TOTAL FREE ENERGY PREDICTED BY IDOCK:   -6.34 KCAL/MOL
REMARK 923 INTER-LIGAND FREE ENERGY PREDICTED BY IDOCK:   -5.78 KCAL/MOL
REMARK 924 INTRA-LIGAND FREE ENERGY PREDICTED BY IDOCK:   -0.57 KCAL/MOL
REMARK 927      BINDING AFFINITY PREDICTED BY RF-SCORE:    0.00 PKD
ROOT
HETATM    1  O   UNL     1      -7.958   3.553  65.714  1.00  0.00    -0.091 OA 
HETATM    2  C   UNL     1      -8.292   4.883  65.333  1.00  0.00    -0.125 C  
HETATM    3  H   UNL     1      -8.269   3.385  66.597  1.00  0.00     0.000 HD 
ENDROOT
BRANCH   2   4
HETATM    4  C   UNL     1      -7.794   5.152  63.921  1.00  0.00    -0.091 C  
BRANCH   4   5
HETATM    5  O   UNL     1      -6.949   6.304  63.918  1.00  0.00    -0.040 OA 
BRANCH   5   6
HETATM    6  C   UNL     1      -7.063   7.008  62.677  1.00  0.00    -0.062 C  
BRANCH   6   7
HETATM    7  C   UNL     1      -8.116   8.116  62.813  1.00  0.00    -0.151 C  
BRANCH   7   8
HETATM    8  N   UNL     1      -7.738   9.204  63.739  1.00  0.00    -0.113 NA 
HETATM    9  C   UNL     1      -8.187  10.537  63.284  1.00  0.00    -0.111 C  
HETATM   10  C   UNL     1      -9.710  10.783  63.413  1.00  0.00    -0.351 C  
HETATM   11  N   UNL     1     -10.244  10.585  64.784  1.00  0.00    -0.341 NA 
HETATM   12  C   UNL     1      -9.815   9.232  65.223  1.00  0.00     0.112 C  
HETATM   13  C   UNL     1      -8.298   8.946  65.087  1.00  0.00    -0.161 C  
BRANCH  11  14
HETATM   14  C   UNL     1      -9.796  11.665  65.722  1.00  0.00    -0.239 C  
BRANCH  14  15
HETATM   15  C   UNL     1     -10.317  13.051  65.299  1.00  0.00    -0.318 A  
HETATM   16  C   UNL     1     -11.569  13.159  64.660  1.00  0.00    -0.384 A  
HETATM   17  C   UNL     1      -9.655  14.239  65.649  1.00  0.00    -0.139 A  
HETATM   18  C   UNL     1     -12.150  14.409  64.422  1.00  0.00    -0.491 A  
HETATM   19  C   UNL     1     -11.487  15.572  64.802  1.00  0.00    -0.314 A  
HETATM   20  C   UNL     1     -10.231  15.489  65.400  1.00  0.00    -0.409 A  
ENDBRANCH  14  15
BRANCH  14  21
HETATM   21  C   UNL     1     -10.098  11.319  67.189  1.00  0.00    -0.223 A  
HETATM   22  C   UNL     1      -9.352  10.315  69.285  1.00  0.00    -0.221 A  
HETATM   23  C   UNL     1     -11.677  10.905  69.002  1.00  0.00    -0.391 A  
HETATM   24  C   UNL     1      -9.073  10.794  68.001  1.00  0.00    -0.150 A  
HETATM   25 CL   UNL     1     -11.001   9.749  71.343  1.00  0.00    -0.360 Cl 
HETATM   26  C   UNL     1     -11.400  11.371  67.714  1.00  0.00    -0.354 A  
HETATM   27  C   UNL     1     -10.652  10.371  69.778  1.00  0.00    -0.258 A  
ENDBRANCH  14  21
ENDBRANCH  11  14
ENDBRANCH   7   8
ENDBRANCH   6   7
ENDBRANCH   5   6
ENDBRANCH   4   5
ENDBRANCH   2   4
TORSDOF 8
ENDMDL
MODEL       98
REMARK 921   NORMALIZED FREE ENERGY PREDICTED BY IDOCK:   -4.13 KCAL/MOL
REMARK 922        TOTAL FREE ENERGY PREDICTED BY IDOCK:   -6.31 KCAL/MOL
REMARK 923 INTER-LIGAND FREE ENERGY PREDICTED BY IDOCK:   -5.35 KCAL/MOL
REMARK 924 INTRA-LIGAND FREE ENERGY PREDICTED BY IDOCK:   -0.95 KCAL/MOL
REMARK 927      BINDING AFFINITY PREDICTED BY RF-SCORE:    0.00 PKD
ROOT
HETATM    1  O   UNL     1     -14.411   9.286  73.004  1.00  0.00    -1.004 OA 
HETATM    2  C   UNL     1     -14.315   8.279  72.003  1.00  0.00    -0.450 C  
HETATM    3  H   UNL     1     -15.301   9.327  73.334  1.00  0.00     0.000 HD 
ENDROOT
BRANCH   2   4
HETATM    4  C   UNL     1     -12.890   8.212  71.475  1.00  0.00    -0.301 C  
BRANCH   4   5
HETATM    5  O   UNL     1     -11.971   8.519  72.524  1.00  0.00    -0.389 OA 
BRANCH   5   6
HETATM    6  C   UNL     1     -11.151   7.384  72.820  1.00  0.00    -0.346 C  
BRANCH   6   7
HETATM    7  C   UNL     1     -11.253   6.367  71.676  1.00  0.00    -0.278 C  
BRANCH   7   8
HETATM    8  N   UNL     1      -9.954   5.993  71.077  1.00  0.00    -0.183 NA 
HETATM    9  C   UNL     1     -10.076   4.966  70.021  1.00  0.00    -0.266 C  
HETATM   10  C   UNL     1     -10.687   5.476  68.693  1.00  0.00    -0.106 C  
HETATM   11  N   UNL     1      -9.972   6.633  68.099  1.00  0.00    -0.142 NA 
HETATM   12  C   UNL     1      -9.881   7.673  69.156  1.00  0.00    -0.171 C  
HETATM   13  C   UNL     1      -9.291   7.190  70.506  1.00  0.00    -0.158 C  
BRANCH  11  14
HETATM   14  C   UNL     1      -8.630   6.244  67.554  1.00  0.00    -0.107 C  
BRANCH  14  15
HETATM   15  C   UNL     1      -8.682   4.910  66.787  1.00  0.00    -0.107 A  
HETATM   16  C   UNL     1      -9.532   4.782  65.668  1.00  0.00    -0.173 A  
HETATM   17  C   UNL     1      -7.810   3.847  67.073  1.00  0.00    -0.084 A  
HETATM   18  C   UNL     1      -9.474   3.652  64.847  1.00  0.00    -0.161 A  
HETATM   19  C   UNL     1      -8.583   2.623  65.135  1.00  0.00    -0.103 A  
HETATM   20  C   UNL     1      -7.762   2.711  66.258  1.00  0.00    -0.076 A  
ENDBRANCH  14  15
BRANCH  14  21
HETATM   21  C   UNL     1      -7.978   7.384  66.755  1.00  0.00    -0.115 A  
HETATM   22  C   UNL     1      -8.129   8.995  64.928  1.00  0.00    -0.137 A  
HETATM   23  C   UNL     1      -6.003   8.606  66.008  1.00  0.00    -0.048 A  
HETATM   24  C   UNL     1      -8.734   8.071  65.785  1.00  0.00    -0.175 A  
HETATM   25 CL   UNL     1      -6.016  10.368  63.966  1.00  0.00    -0.131 Cl 
HETATM   26  C   UNL     1      -6.606   7.672  66.854  1.00  0.00    -0.062 A  
HETATM   27  C   UNL     1      -6.767   9.257  65.043  1.00  0.00    -0.078 A  
ENDBRANCH  14  21
ENDBRANCH  11  14
ENDBRANCH   7   8
ENDBRANCH   6   7
ENDBRANCH   5   6
ENDBRANCH   4   5
ENDBRANCH   2   4
TORSDOF 8
ENDMDL
MODEL       99
REMARK 921   NORMALIZED FREE ENERGY PREDICTED BY IDOCK:   -4.13 KCAL/MOL
REMARK 922        TOTAL FREE ENERGY PREDICTED BY IDOCK:   -6.30 KCAL/MOL
REMARK 923 INTER-LIGAND FREE ENERGY PREDICTED BY IDOCK:   -6.03 KCAL/MOL
REMARK 924 INTRA-LIGAND FREE ENERGY PREDICTED BY IDOCK:   -0.27 KCAL/MOL
REMARK 927      BINDING AFFINITY PREDICTED BY RF-SCORE:    0.00 PKD
ROOT
HETATM    1  O   UNL     1      -7.829   3.097  65.737  1.00  0.00    -0.083 OA 
HETATM    2  C   UNL     1      -8.389   4.383  65.979  1.00  0.00    -0.113 C  
HETATM    3  H   UNL     1      -8.177   2.473  66.363  1.00  0.00     0.000 HD 
ENDROOT
BRANCH   2   4
HETATM    4  C   UNL     1      -7.832   5.383  64.976  1.00  0.00    -0.096 C  
BRANCH   4   5
HETATM    5  O   UNL     1      -7.136   6.422  65.666  1.00  0.00    -0.062 OA 
BRANCH   5   6
HETATM    6  C   UNL     1      -7.427   7.695  65.081  1.00  0.00    -0.088 C  
BRANCH   6   7
HETATM    7  C   UNL     1      -8.674   8.291  65.748  1.00  0.00    -0.166 C  
BRANCH   7   8
HETATM    8  N   UNL     1      -8.420   8.922  67.060  1.00  0.00    -0.112 NA 
HETATM    9  C   UNL     1      -9.067  10.244  67.204  1.00  0.00    -0.142 C  
HETATM   10  C   UNL     1     -10.604  10.194  67.382  1.00  0.00    -0.272 C  
HETATM   11  N   UNL     1     -11.056   9.357  68.522  1.00  0.00    -0.015 NA 
HETATM   12  C   UNL     1     -10.428   8.022  68.354  1.00  0.00    -0.163 C  
HETATM   13  C   UNL     1      -8.891   8.038  68.153  1.00  0.00    -0.132 C  
BRANCH  11  14
HETATM   14  C   UNL     1     -10.732   9.987  69.843  1.00  0.00    -0.286 C  
BRANCH  14  15
HETATM   15  C   UNL     1     -11.568  11.253  70.103  1.00  0.00    -0.393 A  
HETATM   16  C   UNL     1     -12.580  11.230  71.085  1.00  0.00    -0.501 A  
HETATM   17  C   UNL     1     -11.274  12.484  69.493  1.00  0.00    -0.163 A  
HETATM   18  C   UNL     1     -13.237  12.404  71.469  1.00  0.00    -0.285 A  
HETATM   19  C   UNL     1     -12.910  13.616  70.869  1.00  0.00    -0.321 A  
HETATM   20  C   UNL     1     -11.940  13.654  69.869  1.00  0.00    -0.415 A  
ENDBRANCH  14  15
BRANCH  14  21
HETATM   21  C   UNL     1     -10.785   8.971  70.996  1.00  0.00    -0.339 A  
HETATM   22  C   UNL     1      -9.635   7.846  72.832  1.00  0.00    -0.329 A  
HETATM   23  C   UNL     1     -11.778   7.023  72.079  1.00  0.00    -0.332 A  
HETATM   24  C   UNL     1      -9.692   8.867  71.879  1.00  0.00    -0.349 A  
HETATM   25 CL   UNL     1     -10.592   5.651  74.075  1.00  0.00    -0.290 Cl 
HETATM   26  C   UNL     1     -11.827   8.035  71.117  1.00  0.00    -0.307 A  
HETATM   27  C   UNL     1     -10.678   6.928  72.926  1.00  0.00    -0.277 A  
ENDBRANCH  14  21
ENDBRANCH  11  14
ENDBRANCH   7   8
ENDBRANCH   6   7
ENDBRANCH   5   6
ENDBRANCH   4   5
ENDBRANCH   2   4
TORSDOF 8
ENDMDL
MODEL      100
REMARK 921   NORMALIZED FREE ENERGY PREDICTED BY IDOCK:   -4.13 KCAL/MOL
REMARK 922        TOTAL FREE ENERGY PREDICTED BY IDOCK:   -6.29 KCAL/MOL
REMARK 923 INTER-LIGAND FREE ENERGY PREDICTED BY IDOCK:   -5.49 KCAL/MOL
REMARK 924 INTRA-LIGAND FREE ENERGY PREDICTED BY IDOCK:   -0.80 KCAL/MOL
REMARK 927      BINDING AFFINITY PREDICTED BY RF-SCORE:    0.00 PKD
ROOT
HETATM    1  O   UNL     1     -10.607  17.304  67.979  1.00  0.00    -0.368 OA 
HETATM    2  C   UNL     1      -9.948  17.086  66.737  1.00  0.00    -0.295 C  
HETATM    3  H   UNL     1     -10.606  18.232  68.183  1.00  0.00     0.000 HD 
ENDROOT
BRANCH   2   4
HETATM    4  C   UNL     1      -9.948  15.600  66.409  1.00  0.00    -0.281 C  
BRANCH   4   5
HETATM    5  O   UNL     1     -10.700  15.369  65.217  1.00  0.00    -0.363 OA 
BRANCH   5   6
HETATM    6  C   UNL     1     -11.400  14.122  65.299  1.00  0.00    -0.328 C  
BRANCH   6   7
HETATM    7  C   UNL     1     -10.644  13.173  66.238  1.00  0.00    -0.284 C  
BRANCH   7   8
HETATM    8  N   UNL     1     -10.923  11.740  66.008  1.00  0.00    -0.301 NA 
HETATM    9  C   UNL     1      -9.769  11.007  65.444  1.00  0.00    -0.232 C  
HETATM   10  C   UNL     1      -8.615  10.754  66.444  1.00  0.00    -0.158 C  
HETATM   11  N   UNL     1      -9.026  10.041  67.679  1.00  0.00    -0.131 NA 
HETATM   12  C   UNL     1     -10.164  10.800  68.258  1.00  0.00    -0.167 C  
HETATM   13  C   UNL     1     -11.329  11.088  67.276  1.00  0.00    -0.188 C  
BRANCH  11  14
HETATM   14  C   UNL     1      -9.365   8.605  67.412  1.00  0.00    -0.144 C  
BRANCH  14  15
HETATM   15  C   UNL     1      -8.223   7.865  66.692  1.00  0.00    -0.119 A  
HETATM   16  C   UNL     1      -7.012   7.620  67.374  1.00  0.00    -0.084 A  
HETATM   17  C   UNL     1      -8.384   7.295  65.419  1.00  0.00    -0.127 A  
HETATM   18  C   UNL     1      -6.026   6.802  66.817  1.00  0.00    -0.025 A  
HETATM   19  C   UNL     1      -6.219   6.227  65.565  1.00  0.00    -0.037 A  
HETATM   20  C   UNL     1      -7.390   6.487  64.857  1.00  0.00    -0.076 A  
ENDBRANCH  14  15
BRANCH  14  21
HETATM   21  C   UNL     1      -9.862   7.883  68.675  1.00  0.00    -0.177 A  
HETATM   22  C   UNL     1     -11.512   6.420  69.721  1.00  0.00    -0.468 A  
HETATM   23  C   UNL     1      -9.963   7.657  71.102  1.00  0.00    -0.188 A  
HETATM   24  C   UNL     1     -10.927   6.966  68.575  1.00  0.00    -0.198 A  
HETATM   25 CL   UNL     1     -11.770   6.124  72.390  1.00  0.00    -0.342 Cl 
HETATM   26  C   UNL     1      -9.388   8.213  69.956  1.00  0.00    -0.159 A  
HETATM   27  C   UNL     1     -11.028   6.769  70.979  1.00  0.00    -0.255 A  
ENDBRANCH  14  21
ENDBRANCH  11  14
ENDBRANCH   7   8
ENDBRANCH   6   7
ENDBRANCH   5   6
ENDBRANCH   4   5
ENDBRANCH   2   4
TORSDOF 8
ENDMDL
MODEL      101
REMARK 921   NORMALIZED FREE ENERGY PREDICTED BY IDOCK:   -4.11 KCAL/MOL
REMARK 922        TOTAL FREE ENERGY PREDICTED BY IDOCK:   -6.26 KCAL/MOL
REMARK 923 INTER-LIGAND FREE ENERGY PREDICTED BY IDOCK:   -5.46 KCAL/MOL
REMARK 924 INTRA-LIGAND FREE ENERGY PREDICTED BY IDOCK:   -0.81 KCAL/MOL
REMARK 927      BINDING AFFINITY PREDICTED BY RF-SCORE:    0.00 PKD
ROOT
HETATM    1  O   UNL     1     -10.628  15.039  66.092  1.00  0.00    -0.290 OA 
HETATM    2  C   UNL     1     -10.987  14.110  65.075  1.00  0.00    -0.384 C  
HETATM    3  H   UNL     1      -9.808  15.462  65.865  1.00  0.00     0.000 HD 
ENDROOT
BRANCH   2   4
HETATM    4  C   UNL     1     -12.300  13.433  65.437  1.00  0.00    -0.477 C  
BRANCH   4   5
HETATM    5  O   UNL     1     -12.131  12.015  65.427  1.00  0.00    -0.444 OA 
BRANCH   5   6
HETATM    6  C   UNL     1     -10.880  11.654  66.021  1.00  0.00    -0.289 C  
BRANCH   6   7
HETATM    7  C   UNL     1     -11.123  11.124  67.441  1.00  0.00    -0.307 C  
BRANCH   7   8
HETATM    8  N   UNL     1      -9.943  10.489  68.064  1.00  0.00    -0.153 NA 
HETATM    9  C   UNL     1     -10.115  10.236  69.510  1.00  0.00    -0.235 C  
HETATM   10  C   UNL     1     -11.080   9.074  69.851  1.00  0.00    -0.142 C  
HETATM   11  N   UNL     1     -10.721   7.780  69.219  1.00  0.00    -0.190 NA 
HETATM   12  C   UNL     1     -10.580   8.035  67.763  1.00  0.00    -0.170 C  
HETATM   13  C   UNL     1      -9.636   9.206  67.388  1.00  0.00    -0.151 C  
BRANCH  11  14
HETATM   14  C   UNL     1      -9.485   7.185  69.824  1.00  0.00    -0.149 C  
BRANCH  14  15
HETATM   15  C   UNL     1      -9.716   6.718  71.272  1.00  0.00    -0.179 A  
HETATM   16  C   UNL     1     -10.872   5.975  71.589  1.00  0.00    -0.314 A  
HETATM   17  C   UNL     1      -8.748   6.883  72.277  1.00  0.00    -0.132 A  
HETATM   18  C   UNL     1     -11.027   5.387  72.848  1.00  0.00    -0.338 A  
HETATM   19  C   UNL     1     -10.042   5.543  73.819  1.00  0.00    -0.220 A  
HETATM   20  C   UNL     1      -8.910   6.306  73.540  1.00  0.00    -0.127 A  
ENDBRANCH  14  15
BRANCH  14  21
HETATM   21  C   UNL     1      -8.864   6.103  68.924  1.00  0.00    -0.122 A  
HETATM   22  C   UNL     1      -9.015   3.870  67.950  1.00  0.00    -0.155 A  
HETATM   23  C   UNL     1      -6.937   5.094  67.821  1.00  0.00    -0.062 A  
HETATM   24  C   UNL     1      -9.606   4.944  68.623  1.00  0.00    -0.215 A  
HETATM   25 CL   UNL     1      -6.946   2.616  66.756  1.00  0.00    -0.048 Cl 
HETATM   26  C   UNL     1      -7.524   6.161  68.507  1.00  0.00    -0.087 A  
HETATM   27  C   UNL     1      -7.683   3.950  67.554  1.00  0.00    -0.075 A  
ENDBRANCH  14  21
ENDBRANCH  11  14
ENDBRANCH   7   8
ENDBRANCH   6   7
ENDBRANCH   5   6
ENDBRANCH   4   5
ENDBRANCH   2   4
TORSDOF 8
ENDMDL
MODEL      102
REMARK 921   NORMALIZED FREE ENERGY PREDICTED BY IDOCK:   -4.06 KCAL/MOL
REMARK 922        TOTAL FREE ENERGY PREDICTED BY IDOCK:   -6.19 KCAL/MOL
REMARK 923 INTER-LIGAND FREE ENERGY PREDICTED BY IDOCK:   -6.19 KCAL/MOL
REMARK 924 INTRA-LIGAND FREE ENERGY PREDICTED BY IDOCK:   -0.00 KCAL/MOL
REMARK 927      BINDING AFFINITY PREDICTED BY RF-SCORE:    0.00 PKD
ROOT
HETATM    1  O   UNL     1      -7.203   9.044  71.602  1.00  0.00    -0.262 OA 
HETATM    2  C   UNL     1      -8.042   7.914  71.397  1.00  0.00    -0.102 C  
HETATM    3  H   UNL     1      -7.585   9.612  72.262  1.00  0.00     0.000 HD 
ENDROOT
BRANCH   2   4
HETATM    4  C   UNL     1      -7.432   7.005  70.340  1.00  0.00    -0.085 C  
BRANCH   4   5
HETATM    5  O   UNL     1      -6.890   7.793  69.280  1.00  0.00    -0.046 OA 
BRANCH   5   6
HETATM    6  C   UNL     1      -7.609   7.562  68.064  1.00  0.00    -0.110 C  
BRANCH   6   7
HETATM    7  C   UNL     1      -7.518   8.808  67.173  1.00  0.00    -0.088 C  
BRANCH   7   8
HETATM    8  N   UNL     1      -8.820   9.445  66.884  1.00  0.00    -0.127 NA 
HETATM    9  C   UNL     1      -9.797   9.297  67.984  1.00  0.00    -0.163 C  
HETATM   10  C   UNL     1      -9.502  10.168  69.229  1.00  0.00    -0.218 C  
HETATM   11  N   UNL     1      -9.382  11.619  68.941  1.00  0.00    -0.033 NA 
HETATM   12  C   UNL     1      -8.377  11.763  67.857  1.00  0.00    -0.149 C  
HETATM   13  C   UNL     1      -8.632  10.888  66.603  1.00  0.00    -0.148 C  
BRANCH  11  14
HETATM   14  C   UNL     1     -10.704  12.232  68.589  1.00  0.00    -0.233 C  
BRANCH  14  15
HETATM   15  C   UNL     1     -11.746  12.044  69.706  1.00  0.00    -0.390 A  
HETATM   16  C   UNL     1     -12.141  10.742  70.079  1.00  0.00    -0.423 A  
HETATM   17  C   UNL     1     -12.224  13.118  70.474  1.00  0.00    -0.405 A  
HETATM   18  C   UNL     1     -12.947  10.528  71.201  1.00  0.00    -0.506 A  
HETATM   19  C   UNL     1     -13.387  11.607  71.962  1.00  0.00    -0.405 A  
HETATM   20  C   UNL     1     -13.041  12.904  71.590  1.00  0.00    -0.430 A  
ENDBRANCH  14  15
BRANCH  14  21
HETATM   21  C   UNL     1     -10.560  13.691  68.126  1.00  0.00    -0.255 A  
HETATM   22  C   UNL     1     -10.884  15.358  66.373  1.00  0.00    -0.303 A  
HETATM   23  C   UNL     1      -9.507  15.886  68.286  1.00  0.00    -0.201 A  
HETATM   24  C   UNL     1     -11.136  14.090  66.904  1.00  0.00    -0.310 A  
HETATM   25 CL   UNL     1      -9.732  17.798  66.397  1.00  0.00    -0.315 Cl 
HETATM   26  C   UNL     1      -9.747  14.612  68.808  1.00  0.00    -0.217 A  
HETATM   27  C   UNL     1     -10.070  16.250  67.066  1.00  0.00    -0.270 A  
ENDBRANCH  14  21
ENDBRANCH  11  14
ENDBRANCH   7   8
ENDBRANCH   6   7
ENDBRANCH   5   6
ENDBRANCH   4   5
ENDBRANCH   2   4
TORSDOF 8
ENDMDL
MODEL      103
REMARK 921   NORMALIZED FREE ENERGY PREDICTED BY IDOCK:   -4.05 KCAL/MOL
REMARK 922        TOTAL FREE ENERGY PREDICTED BY IDOCK:   -6.19 KCAL/MOL
REMARK 923 INTER-LIGAND FREE ENERGY PREDICTED BY IDOCK:   -6.18 KCAL/MOL
REMARK 924 INTRA-LIGAND FREE ENERGY PREDICTED BY IDOCK:   -0.01 KCAL/MOL
REMARK 927      BINDING AFFINITY PREDICTED BY RF-SCORE:    0.00 PKD
ROOT
HETATM    1  O   UNL     1      -5.968   8.225  68.511  1.00  0.00    -0.039 OA 
HETATM    2  C   UNL     1      -5.990   9.090  67.381  1.00  0.00    -0.050 C  
HETATM    3  H   UNL     1      -5.383   8.577  69.173  1.00  0.00     0.000 HD 
ENDROOT
BRANCH   2   4
HETATM    4  C   UNL     1      -6.924   8.526  66.321  1.00  0.00    -0.077 C  
BRANCH   4   5
HETATM    5  O   UNL     1      -8.234   8.366  66.867  1.00  0.00    -0.101 OA 
BRANCH   5   6
HETATM    6  C   UNL     1      -9.228   8.714  65.899  1.00  0.00    -0.202 C  
BRANCH   6   7
HETATM    7  C   UNL     1      -9.035  10.174  65.470  1.00  0.00    -0.172 C  
BRANCH   7   8
HETATM    8  N   UNL     1     -10.198  11.046  65.737  1.00  0.00    -0.252 NA 
HETATM    9  C   UNL     1     -11.014  10.592  66.882  1.00  0.00    -0.131 C  
HETATM   10  C   UNL     1     -10.363  10.820  68.268  1.00  0.00    -0.173 C  
HETATM   11  N   UNL     1      -9.978  12.228  68.535  1.00  0.00    -0.201 NA 
HETATM   12  C   UNL     1      -9.133  12.668  67.396  1.00  0.00    -0.191 C  
HETATM   13  C   UNL     1      -9.747  12.435  65.992  1.00  0.00    -0.244 C  
BRANCH  11  14
HETATM   14  C   UNL     1     -11.176  13.107  68.740  1.00  0.00    -0.281 C  
BRANCH  14  15
HETATM   15  C   UNL     1     -11.881  12.823  70.078  1.00  0.00    -0.352 A  
HETATM   16  C   UNL     1     -12.463  13.887  70.799  1.00  0.00    -0.445 A  
HETATM   17  C   UNL     1     -12.092  11.518  70.552  1.00  0.00    -0.472 A  
HETATM   18  C   UNL     1     -13.260  13.644  71.922  1.00  0.00    -0.497 A  
HETATM   19  C   UNL     1     -13.476  12.340  72.357  1.00  0.00    -0.209 A  
HETATM   20  C   UNL     1     -12.879  11.277  71.683  1.00  0.00    -0.510 A  
ENDBRANCH  14  15
BRANCH  14  21
HETATM   21  C   UNL     1     -10.844  14.594  68.526  1.00  0.00    -0.256 A  
HETATM   22  C   UNL     1     -11.110  16.610  67.177  1.00  0.00     0.095 A  
HETATM   23  C   UNL     1      -9.414  16.535  68.895  1.00  0.00    -0.260 A  
HETATM   24  C   UNL     1     -11.504  15.310  67.508  1.00  0.00    -0.271 A  
HETATM   25 CL   UNL     1      -9.559  18.802  67.441  1.00  0.00    -0.322 Cl 
HETATM   26  C   UNL     1      -9.798  15.230  69.215  1.00  0.00    -0.255 A  
HETATM   27  C   UNL     1     -10.066  17.216  67.871  1.00  0.00    -0.308 A  
ENDBRANCH  14  21
ENDBRANCH  11  14
ENDBRANCH   7   8
ENDBRANCH   6   7
ENDBRANCH   5   6
ENDBRANCH   4   5
ENDBRANCH   2   4
TORSDOF 8
ENDMDL
MODEL      104
REMARK 921   NORMALIZED FREE ENERGY PREDICTED BY IDOCK:   -4.04 KCAL/MOL
REMARK 922        TOTAL FREE ENERGY PREDICTED BY IDOCK:   -6.17 KCAL/MOL
REMARK 923 INTER-LIGAND FREE ENERGY PREDICTED BY IDOCK:   -5.42 KCAL/MOL
REMARK 924 INTRA-LIGAND FREE ENERGY PREDICTED BY IDOCK:   -0.75 KCAL/MOL
REMARK 927      BINDING AFFINITY PREDICTED BY RF-SCORE:    0.00 PKD
ROOT
HETATM    1  O   UNL     1      -9.124   6.329  73.667  1.00  0.00    -0.127 OA 
HETATM    2  C   UNL     1     -10.411   5.979  74.165  1.00  0.00    -0.288 C  
HETATM    3  H   UNL     1      -8.551   6.555  74.390  1.00  0.00     0.000 HD 
ENDROOT
BRANCH   2   4
HETATM    4  C   UNL     1     -11.329   5.617  73.008  1.00  0.00    -0.236 C  
BRANCH   4   5
HETATM    5  O   UNL     1     -11.293   6.648  72.021  1.00  0.00    -0.255 OA 
BRANCH   5   6
HETATM    6  C   UNL     1     -10.774   6.144  70.786  1.00  0.00    -0.266 C  
BRANCH   6   7
HETATM    7  C   UNL     1      -9.606   7.025  70.326  1.00  0.00    -0.168 C  
BRANCH   7   8
HETATM    8  N   UNL     1      -9.936   8.462  70.207  1.00  0.00    -0.184 NA 
HETATM    9  C   UNL     1      -8.753   9.341  70.317  1.00  0.00    -0.219 C  
HETATM   10  C   UNL     1      -7.820   9.323  69.082  1.00  0.00    -0.086 C  
HETATM   11  N   UNL     1      -8.497   9.655  67.803  1.00  0.00    -0.125 NA 
HETATM   12  C   UNL     1      -9.666   8.747  67.684  1.00  0.00    -0.169 C  
HETATM   13  C   UNL     1     -10.610   8.726  68.914  1.00  0.00    -0.155 C  
BRANCH  11  14
HETATM   14  C   UNL     1      -8.880  11.103  67.731  1.00  0.00    -0.135 C  
BRANCH  14  15
HETATM   15  C   UNL     1      -7.658  12.032  67.846  1.00  0.00    -0.124 A  
HETATM   16  C   UNL     1      -7.707  13.145  68.712  1.00  0.00    -0.006 A  
HETATM   17  C   UNL     1      -6.433  11.740  67.224  1.00  0.00    -0.131 A  
HETATM   18  C   UNL     1      -6.562  13.903  68.974  1.00  0.00    -0.107 A  
HETATM   19  C   UNL     1      -5.354  13.579  68.365  1.00  0.00    -0.095 A  
HETATM   20  C   UNL     1      -5.292  12.508  67.476  1.00  0.00    -0.111 A  
ENDBRANCH  14  15
BRANCH  14  21
HETATM   21  C   UNL     1      -9.767  11.406  66.513  1.00  0.00    -0.226 A  
HETATM   22  C   UNL     1     -11.886  12.247  65.641  1.00  0.00    -0.423 A  
HETATM   23  C   UNL     1     -10.383  11.045  64.180  1.00  0.00    -0.434 A  
HETATM   24  C   UNL     1     -10.979  12.101  66.694  1.00  0.00    -0.325 A  
HETATM   25 CL   UNL     1     -12.715  11.867  63.102  1.00  0.00    -0.522 Cl 
HETATM   26  C   UNL     1      -9.484  10.887  65.238  1.00  0.00    -0.257 A  
HETATM   27  C   UNL     1     -11.584  11.717  64.389  1.00  0.00    -0.245 A  
ENDBRANCH  14  21
ENDBRANCH  11  14
ENDBRANCH   7   8
ENDBRANCH   6   7
ENDBRANCH   5   6
ENDBRANCH   4   5
ENDBRANCH   2   4
TORSDOF 8
ENDMDL
MODEL      105
REMARK 921   NORMALIZED FREE ENERGY PREDICTED BY IDOCK:   -4.02 KCAL/MOL
REMARK 922        TOTAL FREE ENERGY PREDICTED BY IDOCK:   -6.14 KCAL/MOL
REMARK 923 INTER-LIGAND FREE ENERGY PREDICTED BY IDOCK:   -6.16 KCAL/MOL
REMARK 924 INTRA-LIGAND FREE ENERGY PREDICTED BY IDOCK:    0.02 KCAL/MOL
REMARK 927      BINDING AFFINITY PREDICTED BY RF-SCORE:    0.00 PKD
ROOT
HETATM    1  O   UNL     1     -11.963  16.603  73.166  1.00  0.00    -0.500 OA 
HETATM    2  C   UNL     1     -12.444  15.754  72.131  1.00  0.00    -0.455 C  
HETATM    3  H   UNL     1     -11.470  17.323  72.788  1.00  0.00     0.000 HD 
ENDROOT
BRANCH   2   4
HETATM    4  C   UNL     1     -13.232  14.601  72.737  1.00  0.00    -0.497 C  
BRANCH   4   5
HETATM    5  O   UNL     1     -13.580  13.665  71.716  1.00  0.00    -0.375 OA 
BRANCH   5   6
HETATM    6  C   UNL     1     -13.762  12.359  72.274  1.00  0.00    -0.172 C  
BRANCH   6   7
HETATM    7  C   UNL     1     -12.624  11.442  71.810  1.00  0.00    -0.136 C  
BRANCH   7   8
HETATM    8  N   UNL     1     -12.873  10.768  70.517  1.00  0.00    -0.300 NA 
HETATM    9  C   UNL     1     -12.732  11.671  69.355  1.00  0.00     0.572 C  
HETATM   10  C   UNL     1     -11.273  12.062  69.016  1.00  0.00    -0.258 C  
HETATM   11  N   UNL     1     -10.372  10.905  68.785  1.00  0.00    -0.189 NA 
HETATM   12  C   UNL     1     -10.495  10.018  69.971  1.00  0.00    -0.287 C  
HETATM   13  C   UNL     1     -11.945   9.625  70.350  1.00  0.00    -0.106 C  
BRANCH  11  14
HETATM   14  C   UNL     1     -10.684  10.199  67.500  1.00  0.00    -0.290 C  
BRANCH  14  15
HETATM   15  C   UNL     1     -10.624  11.147  66.289  1.00  0.00    -0.309 A  
HETATM   16  C   UNL     1     -10.532  12.539  66.498  1.00  0.00    -0.258 A  
HETATM   17  C   UNL     1     -10.517  10.673  64.971  1.00  0.00    -0.278 A  
HETATM   18  C   UNL     1     -10.299  13.412  65.431  1.00  0.00    -0.321 A  
HETATM   19  C   UNL     1     -10.170  12.917  64.137  1.00  0.00    -0.311 A  
HETATM   20  C   UNL     1     -10.296  11.549  63.903  1.00  0.00    -0.422 A  
ENDBRANCH  14  15
BRANCH  14  21
HETATM   21  C   UNL     1      -9.842   8.924  67.322  1.00  0.00    -0.256 A  
HETATM   22  C   UNL     1      -7.672   7.915  66.845  1.00  0.00    -0.099 A  
HETATM   23  C   UNL     1      -9.658   6.540  66.840  1.00  0.00    -0.191 A  
HETATM   24  C   UNL     1      -8.446   9.032  67.174  1.00  0.00    -0.113 A  
HETATM   25 CL   UNL     1      -7.335   5.308  66.238  1.00  0.00    -0.080 Cl 
HETATM   26  C   UNL     1     -10.432   7.660  67.154  1.00  0.00    -0.412 A  
HETATM   27  C   UNL     1      -8.282   6.675  66.678  1.00  0.00    -0.112 A  
ENDBRANCH  14  21
ENDBRANCH  11  14
ENDBRANCH   7   8
ENDBRANCH   6   7
ENDBRANCH   5   6
ENDBRANCH   4   5
ENDBRANCH   2   4
TORSDOF 8
ENDMDL
MODEL      106
REMARK 921   NORMALIZED FREE ENERGY PREDICTED BY IDOCK:   -4.01 KCAL/MOL
REMARK 922        TOTAL FREE ENERGY PREDICTED BY IDOCK:   -6.13 KCAL/MOL
REMARK 923 INTER-LIGAND FREE ENERGY PREDICTED BY IDOCK:   -6.17 KCAL/MOL
REMARK 924 INTRA-LIGAND FREE ENERGY PREDICTED BY IDOCK:    0.04 KCAL/MOL
REMARK 927      BINDING AFFINITY PREDICTED BY RF-SCORE:    0.00 PKD
ROOT
HETATM    1  O   UNL     1     -10.132   3.071  63.009  1.00  0.00    -0.108 OA 
HETATM    2  C   UNL     1      -8.865   3.146  63.654  1.00  0.00    -0.092 C  
HETATM    3  H   UNL     1     -10.400   2.162  62.935  1.00  0.00     0.000 HD 
ENDROOT
BRANCH   2   4
HETATM    4  C   UNL     1      -8.434   4.600  63.772  1.00  0.00    -0.126 C  
BRANCH   4   5
HETATM    5  O   UNL     1      -7.570   4.758  64.898  1.00  0.00    -0.075 OA 
BRANCH   5   6
HETATM    6  C   UNL     1      -8.333   4.909  66.100  1.00  0.00    -0.112 C  
BRANCH   6   7
HETATM    7  C   UNL     1      -8.735   6.380  66.268  1.00  0.00    -0.143 C  
BRANCH   7   8
HETATM    8  N   UNL     1      -9.981   6.587  67.036  1.00  0.00    -0.154 NA 
HETATM    9  C   UNL     1      -9.825   6.314  68.481  1.00  0.00    -0.139 C  
HETATM   10  C   UNL     1      -9.019   7.385  69.255  1.00  0.00    -0.136 C  
HETATM   11  N   UNL     1      -9.555   8.763  69.124  1.00  0.00    -0.161 NA 
HETATM   12  C   UNL     1      -9.679   9.041  67.670  1.00  0.00    -0.156 C  
HETATM   13  C   UNL     1     -10.464   7.977  66.861  1.00  0.00    -0.317 C  
BRANCH  11  14
HETATM   14  C   UNL     1     -10.852   8.932  69.858  1.00  0.00    -0.211 C  
BRANCH  14  15
HETATM   15  C   UNL     1     -10.879   8.138  71.176  1.00  0.00    -0.268 A  
HETATM   16  C   UNL     1     -11.804   7.085  71.337  1.00  0.00    -0.359 A  
HETATM   17  C   UNL     1      -9.920   8.328  72.185  1.00  0.00    -0.343 A  
HETATM   18  C   UNL     1     -11.739   6.233  72.444  1.00  0.00    -0.301 A  
HETATM   19  C   UNL     1     -10.764   6.425  73.418  1.00  0.00    -0.286 A  
HETATM   20  C   UNL     1      -9.865   7.483  73.299  1.00  0.00    -0.343 A  
ENDBRANCH  14  15
BRANCH  14  21
HETATM   21  C   UNL     1     -11.231  10.413  70.027  1.00  0.00    -0.385 A  
HETATM   22  C   UNL     1     -12.472  12.113  71.262  1.00  0.00    -0.290 A  
HETATM   23  C   UNL     1     -11.484  12.666  69.128  1.00  0.00    -0.359 A  
HETATM   24  C   UNL     1     -11.969  10.813  71.158  1.00  0.00    -0.361 A  
HETATM   25 CL   UNL     1     -12.878  14.622  70.356  1.00  0.00    -0.366 Cl 
HETATM   26  C   UNL     1     -10.994  11.362  69.019  1.00  0.00    -0.288 A  
HETATM   27  C   UNL     1     -12.229  13.033  70.245  1.00  0.00    -0.296 A  
ENDBRANCH  14  21
ENDBRANCH  11  14
ENDBRANCH   7   8
ENDBRANCH   6   7
ENDBRANCH   5   6
ENDBRANCH   4   5
ENDBRANCH   2   4
TORSDOF 8
ENDMDL
MODEL      107
REMARK 921   NORMALIZED FREE ENERGY PREDICTED BY IDOCK:   -4.00 KCAL/MOL
REMARK 922        TOTAL FREE ENERGY PREDICTED BY IDOCK:   -6.11 KCAL/MOL
REMARK 923 INTER-LIGAND FREE ENERGY PREDICTED BY IDOCK:   -6.04 KCAL/MOL
REMARK 924 INTRA-LIGAND FREE ENERGY PREDICTED BY IDOCK:   -0.07 KCAL/MOL
REMARK 927      BINDING AFFINITY PREDICTED BY RF-SCORE:    0.00 PKD
ROOT
HETATM    1  O   UNL     1     -10.750  20.203  68.591  1.00  0.00    -0.373 OA 
HETATM    2  C   UNL     1     -10.475  19.923  67.223  1.00  0.00    -0.421 C  
HETATM    3  H   UNL     1     -10.521  21.105  68.786  1.00  0.00     0.000 HD 
ENDROOT
BRANCH   2   4
HETATM    4  C   UNL     1     -10.841  18.480  66.909  1.00  0.00    -0.157 C  
BRANCH   4   5
HETATM    5  O   UNL     1     -10.066  18.015  65.804  1.00  0.00    -0.564 OA 
BRANCH   5   6
HETATM    6  C   UNL     1      -9.301  16.864  66.175  1.00  0.00    -0.236 C  
BRANCH   6   7
HETATM    7  C   UNL     1      -9.711  16.410  67.582  1.00  0.00    -0.238 C  
BRANCH   7   8
HETATM    8  N   UNL     1      -8.875  15.327  68.141  1.00  0.00    -0.168 NA 
HETATM    9  C   UNL     1      -9.532  14.596  69.246  1.00  0.00     0.006 C  
HETATM   10  C   UNL     1     -10.680  13.656  68.804  1.00  0.00    -0.244 C  
HETATM   11  N   UNL     1     -10.285  12.650  67.787  1.00  0.00    -0.217 NA 
HETATM   12  C   UNL     1      -9.655  13.394  66.666  1.00  0.00    -0.270 C  
HETATM   13  C   UNL     1      -8.514  14.360  67.076  1.00  0.00    -0.181 C  
BRANCH  11  14
HETATM   14  C   UNL     1      -9.385  11.597  68.359  1.00  0.00    -0.191 C  
BRANCH  14  15
HETATM   15  C   UNL     1     -10.111  10.715  69.392  1.00  0.00    -0.199 A  
HETATM   16  C   UNL     1      -9.520   9.505  69.814  1.00  0.00    -0.228 A  
HETATM   17  C   UNL     1     -11.284  11.133  70.043  1.00  0.00    -0.261 A  
HETATM   18  C   UNL     1     -10.061   8.772  70.874  1.00  0.00    -0.276 A  
HETATM   19  C   UNL     1     -11.209   9.219  71.520  1.00  0.00    -0.457 A  
HETATM   20  C   UNL     1     -11.832  10.391  71.094  1.00  0.00    -0.432 A  
ENDBRANCH  14  15
BRANCH  14  21
HETATM   21  C   UNL     1      -8.667  10.791  67.264  1.00  0.00    -0.130 A  
HETATM   22  C   UNL     1      -6.571  10.148  66.192  1.00  0.00    -0.098 A  
HETATM   23  C   UNL     1      -8.672   9.641  65.113  1.00  0.00    -0.192 A  
HETATM   24  C   UNL     1      -7.260  10.728  67.261  1.00  0.00    -0.096 A  
HETATM   25 CL   UNL     1      -6.432   8.926  63.791  1.00  0.00    -0.087 Cl 
HETATM   26  C   UNL     1      -9.359  10.234  66.175  1.00  0.00    -0.211 A  
HETATM   27  C   UNL     1      -7.280   9.609  65.122  1.00  0.00    -0.115 A  
ENDBRANCH  14  21
ENDBRANCH  11  14
ENDBRANCH   7   8
ENDBRANCH   6   7
ENDBRANCH   5   6
ENDBRANCH   4   5
ENDBRANCH   2   4
TORSDOF 8
ENDMDL
MODEL      108
REMARK 921   NORMALIZED FREE ENERGY PREDICTED BY IDOCK:   -3.97 KCAL/MOL
REMARK 922        TOTAL FREE ENERGY PREDICTED BY IDOCK:   -6.07 KCAL/MOL
REMARK 923 INTER-LIGAND FREE ENERGY PREDICTED BY IDOCK:   -5.79 KCAL/MOL
REMARK 924 INTRA-LIGAND FREE ENERGY PREDICTED BY IDOCK:   -0.27 KCAL/MOL
REMARK 927      BINDING AFFINITY PREDICTED BY RF-SCORE:    0.00 PKD
ROOT
HETATM    1  O   UNL     1     -11.453   2.356  63.572  1.00  0.00    -0.555 OA 
HETATM    2  C   UNL     1     -10.221   3.030  63.798  1.00  0.00    -0.189 C  
HETATM    3  H   UNL     1     -12.121   2.983  63.322  1.00  0.00     0.000 HD 
ENDROOT
BRANCH   2   4
HETATM    4  C   UNL     1      -9.150   2.026  64.199  1.00  0.00    -0.110 C  
BRANCH   4   5
HETATM    5  O   UNL     1      -9.107   1.909  65.622  1.00  0.00    -0.122 OA 
BRANCH   5   6
HETATM    6  C   UNL     1      -7.880   2.439  66.133  1.00  0.00    -0.080 C  
BRANCH   6   7
HETATM    7  C   UNL     1      -7.976   2.570  67.658  1.00  0.00    -0.064 C  
BRANCH   7   8
HETATM    8  N   UNL     1      -7.618   3.907  68.178  1.00  0.00    -0.066 NA 
HETATM    9  C   UNL     1      -7.952   5.003  67.243  1.00  0.00    -0.099 C  
HETATM   10  C   UNL     1      -9.465   5.312  67.126  1.00  0.00    -0.127 C  
HETATM   11  N   UNL     1     -10.123   5.623  68.420  1.00  0.00    -0.160 NA 
HETATM   12  C   UNL     1      -9.810   4.503  69.344  1.00  0.00    -0.190 C  
HETATM   13  C   UNL     1      -8.305   4.154  69.469  1.00  0.00    -0.057 C  
BRANCH  11  14
HETATM   14  C   UNL     1      -9.698   6.955  68.960  1.00  0.00    -0.150 C  
BRANCH  14  15
HETATM   15  C   UNL     1      -9.364   7.955  67.838  1.00  0.00    -0.150 A  
HETATM   16  C   UNL     1     -10.360   8.315  66.907  1.00  0.00    -0.391 A  
HETATM   17  C   UNL     1      -8.137   8.636  67.782  1.00  0.00    -0.107 A  
HETATM   18  C   UNL     1     -10.146   9.347  65.988  1.00  0.00    -0.302 A  
HETATM   19  C   UNL     1      -8.931  10.025  65.968  1.00  0.00    -0.174 A  
HETATM   20  C   UNL     1      -7.919   9.659  66.853  1.00  0.00    -0.105 A  
ENDBRANCH  14  15
BRANCH  14  21
HETATM   21  C   UNL     1     -10.695   7.505  69.994  1.00  0.00    -0.248 A  
HETATM   22  C   UNL     1     -12.767   7.206  71.247  1.00  0.00    -0.412 A  
HETATM   23  C   UNL     1     -11.684   9.365  71.222  1.00  0.00    -0.432 A  
HETATM   24  C   UNL     1     -11.751   6.687  70.439  1.00  0.00    -0.446 A  
HETATM   25 CL   UNL     1     -13.998   9.191  72.598  1.00  0.00    -0.464 Cl 
HETATM   26  C   UNL     1     -10.677   8.849  70.403  1.00  0.00    -0.261 A  
HETATM   27  C   UNL     1     -12.730   8.543  71.633  1.00  0.00    -0.332 A  
ENDBRANCH  14  21
ENDBRANCH  11  14
ENDBRANCH   7   8
ENDBRANCH   6   7
ENDBRANCH   5   6
ENDBRANCH   4   5
ENDBRANCH   2   4
TORSDOF 8
ENDMDL
MODEL      109
REMARK 921   NORMALIZED FREE ENERGY PREDICTED BY IDOCK:   -3.94 KCAL/MOL
REMARK 922        TOTAL FREE ENERGY PREDICTED BY IDOCK:   -6.02 KCAL/MOL
REMARK 923 INTER-LIGAND FREE ENERGY PREDICTED BY IDOCK:   -5.07 KCAL/MOL
REMARK 924 INTRA-LIGAND FREE ENERGY PREDICTED BY IDOCK:   -0.95 KCAL/MOL
REMARK 927      BINDING AFFINITY PREDICTED BY RF-SCORE:    0.00 PKD
ROOT
HETATM    1  O   UNL     1     -11.524   2.047  63.624  1.00  0.00    -0.611 OA 
HETATM    2  C   UNL     1     -10.790   3.187  63.190  1.00  0.00    -0.196 C  
HETATM    3  H   UNL     1     -12.041   1.706  62.904  1.00  0.00     0.000 HD 
ENDROOT
BRANCH   2   4
HETATM    4  C   UNL     1      -9.961   3.734  64.342  1.00  0.00    -0.197 C  
BRANCH   4   5
HETATM    5  O   UNL     1      -9.489   2.657  65.152  1.00  0.00    -0.131 OA 
BRANCH   5   6
HETATM    6  C   UNL     1      -9.042   3.142  66.423  1.00  0.00    -0.154 C  
BRANCH   6   7
HETATM    7  C   UNL     1      -9.996   4.239  66.915  1.00  0.00    -0.142 C  
BRANCH   7   8
HETATM    8  N   UNL     1      -9.347   5.293  67.723  1.00  0.00    -0.116 NA 
HETATM    9  C   UNL     1      -8.244   5.973  67.011  1.00  0.00    -0.105 C  
HETATM   10  C   UNL     1      -8.699   6.936  65.887  1.00  0.00    -0.134 C  
HETATM   11  N   UNL     1      -9.648   7.987  66.333  1.00  0.00    -0.214 NA 
HETATM   12  C   UNL     1     -10.768   7.294  67.019  1.00  0.00    -0.336 C  
HETATM   13  C   UNL     1     -10.345   6.307  68.137  1.00  0.00    -0.195 C  
BRANCH  11  14
HETATM   14  C   UNL     1      -8.982   9.010  67.203  1.00  0.00    -0.130 C  
BRANCH  14  15
HETATM   15  C   UNL     1      -7.625   9.461  66.631  1.00  0.00    -0.094 A  
HETATM   16  C   UNL     1      -7.547   9.917  65.298  1.00  0.00    -0.130 A  
HETATM   17  C   UNL     1      -6.474   9.570  67.429  1.00  0.00    -0.069 A  
HETATM   18  C   UNL     1      -6.375  10.496  64.804  1.00  0.00    -0.010 A  
HETATM   19  C   UNL     1      -5.255  10.616  65.622  1.00  0.00    -0.118 A  
HETATM   20  C   UNL     1      -5.298  10.138  66.930  1.00  0.00    -0.041 A  
ENDBRANCH  14  15
BRANCH  14  21
HETATM   21  C   UNL     1      -9.921  10.179  67.543  1.00  0.00    -0.231 A  
HETATM   22  C   UNL     1     -11.244  12.077  66.766  1.00  0.00    -0.376 A  
HETATM   23  C   UNL     1     -10.825  11.797  69.128  1.00  0.00    -0.221 A  
HETATM   24  C   UNL     1     -10.521  10.911  66.499  1.00  0.00    -0.308 A  
HETATM   25 CL   UNL     1     -12.251  13.969  68.405  1.00  0.00    -0.309 Cl 
HETATM   26  C   UNL     1     -10.091  10.640  68.859  1.00  0.00    -0.215 A  
HETATM   27  C   UNL     1     -11.391  12.516  68.079  1.00  0.00    -0.289 A  
ENDBRANCH  14  21
ENDBRANCH  11  14
ENDBRANCH   7   8
ENDBRANCH   6   7
ENDBRANCH   5   6
ENDBRANCH   4   5
ENDBRANCH   2   4
TORSDOF 8
ENDMDL
MODEL      110
REMARK 921   NORMALIZED FREE ENERGY PREDICTED BY IDOCK:   -3.89 KCAL/MOL
REMARK 922        TOTAL FREE ENERGY PREDICTED BY IDOCK:   -5.95 KCAL/MOL
REMARK 923 INTER-LIGAND FREE ENERGY PREDICTED BY IDOCK:   -5.14 KCAL/MOL
REMARK 924 INTRA-LIGAND FREE ENERGY PREDICTED BY IDOCK:   -0.82 KCAL/MOL
REMARK 927      BINDING AFFINITY PREDICTED BY RF-SCORE:    0.00 PKD
ROOT
HETATM    1  O   UNL     1      -6.894  10.937  63.159  1.00  0.00    -0.351 OA 
HETATM    2  C   UNL     1      -8.085  10.730  62.408  1.00  0.00    -0.194 C  
HETATM    3  H   UNL     1      -6.644  11.853  63.118  1.00  0.00     0.000 HD 
ENDROOT
BRANCH   2   4
HETATM    4  C   UNL     1      -8.486   9.264  62.473  1.00  0.00    -0.203 C  
BRANCH   4   5
HETATM    5  O   UNL     1      -8.620   8.859  63.836  1.00  0.00    -0.175 OA 
BRANCH   5   6
HETATM    6  C   UNL     1      -7.853   7.677  64.087  1.00  0.00    -0.133 C  
BRANCH   6   7
HETATM    7  C   UNL     1      -7.450   7.635  65.567  1.00  0.00    -0.077 C  
BRANCH   7   8
HETATM    8  N   UNL     1      -8.229   6.680  66.383  1.00  0.00    -0.112 NA 
HETATM    9  C   UNL     1      -7.454   6.107  67.504  1.00  0.00    -0.082 C  
HETATM   10  C   UNL     1      -7.189   7.087  68.672  1.00  0.00    -0.094 C  
HETATM   11  N   UNL     1      -8.417   7.689  69.250  1.00  0.00    -0.137 NA 
HETATM   12  C   UNL     1      -9.175   8.291  68.123  1.00  0.00    -0.134 C  
HETATM   13  C   UNL     1      -9.439   7.341  66.927  1.00  0.00    -0.164 C  
BRANCH  11  14
HETATM   14  C   UNL     1      -9.224   6.688  70.020  1.00  0.00    -0.158 C  
BRANCH  14  15
HETATM   15  C   UNL     1      -8.407   6.029  71.147  1.00  0.00    -0.124 A  
HETATM   16  C   UNL     1      -7.762   6.839  72.105  1.00  0.00    -0.095 A  
HETATM   17  C   UNL     1      -8.389   4.639  71.346  1.00  0.00    -0.108 A  
HETATM   18  C   UNL     1      -7.162   6.277  73.236  1.00  0.00    -0.087 A  
HETATM   19  C   UNL     1      -7.180   4.898  73.424  1.00  0.00    -0.085 A  
HETATM   20  C   UNL     1      -7.778   4.077  72.471  1.00  0.00    -0.074 A  
ENDBRANCH  14  15
BRANCH  14  21
HETATM   21  C   UNL     1     -10.565   7.270  70.497  1.00  0.00    -0.237 A  
HETATM   22  C   UNL     1     -11.779   9.109  71.546  1.00  0.00    -0.433 A  
HETATM   23  C   UNL     1     -12.880   6.985  71.212  1.00  0.00    -0.376 A  
HETATM   24  C   UNL     1     -10.619   8.601  70.953  1.00  0.00    -0.265 A  
HETATM   25 CL   UNL     1     -14.318   8.911  72.435  1.00  0.00    -0.474 Cl 
HETATM   26  C   UNL     1     -11.716   6.474  70.632  1.00  0.00    -0.436 A  
HETATM   27  C   UNL     1     -12.903   8.298  71.674  1.00  0.00    -0.329 A  
ENDBRANCH  14  21
ENDBRANCH  11  14
ENDBRANCH   7   8
ENDBRANCH   6   7
ENDBRANCH   5   6
ENDBRANCH   4   5
ENDBRANCH   2   4
TORSDOF 8
ENDMDL
MODEL      111
REMARK 921   NORMALIZED FREE ENERGY PREDICTED BY IDOCK:   -3.89 KCAL/MOL
REMARK 922        TOTAL FREE ENERGY PREDICTED BY IDOCK:   -5.95 KCAL/MOL
REMARK 923 INTER-LIGAND FREE ENERGY PREDICTED BY IDOCK:   -6.48 KCAL/MOL
REMARK 924 INTRA-LIGAND FREE ENERGY PREDICTED BY IDOCK:    0.53 KCAL/MOL
REMARK 927      BINDING AFFINITY PREDICTED BY RF-SCORE:    0.00 PKD
ROOT
HETATM    1  O   UNL     1     -11.470   6.228  68.975  1.00  0.00    -0.540 OA 
HETATM    2  C   UNL     1     -10.415   5.413  69.473  1.00  0.00    -0.273 C  
HETATM    3  H   UNL     1     -11.876   6.700  69.693  1.00  0.00     0.000 HD 
ENDROOT
BRANCH   2   4
HETATM    4  C   UNL     1      -9.765   4.656  68.324  1.00  0.00    -0.131 C  
BRANCH   4   5
HETATM    5  O   UNL     1     -10.004   5.343  67.096  1.00  0.00    -0.144 OA 
BRANCH   5   6
HETATM    6  C   UNL     1      -8.792   5.465  66.345  1.00  0.00    -0.123 C  
BRANCH   6   7
HETATM    7  C   UNL     1      -8.626   6.917  65.875  1.00  0.00    -0.145 C  
BRANCH   7   8
HETATM    8  N   UNL     1      -8.583   7.909  66.970  1.00  0.00    -0.126 NA 
HETATM    9  C   UNL     1      -7.624   9.007  66.722  1.00  0.00    -0.090 C  
HETATM   10  C   UNL     1      -8.073  10.024  65.644  1.00  0.00    -0.138 C  
HETATM   11  N   UNL     1      -9.394  10.647  65.910  1.00  0.00    -0.181 NA 
HETATM   12  C   UNL     1     -10.359   9.539  66.127  1.00  0.00    -0.118 C  
HETATM   13  C   UNL     1      -9.930   8.491  67.185  1.00  0.00    -0.238 C  
BRANCH  11  14
HETATM   14  C   UNL     1      -9.342  11.602  67.064  1.00  0.00    -0.181 C  
BRANCH  14  15
HETATM   15  C   UNL     1      -9.589  13.057  66.624  1.00  0.00    -0.259 A  
HETATM   16  C   UNL     1      -8.972  14.112  67.328  1.00  0.00    -0.221 A  
HETATM   17  C   UNL     1     -10.299  13.376  65.455  1.00  0.00    -0.321 A  
HETATM   18  C   UNL     1      -9.030  15.425  66.852  1.00  0.00    -0.273 A  
HETATM   19  C   UNL     1      -9.718  15.713  65.677  1.00  0.00    -0.348 A  
HETATM   20  C   UNL     1     -10.367  14.692  64.986  1.00  0.00    -0.432 A  
ENDBRANCH  14  15
BRANCH  14  21
HETATM   21  C   UNL     1     -10.243  11.154  68.227  1.00  0.00    -0.197 A  
HETATM   22  C   UNL     1     -12.386  11.324  69.382  1.00  0.00    -0.216 A  
HETATM   23  C   UNL     1     -10.536  10.197  70.451  1.00  0.00    -0.287 A  
HETATM   24  C   UNL     1     -11.587  11.573  68.262  1.00  0.00    -0.378 A  
HETATM   25 CL   UNL     1     -12.828  10.364  71.864  1.00  0.00    -0.542 Cl 
HETATM   26  C   UNL     1      -9.735  10.459  69.337  1.00  0.00    -0.222 A  
HETATM   27  C   UNL     1     -11.856  10.639  70.472  1.00  0.00    -0.357 A  
ENDBRANCH  14  21
ENDBRANCH  11  14
ENDBRANCH   7   8
ENDBRANCH   6   7
ENDBRANCH   5   6
ENDBRANCH   4   5
ENDBRANCH   2   4
TORSDOF 8
ENDMDL
MODEL      112
REMARK 921   NORMALIZED FREE ENERGY PREDICTED BY IDOCK:   -3.88 KCAL/MOL
REMARK 922        TOTAL FREE ENERGY PREDICTED BY IDOCK:   -5.94 KCAL/MOL
REMARK 923 INTER-LIGAND FREE ENERGY PREDICTED BY IDOCK:   -5.00 KCAL/MOL
REMARK 924 INTRA-LIGAND FREE ENERGY PREDICTED BY IDOCK:   -0.93 KCAL/MOL
REMARK 927      BINDING AFFINITY PREDICTED BY RF-SCORE:    0.00 PKD
ROOT
HETATM    1  O   UNL     1      -8.663   4.015  63.922  1.00  0.00    -0.104 OA 
HETATM    2  C   UNL     1      -8.269   4.474  62.634  1.00  0.00    -0.080 C  
HETATM    3  H   UNL     1      -9.481   3.536  63.855  1.00  0.00     0.000 HD 
ENDROOT
BRANCH   2   4
HETATM    4  C   UNL     1      -6.960   5.242  62.740  1.00  0.00    -0.037 C  
BRANCH   4   5
HETATM    5  O   UNL     1      -7.193   6.630  62.496  1.00  0.00    -0.046 OA 
BRANCH   5   6
HETATM    6  C   UNL     1      -6.479   7.432  63.442  1.00  0.00    -0.053 C  
BRANCH   6   7
HETATM    7  C   UNL     1      -6.845   6.991  64.865  1.00  0.00    -0.047 C  
BRANCH   7   8
HETATM    8  N   UNL     1      -8.251   7.252  65.241  1.00  0.00    -0.134 NA 
HETATM    9  C   UNL     1      -8.601   6.730  66.579  1.00  0.00    -0.128 C  
HETATM   10  C   UNL     1      -8.002   7.532  67.761  1.00  0.00    -0.118 C  
HETATM   11  N   UNL     1      -8.343   8.977  67.750  1.00  0.00    -0.117 NA 
HETATM   12  C   UNL     1      -7.960   9.501  66.414  1.00  0.00    -0.111 C  
HETATM   13  C   UNL     1      -8.527   8.708  65.208  1.00  0.00    -0.179 C  
BRANCH  11  14
HETATM   14  C   UNL     1      -9.788   9.215  68.071  1.00  0.00    -0.168 C  
BRANCH  14  15
HETATM   15  C   UNL     1     -10.193   8.586  69.417  1.00  0.00    -0.211 A  
HETATM   16  C   UNL     1      -9.845   9.234  70.621  1.00  0.00    -0.332 A  
HETATM   17  C   UNL     1     -11.022   7.455  69.497  1.00  0.00    -0.155 A  
HETATM   18  C   UNL     1     -10.345   8.788  71.848  1.00  0.00    -0.414 A  
HETATM   19  C   UNL     1     -11.186   7.680  71.899  1.00  0.00    -0.299 A  
HETATM   20  C   UNL     1     -11.511   7.002  70.727  1.00  0.00    -0.360 A  
ENDBRANCH  14  15
BRANCH  14  21
HETATM   21  C   UNL     1     -10.172  10.699  67.948  1.00  0.00    -0.206 A  
HETATM   22  C   UNL     1     -11.600  12.401  66.940  1.00  0.00    -0.437 A  
HETATM   23  C   UNL     1      -9.628  13.067  68.166  1.00  0.00    -0.227 A  
HETATM   24  C   UNL     1     -11.316  11.059  67.211  1.00  0.00    -0.265 A  
HETATM   25 CL   UNL     1     -11.084  15.047  67.054  1.00  0.00    -0.330 Cl 
HETATM   26  C   UNL     1      -9.338  11.725  68.424  1.00  0.00    -0.185 A  
HETATM   27  C   UNL     1     -10.754  13.398  67.417  1.00  0.00    -0.262 A  
ENDBRANCH  14  21
ENDBRANCH  11  14
ENDBRANCH   7   8
ENDBRANCH   6   7
ENDBRANCH   5   6
ENDBRANCH   4   5
ENDBRANCH   2   4
TORSDOF 8
ENDMDL
MODEL      113
REMARK 921   NORMALIZED FREE ENERGY PREDICTED BY IDOCK:   -3.84 KCAL/MOL
REMARK 922        TOTAL FREE ENERGY PREDICTED BY IDOCK:   -5.88 KCAL/MOL
REMARK 923 INTER-LIGAND FREE ENERGY PREDICTED BY IDOCK:   -4.91 KCAL/MOL
REMARK 924 INTRA-LIGAND FREE ENERGY PREDICTED BY IDOCK:   -0.97 KCAL/MOL
REMARK 927      BINDING AFFINITY PREDICTED BY RF-SCORE:    0.00 PKD
ROOT
HETATM    1  O   UNL     1      -8.076  10.663  64.591  1.00  0.00    -0.319 OA 
HETATM    2  C   UNL     1      -7.985   9.994  65.844  1.00  0.00    -0.124 C  
HETATM    3  H   UNL     1      -8.727  11.353  64.642  1.00  0.00     0.000 HD 
ENDROOT
BRANCH   2   4
HETATM    4  C   UNL     1      -6.943   8.889  65.762  1.00  0.00    -0.080 C  
BRANCH   4   5
HETATM    5  O   UNL     1      -7.092   8.174  64.535  1.00  0.00    -0.073 OA 
BRANCH   5   6
HETATM    6  C   UNL     1      -8.034   7.107  64.686  1.00  0.00    -0.114 C  
BRANCH   6   7
HETATM    7  C   UNL     1      -7.591   6.195  65.838  1.00  0.00    -0.087 C  
BRANCH   7   8
HETATM    8  N   UNL     1      -8.706   5.603  66.608  1.00  0.00    -0.116 NA 
HETATM    9  C   UNL     1      -8.251   4.724  67.706  1.00  0.00    -0.100 C  
HETATM   10  C   UNL     1      -7.640   5.469  68.918  1.00  0.00    -0.087 C  
HETATM   11  N   UNL     1      -8.534   6.492  69.516  1.00  0.00    -0.130 NA 
HETATM   12  C   UNL     1      -8.962   7.390  68.413  1.00  0.00    -0.134 C  
HETATM   13  C   UNL     1      -9.560   6.673  67.176  1.00  0.00    -0.138 C  
BRANCH  11  14
HETATM   14  C   UNL     1      -9.692   5.871  70.238  1.00  0.00    -0.169 C  
BRANCH  14  15
HETATM   15  C   UNL     1      -9.236   4.826  71.273  1.00  0.00    -0.191 A  
HETATM   16  C   UNL     1      -8.419   5.225  72.352  1.00  0.00    -0.122 A  
HETATM   17  C   UNL     1      -9.715   3.506  71.267  1.00  0.00    -0.237 A  
HETATM   18  C   UNL     1      -8.133   4.346  73.401  1.00  0.00    -0.095 A  
HETATM   19  C   UNL     1      -8.641   3.050  73.385  1.00  0.00    -0.077 A  
HETATM   20  C   UNL     1      -9.418   2.623  72.311  1.00  0.00    -0.173 A  
ENDBRANCH  14  15
BRANCH  14  21
HETATM   21  C   UNL     1     -10.648   6.928  70.816  1.00  0.00    -0.245 A  
HETATM   22  C   UNL     1     -12.937   7.609  71.318  1.00  0.00    -0.287 A  
HETATM   23  C   UNL     1     -11.150   9.229  71.452  1.00  0.00    -0.437 A  
HETATM   24  C   UNL     1     -12.015   6.622  70.956  1.00  0.00    -0.415 A  
HETATM   25 CL   UNL     1     -13.637  10.130  71.976  1.00  0.00    -0.402 Cl 
HETATM   26  C   UNL     1     -10.232   8.245  71.075  1.00  0.00    -0.230 A  
HETATM   27  C   UNL     1     -12.500   8.908  71.563  1.00  0.00    -0.324 A  
ENDBRANCH  14  21
ENDBRANCH  11  14
ENDBRANCH   7   8
ENDBRANCH   6   7
ENDBRANCH   5   6
ENDBRANCH   4   5
ENDBRANCH   2   4
TORSDOF 8
ENDMDL
MODEL      114
REMARK 921   NORMALIZED FREE ENERGY PREDICTED BY IDOCK:   -3.83 KCAL/MOL
REMARK 922        TOTAL FREE ENERGY PREDICTED BY IDOCK:   -5.85 KCAL/MOL
REMARK 923 INTER-LIGAND FREE ENERGY PREDICTED BY IDOCK:   -5.57 KCAL/MOL
REMARK 924 INTRA-LIGAND FREE ENERGY PREDICTED BY IDOCK:   -0.28 KCAL/MOL
REMARK 927      BINDING AFFINITY PREDICTED BY RF-SCORE:    0.00 PKD
ROOT
HETATM    1  O   UNL     1     -11.950  13.469  63.163  1.00  0.00    -0.776 OA 
HETATM    2  C   UNL     1     -11.253  13.787  64.362  1.00  0.00    -0.352 C  
HETATM    3  H   UNL     1     -11.651  14.032  62.458  1.00  0.00     0.000 HD 
ENDROOT
BRANCH   2   4
HETATM    4  C   UNL     1     -11.732  12.886  65.490  1.00  0.00    -0.383 C  
BRANCH   4   5
HETATM    5  O   UNL     1     -10.792  12.914  66.564  1.00  0.00    -0.266 OA 
BRANCH   5   6
HETATM    6  C   UNL     1     -11.458  12.747  67.819  1.00  0.00    -0.326 C  
BRANCH   6   7
HETATM    7  C   UNL     1     -10.650  11.787  68.703  1.00  0.00    -0.223 C  
BRANCH   7   8
HETATM    8  N   UNL     1     -11.175  10.406  68.739  1.00  0.00    -0.251 NA 
HETATM    9  C   UNL     1     -10.818   9.616  67.541  1.00  0.00    -0.198 C  
HETATM   10  C   UNL     1      -9.332   9.186  67.472  1.00  0.00    -0.135 C  
HETATM   11  N   UNL     1      -8.864   8.423  68.656  1.00  0.00    -0.136 NA 
HETATM   12  C   UNL     1      -9.198   9.236  69.854  1.00  0.00    -0.195 C  
HETATM   13  C   UNL     1     -10.674   9.701  69.943  1.00  0.00    -0.252 C  
BRANCH  11  14
HETATM   14  C   UNL     1      -9.459   7.048  68.707  1.00  0.00    -0.136 C  
BRANCH  14  15
HETATM   15  C   UNL     1      -8.812   6.099  67.682  1.00  0.00    -0.103 A  
HETATM   16  C   UNL     1      -7.775   6.573  66.851  1.00  0.00    -0.100 A  
HETATM   17  C   UNL     1      -9.119   4.729  67.630  1.00  0.00    -0.128 A  
HETATM   18  C   UNL     1      -7.049   5.699  66.037  1.00  0.00    -0.068 A  
HETATM   19  C   UNL     1      -7.354   4.341  66.022  1.00  0.00    -0.080 A  
HETATM   20  C   UNL     1      -8.400   3.858  66.805  1.00  0.00    -0.100 A  
ENDBRANCH  14  15
BRANCH  14  21
HETATM   21  C   UNL     1      -9.481   6.480  70.136  1.00  0.00    -0.164 A  
HETATM   22  C   UNL     1     -10.788   5.756  72.066  1.00  0.00    -0.306 A  
HETATM   23  C   UNL     1      -8.404   6.073  72.287  1.00  0.00    -0.113 A  
HETATM   24  C   UNL     1     -10.712   6.116  70.717  1.00  0.00    -0.326 A  
HETATM   25 CL   UNL     1      -9.734   5.328  74.512  1.00  0.00    -0.172 Cl 
HETATM   26  C   UNL     1      -8.331   6.447  70.943  1.00  0.00    -0.126 A  
HETATM   27  C   UNL     1      -9.635   5.738  72.844  1.00  0.00    -0.155 A  
ENDBRANCH  14  21
ENDBRANCH  11  14
ENDBRANCH   7   8
ENDBRANCH   6   7
ENDBRANCH   5   6
ENDBRANCH   4   5
ENDBRANCH   2   4
TORSDOF 8
ENDMDL
MODEL      115
REMARK 921   NORMALIZED FREE ENERGY PREDICTED BY IDOCK:   -3.82 KCAL/MOL
REMARK 922        TOTAL FREE ENERGY PREDICTED BY IDOCK:   -5.85 KCAL/MOL
REMARK 923 INTER-LIGAND FREE ENERGY PREDICTED BY IDOCK:   -6.08 KCAL/MOL
REMARK 924 INTRA-LIGAND FREE ENERGY PREDICTED BY IDOCK:    0.24 KCAL/MOL
REMARK 927      BINDING AFFINITY PREDICTED BY RF-SCORE:    0.00 PKD
ROOT
HETATM    1  O   UNL     1      -8.476   6.784  71.667  1.00  0.00    -0.115 OA 
HETATM    2  C   UNL     1      -9.749   6.200  71.416  1.00  0.00    -0.167 C  
HETATM    3  H   UNL     1      -8.448   7.123  72.555  1.00  0.00     0.000 HD 
ENDROOT
BRANCH   2   4
HETATM    4  C   UNL     1      -9.794   5.658  69.995  1.00  0.00    -0.186 C  
BRANCH   4   5
HETATM    5  O   UNL     1     -10.696   6.437  69.209  1.00  0.00    -0.231 OA 
BRANCH   5   6
HETATM    6  C   UNL     1     -10.749   7.784  69.691  1.00  0.00    -0.223 C  
BRANCH   6   7
HETATM    7  C   UNL     1     -10.352   8.746  68.564  1.00  0.00    -0.199 C  
BRANCH   7   8
HETATM    8  N   UNL     1     -11.400   9.725  68.202  1.00  0.00    -0.007 NA 
HETATM    9  C   UNL     1     -12.263  10.100  69.342  1.00  0.00     0.311 C  
HETATM   10  C   UNL     1     -11.586  11.019  70.388  1.00  0.00    -0.293 C  
HETATM   11  N   UNL     1     -11.031  12.275  69.825  1.00  0.00     0.141 NA 
HETATM   12  C   UNL     1     -10.141  11.889  68.701  1.00  0.00    -0.177 C  
HETATM   13  C   UNL     1     -10.782  10.952  67.646  1.00  0.00    -0.242 C  
BRANCH  11  14
HETATM   14  C   UNL     1     -12.112  13.227  69.407  1.00  0.00    -0.248 C  
BRANCH  14  15
HETATM   15  C   UNL     1     -12.489  14.206  70.533  1.00  0.00    -0.431 A  
HETATM   16  C   UNL     1     -13.847  14.398  70.864  1.00  0.00     0.006 A  
HETATM   17  C   UNL     1     -11.523  14.820  71.347  1.00  0.00    -0.235 A  
HETATM   18  C   UNL     1     -14.215  15.140  71.990  1.00  0.00    -0.673 A  
HETATM   19  C   UNL     1     -13.239  15.717  72.797  1.00  0.00    -0.609 A  
HETATM   20  C   UNL     1     -11.893  15.573  72.467  1.00  0.00    -0.572 A  
ENDBRANCH  14  15
BRANCH  14  21
HETATM   21  C   UNL     1     -11.785  13.922  68.075  1.00  0.00    -0.387 A  
HETATM   22  C   UNL     1     -10.781  15.817  66.910  1.00  0.00    -0.299 A  
HETATM   23  C   UNL     1     -12.206  14.287  65.700  1.00  0.00    -0.409 A  
HETATM   24  C   UNL     1     -10.962  15.065  68.074  1.00  0.00    -0.285 A  
HETATM   25 CL   UNL     1     -11.211  16.370  64.304  1.00  0.00    -0.152 Cl 
HETATM   26  C   UNL     1     -12.398  13.545  66.868  1.00  0.00    -0.289 A  
HETATM   27  C   UNL     1     -11.405  15.425  65.729  1.00  0.00    -0.115 A  
ENDBRANCH  14  21
ENDBRANCH  11  14
ENDBRANCH   7   8
ENDBRANCH   6   7
ENDBRANCH   5   6
ENDBRANCH   4   5
ENDBRANCH   2   4
TORSDOF 8
ENDMDL
MODEL      116
REMARK 921   NORMALIZED FREE ENERGY PREDICTED BY IDOCK:   -3.81 KCAL/MOL
REMARK 922        TOTAL FREE ENERGY PREDICTED BY IDOCK:   -5.83 KCAL/MOL
REMARK 923 INTER-LIGAND FREE ENERGY PREDICTED BY IDOCK:   -4.71 KCAL/MOL
REMARK 924 INTRA-LIGAND FREE ENERGY PREDICTED BY IDOCK:   -1.12 KCAL/MOL
REMARK 927      BINDING AFFINITY PREDICTED BY RF-SCORE:    0.00 PKD
ROOT
HETATM    1  O   UNL     1     -10.942   3.213  64.240  1.00  0.00    -0.525 OA 
HETATM    2  C   UNL     1     -10.180   3.842  63.215  1.00  0.00    -0.193 C  
HETATM    3  H   UNL     1     -11.834   3.540  64.222  1.00  0.00     0.000 HD 
ENDROOT
BRANCH   2   4
HETATM    4  C   UNL     1      -8.752   3.319  63.242  1.00  0.00    -0.089 C  
BRANCH   4   5
HETATM    5  O   UNL     1      -7.865   4.309  62.720  1.00  0.00    -0.063 OA 
BRANCH   5   6
HETATM    6  C   UNL     1      -6.669   4.377  63.504  1.00  0.00    -0.042 C  
BRANCH   6   7
HETATM    7  C   UNL     1      -6.965   3.891  64.929  1.00  0.00    -0.054 C  
BRANCH   7   8
HETATM    8  N   UNL     1      -6.677   4.886  65.983  1.00  0.00    -0.052 NA 
HETATM    9  C   UNL     1      -7.056   6.263  65.602  1.00  0.00    -0.065 C  
HETATM   10  C   UNL     1      -8.581   6.531  65.587  1.00  0.00    -0.126 C  
HETATM   11  N   UNL     1      -9.264   6.226  66.870  1.00  0.00    -0.127 NA 
HETATM   12  C   UNL     1      -8.904   4.831  67.230  1.00  0.00    -0.103 C  
HETATM   13  C   UNL     1      -7.385   4.524  67.234  1.00  0.00    -0.074 C  
BRANCH  11  14
HETATM   14  C   UNL     1      -8.908   7.211  67.942  1.00  0.00    -0.124 C  
BRANCH  14  15
HETATM   15  C   UNL     1      -9.143   8.665  67.495  1.00  0.00    -0.146 A  
HETATM   16  C   UNL     1     -10.458   9.117  67.255  1.00  0.00    -0.335 A  
HETATM   17  C   UNL     1      -8.106   9.612  67.446  1.00  0.00    -0.110 A  
HETATM   18  C   UNL     1     -10.722  10.469  67.021  1.00  0.00    -0.310 A  
HETATM   19  C   UNL     1      -9.681  11.392  67.003  1.00  0.00    -0.210 A  
HETATM   20  C   UNL     1      -8.371  10.962  67.199  1.00  0.00    -0.125 A  
ENDBRANCH  14  15
BRANCH  14  21
HETATM   21  C   UNL     1      -9.574   6.869  69.285  1.00  0.00    -0.149 A  
HETATM   22  C   UNL     1      -9.335   6.090  71.586  1.00  0.00    -0.160 A  
HETATM   23  C   UNL     1     -11.533   6.242  70.596  1.00  0.00    -0.397 A  
HETATM   24  C   UNL     1      -8.768   6.566  70.400  1.00  0.00    -0.147 A  
HETATM   25 CL   UNL     1     -11.410   5.311  73.124  1.00  0.00    -0.373 Cl 
HETATM   26  C   UNL     1     -10.964   6.703  69.406  1.00  0.00    -0.361 A  
HETATM   27  C   UNL     1     -10.715   5.929  71.678  1.00  0.00    -0.252 A  
ENDBRANCH  14  21
ENDBRANCH  11  14
ENDBRANCH   7   8
ENDBRANCH   6   7
ENDBRANCH   5   6
ENDBRANCH   4   5
ENDBRANCH   2   4
TORSDOF 8
ENDMDL
MODEL      117
REMARK 921   NORMALIZED FREE ENERGY PREDICTED BY IDOCK:   -3.80 KCAL/MOL
REMARK 922        TOTAL FREE ENERGY PREDICTED BY IDOCK:   -5.82 KCAL/MOL
REMARK 923 INTER-LIGAND FREE ENERGY PREDICTED BY IDOCK:   -5.16 KCAL/MOL
REMARK 924 INTRA-LIGAND FREE ENERGY PREDICTED BY IDOCK:   -0.66 KCAL/MOL
REMARK 927      BINDING AFFINITY PREDICTED BY RF-SCORE:    0.00 PKD
ROOT
HETATM    1  O   UNL     1      -6.270  12.390  70.589  1.00  0.00    -0.517 OA 
HETATM    2  C   UNL     1      -5.463  12.056  69.465  1.00  0.00    -0.072 C  
HETATM    3  H   UNL     1      -5.965  13.204  70.972  1.00  0.00     0.000 HD 
ENDROOT
BRANCH   2   4
HETATM    4  C   UNL     1      -5.949  10.752  68.851  1.00  0.00    -0.040 C  
BRANCH   4   5
HETATM    5  O   UNL     1      -5.497  10.656  67.500  1.00  0.00    -0.043 OA 
BRANCH   5   6
HETATM    6  C   UNL     1      -6.325   9.756  66.756  1.00  0.00    -0.065 C  
BRANCH   6   7
HETATM    7  C   UNL     1      -6.184   8.340  67.330  1.00  0.00    -0.056 C  
BRANCH   7   8
HETATM    8  N   UNL     1      -7.439   7.557  67.334  1.00  0.00    -0.101 NA 
HETATM    9  C   UNL     1      -7.293   6.230  67.967  1.00  0.00    -0.089 C  
HETATM   10  C   UNL     1      -7.158   6.263  69.510  1.00  0.00    -0.073 C  
HETATM   11  N   UNL     1      -8.270   6.960  70.202  1.00  0.00    -0.131 NA 
HETATM   12  C   UNL     1      -8.390   8.305  69.582  1.00  0.00    -0.123 C  
HETATM   13  C   UNL     1      -8.506   8.308  68.036  1.00  0.00    -0.132 C  
BRANCH  11  14
HETATM   14  C   UNL     1      -9.548   6.179  70.139  1.00  0.00    -0.162 C  
BRANCH  14  15
HETATM   15  C   UNL     1      -9.346   4.705  70.536  1.00  0.00    -0.222 A  
HETATM   16  C   UNL     1      -9.189   4.364  71.896  1.00  0.00    -0.174 A  
HETATM   17  C   UNL     1      -9.448   3.657  69.605  1.00  0.00    -0.245 A  
HETATM   18  C   UNL     1      -9.181   3.027  72.306  1.00  0.00    -0.154 A  
HETATM   19  C   UNL     1      -9.309   2.007  71.368  1.00  0.00    -0.186 A  
HETATM   20  C   UNL     1      -9.425   2.321  70.015  1.00  0.00    -0.131 A  
ENDBRANCH  14  15
BRANCH  14  21
HETATM   21  C   UNL     1     -10.686   6.868  70.909  1.00  0.00    -0.258 A  
HETATM   22  C   UNL     1     -13.084   7.191  71.228  1.00  0.00    -0.361 A  
HETATM   23  C   UNL     1     -11.522   8.687  72.303  1.00  0.00    -0.423 A  
HETATM   24  C   UNL     1     -12.019   6.477  70.673  1.00  0.00    -0.345 A  
HETATM   25 CL   UNL     1     -14.143   9.194  72.693  1.00  0.00    -0.432 Cl 
HETATM   26  C   UNL     1     -10.458   7.981  71.737  1.00  0.00    -0.287 A  
HETATM   27  C   UNL     1     -12.831   8.294  72.039  1.00  0.00    -0.340 A  
ENDBRANCH  14  21
ENDBRANCH  11  14
ENDBRANCH   7   8
ENDBRANCH   6   7
ENDBRANCH   5   6
ENDBRANCH   4   5
ENDBRANCH   2   4
TORSDOF 8
ENDMDL
MODEL      118
REMARK 921   NORMALIZED FREE ENERGY PREDICTED BY IDOCK:   -3.80 KCAL/MOL
REMARK 922        TOTAL FREE ENERGY PREDICTED BY IDOCK:   -5.81 KCAL/MOL
REMARK 923 INTER-LIGAND FREE ENERGY PREDICTED BY IDOCK:   -5.00 KCAL/MOL
REMARK 924 INTRA-LIGAND FREE ENERGY PREDICTED BY IDOCK:   -0.81 KCAL/MOL
REMARK 927      BINDING AFFINITY PREDICTED BY RF-SCORE:    0.00 PKD
ROOT
HETATM    1  O   UNL     1     -11.094  11.886  63.019  1.00  0.00    -0.669 OA 
HETATM    2  C   UNL     1     -12.317  11.959  63.743  1.00  0.00    -0.434 C  
HETATM    3  H   UNL     1     -11.205  11.328  62.258  1.00  0.00     0.000 HD 
ENDROOT
BRANCH   2   4
HETATM    4  C   UNL     1     -12.141  12.851  64.962  1.00  0.00    -0.435 C  
BRANCH   4   5
HETATM    5  O   UNL     1     -10.992  13.681  64.791  1.00  0.00    -0.338 OA 
BRANCH   5   6
HETATM    6  C   UNL     1     -10.133  13.592  65.932  1.00  0.00    -0.303 C  
BRANCH   6   7
HETATM    7  C   UNL     1     -10.393  12.269  66.665  1.00  0.00    -0.215 C  
BRANCH   7   8
HETATM    8  N   UNL     1      -9.168  11.536  67.050  1.00  0.00    -0.173 NA 
HETATM    9  C   UNL     1      -9.346  10.703  68.259  1.00  0.00    -0.156 C  
HETATM   10  C   UNL     1     -10.196   9.427  68.044  1.00  0.00    -0.204 C  
HETATM   11  N   UNL     1      -9.694   8.537  66.968  1.00  0.00    -0.185 NA 
HETATM   12  C   UNL     1      -9.548   9.372  65.748  1.00  0.00    -0.271 C  
HETATM   13  C   UNL     1      -8.719  10.669  65.935  1.00  0.00    -0.177 C  
BRANCH  11  14
HETATM   14  C   UNL     1      -8.417   7.852  67.356  1.00  0.00    -0.122 C  
BRANCH  14  15
HETATM   15  C   UNL     1      -8.491   7.250  68.770  1.00  0.00    -0.129 A  
HETATM   16  C   UNL     1      -7.826   7.892  69.837  1.00  0.00    -0.103 A  
HETATM   17  C   UNL     1      -9.312   6.152  69.076  1.00  0.00    -0.133 A  
HETATM   18  C   UNL     1      -8.016   7.474  71.158  1.00  0.00    -0.095 A  
HETATM   19  C   UNL     1      -8.855   6.400  71.438  1.00  0.00    -0.138 A  
HETATM   20  C   UNL     1      -9.490   5.727  70.397  1.00  0.00    -0.201 A  
ENDBRANCH  14  15
BRANCH  14  21
HETATM   21  C   UNL     1      -7.950   6.851  66.287  1.00  0.00    -0.108 A  
HETATM   22  C   UNL     1      -6.215   6.129  64.730  1.00  0.00    -0.030 A  
HETATM   23  C   UNL     1      -8.429   5.176  64.579  1.00  0.00    -0.141 A  
HETATM   24  C   UNL     1      -6.625   6.910  65.815  1.00  0.00    -0.051 A  
HETATM   25 CL   UNL     1      -6.625   4.332  62.760  1.00  0.00    -0.026 Cl 
HETATM   26  C   UNL     1      -8.842   5.968  65.654  1.00  0.00    -0.118 A  
HETATM   27  C   UNL     1      -7.120   5.267  64.117  1.00  0.00    -0.049 A  
ENDBRANCH  14  21
ENDBRANCH  11  14
ENDBRANCH   7   8
ENDBRANCH   6   7
ENDBRANCH   5   6
ENDBRANCH   4   5
ENDBRANCH   2   4
TORSDOF 8
ENDMDL
MODEL      119
REMARK 921   NORMALIZED FREE ENERGY PREDICTED BY IDOCK:   -3.79 KCAL/MOL
REMARK 922        TOTAL FREE ENERGY PREDICTED BY IDOCK:   -5.80 KCAL/MOL
REMARK 923 INTER-LIGAND FREE ENERGY PREDICTED BY IDOCK:   -5.41 KCAL/MOL
REMARK 924 INTRA-LIGAND FREE ENERGY PREDICTED BY IDOCK:   -0.39 KCAL/MOL
REMARK 927      BINDING AFFINITY PREDICTED BY RF-SCORE:    0.00 PKD
ROOT
HETATM    1  O   UNL     1      -5.540   2.951  66.272  1.00  0.00    -0.016 OA 
HETATM    2  C   UNL     1      -6.263   4.170  66.141  1.00  0.00    -0.032 C  
HETATM    3  H   UNL     1      -5.830   2.488  67.050  1.00  0.00     0.000 HD 
ENDROOT
BRANCH   2   4
HETATM    4  C   UNL     1      -5.798   4.911  64.897  1.00  0.00    -0.017 C  
BRANCH   4   5
HETATM    5  O   UNL     1      -5.555   6.282  65.214  1.00  0.00    -0.017 OA 
BRANCH   5   6
HETATM    6  C   UNL     1      -5.964   7.128  64.135  1.00  0.00    -0.037 C  
BRANCH   6   7
HETATM    7  C   UNL     1      -7.349   7.714  64.442  1.00  0.00    -0.088 C  
BRANCH   7   8
HETATM    8  N   UNL     1      -7.334   8.842  65.397  1.00  0.00    -0.084 NA 
HETATM    9  C   UNL     1      -7.823  10.107  64.809  1.00  0.00    -0.146 C  
HETATM   10  C   UNL     1      -9.352  10.160  64.573  1.00  0.00    -0.289 C  
HETATM   11  N   UNL     1     -10.164   9.898  65.788  1.00  0.00    -0.235 NA 
HETATM   12  C   UNL     1      -9.689   8.609  66.355  1.00  0.00    -0.263 C  
HETATM   13  C   UNL     1      -8.159   8.516  66.585  1.00  0.00    -0.104 C  
BRANCH  11  14
HETATM   14  C   UNL     1     -10.084  11.027  66.771  1.00  0.00    -0.220 C  
BRANCH  14  15
HETATM   15  C   UNL     1     -10.617  12.345  66.182  1.00  0.00    -0.283 A  
HETATM   16  C   UNL     1      -9.874  13.533  66.348  1.00  0.00    -0.299 A  
HETATM   17  C   UNL     1     -11.755  12.394  65.360  1.00  0.00    -0.452 A  
HETATM   18  C   UNL     1     -10.237  14.707  65.681  1.00  0.00    -0.382 A  
HETATM   19  C   UNL     1     -11.354  14.724  64.851  1.00  0.00    -0.411 A  
HETATM   20  C   UNL     1     -12.124  13.572  64.704  1.00  0.00    -0.450 A  
ENDBRANCH  14  15
BRANCH  14  21
HETATM   21  C   UNL     1     -10.716  10.661  68.124  1.00  0.00    -0.267 A  
HETATM   22  C   UNL     1     -12.555  10.939  69.704  1.00  0.00    -0.075 A  
HETATM   23  C   UNL     1     -10.528   9.831  70.410  1.00  0.00    -0.358 A  
HETATM   24  C   UNL     1     -12.016  11.110  68.425  1.00  0.00    -0.211 A  
HETATM   25 CL   UNL     1     -12.457  10.123  72.273  1.00  0.00    -0.113 Cl 
HETATM   26  C   UNL     1      -9.985  10.015  69.136  1.00  0.00    -0.213 A  
HETATM   27  C   UNL     1     -11.808  10.302  70.690  1.00  0.00    -0.347 A  
ENDBRANCH  14  21
ENDBRANCH  11  14
ENDBRANCH   7   8
ENDBRANCH   6   7
ENDBRANCH   5   6
ENDBRANCH   4   5
ENDBRANCH   2   4
TORSDOF 8
ENDMDL
MODEL      120
REMARK 921   NORMALIZED FREE ENERGY PREDICTED BY IDOCK:   -3.79 KCAL/MOL
REMARK 922        TOTAL FREE ENERGY PREDICTED BY IDOCK:   -5.80 KCAL/MOL
REMARK 923 INTER-LIGAND FREE ENERGY PREDICTED BY IDOCK:   -5.79 KCAL/MOL
REMARK 924 INTRA-LIGAND FREE ENERGY PREDICTED BY IDOCK:   -0.01 KCAL/MOL
REMARK 927      BINDING AFFINITY PREDICTED BY RF-SCORE:    0.00 PKD
ROOT
HETATM    1  O   UNL     1      -9.654   2.977  64.032  1.00  0.00    -0.128 OA 
HETATM    2  C   UNL     1      -9.109   2.022  64.935  1.00  0.00    -0.130 C  
HETATM    3  H   UNL     1     -10.377   2.590  63.553  1.00  0.00     0.000 HD 
ENDROOT
BRANCH   2   4
HETATM    4  C   UNL     1      -7.950   2.642  65.702  1.00  0.00    -0.082 C  
BRANCH   4   5
HETATM    5  O   UNL     1      -7.879   4.040  65.423  1.00  0.00    -0.088 OA 
BRANCH   5   6
HETATM    6  C   UNL     1      -7.511   4.769  66.598  1.00  0.00    -0.086 C  
BRANCH   6   7
HETATM    7  C   UNL     1      -7.527   6.273  66.293  1.00  0.00    -0.086 C  
BRANCH   7   8
HETATM    8  N   UNL     1      -8.876   6.876  66.272  1.00  0.00    -0.145 NA 
HETATM    9  C   UNL     1      -9.497   6.957  67.611  1.00  0.00    -0.123 C  
HETATM   10  C   UNL     1      -8.889   8.037  68.539  1.00  0.00    -0.134 C  
HETATM   11  N   UNL     1      -8.900   9.407  67.966  1.00  0.00    -0.124 NA 
HETATM   12  C   UNL     1      -8.247   9.323  66.634  1.00  0.00    -0.115 C  
HETATM   13  C   UNL     1      -8.819   8.237  65.688  1.00  0.00    -0.132 C  
BRANCH  11  14
HETATM   14  C   UNL     1     -10.286   9.974  67.895  1.00  0.00    -0.207 C  
BRANCH  14  15
HETATM   15  C   UNL     1     -10.908  10.158  69.291  1.00  0.00    -0.269 A  
HETATM   16  C   UNL     1     -11.649  11.325  69.575  1.00  0.00    -0.398 A  
HETATM   17  C   UNL     1     -10.887   9.143  70.261  1.00  0.00    -0.282 A  
HETATM   18  C   UNL     1     -12.372  11.445  70.766  1.00  0.00    -0.483 A  
HETATM   19  C   UNL     1     -12.357  10.415  71.701  1.00  0.00    -0.402 A  
HETATM   20  C   UNL     1     -11.601   9.270  71.457  1.00  0.00    -0.452 A  
ENDBRANCH  14  15
BRANCH  14  21
HETATM   21  C   UNL     1     -10.349  11.240  67.025  1.00  0.00    -0.263 A  
HETATM   22  C   UNL     1      -9.662  13.555  66.669  1.00  0.00    -0.281 A  
HETATM   23  C   UNL     1     -11.455  12.622  65.346  1.00  0.00    -0.373 A  
HETATM   24  C   UNL     1      -9.515  12.333  67.331  1.00  0.00    -0.181 A  
HETATM   25 CL   UNL     1     -10.837  15.208  64.890  1.00  0.00    -0.438 Cl 
HETATM   26  C   UNL     1     -11.316  11.405  66.019  1.00  0.00    -0.097 A  
HETATM   27  C   UNL     1     -10.632  13.694  65.681  1.00  0.00    -0.293 A  
ENDBRANCH  14  21
ENDBRANCH  11  14
ENDBRANCH   7   8
ENDBRANCH   6   7
ENDBRANCH   5   6
ENDBRANCH   4   5
ENDBRANCH   2   4
TORSDOF 8
ENDMDL
MODEL      121
REMARK 921   NORMALIZED FREE ENERGY PREDICTED BY IDOCK:   -3.77 KCAL/MOL
REMARK 922        TOTAL FREE ENERGY PREDICTED BY IDOCK:   -5.77 KCAL/MOL
REMARK 923 INTER-LIGAND FREE ENERGY PREDICTED BY IDOCK:   -5.65 KCAL/MOL
REMARK 924 INTRA-LIGAND FREE ENERGY PREDICTED BY IDOCK:   -0.12 KCAL/MOL
REMARK 927      BINDING AFFINITY PREDICTED BY RF-SCORE:    0.00 PKD
ROOT
HETATM    1  O   UNL     1      -6.060   4.939  63.405  1.00  0.00    -0.020 OA 
HETATM    2  C   UNL     1      -5.789   3.632  63.897  1.00  0.00    -0.014 C  
HETATM    3  H   UNL     1      -5.456   5.150  62.703  1.00  0.00     0.000 HD 
ENDROOT
BRANCH   2   4
HETATM    4  C   UNL     1      -6.756   3.295  65.022  1.00  0.00    -0.041 C  
BRANCH   4   5
HETATM    5  O   UNL     1      -8.008   2.879  64.475  1.00  0.00    -0.080 OA 
BRANCH   5   6
HETATM    6  C   UNL     1      -8.973   2.690  65.515  1.00  0.00    -0.135 C  
BRANCH   6   7
HETATM    7  C   UNL     1      -8.680   3.663  66.665  1.00  0.00    -0.121 C  
BRANCH   7   8
HETATM    8  N   UNL     1      -9.870   4.373  67.180  1.00  0.00    -0.198 NA 
HETATM    9  C   UNL     1      -9.708   4.848  68.570  1.00  0.00    -0.155 C  
HETATM   10  C   UNL     1      -8.757   6.060  68.730  1.00  0.00    -0.111 C  
HETATM   11  N   UNL     1      -9.127   7.237  67.905  1.00  0.00    -0.133 NA 
HETATM   12  C   UNL     1      -9.258   6.758  66.505  1.00  0.00    -0.162 C  
HETATM   13  C   UNL     1     -10.188   5.533  66.312  1.00  0.00    -0.153 C  
BRANCH  11  14
HETATM   14  C   UNL     1     -10.373   7.904  68.407  1.00  0.00    -0.199 C  
BRANCH  14  15
HETATM   15  C   UNL     1     -10.511   7.797  69.936  1.00  0.00    -0.232 A  
HETATM   16  C   UNL     1      -9.566   8.434  70.768  1.00  0.00    -0.203 A  
HETATM   17  C   UNL     1     -11.626   7.201  70.548  1.00  0.00    -0.331 A  
HETATM   18  C   UNL     1      -9.758   8.506  72.151  1.00  0.00    -0.387 A  
HETATM   19  C   UNL     1     -10.884   7.931  72.731  1.00  0.00    -0.451 A  
HETATM   20  C   UNL     1     -11.811   7.263  71.933  1.00  0.00    -0.333 A  
ENDBRANCH  14  15
BRANCH  14  21
HETATM   21  C   UNL     1     -10.511   9.341  67.879  1.00  0.00    -0.290 A  
HETATM   22  C   UNL     1     -11.539  11.545  68.091  1.00  0.00    -0.378 A  
HETATM   23  C   UNL     1     -10.318  10.983  66.084  1.00  0.00    -0.306 A  
HETATM   24  C   UNL     1     -11.253  10.282  68.619  1.00  0.00    -0.263 A  
HETATM   25 CL   UNL     1     -11.452  13.429  66.162  1.00  0.00    -0.338 Cl 
HETATM   26  C   UNL     1     -10.045   9.716  66.607  1.00  0.00    -0.307 A  
HETATM   27  C   UNL     1     -11.071  11.888  66.826  1.00  0.00    -0.308 A  
ENDBRANCH  14  21
ENDBRANCH  11  14
ENDBRANCH   7   8
ENDBRANCH   6   7
ENDBRANCH   5   6
ENDBRANCH   4   5
ENDBRANCH   2   4
TORSDOF 8
ENDMDL
MODEL      122
REMARK 921   NORMALIZED FREE ENERGY PREDICTED BY IDOCK:   -3.77 KCAL/MOL
REMARK 922        TOTAL FREE ENERGY PREDICTED BY IDOCK:   -5.77 KCAL/MOL
REMARK 923 INTER-LIGAND FREE ENERGY PREDICTED BY IDOCK:   -5.88 KCAL/MOL
REMARK 924 INTRA-LIGAND FREE ENERGY PREDICTED BY IDOCK:    0.11 KCAL/MOL
REMARK 927      BINDING AFFINITY PREDICTED BY RF-SCORE:    0.00 PKD
ROOT
HETATM    1  O   UNL     1      -6.824   9.651  63.367  1.00  0.00    -0.100 OA 
HETATM    2  C   UNL     1      -7.019   9.473  64.765  1.00  0.00    -0.104 C  
HETATM    3  H   UNL     1      -7.171  10.495  63.099  1.00  0.00     0.000 HD 
ENDROOT
BRANCH   2   4
HETATM    4  C   UNL     1      -6.464   8.123  65.194  1.00  0.00    -0.052 C  
BRANCH   4   5
HETATM    5  O   UNL     1      -7.036   7.089  64.393  1.00  0.00    -0.052 OA 
BRANCH   5   6
HETATM    6  C   UNL     1      -8.310   6.696  64.914  1.00  0.00    -0.034 C  
BRANCH   6   7
HETATM    7  C   UNL     1      -8.203   6.503  66.433  1.00  0.00    -0.116 C  
BRANCH   7   8
HETATM    8  N   UNL     1      -9.499   6.540  67.144  1.00  0.00    -0.127 NA 
HETATM    9  C   UNL     1      -9.364   6.368  68.606  1.00  0.00    -0.124 C  
HETATM   10  C   UNL     1      -8.777   7.593  69.348  1.00  0.00    -0.136 C  
HETATM   11  N   UNL     1      -9.523   8.856  69.122  1.00  0.00    -0.156 NA 
HETATM   12  C   UNL     1      -9.627   9.039  67.651  1.00  0.00    -0.150 C  
HETATM   13  C   UNL     1     -10.193   7.822  66.875  1.00  0.00    -0.303 C  
BRANCH  11  14
HETATM   14  C   UNL     1     -10.861   8.847  69.799  1.00  0.00    -0.200 C  
BRANCH  14  15
HETATM   15  C   UNL     1     -10.898   7.877  70.994  1.00  0.00    -0.253 A  
HETATM   16  C   UNL     1     -11.873   6.858  71.035  1.00  0.00    -0.411 A  
HETATM   17  C   UNL     1      -9.906   7.874  71.988  1.00  0.00    -0.250 A  
HETATM   18  C   UNL     1     -11.827   5.857  72.009  1.00  0.00    -0.208 A  
HETATM   19  C   UNL     1     -10.819   5.861  72.969  1.00  0.00    -0.300 A  
HETATM   20  C   UNL     1      -9.868   6.879  72.970  1.00  0.00    -0.204 A  
ENDBRANCH  14  15
BRANCH  14  21
HETATM   21  C   UNL     1     -11.343  10.265  70.146  1.00  0.00    -0.388 A  
HETATM   22  C   UNL     1     -12.705  11.708  71.567  1.00  0.00    -0.423 A  
HETATM   23  C   UNL     1     -11.749  12.590  69.532  1.00  0.00    -0.375 A  
HETATM   24  C   UNL     1     -12.112  10.469  71.309  1.00  0.00    -0.432 A  
HETATM   25 CL   UNL     1     -13.281  14.276  70.976  1.00  0.00    -0.395 Cl 
HETATM   26  C   UNL     1     -11.169  11.347  69.267  1.00  0.00    -0.342 A  
HETATM   27  C   UNL     1     -12.522  12.762  70.677  1.00  0.00    -0.246 A  
ENDBRANCH  14  21
ENDBRANCH  11  14
ENDBRANCH   7   8
ENDBRANCH   6   7
ENDBRANCH   5   6
ENDBRANCH   4   5
ENDBRANCH   2   4
TORSDOF 8
ENDMDL
MODEL      123
REMARK 921   NORMALIZED FREE ENERGY PREDICTED BY IDOCK:   -3.75 KCAL/MOL
REMARK 922        TOTAL FREE ENERGY PREDICTED BY IDOCK:   -5.75 KCAL/MOL
REMARK 923 INTER-LIGAND FREE ENERGY PREDICTED BY IDOCK:   -4.97 KCAL/MOL
REMARK 924 INTRA-LIGAND FREE ENERGY PREDICTED BY IDOCK:   -0.78 KCAL/MOL
REMARK 927      BINDING AFFINITY PREDICTED BY RF-SCORE:    0.00 PKD
ROOT
HETATM    1  O   UNL     1      -9.301   7.505  74.053  1.00  0.00    -0.311 OA 
HETATM    2  C   UNL     1     -10.418   6.624  74.018  1.00  0.00    -0.284 C  
HETATM    3  H   UNL     1      -9.231   7.900  74.915  1.00  0.00     0.000 HD 
ENDROOT
BRANCH   2   4
HETATM    4  C   UNL     1     -10.532   5.993  72.639  1.00  0.00    -0.205 C  
BRANCH   4   5
HETATM    5  O   UNL     1      -9.973   6.869  71.659  1.00  0.00    -0.173 OA 
BRANCH   5   6
HETATM    6  C   UNL     1     -10.961   7.790  71.186  1.00  0.00    -0.239 C  
BRANCH   6   7
HETATM    7  C   UNL     1     -11.035   7.719  69.655  1.00  0.00    -0.122 C  
BRANCH   7   8
HETATM    8  N   UNL     1      -9.781   8.095  68.968  1.00  0.00    -0.161 NA 
HETATM    9  C   UNL     1      -9.936   8.218  67.503  1.00  0.00    -0.193 C  
HETATM   10  C   UNL     1     -10.716   9.473  67.040  1.00  0.00    -0.149 C  
HETATM   11  N   UNL     1     -10.152  10.755  67.531  1.00  0.00    -0.181 NA 
HETATM   12  C   UNL     1     -10.028  10.636  69.007  1.00  0.00    -0.213 C  
HETATM   13  C   UNL     1      -9.269   9.379  69.504  1.00  0.00    -0.176 C  
BRANCH  11  14
HETATM   14  C   UNL     1      -8.849  11.085  66.867  1.00  0.00    -0.149 C  
BRANCH  14  15
HETATM   15  C   UNL     1      -8.988  11.182  65.337  1.00  0.00    -0.154 A  
HETATM   16  C   UNL     1      -8.180  10.373  64.511  1.00  0.00    -0.131 A  
HETATM   17  C   UNL     1      -9.991  11.950  64.722  1.00  0.00    -0.262 A  
HETATM   18  C   UNL     1      -8.401  10.306  63.132  1.00  0.00    -0.167 A  
HETATM   19  C   UNL     1      -9.417  11.056  62.549  1.00  0.00    -0.263 A  
HETATM   20  C   UNL     1     -10.202  11.892  63.341  1.00  0.00    -0.478 A  
ENDBRANCH  14  15
BRANCH  14  21
HETATM   21  C   UNL     1      -8.172  12.313  67.499  1.00  0.00    -0.170 A  
HETATM   22  C   UNL     1      -6.264  13.246  68.702  1.00  0.00    -0.084 A  
HETATM   23  C   UNL     1      -8.286  14.548  68.469  1.00  0.00    -0.154 A  
HETATM   24  C   UNL     1      -6.850  12.206  67.974  1.00  0.00    -0.081 A  
HETATM   25 CL   UNL     1      -6.277  15.677  69.871  1.00  0.00    -0.163 Cl 
HETATM   26  C   UNL     1      -8.875  13.502  67.754  1.00  0.00    -0.198 A  
HETATM   27  C   UNL     1      -6.985  14.411  68.947  1.00  0.00    -0.105 A  
ENDBRANCH  14  21
ENDBRANCH  11  14
ENDBRANCH   7   8
ENDBRANCH   6   7
ENDBRANCH   5   6
ENDBRANCH   4   5
ENDBRANCH   2   4
TORSDOF 8
ENDMDL
MODEL      124
REMARK 921   NORMALIZED FREE ENERGY PREDICTED BY IDOCK:   -3.72 KCAL/MOL
REMARK 922        TOTAL FREE ENERGY PREDICTED BY IDOCK:   -5.70 KCAL/MOL
REMARK 923 INTER-LIGAND FREE ENERGY PREDICTED BY IDOCK:   -5.92 KCAL/MOL
REMARK 924 INTRA-LIGAND FREE ENERGY PREDICTED BY IDOCK:    0.22 KCAL/MOL
REMARK 927      BINDING AFFINITY PREDICTED BY RF-SCORE:    0.00 PKD
ROOT
HETATM    1  O   UNL     1      -7.846   2.454  65.944  1.00  0.00    -0.078 OA 
HETATM    2  C   UNL     1      -8.145   3.710  66.542  1.00  0.00    -0.096 C  
HETATM    3  H   UNL     1      -6.961   2.467  65.598  1.00  0.00     0.000 HD 
ENDROOT
BRANCH   2   4
HETATM    4  C   UNL     1      -9.562   3.691  67.097  1.00  0.00    -0.153 C  
BRANCH   4   5
HETATM    5  O   UNL     1      -9.598   4.370  68.352  1.00  0.00    -0.148 OA 
BRANCH   5   6
HETATM    6  C   UNL     1      -8.892   5.612  68.273  1.00  0.00    -0.108 C  
BRANCH   6   7
HETATM    7  C   UNL     1      -9.242   6.478  69.490  1.00  0.00    -0.142 C  
BRANCH   7   8
HETATM    8  N   UNL     1      -8.805   7.886  69.382  1.00  0.00    -0.144 NA 
HETATM    9  C   UNL     1      -9.057   8.471  68.047  1.00  0.00    -0.140 C  
HETATM   10  C   UNL     1     -10.545   8.775  67.747  1.00  0.00    -0.191 C  
HETATM   11  N   UNL     1     -11.198   9.660  68.745  1.00  0.00    -0.040 NA 
HETATM   12  C   UNL     1     -10.968   9.050  70.079  1.00  0.00    -0.214 C  
HETATM   13  C   UNL     1      -9.490   8.713  70.403  1.00  0.00    -0.170 C  
BRANCH  11  14
HETATM   14  C   UNL     1     -10.694  11.069  68.659  1.00  0.00    -0.198 C  
BRANCH  14  15
HETATM   15  C   UNL     1     -10.599  11.563  67.204  1.00  0.00    -0.273 A  
HETATM   16  C   UNL     1      -9.366  11.490  66.522  1.00  0.00    -0.210 A  
HETATM   17  C   UNL     1     -11.730  11.960  66.472  1.00  0.00    -0.247 A  
HETATM   18  C   UNL     1      -9.284  11.762  65.153  1.00  0.00     0.062 A  
HETATM   19  C   UNL     1     -10.423  12.129  64.444  1.00  0.00    -0.352 A  
HETATM   20  C   UNL     1     -11.644  12.245  65.105  1.00  0.00    -0.402 A  
ENDBRANCH  14  15
BRANCH  14  21
HETATM   21  C   UNL     1     -11.478  12.021  69.578  1.00  0.00    -0.351 A  
HETATM   22  C   UNL     1     -11.856  14.294  70.382  1.00  0.00    -0.375 A  
HETATM   23  C   UNL     1     -12.848  12.429  71.555  1.00  0.00    -0.377 A  
HETATM   24  C   UNL     1     -11.290  13.411  69.457  1.00  0.00    -0.248 A  
HETATM   25 CL   UNL     1     -13.299  14.881  72.585  1.00  0.00    -0.503 Cl 
HETATM   26  C   UNL     1     -12.270  11.547  70.638  1.00  0.00    -0.473 A  
HETATM   27  C   UNL     1     -12.631  13.799  71.427  1.00  0.00    -0.348 A  
ENDBRANCH  14  21
ENDBRANCH  11  14
ENDBRANCH   7   8
ENDBRANCH   6   7
ENDBRANCH   5   6
ENDBRANCH   4   5
ENDBRANCH   2   4
TORSDOF 8
ENDMDL
MODEL      125
REMARK 921   NORMALIZED FREE ENERGY PREDICTED BY IDOCK:   -3.70 KCAL/MOL
REMARK 922        TOTAL FREE ENERGY PREDICTED BY IDOCK:   -5.66 KCAL/MOL
REMARK 923 INTER-LIGAND FREE ENERGY PREDICTED BY IDOCK:   -5.50 KCAL/MOL
REMARK 924 INTRA-LIGAND FREE ENERGY PREDICTED BY IDOCK:   -0.16 KCAL/MOL
REMARK 927      BINDING AFFINITY PREDICTED BY RF-SCORE:    0.00 PKD
ROOT
HETATM    1  O   UNL     1      -6.239  13.421  71.319  1.00  0.00    -0.540 OA 
HETATM    2  C   UNL     1      -5.412  12.338  70.910  1.00  0.00    -0.139 C  
HETATM    3  H   UNL     1      -5.705  14.101  71.714  1.00  0.00     0.000 HD 
ENDROOT
BRANCH   2   4
HETATM    4  C   UNL     1      -6.266  11.249  70.279  1.00  0.00    -0.124 C  
BRANCH   4   5
HETATM    5  O   UNL     1      -6.446  10.178  71.206  1.00  0.00    -0.329 OA 
BRANCH   5   6
HETATM    6  C   UNL     1      -7.268   9.153  70.637  1.00  0.00    -0.105 C  
BRANCH   6   7
HETATM    7  C   UNL     1      -8.688   9.696  70.427  1.00  0.00    -0.166 C  
BRANCH   7   8
HETATM    8  N   UNL     1      -9.351   9.206  69.200  1.00  0.00    -0.150 NA 
HETATM    9  C   UNL     1     -10.431  10.098  68.727  1.00  0.00    -0.204 C  
HETATM   10  C   UNL     1      -9.941  11.421  68.088  1.00  0.00    -0.189 C  
HETATM   11  N   UNL     1      -8.997  11.236  66.957  1.00  0.00    -0.151 NA 
HETATM   12  C   UNL     1      -7.899  10.364  67.448  1.00  0.00    -0.103 C  
HETATM   13  C   UNL     1      -8.357   9.041  68.113  1.00  0.00    -0.121 C  
BRANCH  11  14
HETATM   14  C   UNL     1      -9.678  10.678  65.743  1.00  0.00    -0.221 C  
BRANCH  14  15
HETATM   15  C   UNL     1     -10.470  11.754  64.978  1.00  0.00    -0.332 A  
HETATM   16  C   UNL     1     -11.329  11.372  63.927  1.00  0.00    -0.302 A  
HETATM   17  C   UNL     1     -10.478  13.102  65.374  1.00  0.00    -0.307 A  
HETATM   18  C   UNL     1     -12.192  12.297  63.330  1.00  0.00    -0.630 A  
HETATM   19  C   UNL     1     -12.201  13.621  63.757  1.00  0.00    -0.413 A  
HETATM   20  C   UNL     1     -11.332  14.029  64.767  1.00  0.00    -0.366 A  
ENDBRANCH  14  15
BRANCH  14  21
HETATM   21  C   UNL     1      -8.712   9.880  64.853  1.00  0.00    -0.198 A  
HETATM   22  C   UNL     1      -7.776   7.718  64.217  1.00  0.00    -0.124 A  
HETATM   23  C   UNL     1      -6.729   9.751  63.438  1.00  0.00    -0.119 A  
HETATM   24  C   UNL     1      -8.746   8.472  64.883  1.00  0.00    -0.090 A  
HETATM   25 CL   UNL     1      -5.557   7.434  62.708  1.00  0.00    -0.045 Cl 
HETATM   26  C   UNL     1      -7.691  10.504  64.116  1.00  0.00     0.053 A  
HETATM   27  C   UNL     1      -6.771   8.361  63.499  1.00  0.00    -0.084 A  
ENDBRANCH  14  21
ENDBRANCH  11  14
ENDBRANCH   7   8
ENDBRANCH   6   7
ENDBRANCH   5   6
ENDBRANCH   4   5
ENDBRANCH   2   4
TORSDOF 8
ENDMDL
MODEL      126
REMARK 921   NORMALIZED FREE ENERGY PREDICTED BY IDOCK:   -3.69 KCAL/MOL
REMARK 922        TOTAL FREE ENERGY PREDICTED BY IDOCK:   -5.66 KCAL/MOL
REMARK 923 INTER-LIGAND FREE ENERGY PREDICTED BY IDOCK:   -4.98 KCAL/MOL
REMARK 924 INTRA-LIGAND FREE ENERGY PREDICTED BY IDOCK:   -0.68 KCAL/MOL
REMARK 927      BINDING AFFINITY PREDICTED BY RF-SCORE:    0.00 PKD
ROOT
HETATM    1  O   UNL     1      -8.788   7.544  71.729  1.00  0.00    -0.114 OA 
HETATM    2  C   UNL     1      -7.660   7.015  71.041  1.00  0.00    -0.086 C  
HETATM    3  H   UNL     1      -8.912   7.078  72.548  1.00  0.00     0.000 HD 
ENDROOT
BRANCH   2   4
HETATM    4  C   UNL     1      -7.461   7.761  69.730  1.00  0.00    -0.089 C  
BRANCH   4   5
HETATM    5  O   UNL     1      -6.122   8.252  69.653  1.00  0.00    -0.029 OA 
BRANCH   5   6
HETATM    6  C   UNL     1      -5.913   8.949  68.420  1.00  0.00    -0.045 C  
BRANCH   6   7
HETATM    7  C   UNL     1      -5.714  10.443  68.705  1.00  0.00    -0.041 C  
BRANCH   7   8
HETATM    8  N   UNL     1      -6.033  11.328  67.565  1.00  0.00    -0.051 NA 
HETATM    9  C   UNL     1      -7.362  11.060  66.976  1.00  0.00    -0.123 C  
HETATM   10  C   UNL     1      -8.557  11.530  67.841  1.00  0.00    -0.143 C  
HETATM   11  N   UNL     1      -8.519  12.970  68.201  1.00  0.00    -0.171 NA 
HETATM   12  C   UNL     1      -7.193  13.225  68.820  1.00  0.00    -0.088 C  
HETATM   13  C   UNL     1      -5.975  12.748  67.988  1.00  0.00    -0.101 C  
BRANCH  11  14
HETATM   14  C   UNL     1      -8.783  13.851  67.016  1.00  0.00    -0.200 C  
BRANCH  14  15
HETATM   15  C   UNL     1     -10.090  13.475  66.296  1.00  0.00    -0.298 A  
HETATM   16  C   UNL     1     -11.099  12.782  66.998  1.00  0.00    -0.316 A  
HETATM   17  C   UNL     1     -10.383  13.918  64.995  1.00  0.00    -0.418 A  
HETATM   18  C   UNL     1     -12.361  12.582  66.431  1.00  0.00     0.135 A  
HETATM   19  C   UNL     1     -12.636  13.052  65.151  1.00  0.00    -0.530 A  
HETATM   20  C   UNL     1     -11.642  13.705  64.425  1.00  0.00    -0.421 A  
ENDBRANCH  14  15
BRANCH  14  21
HETATM   21  C   UNL     1      -8.688  15.343  67.374  1.00  0.00    -0.194 A  
HETATM   22  C   UNL     1      -9.724  17.311  68.377  1.00  0.00    -0.293 A  
HETATM   23  C   UNL     1      -7.738  17.563  67.026  1.00  0.00    -0.239 A  
HETATM   24  C   UNL     1      -9.689  15.929  68.172  1.00  0.00    -0.212 A  
HETATM   25 CL   UNL     1      -8.813  19.826  68.025  1.00  0.00    -0.364 Cl 
HETATM   26  C   UNL     1      -7.712  16.183  66.810  1.00  0.00    -0.288 A  
HETATM   27  C   UNL     1      -8.750  18.122  67.802  1.00  0.00    -0.255 A  
ENDBRANCH  14  21
ENDBRANCH  11  14
ENDBRANCH   7   8
ENDBRANCH   6   7
ENDBRANCH   5   6
ENDBRANCH   4   5
ENDBRANCH   2   4
TORSDOF 8
ENDMDL
MODEL      127
REMARK 921   NORMALIZED FREE ENERGY PREDICTED BY IDOCK:   -3.68 KCAL/MOL
REMARK 922        TOTAL FREE ENERGY PREDICTED BY IDOCK:   -5.63 KCAL/MOL
REMARK 923 INTER-LIGAND FREE ENERGY PREDICTED BY IDOCK:   -5.35 KCAL/MOL
REMARK 924 INTRA-LIGAND FREE ENERGY PREDICTED BY IDOCK:   -0.28 KCAL/MOL
REMARK 927      BINDING AFFINITY PREDICTED BY RF-SCORE:    0.00 PKD
ROOT
HETATM    1  O   UNL     1     -11.211   3.592  64.139  1.00  0.00    -0.584 OA 
HETATM    2  C   UNL     1      -9.849   3.424  64.516  1.00  0.00    -0.164 C  
HETATM    3  H   UNL     1     -11.752   2.962  64.601  1.00  0.00     0.000 HD 
ENDROOT
BRANCH   2   4
HETATM    4  C   UNL     1      -8.982   4.431  63.775  1.00  0.00    -0.143 C  
BRANCH   4   5
HETATM    5  O   UNL     1      -7.808   4.711  64.538  1.00  0.00    -0.083 OA 
BRANCH   5   6
HETATM    6  C   UNL     1      -8.079   5.704  65.532  1.00  0.00    -0.123 C  
BRANCH   6   7
HETATM    7  C   UNL     1      -7.727   7.091  64.978  1.00  0.00    -0.115 C  
BRANCH   7   8
HETATM    8  N   UNL     1      -8.755   8.124  65.225  1.00  0.00    -0.112 NA 
HETATM    9  C   UNL     1      -9.519   7.897  66.470  1.00  0.00    -0.214 C  
HETATM   10  C   UNL     1      -8.732   8.187  67.771  1.00  0.00    -0.130 C  
HETATM   11  N   UNL     1      -8.166   9.558  67.847  1.00  0.00    -0.113 NA 
HETATM   12  C   UNL     1      -7.374   9.767  66.608  1.00  0.00    -0.094 C  
HETATM   13  C   UNL     1      -8.127   9.465  65.286  1.00  0.00    -0.124 C  
BRANCH  11  14
HETATM   14  C   UNL     1      -9.232  10.595  68.033  1.00  0.00    -0.148 C  
BRANCH  14  15
HETATM   15  C   UNL     1     -10.197  10.234  69.178  1.00  0.00    -0.234 A  
HETATM   16  C   UNL     1      -9.727   9.482  70.275  1.00  0.00    -0.314 A  
HETATM   17  C   UNL     1     -11.505  10.743  69.244  1.00  0.00    -0.369 A  
HETATM   18  C   UNL     1     -10.522   9.289  71.408  1.00  0.00    -0.408 A  
HETATM   19  C   UNL     1     -11.805   9.825  71.461  1.00  0.00    -0.476 A  
HETATM   20  C   UNL     1     -12.304  10.537  70.373  1.00  0.00    -0.409 A  
ENDBRANCH  14  15
BRANCH  14  21
HETATM   21  C   UNL     1      -8.646  12.012  68.151  1.00  0.00    -0.173 A  
HETATM   22  C   UNL     1      -6.943  13.486  69.089  1.00  0.00    -0.055 A  
HETATM   23  C   UNL     1      -8.878  14.435  67.998  1.00  0.00    -0.178 A  
HETATM   24  C   UNL     1      -7.421  12.201  68.819  1.00  0.00    -0.075 A  
HETATM   25 CL   UNL     1      -7.105  16.179  69.042  1.00  0.00    -0.175 Cl 
HETATM   26  C   UNL     1      -9.362  13.150  67.741  1.00  0.00    -0.206 A  
HETATM   27  C   UNL     1      -7.675  14.597  68.679  1.00  0.00    -0.135 A  
ENDBRANCH  14  21
ENDBRANCH  11  14
ENDBRANCH   7   8
ENDBRANCH   6   7
ENDBRANCH   5   6
ENDBRANCH   4   5
ENDBRANCH   2   4
TORSDOF 8
ENDMDL
MODEL      128
REMARK 921   NORMALIZED FREE ENERGY PREDICTED BY IDOCK:   -3.66 KCAL/MOL
REMARK 922        TOTAL FREE ENERGY PREDICTED BY IDOCK:   -5.61 KCAL/MOL
REMARK 923 INTER-LIGAND FREE ENERGY PREDICTED BY IDOCK:   -4.87 KCAL/MOL
REMARK 924 INTRA-LIGAND FREE ENERGY PREDICTED BY IDOCK:   -0.74 KCAL/MOL
REMARK 927      BINDING AFFINITY PREDICTED BY RF-SCORE:    0.00 PKD
ROOT
HETATM    1  O   UNL     1      -6.203   2.237  67.226  1.00  0.00    -0.026 OA 
HETATM    2  C   UNL     1      -7.146   3.247  66.888  1.00  0.00    -0.058 C  
HETATM    3  H   UNL     1      -6.239   2.064  68.160  1.00  0.00     0.000 HD 
ENDROOT
BRANCH   2   4
HETATM    4  C   UNL     1      -7.089   3.524  65.393  1.00  0.00    -0.066 C  
BRANCH   4   5
HETATM    5  O   UNL     1      -6.485   4.797  65.161  1.00  0.00    -0.034 OA 
BRANCH   5   6
HETATM    6  C   UNL     1      -7.030   5.405  63.986  1.00  0.00    -0.048 C  
BRANCH   6   7
HETATM    7  C   UNL     1      -8.067   6.461  64.391  1.00  0.00    -0.076 C  
BRANCH   7   8
HETATM    8  N   UNL     1      -7.625   7.363  65.475  1.00  0.00    -0.088 NA 
HETATM    9  C   UNL     1      -7.769   8.795  65.134  1.00  0.00    -0.103 C  
HETATM   10  C   UNL     1      -9.229   9.311  65.125  1.00  0.00    -0.200 C  
HETATM   11  N   UNL     1      -9.961   9.087  66.397  1.00  0.00    -0.294 NA 
HETATM   12  C   UNL     1      -9.839   7.641  66.716  1.00  0.00    -0.237 C  
HETATM   13  C   UNL     1      -8.391   7.087  66.714  1.00  0.00    -0.116 C  
BRANCH  11  14
HETATM   14  C   UNL     1      -9.454   9.967  67.499  1.00  0.00    -0.148 C  
BRANCH  14  15
HETATM   15  C   UNL     1      -9.969  11.412  67.369  1.00  0.00    -0.207 A  
HETATM   16  C   UNL     1     -11.096  11.681  66.564  1.00  0.00    -0.357 A  
HETATM   17  C   UNL     1      -9.444  12.467  68.134  1.00  0.00    -0.214 A  
HETATM   18  C   UNL     1     -11.695  12.944  66.563  1.00  0.00    -0.453 A  
HETATM   19  C   UNL     1     -11.172  13.966  67.349  1.00  0.00    -0.330 A  
HETATM   20  C   UNL     1     -10.036  13.734  68.122  1.00  0.00    -0.242 A  
ENDBRANCH  14  15
BRANCH  14  21
HETATM   21  C   UNL     1      -9.697   9.354  68.888  1.00  0.00    -0.166 A  
HETATM   22  C   UNL     1     -11.234   8.938  70.737  1.00  0.00    -0.321 A  
HETATM   23  C   UNL     1      -8.871   8.532  71.031  1.00  0.00    -0.212 A  
HETATM   24  C   UNL     1     -11.002   9.334  69.417  1.00  0.00    -0.138 A  
HETATM   25 CL   UNL     1     -10.448   8.087  73.174  1.00  0.00    -0.354 Cl 
HETATM   26  C   UNL     1      -8.639   8.941  69.715  1.00  0.00    -0.134 A  
HETATM   27  C   UNL     1     -10.168   8.540  71.538  1.00  0.00    -0.250 A  
ENDBRANCH  14  21
ENDBRANCH  11  14
ENDBRANCH   7   8
ENDBRANCH   6   7
ENDBRANCH   5   6
ENDBRANCH   4   5
ENDBRANCH   2   4
TORSDOF 8
ENDMDL
MODEL      129
REMARK 921   NORMALIZED FREE ENERGY PREDICTED BY IDOCK:   -3.60 KCAL/MOL
REMARK 922        TOTAL FREE ENERGY PREDICTED BY IDOCK:   -5.52 KCAL/MOL
REMARK 923 INTER-LIGAND FREE ENERGY PREDICTED BY IDOCK:   -6.50 KCAL/MOL
REMARK 924 INTRA-LIGAND FREE ENERGY PREDICTED BY IDOCK:    0.98 KCAL/MOL
REMARK 927      BINDING AFFINITY PREDICTED BY RF-SCORE:    0.00 PKD
ROOT
HETATM    1  O   UNL     1      -9.083   5.991  70.622  1.00  0.00    -0.147 OA 
HETATM    2  C   UNL     1      -8.145   5.214  69.886  1.00  0.00    -0.082 C  
HETATM    3  H   UNL     1      -9.753   5.424  70.987  1.00  0.00     0.000 HD 
ENDROOT
BRANCH   2   4
HETATM    4  C   UNL     1      -7.073   6.122  69.302  1.00  0.00    -0.066 C  
BRANCH   4   5
HETATM    5  O   UNL     1      -7.490   7.484  69.394  1.00  0.00    -0.083 OA 
BRANCH   5   6
HETATM    6  C   UNL     1      -8.051   7.923  68.152  1.00  0.00    -0.123 C  
BRANCH   6   7
HETATM    7  C   UNL     1      -7.057   8.851  67.442  1.00  0.00    -0.079 C  
BRANCH   7   8
HETATM    8  N   UNL     1      -7.370  10.291  67.570  1.00  0.00    -0.088 NA 
HETATM    9  C   UNL     1      -8.090  10.834  66.399  1.00  0.00    -0.153 C  
HETATM   10  C   UNL     1      -9.569  10.391  66.289  1.00  0.00    -0.182 C  
HETATM   11  N   UNL     1     -10.387  10.699  67.489  1.00  0.00    -0.202 NA 
HETATM   12  C   UNL     1      -9.674  10.122  68.657  1.00  0.00    -0.163 C  
HETATM   13  C   UNL     1      -8.184  10.530  68.786  1.00  0.00    -0.134 C  
BRANCH  11  14
HETATM   14  C   UNL     1     -10.640  12.169  67.634  1.00  0.00    -0.210 C  
BRANCH  14  15
HETATM   15  C   UNL     1     -11.147  12.801  66.325  1.00  0.00    -0.321 A  
HETATM   16  C   UNL     1     -10.495  13.937  65.801  1.00  0.00    -0.313 A  
HETATM   17  C   UNL     1     -12.157  12.209  65.548  1.00  0.00    -0.209 A  
HETATM   18  C   UNL     1     -10.815  14.429  64.532  1.00  0.00    -0.271 A  
HETATM   19  C   UNL     1     -11.801  13.809  63.770  1.00  0.00    -0.303 A  
HETATM   20  C   UNL     1     -12.485  12.709  64.284  1.00  0.00    -0.494 A  
ENDBRANCH  14  15
BRANCH  14  21
HETATM   21  C   UNL     1     -11.525  12.487  68.850  1.00  0.00    -0.355 A  
HETATM   22  C   UNL     1     -12.536  14.166  70.304  1.00  0.00    -0.367 A  
HETATM   23  C   UNL     1     -12.550  11.844  70.968  1.00  0.00    -0.381 A  
HETATM   24  C   UNL     1     -11.876  13.824  69.120  1.00  0.00    -0.398 A  
HETATM   25 CL   UNL     1     -13.649  13.600  72.695  1.00  0.00    -0.649 Cl 
HETATM   26  C   UNL     1     -11.877  11.505  69.791  1.00  0.00    -0.429 A  
HETATM   27  C   UNL     1     -12.868  13.175  71.223  1.00  0.00    -0.296 A  
ENDBRANCH  14  21
ENDBRANCH  11  14
ENDBRANCH   7   8
ENDBRANCH   6   7
ENDBRANCH   5   6
ENDBRANCH   4   5
ENDBRANCH   2   4
TORSDOF 8
ENDMDL
MODEL      130
REMARK 921   NORMALIZED FREE ENERGY PREDICTED BY IDOCK:   -3.56 KCAL/MOL
REMARK 922        TOTAL FREE ENERGY PREDICTED BY IDOCK:   -5.45 KCAL/MOL
REMARK 923 INTER-LIGAND FREE ENERGY PREDICTED BY IDOCK:   -4.76 KCAL/MOL
REMARK 924 INTRA-LIGAND FREE ENERGY PREDICTED BY IDOCK:   -0.69 KCAL/MOL
REMARK 927      BINDING AFFINITY PREDICTED BY RF-SCORE:    0.00 PKD
ROOT
HETATM    1  O   UNL     1     -11.339   2.704  63.753  1.00  0.00    -0.593 OA 
HETATM    2  C   UNL     1     -10.013   2.622  63.244  1.00  0.00    -0.116 C  
HETATM    3  H   UNL     1     -11.710   1.832  63.825  1.00  0.00     0.000 HD 
ENDROOT
BRANCH   2   4
HETATM    4  C   UNL     1      -9.419   4.018  63.128  1.00  0.00    -0.139 C  
BRANCH   4   5
HETATM    5  O   UNL     1      -8.039   3.988  63.493  1.00  0.00    -0.085 OA 
BRANCH   5   6
HETATM    6  C   UNL     1      -7.895   4.020  64.916  1.00  0.00    -0.089 C  
BRANCH   6   7
HETATM    7  C   UNL     1      -8.883   5.034  65.507  1.00  0.00    -0.146 C  
BRANCH   7   8
HETATM    8  N   UNL     1      -9.104   4.892  66.962  1.00  0.00    -0.116 NA 
HETATM    9  C   UNL     1      -7.884   5.132  67.762  1.00  0.00    -0.091 C  
HETATM   10  C   UNL     1      -7.449   6.616  67.844  1.00  0.00    -0.098 C  
HETATM   11  N   UNL     1      -8.500   7.530  68.360  1.00  0.00    -0.125 NA 
HETATM   12  C   UNL     1      -9.712   7.305  67.531  1.00  0.00    -0.145 C  
HETATM   13  C   UNL     1     -10.163   5.827  67.412  1.00  0.00    -0.200 C  
BRANCH  11  14
HETATM   14  C   UNL     1      -8.753   7.324  69.823  1.00  0.00    -0.142 C  
BRANCH  14  15
HETATM   15  C   UNL     1      -7.449   7.319  70.641  1.00  0.00    -0.079 A  
HETATM   16  C   UNL     1      -6.662   8.488  70.704  1.00  0.00    -0.040 A  
HETATM   17  C   UNL     1      -7.074   6.233  71.448  1.00  0.00    -0.078 A  
HETATM   18  C   UNL     1      -5.571   8.575  71.575  1.00  0.00    -0.038 A  
HETATM   19  C   UNL     1      -5.235   7.494  72.384  1.00  0.00    -0.036 A  
HETATM   20  C   UNL     1      -5.975   6.316  72.309  1.00  0.00    -0.038 A  
ENDBRANCH  14  15
BRANCH  14  21
HETATM   21  C   UNL     1      -9.814   8.294  70.368  1.00  0.00    -0.194 A  
HETATM   22  C   UNL     1     -11.670   8.699  71.900  1.00  0.00    -0.422 A  
HETATM   23  C   UNL     1     -11.214  10.277  70.129  1.00  0.00    -0.387 A  
HETATM   24  C   UNL     1     -10.589   7.918  71.482  1.00  0.00    -0.262 A  
HETATM   25 CL   UNL     1     -13.330  10.817  71.712  1.00  0.00    -0.471 Cl 
HETATM   26  C   UNL     1     -10.142   9.488  69.704  1.00  0.00    -0.228 A  
HETATM   27  C   UNL     1     -11.978   9.874  71.220  1.00  0.00    -0.402 A  
ENDBRANCH  14  21
ENDBRANCH  11  14
ENDBRANCH   7   8
ENDBRANCH   6   7
ENDBRANCH   5   6
ENDBRANCH   4   5
ENDBRANCH   2   4
TORSDOF 8
ENDMDL
MODEL      131
REMARK 921   NORMALIZED FREE ENERGY PREDICTED BY IDOCK:   -3.55 KCAL/MOL
REMARK 922        TOTAL FREE ENERGY PREDICTED BY IDOCK:   -5.45 KCAL/MOL
REMARK 923 INTER-LIGAND FREE ENERGY PREDICTED BY IDOCK:   -4.63 KCAL/MOL
REMARK 924 INTRA-LIGAND FREE ENERGY PREDICTED BY IDOCK:   -0.82 KCAL/MOL
REMARK 927      BINDING AFFINITY PREDICTED BY RF-SCORE:    0.00 PKD
ROOT
HETATM    1  O   UNL     1     -11.614   1.880  63.248  1.00  0.00    -0.504 OA 
HETATM    2  C   UNL     1     -10.995   3.160  63.187  1.00  0.00    -0.129 C  
HETATM    3  H   UNL     1     -12.524   1.951  62.984  1.00  0.00     0.000 HD 
ENDROOT
BRANCH   2   4
HETATM    4  C   UNL     1      -9.538   3.047  63.610  1.00  0.00    -0.115 C  
BRANCH   4   5
HETATM    5  O   UNL     1      -9.424   2.156  64.720  1.00  0.00    -0.133 OA 
BRANCH   5   6
HETATM    6  C   UNL     1      -8.593   2.724  65.737  1.00  0.00    -0.115 C  
BRANCH   6   7
HETATM    7  C   UNL     1      -9.348   3.859  66.439  1.00  0.00    -0.182 C  
BRANCH   7   8
HETATM    8  N   UNL     1      -8.501   5.009  66.820  1.00  0.00    -0.107 NA 
HETATM    9  C   UNL     1      -8.952   6.285  66.226  1.00  0.00    -0.155 C  
HETATM   10  C   UNL     1     -10.244   6.866  66.851  1.00  0.00    -0.240 C  
HETATM   11  N   UNL     1     -10.172   7.068  68.320  1.00  0.00    -0.174 NA 
HETATM   12  C   UNL     1      -9.749   5.773  68.913  1.00  0.00    -0.136 C  
HETATM   13  C   UNL     1      -8.469   5.154  68.295  1.00  0.00    -0.095 C  
BRANCH  11  14
HETATM   14  C   UNL     1      -9.258   8.198  68.687  1.00  0.00    -0.143 C  
BRANCH  14  15
HETATM   15  C   UNL     1      -9.817   9.562  68.244  1.00  0.00    -0.174 A  
HETATM   16  C   UNL     1     -11.175   9.867  68.476  1.00  0.00    -0.129 A  
HETATM   17  C   UNL     1      -8.994  10.582  67.738  1.00  0.00    -0.132 A  
HETATM   18  C   UNL     1     -11.672  11.154  68.249  1.00  0.00    -0.323 A  
HETATM   19  C   UNL     1     -10.831  12.154  67.772  1.00  0.00    -0.263 A  
HETATM   20  C   UNL     1      -9.496  11.865  67.500  1.00  0.00    -0.176 A  
ENDBRANCH  14  15
BRANCH  14  21
HETATM   21  C   UNL     1      -8.851   8.155  70.169  1.00  0.00    -0.145 A  
HETATM   22  C   UNL     1      -9.515   8.308  72.512  1.00  0.00    -0.356 A  
HETATM   23  C   UNL     1      -7.172   8.356  71.927  1.00  0.00    -0.111 A  
HETATM   24  C   UNL     1      -9.851   8.178  71.162  1.00  0.00    -0.207 A  
HETATM   25 CL   UNL     1      -7.767   8.593  74.547  1.00  0.00    -0.208 Cl 
HETATM   26  C   UNL     1      -7.509   8.241  70.576  1.00  0.00    -0.067 A  
HETATM   27  C   UNL     1      -8.178   8.398  72.888  1.00  0.00    -0.114 A  
ENDBRANCH  14  21
ENDBRANCH  11  14
ENDBRANCH   7   8
ENDBRANCH   6   7
ENDBRANCH   5   6
ENDBRANCH   4   5
ENDBRANCH   2   4
TORSDOF 8
ENDMDL
MODEL      132
REMARK 921   NORMALIZED FREE ENERGY PREDICTED BY IDOCK:   -3.54 KCAL/MOL
REMARK 922        TOTAL FREE ENERGY PREDICTED BY IDOCK:   -5.44 KCAL/MOL
REMARK 923 INTER-LIGAND FREE ENERGY PREDICTED BY IDOCK:   -5.08 KCAL/MOL
REMARK 924 INTRA-LIGAND FREE ENERGY PREDICTED BY IDOCK:   -0.36 KCAL/MOL
REMARK 927      BINDING AFFINITY PREDICTED BY RF-SCORE:    0.00 PKD
ROOT
HETATM    1  O   UNL     1      -9.554   2.030  66.588  1.00  0.00    -0.361 OA 
HETATM    2  C   UNL     1      -8.950   3.259  66.976  1.00  0.00    -0.159 C  
HETATM    3  H   UNL     1     -10.497   2.089  66.690  1.00  0.00     0.000 HD 
ENDROOT
BRANCH   2   4
HETATM    4  C   UNL     1      -7.440   3.164  66.814  1.00  0.00    -0.075 C  
BRANCH   4   5
HETATM    5  O   UNL     1      -6.951   4.329  66.150  1.00  0.00    -0.063 OA 
BRANCH   5   6
HETATM    6  C   UNL     1      -5.900   4.935  66.909  1.00  0.00    -0.026 C  
BRANCH   6   7
HETATM    7  C   UNL     1      -6.240   4.862  68.403  1.00  0.00    -0.032 C  
BRANCH   7   8
HETATM    8  N   UNL     1      -6.400   6.178  69.057  1.00  0.00    -0.039 NA 
HETATM    9  C   UNL     1      -6.761   7.256  68.111  1.00  0.00    -0.058 C  
HETATM   10  C   UNL     1      -8.218   7.195  67.590  1.00  0.00    -0.114 C  
HETATM   11  N   UNL     1      -9.247   7.186  68.660  1.00  0.00    -0.136 NA 
HETATM   12  C   UNL     1      -8.896   6.081  69.589  1.00  0.00    -0.133 C  
HETATM   13  C   UNL     1      -7.437   6.102  70.113  1.00  0.00    -0.094 C  
BRANCH  11  14
HETATM   14  C   UNL     1      -9.348   8.512  69.352  1.00  0.00    -0.154 C  
BRANCH  14  15
HETATM   15  C   UNL     1      -9.315   9.688  68.358  1.00  0.00    -0.136 A  
HETATM   16  C   UNL     1     -10.342   9.818  67.399  1.00  0.00    -0.297 A  
HETATM   17  C   UNL     1      -8.372  10.724  68.453  1.00  0.00    -0.132 A  
HETATM   18  C   UNL     1     -10.440  10.962  66.601  1.00  0.00    -0.307 A  
HETATM   19  C   UNL     1      -9.509  11.988  66.732  1.00  0.00    -0.212 A  
HETATM   20  C   UNL     1      -8.464  11.863  67.646  1.00  0.00    -0.156 A  
ENDBRANCH  14  15
BRANCH  14  21
HETATM   21  C   UNL     1     -10.536   8.567  70.326  1.00  0.00    -0.238 A  
HETATM   22  C   UNL     1     -12.525   7.490  71.243  1.00  0.00    -0.354 A  
HETATM   23  C   UNL     1     -12.108   9.825  71.704  1.00  0.00    -0.475 A  
HETATM   24  C   UNL     1     -11.345   7.427  70.497  1.00  0.00    -0.295 A  
HETATM   25 CL   UNL     1     -14.372   8.777  72.730  1.00  0.00    -0.253 Cl 
HETATM   26  C   UNL     1     -10.936   9.763  70.946  1.00  0.00    -0.411 A  
HETATM   27  C   UNL     1     -12.902   8.689  71.841  1.00  0.00    -0.369 A  
ENDBRANCH  14  21
ENDBRANCH  11  14
ENDBRANCH   7   8
ENDBRANCH   6   7
ENDBRANCH   5   6
ENDBRANCH   4   5
ENDBRANCH   2   4
TORSDOF 8
ENDMDL
MODEL      133
REMARK 921   NORMALIZED FREE ENERGY PREDICTED BY IDOCK:   -3.54 KCAL/MOL
REMARK 922        TOTAL FREE ENERGY PREDICTED BY IDOCK:   -5.43 KCAL/MOL
REMARK 923 INTER-LIGAND FREE ENERGY PREDICTED BY IDOCK:   -4.76 KCAL/MOL
REMARK 924 INTRA-LIGAND FREE ENERGY PREDICTED BY IDOCK:   -0.67 KCAL/MOL
REMARK 927      BINDING AFFINITY PREDICTED BY RF-SCORE:    0.00 PKD
ROOT
HETATM    1  O   UNL     1      -7.403   7.448  69.967  1.00  0.00    -0.078 OA 
HETATM    2  C   UNL     1      -6.332   7.677  70.875  1.00  0.00    -0.038 C  
HETATM    3  H   UNL     1      -7.262   6.631  69.503  1.00  0.00     0.000 HD 
ENDROOT
BRANCH   2   4
HETATM    4  C   UNL     1      -6.558   8.986  71.617  1.00  0.00    -0.037 C  
BRANCH   4   5
HETATM    5  O   UNL     1      -6.628  10.065  70.684  1.00  0.00    -0.158 OA 
BRANCH   5   6
HETATM    6  C   UNL     1      -5.315  10.458  70.272  1.00  0.00    -0.051 C  
BRANCH   6   7
HETATM    7  C   UNL     1      -5.416  11.656  69.319  1.00  0.00    -0.049 C  
BRANCH   7   8
HETATM    8  N   UNL     1      -6.531  12.580  69.618  1.00  0.00    -0.096 NA 
HETATM    9  C   UNL     1      -6.111  13.996  69.682  1.00  0.00    -0.122 C  
HETATM   10  C   UNL     1      -5.783  14.633  68.310  1.00  0.00    -0.117 C  
HETATM   11  N   UNL     1      -6.886  14.547  67.320  1.00  0.00    -0.229 NA 
HETATM   12  C   UNL     1      -7.281  13.118  67.238  1.00  0.00    -0.032 C  
HETATM   13  C   UNL     1      -7.597  12.443  68.597  1.00  0.00    -0.082 C  
BRANCH  11  14
HETATM   14  C   UNL     1      -8.032  15.444  67.678  1.00  0.00    -0.155 C  
BRANCH  14  15
HETATM   15  C   UNL     1      -7.746  16.916  67.329  1.00  0.00    -0.196 A  
HETATM   16  C   UNL     1      -6.878  17.223  66.260  1.00  0.00    -0.283 A  
HETATM   17  C   UNL     1      -8.426  17.979  67.947  1.00  0.00    -0.253 A  
HETATM   18  C   UNL     1      -6.734  18.537  65.805  1.00  0.00    -0.316 A  
HETATM   19  C   UNL     1      -7.438  19.570  66.417  1.00  0.00    -0.277 A  
HETATM   20  C   UNL     1      -8.271  19.295  67.499  1.00  0.00    -0.320 A  
ENDBRANCH  14  15
BRANCH  14  21
HETATM   21  C   UNL     1      -9.367  14.930  67.114  1.00  0.00    -0.227 A  
HETATM   22  C   UNL     1     -10.862  14.695  65.199  1.00  0.00    -0.414 A  
HETATM   23  C   UNL     1     -11.678  14.212  67.421  1.00  0.00    -0.422 A  
HETATM   24  C   UNL     1      -9.603  14.997  65.727  1.00  0.00    -0.327 A  
HETATM   25 CL   UNL     1     -13.452  13.968  65.405  1.00  0.00     0.156 Cl 
HETATM   26  C   UNL     1     -10.423  14.528  67.949  1.00  0.00    -0.242 A  
HETATM   27  C   UNL     1     -11.894  14.306  66.049  1.00  0.00    -0.391 A  
ENDBRANCH  14  21
ENDBRANCH  11  14
ENDBRANCH   7   8
ENDBRANCH   6   7
ENDBRANCH   5   6
ENDBRANCH   4   5
ENDBRANCH   2   4
TORSDOF 8
ENDMDL
MODEL      134
REMARK 921   NORMALIZED FREE ENERGY PREDICTED BY IDOCK:   -3.53 KCAL/MOL
REMARK 922        TOTAL FREE ENERGY PREDICTED BY IDOCK:   -5.42 KCAL/MOL
REMARK 923 INTER-LIGAND FREE ENERGY PREDICTED BY IDOCK:   -4.69 KCAL/MOL
REMARK 924 INTRA-LIGAND FREE ENERGY PREDICTED BY IDOCK:   -0.73 KCAL/MOL
REMARK 927      BINDING AFFINITY PREDICTED BY RF-SCORE:    0.00 PKD
ROOT
HETATM    1  O   UNL     1      -5.691  13.965  72.950  1.00  0.00    -0.436 OA 
HETATM    2  C   UNL     1      -5.131  13.159  71.919  1.00  0.00    -0.123 C  
HETATM    3  H   UNL     1      -5.281  13.753  73.780  1.00  0.00     0.000 HD 
ENDROOT
BRANCH   2   4
HETATM    4  C   UNL     1      -5.788  13.496  70.589  1.00  0.00    -0.171 C  
BRANCH   4   5
HETATM    5  O   UNL     1      -5.947  12.308  69.813  1.00  0.00    -0.111 OA 
BRANCH   5   6
HETATM    6  C   UNL     1      -7.110  12.400  68.984  1.00  0.00    -0.041 C  
BRANCH   6   7
HETATM    7  C   UNL     1      -7.106  11.251  67.968  1.00  0.00    -0.070 C  
BRANCH   7   8
HETATM    8  N   UNL     1      -6.910   9.912  68.563  1.00  0.00    -0.058 NA 
HETATM    9  C   UNL     1      -7.801   9.653  69.714  1.00  0.00    -0.142 C  
HETATM   10  C   UNL     1      -9.284   9.410  69.340  1.00  0.00    -0.165 C  
HETATM   11  N   UNL     1      -9.493   8.310  68.365  1.00  0.00    -0.139 NA 
HETATM   12  C   UNL     1      -8.619   8.594  67.199  1.00  0.00    -0.121 C  
HETATM   13  C   UNL     1      -7.131   8.861  67.541  1.00  0.00    -0.076 C  
BRANCH  11  14
HETATM   14  C   UNL     1      -9.228   6.965  68.973  1.00  0.00    -0.137 C  
BRANCH  14  15
HETATM   15  C   UNL     1     -10.048   6.737  70.255  1.00  0.00    -0.196 A  
HETATM   16  C   UNL     1     -11.423   7.056  70.269  1.00  0.00    -0.333 A  
HETATM   17  C   UNL     1      -9.514   6.091  71.382  1.00  0.00    -0.172 A  
HETATM   18  C   UNL     1     -12.232   6.699  71.352  1.00  0.00    -0.378 A  
HETATM   19  C   UNL     1     -11.685   6.036  72.446  1.00  0.00    -0.322 A  
HETATM   20  C   UNL     1     -10.322   5.747  72.470  1.00  0.00    -0.233 A  
ENDBRANCH  14  15
BRANCH  14  21
HETATM   21  C   UNL     1      -9.369   5.829  67.946  1.00  0.00    -0.107 A  
HETATM   22  C   UNL     1      -8.309   4.047  66.659  1.00  0.00    -0.104 A  
HETATM   23  C   UNL     1     -10.551   4.754  66.104  1.00  0.00    -0.282 A  
HETATM   24  C   UNL     1      -8.272   4.980  67.699  1.00  0.00    -0.105 A  
HETATM   25 CL   UNL     1      -9.480   2.817  64.563  1.00  0.00    -0.152 Cl 
HETATM   26  C   UNL     1     -10.508   5.696  67.135  1.00  0.00    -0.334 A  
HETATM   27  C   UNL     1      -9.448   3.940  65.865  1.00  0.00    -0.181 A  
ENDBRANCH  14  21
ENDBRANCH  11  14
ENDBRANCH   7   8
ENDBRANCH   6   7
ENDBRANCH   5   6
ENDBRANCH   4   5
ENDBRANCH   2   4
TORSDOF 8
ENDMDL
MODEL      135
REMARK 921   NORMALIZED FREE ENERGY PREDICTED BY IDOCK:   -3.38 KCAL/MOL
REMARK 922        TOTAL FREE ENERGY PREDICTED BY IDOCK:   -5.20 KCAL/MOL
REMARK 923 INTER-LIGAND FREE ENERGY PREDICTED BY IDOCK:   -5.16 KCAL/MOL
REMARK 924 INTRA-LIGAND FREE ENERGY PREDICTED BY IDOCK:   -0.03 KCAL/MOL
REMARK 927      BINDING AFFINITY PREDICTED BY RF-SCORE:    0.00 PKD
ROOT
HETATM    1  O   UNL     1      -6.737  13.166  69.563  1.00  0.00    -0.259 OA 
HETATM    2  C   UNL     1      -5.501  13.769  69.928  1.00  0.00    -0.103 C  
HETATM    3  H   UNL     1      -6.874  12.378  70.076  1.00  0.00     0.000 HD 
ENDROOT
BRANCH   2   4
HETATM    4  C   UNL     1      -5.282  15.031  69.107  1.00  0.00    -0.094 C  
BRANCH   4   5
HETATM    5  O   UNL     1      -5.370  16.178  69.951  1.00  0.00    -0.128 OA 
BRANCH   5   6
HETATM    6  C   UNL     1      -5.934  17.284  69.239  1.00  0.00    -0.216 C  
BRANCH   6   7
HETATM    7  C   UNL     1      -6.324  16.835  67.824  1.00  0.00    -0.147 C  
BRANCH   7   8
HETATM    8  N   UNL     1      -7.759  16.996  67.508  1.00  0.00    -0.167 NA 
HETATM    9  C   UNL     1      -8.263  15.980  66.560  1.00  0.00    -0.299 C  
HETATM   10  C   UNL     1      -8.423  14.562  67.159  1.00  0.00    -0.212 C  
HETATM   11  N   UNL     1      -9.288  14.504  68.363  1.00  0.00    -0.202 NA 
HETATM   12  C   UNL     1      -8.757  15.505  69.325  1.00  0.00    -0.260 C  
HETATM   13  C   UNL     1      -8.566  16.932  68.750  1.00  0.00    -0.246 C  
BRANCH  11  14
HETATM   14  C   UNL     1     -10.731  14.734  68.028  1.00  0.00    -0.248 C  
BRANCH  14  15
HETATM   15  C   UNL     1     -11.251  13.726  66.987  1.00  0.00    -0.326 A  
HETATM   16  C   UNL     1     -12.269  14.113  66.090  1.00  0.00    -0.465 A  
HETATM   17  C   UNL     1     -10.654  12.469  66.797  1.00  0.00    -0.253 A  
HETATM   18  C   UNL     1     -12.639  13.289  65.023  1.00  0.00    -0.483 A  
HETATM   19  C   UNL     1     -12.016  12.059  64.841  1.00  0.00    -0.286 A  
HETATM   20  C   UNL     1     -11.035  11.639  65.737  1.00  0.00    -0.329 A  
ENDBRANCH  14  15
BRANCH  14  21
HETATM   21  C   UNL     1     -11.610  14.821  69.287  1.00  0.00    -0.331 A  
HETATM   22  C   UNL     1     -13.619  15.692  70.364  1.00  0.00     0.535 A  
HETATM   23  C   UNL     1     -11.897  14.657  71.704  1.00  0.00    -0.324 A  
HETATM   24  C   UNL     1     -12.869  15.448  69.210  1.00  0.00     0.494 A  
HETATM   25 CL   UNL     1     -14.035  15.629  73.029  1.00  0.00    -0.480 Cl 
HETATM   26  C   UNL     1     -11.141  14.426  70.552  1.00  0.00     0.089 A  
HETATM   27  C   UNL     1     -13.129  15.297  71.606  1.00  0.00    -0.425 A  
ENDBRANCH  14  21
ENDBRANCH  11  14
ENDBRANCH   7   8
ENDBRANCH   6   7
ENDBRANCH   5   6
ENDBRANCH   4   5
ENDBRANCH   2   4
TORSDOF 8
ENDMDL
MODEL      136
REMARK 921   NORMALIZED FREE ENERGY PREDICTED BY IDOCK:   -3.35 KCAL/MOL
REMARK 922        TOTAL FREE ENERGY PREDICTED BY IDOCK:   -5.16 KCAL/MOL
REMARK 923 INTER-LIGAND FREE ENERGY PREDICTED BY IDOCK:   -4.53 KCAL/MOL
REMARK 924 INTRA-LIGAND FREE ENERGY PREDICTED BY IDOCK:   -0.63 KCAL/MOL
REMARK 927      BINDING AFFINITY PREDICTED BY RF-SCORE:    0.00 PKD
ROOT
HETATM    1  O   UNL     1      -9.598   5.388  69.255  1.00  0.00    -0.128 OA 
HETATM    2  C   UNL     1      -8.259   5.825  69.057  1.00  0.00    -0.101 C  
HETATM    3  H   UNL     1      -9.882   4.876  68.507  1.00  0.00     0.000 HD 
ENDROOT
BRANCH   2   4
HETATM    4  C   UNL     1      -7.803   6.646  70.254  1.00  0.00    -0.107 C  
BRANCH   4   5
HETATM    5  O   UNL     1      -7.674   8.018  69.879  1.00  0.00    -0.095 OA 
BRANCH   5   6
HETATM    6  C   UNL     1      -6.510   8.208  69.066  1.00  0.00    -0.040 C  
BRANCH   6   7
HETATM    7  C   UNL     1      -6.374   9.694  68.711  1.00  0.00    -0.046 C  
BRANCH   7   8
HETATM    8  N   UNL     1      -7.585  10.498  68.979  1.00  0.00    -0.106 NA 
HETATM    9  C   UNL     1      -7.281  11.879  69.410  1.00  0.00     0.116 C  
HETATM   10  C   UNL     1      -6.760  12.806  68.285  1.00  0.00    -0.087 C  
HETATM   11  N   UNL     1      -7.660  12.902  67.109  1.00  0.00    -0.088 NA 
HETATM   12  C   UNL     1      -7.935  11.512  66.662  1.00  0.00    -0.127 C  
HETATM   13  C   UNL     1      -8.440  10.552  67.770  1.00  0.00    -0.114 C  
BRANCH  11  14
HETATM   14  C   UNL     1      -8.911  13.667  67.422  1.00  0.00    -0.218 C  
BRANCH  14  15
HETATM   15  C   UNL     1      -8.636  15.167  67.628  1.00  0.00    -0.180 A  
HETATM   16  C   UNL     1      -9.392  15.891  68.575  1.00  0.00    -0.206 A  
HETATM   17  C   UNL     1      -7.561  15.825  67.007  1.00  0.00    -0.257 A  
HETATM   18  C   UNL     1      -9.053  17.204  68.913  1.00  0.00    -0.192 A  
HETATM   19  C   UNL     1      -7.967  17.826  68.303  1.00  0.00    -0.282 A  
HETATM   20  C   UNL     1      -7.231  17.143  67.337  1.00  0.00    -0.178 A  
ENDBRANCH  14  15
BRANCH  14  21
HETATM   21  C   UNL     1     -10.031  13.384  66.406  1.00  0.00    -0.293 A  
HETATM   22  C   UNL     1     -12.127  12.248  65.885  1.00  0.00    -0.261 A  
HETATM   23  C   UNL     1     -10.854  13.284  64.112  1.00  0.00    -0.369 A  
HETATM   24  C   UNL     1     -11.171  12.666  66.815  1.00  0.00    -0.347 A  
HETATM   25 CL   UNL     1     -13.120  12.013  63.387  1.00  0.00    -0.332 Cl 
HETATM   26  C   UNL     1      -9.893  13.689  65.041  1.00  0.00    -0.087 A  
HETATM   27  C   UNL     1     -11.963  12.557  64.538  1.00  0.00    -0.404 A  
ENDBRANCH  14  21
ENDBRANCH  11  14
ENDBRANCH   7   8
ENDBRANCH   6   7
ENDBRANCH   5   6
ENDBRANCH   4   5
ENDBRANCH   2   4
TORSDOF 8
ENDMDL
MODEL      137
REMARK 921   NORMALIZED FREE ENERGY PREDICTED BY IDOCK:   -3.30 KCAL/MOL
REMARK 922        TOTAL FREE ENERGY PREDICTED BY IDOCK:   -5.08 KCAL/MOL
REMARK 923 INTER-LIGAND FREE ENERGY PREDICTED BY IDOCK:   -5.02 KCAL/MOL
REMARK 924 INTRA-LIGAND FREE ENERGY PREDICTED BY IDOCK:   -0.06 KCAL/MOL
REMARK 927      BINDING AFFINITY PREDICTED BY RF-SCORE:    0.00 PKD
ROOT
HETATM    1  O   UNL     1     -11.576   4.686  65.306  1.00  0.00    -1.093 OA 
HETATM    2  C   UNL     1     -10.511   4.338  66.183  1.00  0.00     0.093 C  
HETATM    3  H   UNL     1     -12.364   4.858  65.810  1.00  0.00     0.000 HD 
ENDROOT
BRANCH   2   4
HETATM    4  C   UNL     1      -9.250   4.063  65.378  1.00  0.00    -0.150 C  
BRANCH   4   5
HETATM    5  O   UNL     1      -9.005   5.146  64.480  1.00  0.00    -0.115 OA 
BRANCH   5   6
HETATM    6  C   UNL     1      -7.635   5.555  64.548  1.00  0.00    -0.080 C  
BRANCH   6   7
HETATM    7  C   UNL     1      -7.537   7.060  64.268  1.00  0.00    -0.112 C  
BRANCH   7   8
HETATM    8  N   UNL     1      -7.051   7.862  65.412  1.00  0.00    -0.059 NA 
HETATM    9  C   UNL     1      -7.676   9.199  65.491  1.00  0.00    -0.094 C  
HETATM   10  C   UNL     1      -9.153   9.194  65.957  1.00  0.00    -0.197 C  
HETATM   11  N   UNL     1      -9.376   8.527  67.264  1.00  0.00    -0.145 NA 
HETATM   12  C   UNL     1      -8.773   7.172  67.167  1.00  0.00    -0.121 C  
HETATM   13  C   UNL     1      -7.301   7.141  66.683  1.00  0.00    -0.084 C  
BRANCH  11  14
HETATM   14  C   UNL     1      -8.819   9.326  68.404  1.00  0.00    -0.129 C  
BRANCH  14  15
HETATM   15  C   UNL     1      -9.355  10.769  68.414  1.00  0.00    -0.167 A  
HETATM   16  C   UNL     1      -8.447  11.850  68.401  1.00  0.00    -0.155 A  
HETATM   17  C   UNL     1     -10.723  11.063  68.296  1.00  0.00    -0.235 A  
HETATM   18  C   UNL     1      -8.895  13.163  68.232  1.00  0.00    -0.175 A  
HETATM   19  C   UNL     1     -10.254  13.426  68.092  1.00  0.00    -0.246 A  
HETATM   20  C   UNL     1     -11.171  12.378  68.141  1.00  0.00    -0.313 A  
ENDBRANCH  14  15
BRANCH  14  21
HETATM   21  C   UNL     1      -8.982   8.603  69.751  1.00  0.00    -0.145 A  
HETATM   22  C   UNL     1      -9.906   8.599  72.010  1.00  0.00    -0.396 A  
HETATM   23  C   UNL     1      -8.234   6.966  71.397  1.00  0.00    -0.110 A  
HETATM   24  C   UNL     1      -9.858   9.132  70.719  1.00  0.00    -0.334 A  
HETATM   25 CL   UNL     1      -9.125   6.885  73.942  1.00  0.00    -0.192 Cl 
HETATM   26  C   UNL     1      -8.177   7.510  70.112  1.00  0.00    -0.132 A  
HETATM   27  C   UNL     1      -9.093   7.519  72.344  1.00  0.00    -0.136 A  
ENDBRANCH  14  21
ENDBRANCH  11  14
ENDBRANCH   7   8
ENDBRANCH   6   7
ENDBRANCH   5   6
ENDBRANCH   4   5
ENDBRANCH   2   4
TORSDOF 8
ENDMDL
MODEL      138
REMARK 921   NORMALIZED FREE ENERGY PREDICTED BY IDOCK:   -3.24 KCAL/MOL
REMARK 922        TOTAL FREE ENERGY PREDICTED BY IDOCK:   -4.99 KCAL/MOL
REMARK 923 INTER-LIGAND FREE ENERGY PREDICTED BY IDOCK:   -4.29 KCAL/MOL
REMARK 924 INTRA-LIGAND FREE ENERGY PREDICTED BY IDOCK:   -0.70 KCAL/MOL
REMARK 927      BINDING AFFINITY PREDICTED BY RF-SCORE:    0.00 PKD
ROOT
HETATM    1  O   UNL     1      -8.001  10.753  63.625  1.00  0.00    -0.357 OA 
HETATM    2  C   UNL     1      -7.683   9.891  64.712  1.00  0.00    -0.138 C  
HETATM    3  H   UNL     1      -8.751  10.410  63.152  1.00  0.00     0.000 HD 
ENDROOT
BRANCH   2   4
HETATM    4  C   UNL     1      -6.482  10.439  65.468  1.00  0.00    -0.126 C  
BRANCH   4   5
HETATM    5  O   UNL     1      -6.907  10.994  66.713  1.00  0.00    -0.110 OA 
BRANCH   5   6
HETATM    6  C   UNL     1      -5.802  11.107  67.616  1.00  0.00    -0.048 C  
BRANCH   6   7
HETATM    7  C   UNL     1      -6.167  10.448  68.953  1.00  0.00    -0.043 C  
BRANCH   7   8
HETATM    8  N   UNL     1      -6.812   9.124  68.824  1.00  0.00    -0.060 NA 
HETATM    9  C   UNL     1      -6.095   8.055  69.551  1.00  0.00    -0.033 C  
HETATM   10  C   UNL     1      -6.237   8.116  71.091  1.00  0.00    -0.034 C  
HETATM   11  N   UNL     1      -7.641   8.109  71.573  1.00  0.00    -0.076 NA 
HETATM   12  C   UNL     1      -8.347   9.205  70.863  1.00  0.00    -0.185 C  
HETATM   13  C   UNL     1      -8.208   9.185  69.319  1.00  0.00    -0.118 C  
BRANCH  11  14
HETATM   14  C   UNL     1      -8.295   6.775  71.374  1.00  0.00    -0.119 C  
BRANCH  14  15
HETATM   15  C   UNL     1      -7.678   5.687  72.273  1.00  0.00    -0.102 A  
HETATM   16  C   UNL     1      -7.224   6.026  73.565  1.00  0.00    -0.085 A  
HETATM   17  C   UNL     1      -7.673   4.330  71.911  1.00  0.00    -0.079 A  
HETATM   18  C   UNL     1      -6.823   5.037  74.468  1.00  0.00    -0.073 A  
HETATM   19  C   UNL     1      -6.852   3.696  74.095  1.00  0.00    -0.046 A  
HETATM   20  C   UNL     1      -7.260   3.343  72.811  1.00  0.00    -0.045 A  
ENDBRANCH  14  15
BRANCH  14  21
HETATM   21  C   UNL     1      -9.827   6.861  71.481  1.00  0.00    -0.175 A  
HETATM   22  C   UNL     1     -12.003   6.618  70.404  1.00  0.00    -0.342 A  
HETATM   23  C   UNL     1     -11.846   7.717  72.548  1.00  0.00    -0.354 A  
HETATM   24  C   UNL     1     -10.622   6.403  70.412  1.00  0.00    -0.294 A  
HETATM   25 CL   UNL     1     -14.302   7.570  71.445  1.00  0.00    -0.566 Cl 
HETATM   26  C   UNL     1     -10.463   7.516  72.549  1.00  0.00    -0.300 A  
HETATM   27  C   UNL     1     -12.608   7.275  71.471  1.00  0.00    -0.379 A  
ENDBRANCH  14  21
ENDBRANCH  11  14
ENDBRANCH   7   8
ENDBRANCH   6   7
ENDBRANCH   5   6
ENDBRANCH   4   5
ENDBRANCH   2   4
TORSDOF 8
ENDMDL
MODEL      139
REMARK 921   NORMALIZED FREE ENERGY PREDICTED BY IDOCK:   -3.20 KCAL/MOL
REMARK 922        TOTAL FREE ENERGY PREDICTED BY IDOCK:   -4.93 KCAL/MOL
REMARK 923 INTER-LIGAND FREE ENERGY PREDICTED BY IDOCK:   -5.02 KCAL/MOL
REMARK 924 INTRA-LIGAND FREE ENERGY PREDICTED BY IDOCK:    0.08 KCAL/MOL
REMARK 927      BINDING AFFINITY PREDICTED BY RF-SCORE:    0.00 PKD
ROOT
HETATM    1  O   UNL     1      -9.638   8.604  68.630  1.00  0.00    -0.152 OA 
HETATM    2  C   UNL     1      -8.277   8.257  68.399  1.00  0.00    -0.132 C  
HETATM    3  H   UNL     1     -10.126   8.547  67.817  1.00  0.00     0.000 HD 
ENDROOT
BRANCH   2   4
HETATM    4  C   UNL     1      -7.495   8.348  69.701  1.00  0.00    -0.073 C  
BRANCH   4   5
HETATM    5  O   UNL     1      -6.399   9.249  69.544  1.00  0.00    -0.042 OA 
BRANCH   5   6
HETATM    6  C   UNL     1      -6.310   9.701  68.189  1.00  0.00    -0.056 C  
BRANCH   6   7
HETATM    7  C   UNL     1      -5.373  10.914  68.115  1.00  0.00    -0.035 C  
BRANCH   7   8
HETATM    8  N   UNL     1      -6.045  12.181  67.757  1.00  0.00    -0.077 NA 
HETATM    9  C   UNL     1      -6.959  12.048  66.603  1.00  0.00     0.154 C  
HETATM   10  C   UNL     1      -8.274  11.288  66.905  1.00  0.00    -0.153 C  
HETATM   11  N   UNL     1      -9.062  11.859  68.026  1.00  0.00    -0.183 NA 
HETATM   12  C   UNL     1      -8.146  11.960  69.191  1.00  0.00     0.300 C  
HETATM   13  C   UNL     1      -6.811  12.698  68.917  1.00  0.00    -0.097 C  
BRANCH  11  14
HETATM   14  C   UNL     1      -9.682  13.175  67.663  1.00  0.00    -0.213 C  
BRANCH  14  15
HETATM   15  C   UNL     1     -10.415  13.115  66.311  1.00  0.00    -0.291 A  
HETATM   16  C   UNL     1     -11.347  12.084  66.067  1.00  0.00    -0.398 A  
HETATM   17  C   UNL     1     -10.298  14.133  65.349  1.00  0.00    -0.384 A  
HETATM   18  C   UNL     1     -12.155  12.100  64.927  1.00  0.00    -0.342 A  
HETATM   19  C   UNL     1     -12.039  13.133  64.001  1.00  0.00    -0.511 A  
HETATM   20  C   UNL     1     -11.098  14.141  64.202  1.00  0.00     0.002 A  
ENDBRANCH  14  15
BRANCH  14  21
HETATM   21  C   UNL     1     -10.545  13.741  68.803  1.00  0.00    -0.253 A  
HETATM   22  C   UNL     1     -10.860  15.442  70.524  1.00  0.00    -0.327 A  
HETATM   23  C   UNL     1     -12.253  13.468  70.523  1.00  0.00    -0.433 A  
HETATM   24  C   UNL     1     -10.202  14.978  69.382  1.00  0.00    -0.229 A  
HETATM   25 CL   UNL     1     -12.669  15.237  72.516  1.00  0.00    -0.410 Cl 
HETATM   26  C   UNL     1     -11.584  12.999  69.389  1.00  0.00    -0.360 A  
HETATM   27  C   UNL     1     -11.882  14.684  71.090  1.00  0.00    -0.323 A  
ENDBRANCH  14  21
ENDBRANCH  11  14
ENDBRANCH   7   8
ENDBRANCH   6   7
ENDBRANCH   5   6
ENDBRANCH   4   5
ENDBRANCH   2   4
TORSDOF 8
ENDMDL
MODEL      140
REMARK 921   NORMALIZED FREE ENERGY PREDICTED BY IDOCK:   -3.19 KCAL/MOL
REMARK 922        TOTAL FREE ENERGY PREDICTED BY IDOCK:   -4.92 KCAL/MOL
REMARK 923 INTER-LIGAND FREE ENERGY PREDICTED BY IDOCK:   -4.26 KCAL/MOL
REMARK 924 INTRA-LIGAND FREE ENERGY PREDICTED BY IDOCK:   -0.67 KCAL/MOL
REMARK 927      BINDING AFFINITY PREDICTED BY RF-SCORE:    0.00 PKD
ROOT
HETATM    1  O   UNL     1      -8.606  11.473  62.557  1.00  0.00    -0.595 OA 
HETATM    2  C   UNL     1      -8.036  10.174  62.666  1.00  0.00    -0.142 C  
HETATM    3  H   UNL     1      -9.478  11.410  62.184  1.00  0.00     0.000 HD 
ENDROOT
BRANCH   2   4
HETATM    4  C   UNL     1      -6.640  10.274  63.263  1.00  0.00    -0.112 C  
BRANCH   4   5
HETATM    5  O   UNL     1      -6.726  10.332  64.687  1.00  0.00    -0.130 OA 
BRANCH   5   6
HETATM    6  C   UNL     1      -5.464  10.010  65.280  1.00  0.00    -0.067 C  
BRANCH   6   7
HETATM    7  C   UNL     1      -5.695   9.320  66.631  1.00  0.00    -0.054 C  
BRANCH   7   8
HETATM    8  N   UNL     1      -6.983   8.602  66.735  1.00  0.00    -0.076 NA 
HETATM    9  C   UNL     1      -6.834   7.204  67.192  1.00  0.00    -0.076 C  
HETATM   10  C   UNL     1      -6.481   7.050  68.692  1.00  0.00    -0.036 C  
HETATM   11  N   UNL     1      -7.438   7.713  69.613  1.00  0.00    -0.089 NA 
HETATM   12  C   UNL     1      -7.559   9.125  69.167  1.00  0.00    -0.073 C  
HETATM   13  C   UNL     1      -7.892   9.314  67.665  1.00  0.00    -0.096 C  
BRANCH  11  14
HETATM   14  C   UNL     1      -8.758   7.005  69.654  1.00  0.00    -0.141 C  
BRANCH  14  15
HETATM   15  C   UNL     1      -8.633   5.579  70.221  1.00  0.00    -0.126 A  
HETATM   16  C   UNL     1      -9.385   4.532  69.647  1.00  0.00    -0.221 A  
HETATM   17  C   UNL     1      -7.688   5.244  71.205  1.00  0.00    -0.101 A  
HETATM   18  C   UNL     1      -9.166   3.202  70.017  1.00  0.00    -0.221 A  
HETATM   19  C   UNL     1      -8.206   2.892  70.976  1.00  0.00    -0.074 A  
HETATM   20  C   UNL     1      -7.479   3.914  71.584  1.00  0.00    -0.056 A  
ENDBRANCH  14  15
BRANCH  14  21
HETATM   21  C   UNL     1      -9.844   7.845  70.347  1.00  0.00    -0.183 A  
HETATM   22  C   UNL     1     -11.031   8.424  72.399  1.00  0.00    -0.425 A  
HETATM   23  C   UNL     1     -11.892   9.168  70.268  1.00  0.00     0.032 A  
HETATM   24  C   UNL     1      -9.957   7.808  71.751  1.00  0.00    -0.219 A  
HETATM   25 CL   UNL     1     -13.334   9.828  72.449  1.00  0.00    -0.451 Cl 
HETATM   26  C   UNL     1     -10.825   8.539  69.620  1.00  0.00    -0.157 A  
HETATM   27  C   UNL     1     -11.994   9.100  71.655  1.00  0.00    -0.367 A  
ENDBRANCH  14  21
ENDBRANCH  11  14
ENDBRANCH   7   8
ENDBRANCH   6   7
ENDBRANCH   5   6
ENDBRANCH   4   5
ENDBRANCH   2   4
TORSDOF 8
ENDMDL
MODEL      141
REMARK 921   NORMALIZED FREE ENERGY PREDICTED BY IDOCK:   -3.16 KCAL/MOL
REMARK 922        TOTAL FREE ENERGY PREDICTED BY IDOCK:   -4.88 KCAL/MOL
REMARK 923 INTER-LIGAND FREE ENERGY PREDICTED BY IDOCK:   -4.75 KCAL/MOL
REMARK 924 INTRA-LIGAND FREE ENERGY PREDICTED BY IDOCK:   -0.13 KCAL/MOL
REMARK 927      BINDING AFFINITY PREDICTED BY RF-SCORE:    0.00 PKD
ROOT
HETATM    1  O   UNL     1     -10.551  14.467  67.140  1.00  0.00    -0.272 OA 
HETATM    2  C   UNL     1     -10.848  13.124  66.772  1.00  0.00    -0.276 C  
HETATM    3  H   UNL     1      -9.744  14.743  66.722  1.00  0.00     0.000 HD 
ENDROOT
BRANCH   2   4
HETATM    4  C   UNL     1     -12.140  12.681  67.442  1.00  0.00    -0.111 C  
BRANCH   4   5
HETATM    5  O   UNL     1     -11.956  11.403  68.050  1.00  0.00    -0.613 OA 
BRANCH   5   6
HETATM    6  C   UNL     1     -10.567  11.162  68.303  1.00  0.00    -0.190 C  
BRANCH   6   7
HETATM    7  C   UNL     1     -10.413  10.408  69.629  1.00  0.00    -0.243 C  
BRANCH   7   8
HETATM    8  N   UNL     1      -9.303   9.432  69.649  1.00  0.00    -0.176 NA 
HETATM    9  C   UNL     1      -9.536   8.304  70.576  1.00  0.00    -0.167 C  
HETATM   10  C   UNL     1     -10.596   7.283  70.095  1.00  0.00    -0.232 C  
HETATM   11  N   UNL     1     -10.316   6.701  68.758  1.00  0.00    -0.180 NA 
HETATM   12  C   UNL     1     -10.113   7.839  67.825  1.00  0.00    -0.189 C  
HETATM   13  C   UNL     1      -9.073   8.892  68.288  1.00  0.00    -0.140 C  
BRANCH  11  14
HETATM   14  C   UNL     1      -9.146   5.763  68.788  1.00  0.00    -0.115 C  
BRANCH  14  15
HETATM   15  C   UNL     1      -9.197   4.813  69.998  1.00  0.00    -0.178 A  
HETATM   16  C   UNL     1      -9.644   3.487  69.825  1.00  0.00    -0.206 A  
HETATM   17  C   UNL     1      -8.682   5.172  71.255  1.00  0.00    -0.137 A  
HETATM   18  C   UNL     1      -9.537   2.551  70.858  1.00  0.00    -0.192 A  
HETATM   19  C   UNL     1      -9.000   2.923  72.086  1.00  0.00    -0.129 A  
HETATM   20  C   UNL     1      -8.588   4.238  72.292  1.00  0.00    -0.114 A  
ENDBRANCH  14  15
BRANCH  14  21
HETATM   21  C   UNL     1      -8.954   5.036  67.447  1.00  0.00    -0.111 A  
HETATM   22  C   UNL     1      -7.522   4.551  65.531  1.00  0.00    -0.081 A  
HETATM   23  C   UNL     1      -9.861   3.954  65.458  1.00  0.00    -0.156 A  
HETATM   24  C   UNL     1      -7.691   5.056  66.824  1.00  0.00    -0.092 A  
HETATM   25 CL   UNL     1      -8.408   3.414  63.251  1.00  0.00    -0.088 Cl 
HETATM   26  C   UNL     1     -10.032   4.472  66.744  1.00  0.00    -0.240 A  
HETATM   27  C   UNL     1      -8.608   4.004  64.854  1.00  0.00    -0.115 A  
ENDBRANCH  14  21
ENDBRANCH  11  14
ENDBRANCH   7   8
ENDBRANCH   6   7
ENDBRANCH   5   6
ENDBRANCH   4   5
ENDBRANCH   2   4
TORSDOF 8
ENDMDL
MODEL      142
REMARK 921   NORMALIZED FREE ENERGY PREDICTED BY IDOCK:   -3.14 KCAL/MOL
REMARK 922        TOTAL FREE ENERGY PREDICTED BY IDOCK:   -4.84 KCAL/MOL
REMARK 923 INTER-LIGAND FREE ENERGY PREDICTED BY IDOCK:   -8.51 KCAL/MOL
REMARK 924 INTRA-LIGAND FREE ENERGY PREDICTED BY IDOCK:    3.66 KCAL/MOL
REMARK 927      BINDING AFFINITY PREDICTED BY RF-SCORE:    0.00 PKD
ROOT
HETATM    1  O   UNL     1     -10.769  20.194  68.202  1.00  0.00    -0.233 OA 
HETATM    2  C   UNL     1      -9.720  19.234  68.154  1.00  0.00    -0.363 C  
HETATM    3  H   UNL     1     -11.208  20.149  69.044  1.00  0.00     0.000 HD 
ENDROOT
BRANCH   2   4
HETATM    4  C   UNL     1      -9.019  19.305  66.806  1.00  0.00    -0.327 C  
BRANCH   4   5
HETATM    5  O   UNL     1      -9.258  18.103  66.073  1.00  0.00    -0.507 OA 
BRANCH   5   6
HETATM    6  C   UNL     1      -8.077  17.296  66.033  1.00  0.00    -0.151 C  
BRANCH   6   7
HETATM    7  C   UNL     1      -8.239  16.105  66.987  1.00  0.00    -0.216 C  
BRANCH   7   8
HETATM    8  N   UNL     1      -9.087  15.015  66.461  1.00  0.00    -0.279 NA 
HETATM    9  C   UNL     1      -8.949  13.754  67.220  1.00  0.00    -0.224 C  
HETATM   10  C   UNL     1      -9.611  13.767  68.619  1.00  0.00    -0.121 C  
HETATM   11  N   UNL     1     -11.054  14.115  68.605  1.00  0.00    -0.251 NA 
HETATM   12  C   UNL     1     -11.182  15.398  67.869  1.00  0.00    -0.329 C  
HETATM   13  C   UNL     1     -10.512  15.425  66.472  1.00  0.00    -0.294 C  
BRANCH  11  14
HETATM   14  C   UNL     1     -11.889  13.021  68.010  1.00  0.00    -0.347 C  
BRANCH  14  15
HETATM   15  C   UNL     1     -11.639  12.859  66.499  1.00  0.00    -0.425 A  
HETATM   16  C   UNL     1     -10.676  11.932  66.048  1.00  0.00    -0.326 A  
HETATM   17  C   UNL     1     -12.432  13.501  65.535  1.00  0.00    -0.538 A  
HETATM   18  C   UNL     1     -10.548  11.632  64.688  1.00  0.00    -0.366 A  
HETATM   19  C   UNL     1     -11.363  12.263  63.754  1.00  0.00    -0.534 A  
HETATM   20  C   UNL     1     -12.294  13.210  64.174  1.00  0.00    -0.418 A  
ENDBRANCH  14  15
BRANCH  14  21
HETATM   21  C   UNL     1     -11.764  11.705  68.796  1.00  0.00    -0.392 A  
HETATM   22  C   UNL     1     -12.033  10.510  70.907  1.00  0.00    -0.481 A  
HETATM   23  C   UNL     1     -10.795   9.488  69.102  1.00  0.00    -0.194 A  
HETATM   24  C   UNL     1     -12.275  11.630  70.106  1.00  0.00    -0.367 A  
HETATM   25 CL   UNL     1     -10.964   8.082  71.398  1.00  0.00    -0.262 Cl 
HETATM   26  C   UNL     1     -11.026  10.614  68.307  1.00  0.00    -0.314 A  
HETATM   27  C   UNL     1     -11.293   9.445  70.401  1.00  0.00    -0.248 A  
ENDBRANCH  14  21
ENDBRANCH  11  14
ENDBRANCH   7   8
ENDBRANCH   6   7
ENDBRANCH   5   6
ENDBRANCH   4   5
ENDBRANCH   2   4
TORSDOF 8
ENDMDL
MODEL      143
REMARK 921   NORMALIZED FREE ENERGY PREDICTED BY IDOCK:   -3.09 KCAL/MOL
REMARK 922        TOTAL FREE ENERGY PREDICTED BY IDOCK:   -4.78 KCAL/MOL
REMARK 923 INTER-LIGAND FREE ENERGY PREDICTED BY IDOCK:   -5.48 KCAL/MOL
REMARK 924 INTRA-LIGAND FREE ENERGY PREDICTED BY IDOCK:    0.70 KCAL/MOL
REMARK 927      BINDING AFFINITY PREDICTED BY RF-SCORE:    0.00 PKD
ROOT
HETATM    1  O   UNL     1      -5.232   9.117  71.713  1.00  0.00    -0.041 OA 
HETATM    2  C   UNL     1      -5.355   8.141  72.741  1.00  0.00    -0.038 C  
HETATM    3  H   UNL     1      -5.255   9.988  72.093  1.00  0.00     0.000 HD 
ENDROOT
BRANCH   2   4
HETATM    4  C   UNL     1      -5.318   6.747  72.132  1.00  0.00    -0.036 C  
BRANCH   4   5
HETATM    5  O   UNL     1      -5.711   6.807  70.761  1.00  0.00    -0.026 OA 
BRANCH   5   6
HETATM    6  C   UNL     1      -7.040   6.304  70.596  1.00  0.00    -0.069 C  
BRANCH   6   7
HETATM    7  C   UNL     1      -7.427   6.357  69.112  1.00  0.00    -0.095 C  
BRANCH   7   8
HETATM    8  N   UNL     1      -8.832   6.742  68.863  1.00  0.00    -0.129 NA 
HETATM    9  C   UNL     1      -9.363   7.688  69.868  1.00  0.00    -0.150 C  
HETATM   10  C   UNL     1      -8.812   9.130  69.750  1.00  0.00    -0.160 C  
HETATM   11  N   UNL     1      -9.012   9.750  68.416  1.00  0.00    -0.123 NA 
HETATM   12  C   UNL     1      -8.448   8.810  67.414  1.00  0.00    -0.116 C  
HETATM   13  C   UNL     1      -8.963   7.351  67.517  1.00  0.00    -0.126 C  
BRANCH  11  14
HETATM   14  C   UNL     1     -10.453  10.074  68.158  1.00  0.00    -0.211 C  
BRANCH  14  15
HETATM   15  C   UNL     1     -11.127  10.725  69.379  1.00  0.00    -0.324 A  
HETATM   16  C   UNL     1     -11.072  12.126  69.541  1.00  0.00    -0.117 A  
HETATM   17  C   UNL     1     -11.922   9.993  70.276  1.00  0.00    -0.264 A  
HETATM   18  C   UNL     1     -11.818  12.764  70.536  1.00  0.00    -0.142 A  
HETATM   19  C   UNL     1     -12.618  12.020  71.397  1.00  0.00    -0.330 A  
HETATM   20  C   UNL     1     -12.658  10.632  71.279  1.00  0.00    -0.533 A  
ENDBRANCH  14  15
BRANCH  14  21
HETATM   21  C   UNL     1     -10.642  10.871  66.857  1.00  0.00    -0.312 A  
HETATM   22  C   UNL     1     -11.787  12.668  65.667  1.00  0.00    -0.488 A  
HETATM   23  C   UNL     1     -10.462  11.070  64.432  1.00  0.00    -0.422 A  
HETATM   24  C   UNL     1     -11.459  12.018  66.861  1.00  0.00    -0.402 A  
HETATM   25 CL   UNL     1     -11.719  12.968  62.987  1.00  0.00    -0.151 Cl 
HETATM   26  C   UNL     1     -10.147  10.412  65.624  1.00  0.00    -0.337 A  
HETATM   27  C   UNL     1     -11.288  12.190  64.459  1.00  0.00    -0.334 A  
ENDBRANCH  14  21
ENDBRANCH  11  14
ENDBRANCH   7   8
ENDBRANCH   6   7
ENDBRANCH   5   6
ENDBRANCH   4   5
ENDBRANCH   2   4
TORSDOF 8
ENDMDL
MODEL      144
REMARK 921   NORMALIZED FREE ENERGY PREDICTED BY IDOCK:   -3.00 KCAL/MOL
REMARK 922        TOTAL FREE ENERGY PREDICTED BY IDOCK:   -4.64 KCAL/MOL
REMARK 923 INTER-LIGAND FREE ENERGY PREDICTED BY IDOCK:   -4.49 KCAL/MOL
REMARK 924 INTRA-LIGAND FREE ENERGY PREDICTED BY IDOCK:   -0.15 KCAL/MOL
REMARK 927      BINDING AFFINITY PREDICTED BY RF-SCORE:    0.00 PKD
ROOT
HETATM    1  O   UNL     1     -10.887   6.975  74.167  1.00  0.00    -0.484 OA 
HETATM    2  C   UNL     1      -9.616   7.573  73.940  1.00  0.00    -0.207 C  
HETATM    3  H   UNL     1     -10.915   6.604  75.042  1.00  0.00     0.000 HD 
ENDROOT
BRANCH   2   4
HETATM    4  C   UNL     1      -9.569   8.165  72.540  1.00  0.00    -0.277 C  
BRANCH   4   5
HETATM    5  O   UNL     1     -10.758   8.916  72.293  1.00  0.00    -0.320 OA 
BRANCH   5   6
HETATM    6  C   UNL     1     -10.879   9.222  70.900  1.00  0.00    -0.296 C  
BRANCH   6   7
HETATM    7  C   UNL     1     -11.089   7.924  70.108  1.00  0.00    -0.201 C  
BRANCH   7   8
HETATM    8  N   UNL     1      -9.840   7.297  69.625  1.00  0.00    -0.163 NA 
HETATM    9  C   UNL     1     -10.071   6.042  68.879  1.00  0.00    -0.176 C  
HETATM   10  C   UNL     1     -10.673   6.234  67.465  1.00  0.00    -0.319 C  
HETATM   11  N   UNL     1      -9.882   7.129  66.584  1.00  0.00    -0.189 NA 
HETATM   12  C   UNL     1      -9.681   8.399  67.327  1.00  0.00    -0.184 C  
HETATM   13  C   UNL     1      -9.098   8.241  68.755  1.00  0.00    -0.144 C  
BRANCH  11  14
HETATM   14  C   UNL     1      -8.590   6.498  66.157  1.00  0.00    -0.145 C  
BRANCH  14  15
HETATM   15  C   UNL     1      -8.811   5.149  65.451  1.00  0.00    -0.153 A  
HETATM   16  C   UNL     1      -8.742   5.080  64.043  1.00  0.00    -0.089 A  
HETATM   17  C   UNL     1      -8.943   3.943  66.160  1.00  0.00    -0.130 A  
HETATM   18  C   UNL     1      -8.762   3.848  63.382  1.00  0.00    -0.102 A  
HETATM   19  C   UNL     1      -8.867   2.666  64.108  1.00  0.00    -0.097 A  
HETATM   20  C   UNL     1      -8.975   2.713  65.497  1.00  0.00    -0.135 A  
ENDBRANCH  14  15
BRANCH  14  21
HETATM   21  C   UNL     1      -7.708   7.471  65.357  1.00  0.00    -0.109 A  
HETATM   22  C   UNL     1      -5.590   8.664  65.147  1.00  0.00    -0.047 A  
HETATM   23  C   UNL     1      -7.450   9.271  63.731  1.00  0.00    -0.106 A  
HETATM   24  C   UNL     1      -6.369   7.669  65.744  1.00  0.00    -0.042 A  
HETATM   25 CL   UNL     1      -5.188  10.709  63.434  1.00  0.00    -0.169 Cl 
HETATM   26  C   UNL     1      -8.232   8.285  64.339  1.00  0.00    -0.130 A  
HETATM   27  C   UNL     1      -6.135   9.461  64.145  1.00  0.00    -0.079 A  
ENDBRANCH  14  21
ENDBRANCH  11  14
ENDBRANCH   7   8
ENDBRANCH   6   7
ENDBRANCH   5   6
ENDBRANCH   4   5
ENDBRANCH   2   4
TORSDOF 8
ENDMDL
MODEL      145
REMARK 921   NORMALIZED FREE ENERGY PREDICTED BY IDOCK:   -2.99 KCAL/MOL
REMARK 922        TOTAL FREE ENERGY PREDICTED BY IDOCK:   -4.62 KCAL/MOL
REMARK 923 INTER-LIGAND FREE ENERGY PREDICTED BY IDOCK:   -8.00 KCAL/MOL
REMARK 924 INTRA-LIGAND FREE ENERGY PREDICTED BY IDOCK:    3.38 KCAL/MOL
REMARK 927      BINDING AFFINITY PREDICTED BY RF-SCORE:    0.00 PKD
ROOT
HETATM    1  O   UNL     1     -12.863  12.361  71.457  1.00  0.00    -0.366 OA 
HETATM    2  C   UNL     1     -13.455  13.075  72.536  1.00  0.00    -0.419 C  
HETATM    3  H   UNL     1     -12.897  11.428  71.632  1.00  0.00     0.000 HD 
ENDROOT
BRANCH   2   4
HETATM    4  C   UNL     1     -13.400  14.569  72.257  1.00  0.00    -0.403 C  
BRANCH   4   5
HETATM    5  O   UNL     1     -12.082  15.059  72.504  1.00  0.00    -0.351 OA 
BRANCH   5   6
HETATM    6  C   UNL     1     -11.573  15.735  71.349  1.00  0.00    -0.445 C  
BRANCH   6   7
HETATM    7  C   UNL     1     -12.521  15.507  70.165  1.00  0.00    -0.318 C  
BRANCH   7   8
HETATM    8  N   UNL     1     -11.894  15.694  68.839  1.00  0.00    -0.378 NA 
HETATM    9  C   UNL     1     -10.421  15.800  68.903  1.00  0.00    -0.223 C  
HETATM   10  C   UNL     1      -9.691  14.467  69.203  1.00  0.00    -0.055 C  
HETATM   11  N   UNL     1     -10.012  13.371  68.254  1.00  0.00    -0.237 NA 
HETATM   12  C   UNL     1     -11.492  13.250  68.219  1.00  0.00    -0.316 C  
HETATM   13  C   UNL     1     -12.254  14.570  67.941  1.00  0.00    -0.109 C  
BRANCH  11  14
HETATM   14  C   UNL     1      -9.419  13.612  66.898  1.00  0.00    -0.262 C  
BRANCH  14  15
HETATM   15  C   UNL     1     -10.427  13.333  65.768  1.00  0.00    -0.289 A  
HETATM   16  C   UNL     1     -11.140  14.404  65.190  1.00  0.00    -0.365 A  
HETATM   17  C   UNL     1     -10.568  12.062  65.188  1.00  0.00    -0.330 A  
HETATM   18  C   UNL     1     -11.926  14.212  64.050  1.00  0.00    -0.359 A  
HETATM   19  C   UNL     1     -12.031  12.948  63.477  1.00  0.00    -0.629 A  
HETATM   20  C   UNL     1     -11.366  11.868  64.055  1.00  0.00    -0.475 A  
ENDBRANCH  14  15
BRANCH  14  21
HETATM   21  C   UNL     1      -8.752  14.994  66.796  1.00  0.00    -0.293 A  
HETATM   22  C   UNL     1      -8.790  17.259  65.888  1.00  0.00     0.008 A  
HETATM   23  C   UNL     1      -6.788  16.431  66.956  1.00  0.00    -0.245 A  
HETATM   24  C   UNL     1      -9.431  16.043  66.146  1.00  0.00    -0.371 A  
HETATM   25 CL   UNL     1      -6.673  18.929  65.945  1.00  0.00    -0.270 Cl 
HETATM   26  C   UNL     1      -7.424  15.211  67.200  1.00  0.00    -0.176 A  
HETATM   27  C   UNL     1      -7.472  17.446  66.293  1.00  0.00    -0.319 A  
ENDBRANCH  14  21
ENDBRANCH  11  14
ENDBRANCH   7   8
ENDBRANCH   6   7
ENDBRANCH   5   6
ENDBRANCH   4   5
ENDBRANCH   2   4
TORSDOF 8
ENDMDL
MODEL      146
REMARK 921   NORMALIZED FREE ENERGY PREDICTED BY IDOCK:   -2.96 KCAL/MOL
REMARK 922        TOTAL FREE ENERGY PREDICTED BY IDOCK:   -4.59 KCAL/MOL
REMARK 923 INTER-LIGAND FREE ENERGY PREDICTED BY IDOCK:   -4.00 KCAL/MOL
REMARK 924 INTRA-LIGAND FREE ENERGY PREDICTED BY IDOCK:   -0.59 KCAL/MOL
REMARK 927      BINDING AFFINITY PREDICTED BY RF-SCORE:    0.00 PKD
ROOT
HETATM    1  O   UNL     1      -8.742  15.316  69.744  1.00  0.00    -0.397 OA 
HETATM    2  C   UNL     1      -8.087  14.795  68.594  1.00  0.00    -0.153 C  
HETATM    3  H   UNL     1      -9.426  15.920  69.478  1.00  0.00     0.000 HD 
ENDROOT
BRANCH   2   4
HETATM    4  C   UNL     1      -6.993  13.827  69.019  1.00  0.00    -0.104 C  
BRANCH   4   5
HETATM    5  O   UNL     1      -7.421  12.484  68.793  1.00  0.00    -0.108 OA 
BRANCH   5   6
HETATM    6  C   UNL     1      -6.324  11.576  68.941  1.00  0.00    -0.059 C  
BRANCH   6   7
HETATM    7  C   UNL     1      -6.384  10.519  67.831  1.00  0.00    -0.059 C  
BRANCH   7   8
HETATM    8  N   UNL     1      -7.695   9.848  67.698  1.00  0.00    -0.091 NA 
HETATM    9  C   UNL     1      -7.675   8.718  66.745  1.00  0.00    -0.094 C  
HETATM   10  C   UNL     1      -6.937   7.456  67.255  1.00  0.00    -0.083 C  
HETATM   11  N   UNL     1      -7.449   6.933  68.546  1.00  0.00    -0.093 NA 
HETATM   12  C   UNL     1      -7.436   8.065  69.508  1.00  0.00    -0.092 C  
HETATM   13  C   UNL     1      -8.150   9.351  69.019  1.00  0.00    -0.106 C  
BRANCH  11  14
HETATM   14  C   UNL     1      -8.807   6.313  68.401  1.00  0.00    -0.114 C  
BRANCH  14  15
HETATM   15  C   UNL     1      -8.794   5.108  67.444  1.00  0.00    -0.105 A  
HETATM   16  C   UNL     1      -8.224   3.888  67.867  1.00  0.00    -0.095 A  
HETATM   17  C   UNL     1      -9.454   5.127  66.204  1.00  0.00    -0.168 A  
HETATM   18  C   UNL     1      -8.352   2.729  67.096  1.00  0.00    -0.095 A  
HETATM   19  C   UNL     1      -9.033   2.767  65.883  1.00  0.00    -0.142 A  
HETATM   20  C   UNL     1      -9.570   3.970  65.427  1.00  0.00    -0.188 A  
ENDBRANCH  14  15
BRANCH  14  21
HETATM   21  C   UNL     1      -9.451   6.007  69.763  1.00  0.00    -0.173 A  
HETATM   22  C   UNL     1      -9.395   4.749  71.854  1.00  0.00    -0.181 A  
HETATM   23  C   UNL     1     -11.384   5.979  71.250  1.00  0.00    -0.296 A  
HETATM   24  C   UNL     1      -8.770   5.183  70.681  1.00  0.00    -0.142 A  
HETATM   25 CL   UNL     1     -11.480   4.586  73.558  1.00  0.00    -0.359 Cl 
HETATM   26  C   UNL     1     -10.764   6.400  70.071  1.00  0.00    -0.316 A  
HETATM   27  C   UNL     1     -10.699   5.148  72.132  1.00  0.00    -0.187 A  
ENDBRANCH  14  21
ENDBRANCH  11  14
ENDBRANCH   7   8
ENDBRANCH   6   7
ENDBRANCH   5   6
ENDBRANCH   4   5
ENDBRANCH   2   4
TORSDOF 8
ENDMDL
MODEL      147
REMARK 921   NORMALIZED FREE ENERGY PREDICTED BY IDOCK:   -2.96 KCAL/MOL
REMARK 922        TOTAL FREE ENERGY PREDICTED BY IDOCK:   -4.58 KCAL/MOL
REMARK 923 INTER-LIGAND FREE ENERGY PREDICTED BY IDOCK:   -7.60 KCAL/MOL
REMARK 924 INTRA-LIGAND FREE ENERGY PREDICTED BY IDOCK:    3.02 KCAL/MOL
REMARK 927      BINDING AFFINITY PREDICTED BY RF-SCORE:    0.00 PKD
ROOT
HETATM    1  O   UNL     1      -8.129   9.375  67.992  1.00  0.00    -0.105 OA 
HETATM    2  C   UNL     1      -7.699  10.730  68.030  1.00  0.00    -0.101 C  
HETATM    3  H   UNL     1      -8.875   9.291  67.409  1.00  0.00     0.000 HD 
ENDROOT
BRANCH   2   4
HETATM    4  C   UNL     1      -6.505  10.865  68.964  1.00  0.00    -0.057 C  
BRANCH   4   5
HETATM    5  O   UNL     1      -6.148  12.241  69.097  1.00  0.00    -0.070 OA 
BRANCH   5   6
HETATM    6  C   UNL     1      -5.944  12.833  67.810  1.00  0.00    -0.133 C  
BRANCH   6   7
HETATM    7  C   UNL     1      -6.185  14.346  67.900  1.00  0.00    -0.156 C  
BRANCH   7   8
HETATM    8  N   UNL     1      -7.364  14.821  67.145  1.00  0.00    -0.121 NA 
HETATM    9  C   UNL     1      -8.602  14.085  67.479  1.00  0.00    -0.192 C  
HETATM   10  C   UNL     1      -9.197  14.422  68.869  1.00  0.00    -0.084 C  
HETATM   11  N   UNL     1      -9.473  15.865  69.078  1.00  0.00    -0.232 NA 
HETATM   12  C   UNL     1      -8.216  16.595  68.771  1.00  0.00    -0.249 C  
HETATM   13  C   UNL     1      -7.583  16.265  67.395  1.00  0.00    -0.155 C  
BRANCH  11  14
HETATM   14  C   UNL     1     -10.632  16.340  68.255  1.00  0.00    -0.300 C  
BRANCH  14  15
HETATM   15  C   UNL     1     -10.448  17.792  67.778  1.00  0.00    -0.402 A  
HETATM   16  C   UNL     1     -10.058  18.785  68.702  1.00  0.00    -0.432 A  
HETATM   17  C   UNL     1     -10.519  18.151  66.422  1.00  0.00    -0.364 A  
HETATM   18  C   UNL     1      -9.712  20.070  68.273  1.00  0.00    -0.433 A  
HETATM   19  C   UNL     1      -9.765  20.394  66.921  1.00  0.00    -0.567 A  
HETATM   20  C   UNL     1     -10.185  19.440  65.996  1.00  0.00    -0.540 A  
ENDBRANCH  14  15
BRANCH  14  21
HETATM   21  C   UNL     1     -10.974  15.361  67.119  1.00  0.00    -0.317 A  
HETATM   22  C   UNL     1     -10.957  14.861  64.730  1.00  0.00    -0.390 A  
HETATM   23  C   UNL     1     -12.260  13.488  66.231  1.00  0.00    -0.468 A  
HETATM   24  C   UNL     1     -10.528  15.636  65.811  1.00  0.00    -0.383 A  
HETATM   25 CL   UNL     1     -12.379  12.860  63.611  1.00  0.00    -0.528 Cl 
HETATM   26  C   UNL     1     -11.841  14.273  67.309  1.00  0.00    -0.444 A  
HETATM   27  C   UNL     1     -11.823  13.792  64.945  1.00  0.00    -0.375 A  
ENDBRANCH  14  21
ENDBRANCH  11  14
ENDBRANCH   7   8
ENDBRANCH   6   7
ENDBRANCH   5   6
ENDBRANCH   4   5
ENDBRANCH   2   4
TORSDOF 8
ENDMDL
MODEL      148
REMARK 921   NORMALIZED FREE ENERGY PREDICTED BY IDOCK:   -2.93 KCAL/MOL
REMARK 922        TOTAL FREE ENERGY PREDICTED BY IDOCK:   -4.54 KCAL/MOL
REMARK 923 INTER-LIGAND FREE ENERGY PREDICTED BY IDOCK:   -5.01 KCAL/MOL
REMARK 924 INTRA-LIGAND FREE ENERGY PREDICTED BY IDOCK:    0.47 KCAL/MOL
REMARK 927      BINDING AFFINITY PREDICTED BY RF-SCORE:    0.00 PKD
ROOT
HETATM    1  O   UNL     1      -6.132  13.204  71.096  1.00  0.00    -0.550 OA 
HETATM    2  C   UNL     1      -5.357  12.029  70.886  1.00  0.00    -0.139 C  
HETATM    3  H   UNL     1      -5.566  13.916  71.371  1.00  0.00     0.000 HD 
ENDROOT
BRANCH   2   4
HETATM    4  C   UNL     1      -6.263  10.888  70.447  1.00  0.00    -0.118 C  
BRANCH   4   5
HETATM    5  O   UNL     1      -6.320   9.895  71.471  1.00  0.00    -0.314 OA 
BRANCH   5   6
HETATM    6  C   UNL     1      -7.191   8.826  71.086  1.00  0.00    -0.093 C  
BRANCH   6   7
HETATM    7  C   UNL     1      -8.649   9.290  71.196  1.00  0.00    -0.025 C  
BRANCH   7   8
HETATM    8  N   UNL     1      -9.536   8.767  70.135  1.00  0.00    -0.163 NA 
HETATM    9  C   UNL     1     -10.104   9.830  69.277  1.00  0.00    -0.198 C  
HETATM   10  C   UNL     1      -9.095  10.473  68.295  1.00  0.00    -0.146 C  
HETATM   11  N   UNL     1      -8.414   9.504  67.400  1.00  0.00    -0.125 NA 
HETATM   12  C   UNL     1      -7.819   8.457  68.270  1.00  0.00    -0.110 C  
HETATM   13  C   UNL     1      -8.799   7.806  69.280  1.00  0.00    -0.139 C  
BRANCH  11  14
HETATM   14  C   UNL     1      -9.348   8.939  66.372  1.00  0.00    -0.204 C  
BRANCH  14  15
HETATM   15  C   UNL     1      -9.817  10.007  65.368  1.00  0.00    -0.384 A  
HETATM   16  C   UNL     1     -10.616  11.080  65.815  1.00  0.00    -0.260 A  
HETATM   17  C   UNL     1      -9.367  10.035  64.038  1.00  0.00    -0.324 A  
HETATM   18  C   UNL     1     -10.912  12.156  64.972  1.00  0.00    -0.355 A  
HETATM   19  C   UNL     1     -10.432  12.174  63.666  1.00  0.00    -0.495 A  
HETATM   20  C   UNL     1      -9.674  11.105  63.192  1.00  0.00    -0.401 A  
ENDBRANCH  14  15
BRANCH  14  21
HETATM   21  C   UNL     1      -8.775   7.678  65.702  1.00  0.00    -0.119 A  
HETATM   22  C   UNL     1      -8.859   5.256  65.416  1.00  0.00    -0.152 A  
HETATM   23  C   UNL     1      -6.960   6.495  64.583  1.00  0.00    -0.054 A  
HETATM   24  C   UNL     1      -9.437   6.446  65.868  1.00  0.00     0.074 A  
HETATM   25 CL   UNL     1      -6.894   3.819  64.251  1.00  0.00    -0.044 Cl 
HETATM   26  C   UNL     1      -7.532   7.682  65.048  1.00  0.00    -0.090 A  
HETATM   27  C   UNL     1      -7.622   5.286  64.777  1.00  0.00    -0.083 A  
ENDBRANCH  14  21
ENDBRANCH  11  14
ENDBRANCH   7   8
ENDBRANCH   6   7
ENDBRANCH   5   6
ENDBRANCH   4   5
ENDBRANCH   2   4
TORSDOF 8
ENDMDL
MODEL      149
REMARK 921   NORMALIZED FREE ENERGY PREDICTED BY IDOCK:   -2.89 KCAL/MOL
REMARK 922        TOTAL FREE ENERGY PREDICTED BY IDOCK:   -4.48 KCAL/MOL
REMARK 923 INTER-LIGAND FREE ENERGY PREDICTED BY IDOCK:   -8.03 KCAL/MOL
REMARK 924 INTRA-LIGAND FREE ENERGY PREDICTED BY IDOCK:    3.55 KCAL/MOL
REMARK 927      BINDING AFFINITY PREDICTED BY RF-SCORE:    0.00 PKD
ROOT
HETATM    1  O   UNL     1      -6.653  13.875  70.748  1.00  0.00    -0.413 OA 
HETATM    2  C   UNL     1      -5.505  14.705  70.609  1.00  0.00    -0.141 C  
HETATM    3  H   UNL     1      -6.402  13.042  71.131  1.00  0.00     0.000 HD 
ENDROOT
BRANCH   2   4
HETATM    4  C   UNL     1      -5.906  16.038  69.995  1.00  0.00    -0.173 C  
BRANCH   4   5
HETATM    5  O   UNL     1      -7.176  15.914  69.356  1.00  0.00    -0.205 OA 
BRANCH   5   6
HETATM    6  C   UNL     1      -7.014  15.730  67.946  1.00  0.00    -0.140 C  
BRANCH   6   7
HETATM    7  C   UNL     1      -8.393  15.679  67.275  1.00  0.00    -0.184 C  
BRANCH   7   8
HETATM    8  N   UNL     1      -8.842  14.318  66.910  1.00  0.00    -0.230 NA 
HETATM    9  C   UNL     1      -9.255  13.510  68.077  1.00  0.00    -0.209 C  
HETATM   10  C   UNL     1     -10.609  13.928  68.704  1.00  0.00    -0.257 C  
HETATM   11  N   UNL     1     -11.745  13.933  67.749  1.00  0.00    -0.346 NA 
HETATM   12  C   UNL     1     -11.335  14.772  66.594  1.00  0.00    -0.347 C  
HETATM   13  C   UNL     1      -9.974  14.393  65.956  1.00  0.00    -0.317 C  
BRANCH  11  14
HETATM   14  C   UNL     1     -12.142  12.545  67.343  1.00  0.00    -0.051 C  
BRANCH  14  15
HETATM   15  C   UNL     1     -11.626  12.182  65.939  1.00  0.00    -0.425 A  
HETATM   16  C   UNL     1     -12.308  12.662  64.800  1.00  0.00    -0.556 A  
HETATM   17  C   UNL     1     -10.415  11.501  65.738  1.00  0.00    -0.308 A  
HETATM   18  C   UNL     1     -11.770  12.501  63.520  1.00  0.00    -0.595 A  
HETATM   19  C   UNL     1     -10.555  11.845  63.348  1.00  0.00    -0.485 A  
HETATM   20  C   UNL     1      -9.885  11.329  64.455  1.00  0.00    -0.317 A  
ENDBRANCH  14  15
BRANCH  14  21
HETATM   21  C   UNL     1     -11.782  11.504  68.415  1.00  0.00    -0.372 A  
HETATM   22  C   UNL     1     -11.793  10.852  70.767  1.00  0.00    -0.424 A  
HETATM   23  C   UNL     1     -10.456   9.607  69.186  1.00  0.00    -0.230 A  
HETATM   24  C   UNL     1     -12.237  11.684  69.736  1.00  0.00    -0.285 A  
HETATM   25 CL   UNL     1     -10.330   8.815  71.761  1.00  0.00    -0.386 Cl 
HETATM   26  C   UNL     1     -10.890  10.449  68.159  1.00  0.00    -0.311 A  
HETATM   27  C   UNL     1     -10.904   9.818  70.487  1.00  0.00    -0.323 A  
ENDBRANCH  14  21
ENDBRANCH  11  14
ENDBRANCH   7   8
ENDBRANCH   6   7
ENDBRANCH   5   6
ENDBRANCH   4   5
ENDBRANCH   2   4
TORSDOF 8
ENDMDL
MODEL      150
REMARK 921   NORMALIZED FREE ENERGY PREDICTED BY IDOCK:   -2.82 KCAL/MOL
REMARK 922        TOTAL FREE ENERGY PREDICTED BY IDOCK:   -4.37 KCAL/MOL
REMARK 923 INTER-LIGAND FREE ENERGY PREDICTED BY IDOCK:   -6.50 KCAL/MOL
REMARK 924 INTRA-LIGAND FREE ENERGY PREDICTED BY IDOCK:    2.12 KCAL/MOL
REMARK 927      BINDING AFFINITY PREDICTED BY RF-SCORE:    0.00 PKD
ROOT
HETATM    1  O   UNL     1      -7.731   8.473  66.607  1.00  0.00    -0.088 OA 
HETATM    2  C   UNL     1      -7.346   9.625  67.348  1.00  0.00    -0.087 C  
HETATM    3  H   UNL     1      -7.810   7.727  67.191  1.00  0.00     0.000 HD 
ENDROOT
BRANCH   2   4
HETATM    4  C   UNL     1      -7.218  10.818  66.413  1.00  0.00    -0.138 C  
BRANCH   4   5
HETATM    5  O   UNL     1      -8.164  10.702  65.349  1.00  0.00    -0.160 OA 
BRANCH   5   6
HETATM    6  C   UNL     1      -9.474  11.060  65.800  1.00  0.00    -0.210 C  
BRANCH   6   7
HETATM    7  C   UNL     1     -10.038  12.169  64.902  1.00  0.00    -0.254 C  
BRANCH   7   8
HETATM    8  N   UNL     1     -10.039  13.512  65.521  1.00  0.00    -0.289 NA 
HETATM    9  C   UNL     1     -11.372  14.151  65.519  1.00  0.00    -0.319 C  
HETATM   10  C   UNL     1     -12.379  13.546  66.528  1.00  0.00    -0.327 C  
HETATM   11  N   UNL     1     -11.899  13.533  67.932  1.00  0.00    -0.358 NA 
HETATM   12  C   UNL     1     -10.574  12.862  67.931  1.00  0.00    -0.222 C  
HETATM   13  C   UNL     1      -9.549  13.431  66.918  1.00  0.00    -0.257 C  
BRANCH  11  14
HETATM   14  C   UNL     1     -11.848  14.912  68.519  1.00  0.00    -0.294 C  
BRANCH  14  15
HETATM   15  C   UNL     1     -12.368  14.945  69.968  1.00  0.00    -0.358 A  
HETATM   16  C   UNL     1     -12.644  13.733  70.637  1.00  0.00    -0.386 A  
HETATM   17  C   UNL     1     -12.452  16.136  70.708  1.00  0.00     0.146 A  
HETATM   18  C   UNL     1     -12.947  13.719  72.001  1.00  0.00    -0.437 A  
HETATM   19  C   UNL     1     -12.999  14.909  72.719  1.00  0.00    -0.542 A  
HETATM   20  C   UNL     1     -12.769  16.120  72.070  1.00  0.00    -0.277 A  
ENDBRANCH  14  15
BRANCH  14  21
HETATM   21  C   UNL     1     -10.463  15.560  68.352  1.00  0.00    -0.240 A  
HETATM   22  C   UNL     1      -8.268  16.048  69.299  1.00  0.00    -0.212 A  
HETATM   23  C   UNL     1      -8.979  17.175  67.284  1.00  0.00    -0.228 A  
HETATM   24  C   UNL     1      -9.475  15.345  69.332  1.00  0.00    -0.267 A  
HETATM   25 CL   UNL     1      -6.555  17.853  68.254  1.00  0.00    -0.194 Cl 
HETATM   26  C   UNL     1     -10.192  16.482  67.327  1.00  0.00    -0.287 A  
HETATM   27  C   UNL     1      -8.026  16.961  68.276  1.00  0.00    -0.211 A  
ENDBRANCH  14  21
ENDBRANCH  11  14
ENDBRANCH   7   8
ENDBRANCH   6   7
ENDBRANCH   5   6
ENDBRANCH   4   5
ENDBRANCH   2   4
TORSDOF 8
ENDMDL
MODEL      151
REMARK 921   NORMALIZED FREE ENERGY PREDICTED BY IDOCK:   -2.78 KCAL/MOL
REMARK 922        TOTAL FREE ENERGY PREDICTED BY IDOCK:   -4.32 KCAL/MOL
REMARK 923 INTER-LIGAND FREE ENERGY PREDICTED BY IDOCK:   -7.31 KCAL/MOL
REMARK 924 INTRA-LIGAND FREE ENERGY PREDICTED BY IDOCK:    2.99 KCAL/MOL
REMARK 927      BINDING AFFINITY PREDICTED BY RF-SCORE:    0.00 PKD
ROOT
HETATM    1  O   UNL     1     -12.246   6.724  70.296  1.00  0.00    -0.611 OA 
HETATM    2  C   UNL     1     -12.961   7.331  71.366  1.00  0.00    -0.373 C  
HETATM    3  H   UNL     1     -12.859   6.391  69.650  1.00  0.00     0.000 HD 
ENDROOT
BRANCH   2   4
HETATM    4  C   UNL     1     -11.982   7.864  72.402  1.00  0.00    -0.320 C  
BRANCH   4   5
HETATM    5  O   UNL     1     -10.691   7.293  72.184  1.00  0.00    -0.210 OA 
BRANCH   5   6
HETATM    6  C   UNL     1      -9.667   8.165  72.676  1.00  0.00    -0.290 C  
BRANCH   6   7
HETATM    7  C   UNL     1      -8.932   8.807  71.492  1.00  0.00    -0.236 C  
BRANCH   7   8
HETATM    8  N   UNL     1      -9.291   8.243  70.174  1.00  0.00    -0.158 NA 
HETATM    9  C   UNL     1     -10.175   9.128  69.385  1.00  0.00    -0.210 C  
HETATM   10  C   UNL     1      -9.478  10.382  68.802  1.00  0.00    -0.175 C  
HETATM   11  N   UNL     1      -8.293  10.082  67.961  1.00  0.00    -0.116 NA 
HETATM   12  C   UNL     1      -7.395   9.219  68.770  1.00  0.00    -0.075 C  
HETATM   13  C   UNL     1      -8.067   7.965  69.386  1.00  0.00    -0.125 C  
BRANCH  11  14
HETATM   14  C   UNL     1      -8.677   9.453  66.655  1.00  0.00    -0.131 C  
BRANCH  14  15
HETATM   15  C   UNL     1      -9.148   7.998  66.830  1.00  0.00    -0.189 A  
HETATM   16  C   UNL     1     -10.522   7.726  66.995  1.00  0.00    -0.419 A  
HETATM   17  C   UNL     1      -8.275   6.906  66.693  1.00  0.00    -0.115 A  
HETATM   18  C   UNL     1     -11.002   6.412  66.979  1.00  0.00    -0.463 A  
HETATM   19  C   UNL     1     -10.121   5.348  66.817  1.00  0.00    -0.246 A  
HETATM   20  C   UNL     1      -8.755   5.592  66.691  1.00  0.00    -0.118 A  
ENDBRANCH  14  15
BRANCH  14  21
HETATM   21  C   UNL     1      -9.664  10.325  65.861  1.00  0.00    -0.283 A  
HETATM   22  C   UNL     1     -10.461  11.119  63.696  1.00  0.00    -0.438 A  
HETATM   23  C   UNL     1     -11.208  12.208  65.718  1.00  0.00    -0.384 A  
HETATM   24  C   UNL     1      -9.699  10.227  64.457  1.00  0.00    -0.395 A  
HETATM   25 CL   UNL     1     -12.120  13.225  63.392  1.00  0.00    -0.583 Cl 
HETATM   26  C   UNL     1     -10.434  11.326  66.477  1.00  0.00    -0.299 A  
HETATM   27  C   UNL     1     -11.210  12.106  64.330  1.00  0.00    -0.347 A  
ENDBRANCH  14  21
ENDBRANCH  11  14
ENDBRANCH   7   8
ENDBRANCH   6   7
ENDBRANCH   5   6
ENDBRANCH   4   5
ENDBRANCH   2   4
TORSDOF 8
ENDMDL
MODEL      152
REMARK 921   NORMALIZED FREE ENERGY PREDICTED BY IDOCK:   -2.66 KCAL/MOL
REMARK 922        TOTAL FREE ENERGY PREDICTED BY IDOCK:   -4.14 KCAL/MOL
REMARK 923 INTER-LIGAND FREE ENERGY PREDICTED BY IDOCK:   -5.38 KCAL/MOL
REMARK 924 INTRA-LIGAND FREE ENERGY PREDICTED BY IDOCK:    1.23 KCAL/MOL
REMARK 927      BINDING AFFINITY PREDICTED BY RF-SCORE:    0.00 PKD
ROOT
HETATM    1  O   UNL     1     -13.059  14.578  64.376  1.00  0.00    -0.291 OA 
HETATM    2  C   UNL     1     -12.156  14.736  65.464  1.00  0.00    -0.137 C  
HETATM    3  H   UNL     1     -12.849  15.201  63.690  1.00  0.00     0.000 HD 
ENDROOT
BRANCH   2   4
HETATM    4  C   UNL     1     -12.493  13.739  66.562  1.00  0.00    -0.309 C  
BRANCH   4   5
HETATM    5  O   UNL     1     -11.615  13.927  67.672  1.00  0.00    -0.308 OA 
BRANCH   5   6
HETATM    6  C   UNL     1     -12.169  13.342  68.855  1.00  0.00    -0.098 C  
BRANCH   6   7
HETATM    7  C   UNL     1     -11.201  12.285  69.404  1.00  0.00    -0.176 C  
BRANCH   7   8
HETATM    8  N   UNL     1     -11.571  10.892  69.074  1.00  0.00    -0.297 NA 
HETATM    9  C   UNL     1     -10.421  10.075  68.631  1.00  0.00    -0.204 C  
HETATM   10  C   UNL     1      -9.436   9.683  69.760  1.00  0.00    -0.220 C  
HETATM   11  N   UNL     1     -10.069   8.969  70.898  1.00  0.00    -0.239 NA 
HETATM   12  C   UNL     1     -11.204   9.811  71.358  1.00  0.00    -0.298 C  
HETATM   13  C   UNL     1     -12.198  10.239  70.248  1.00  0.00    -0.221 C  
BRANCH  11  14
HETATM   14  C   UNL     1     -10.493   7.581  70.523  1.00  0.00    -0.219 C  
BRANCH  14  15
HETATM   15  C   UNL     1     -10.078   7.216  69.087  1.00  0.00    -0.183 A  
HETATM   16  C   UNL     1     -11.070   6.964  68.117  1.00  0.00    -0.165 A  
HETATM   17  C   UNL     1      -8.740   7.258  68.660  1.00  0.00    -0.127 A  
HETATM   18  C   UNL     1     -10.735   6.805  66.769  1.00  0.00    -0.312 A  
HETATM   19  C   UNL     1      -9.405   6.876  66.366  1.00  0.00    -0.183 A  
HETATM   20  C   UNL     1      -8.404   7.086  67.313  1.00  0.00    -0.122 A  
ENDBRANCH  14  15
BRANCH  14  21
HETATM   21  C   UNL     1     -10.058   6.542  71.569  1.00  0.00    -0.211 A  
HETATM   22  C   UNL     1      -8.830   4.495  72.081  1.00  0.00    -0.135 A  
HETATM   23  C   UNL     1     -10.368   5.406  73.706  1.00  0.00    -0.277 A  
HETATM   24  C   UNL     1      -9.122   5.551  71.213  1.00  0.00    -0.158 A  
HETATM   25 CL   UNL     1      -9.123   3.110  74.378  1.00  0.00    -0.093 Cl 
HETATM   26  C   UNL     1     -10.670   6.453  72.831  1.00  0.00    -0.276 A  
HETATM   27  C   UNL     1      -9.456   4.427  73.323  1.00  0.00    -0.119 A  
ENDBRANCH  14  21
ENDBRANCH  11  14
ENDBRANCH   7   8
ENDBRANCH   6   7
ENDBRANCH   5   6
ENDBRANCH   4   5
ENDBRANCH   2   4
TORSDOF 8
ENDMDL
MODEL      153
REMARK 921   NORMALIZED FREE ENERGY PREDICTED BY IDOCK:   -2.65 KCAL/MOL
REMARK 922        TOTAL FREE ENERGY PREDICTED BY IDOCK:   -4.13 KCAL/MOL
REMARK 923 INTER-LIGAND FREE ENERGY PREDICTED BY IDOCK:   -7.52 KCAL/MOL
REMARK 924 INTRA-LIGAND FREE ENERGY PREDICTED BY IDOCK:    3.39 KCAL/MOL
REMARK 927      BINDING AFFINITY PREDICTED BY RF-SCORE:    0.00 PKD
ROOT
HETATM    1  O   UNL     1      -6.696  12.087  70.329  1.00  0.00    -0.452 OA 
HETATM    2  C   UNL     1      -5.564  12.794  70.823  1.00  0.00    -0.173 C  
HETATM    3  H   UNL     1      -6.900  11.362  70.909  1.00  0.00     0.000 HD 
ENDROOT
BRANCH   2   4
HETATM    4  C   UNL     1      -5.236  13.953  69.895  1.00  0.00    -0.094 C  
BRANCH   4   5
HETATM    5  O   UNL     1      -5.194  15.171  70.639  1.00  0.00    -0.122 OA 
BRANCH   5   6
HETATM    6  C   UNL     1      -5.394  16.295  69.775  1.00  0.00    -0.140 C  
BRANCH   6   7
HETATM    7  C   UNL     1      -5.757  15.800  68.369  1.00  0.00    -0.110 C  
BRANCH   7   8
HETATM    8  N   UNL     1      -6.924  16.479  67.767  1.00  0.00    -0.135 NA 
HETATM    9  C   UNL     1      -7.763  15.576  66.951  1.00  0.00    -0.165 C  
HETATM   10  C   UNL     1      -8.609  14.568  67.767  1.00  0.00    -0.175 C  
HETATM   11  N   UNL     1      -9.495  15.196  68.778  1.00  0.00    -0.201 NA 
HETATM   12  C   UNL     1      -8.640  16.076  69.615  1.00  0.00     0.123 C  
HETATM   13  C   UNL     1      -7.765  17.085  68.827  1.00  0.00    -0.249 C  
BRANCH  11  14
HETATM   14  C   UNL     1     -10.637  15.932  68.144  1.00  0.00    -0.280 C  
BRANCH  14  15
HETATM   15  C   UNL     1     -10.274  17.392  67.818  1.00  0.00    -0.345 A  
HETATM   16  C   UNL     1     -10.057  17.774  66.478  1.00  0.00    -0.358 A  
HETATM   17  C   UNL     1     -10.285  18.403  68.794  1.00  0.00    -0.333 A  
HETATM   18  C   UNL     1      -9.901  19.120  66.130  1.00  0.00    -0.397 A  
HETATM   19  C   UNL     1      -9.941  20.105  67.111  1.00  0.00    -0.595 A  
HETATM   20  C   UNL     1     -10.116  19.747  68.446  1.00  0.00    -0.568 A  
ENDBRANCH  14  15
BRANCH  14  21
HETATM   21  C   UNL     1     -11.225  15.166  66.947  1.00  0.00    -0.292 A  
HETATM   22  C   UNL     1     -12.339  13.166  66.104  1.00  0.00    -0.385 A  
HETATM   23  C   UNL     1     -11.368  14.740  64.550  1.00  0.00    -0.309 A  
HETATM   24  C   UNL     1     -11.937  13.972  67.172  1.00  0.00    -0.465 A  
HETATM   25 CL   UNL     1     -12.517  12.544  63.484  1.00  0.00    -0.587 Cl 
HETATM   26  C   UNL     1     -10.953  15.537  65.620  1.00  0.00    -0.307 A  
HETATM   27  C   UNL     1     -12.052  13.553  64.798  1.00  0.00    -0.404 A  
ENDBRANCH  14  21
ENDBRANCH  11  14
ENDBRANCH   7   8
ENDBRANCH   6   7
ENDBRANCH   5   6
ENDBRANCH   4   5
ENDBRANCH   2   4
TORSDOF 8
ENDMDL
MODEL      154
REMARK 921   NORMALIZED FREE ENERGY PREDICTED BY IDOCK:   -2.65 KCAL/MOL
REMARK 922        TOTAL FREE ENERGY PREDICTED BY IDOCK:   -4.13 KCAL/MOL
REMARK 923 INTER-LIGAND FREE ENERGY PREDICTED BY IDOCK:   -7.23 KCAL/MOL
REMARK 924 INTRA-LIGAND FREE ENERGY PREDICTED BY IDOCK:    3.10 KCAL/MOL
REMARK 927      BINDING AFFINITY PREDICTED BY RF-SCORE:    0.00 PKD
ROOT
HETATM    1  O   UNL     1     -10.135   8.615  72.250  1.00  0.00    -0.311 OA 
HETATM    2  C   UNL     1     -11.147   8.249  71.318  1.00  0.00    -0.251 C  
HETATM    3  H   UNL     1      -9.809   7.839  72.690  1.00  0.00     0.000 HD 
ENDROOT
BRANCH   2   4
HETATM    4  C   UNL     1     -11.670   9.492  70.613  1.00  0.00    -0.262 C  
BRANCH   4   5
HETATM    5  O   UNL     1     -10.576  10.269  70.128  1.00  0.00    -0.280 OA 
BRANCH   5   6
HETATM    6  C   UNL     1     -10.337   9.991  68.744  1.00  0.00    -0.198 C  
BRANCH   6   7
HETATM    7  C   UNL     1     -10.408  11.297  67.941  1.00  0.00    -0.182 C  
BRANCH   7   8
HETATM    8  N   UNL     1     -10.636  12.505  68.763  1.00  0.00    -0.208 NA 
HETATM    9  C   UNL     1      -9.639  13.569  68.520  1.00  0.00    -0.151 C  
HETATM   10  C   UNL     1      -9.797  14.304  67.166  1.00  0.00    -0.252 C  
HETATM   11  N   UNL     1     -11.139  14.902  66.952  1.00  0.00    -0.332 NA 
HETATM   12  C   UNL     1     -12.134  13.820  67.167  1.00  0.00    -0.378 C  
HETATM   13  C   UNL     1     -11.990  13.050  68.505  1.00  0.00    -0.261 C  
BRANCH  11  14
HETATM   14  C   UNL     1     -11.373  16.087  67.841  1.00  0.00    -0.218 C  
BRANCH  14  15
HETATM   15  C   UNL     1     -11.712  15.670  69.284  1.00  0.00    -0.388 A  
HETATM   16  C   UNL     1     -10.695  15.652  70.261  1.00  0.00    -0.354 A  
HETATM   17  C   UNL     1     -13.031  15.438  69.707  1.00  0.00     0.226 A  
HETATM   18  C   UNL     1     -10.998  15.451  71.611  1.00  0.00    -0.122 A  
HETATM   19  C   UNL     1     -12.316  15.249  72.009  1.00  0.00    -0.440 A  
HETATM   20  C   UNL     1     -13.332  15.224  71.056  1.00  0.00    -0.537 A  
ENDBRANCH  14  15
BRANCH  14  21
HETATM   21  C   UNL     1     -10.230  17.111  67.752  1.00  0.00    -0.324 A  
HETATM   22  C   UNL     1      -9.295  19.251  68.462  1.00  0.00    -0.443 A  
HETATM   23  C   UNL     1      -8.328  18.088  66.578  1.00  0.00    -0.293 A  
HETATM   24  C   UNL     1     -10.222  18.217  68.624  1.00  0.00    -0.377 A  
HETATM   25 CL   UNL     1      -7.235  20.470  67.217  1.00  0.00    -0.344 Cl 
HETATM   26  C   UNL     1      -9.265  17.063  66.732  1.00  0.00    -0.270 A  
HETATM   27  C   UNL     1      -8.353  19.182  67.438  1.00  0.00    -0.281 A  
ENDBRANCH  14  21
ENDBRANCH  11  14
ENDBRANCH   7   8
ENDBRANCH   6   7
ENDBRANCH   5   6
ENDBRANCH   4   5
ENDBRANCH   2   4
TORSDOF 8
ENDMDL
MODEL      155
REMARK 921   NORMALIZED FREE ENERGY PREDICTED BY IDOCK:   -2.64 KCAL/MOL
REMARK 922        TOTAL FREE ENERGY PREDICTED BY IDOCK:   -4.11 KCAL/MOL
REMARK 923 INTER-LIGAND FREE ENERGY PREDICTED BY IDOCK:   -7.33 KCAL/MOL
REMARK 924 INTRA-LIGAND FREE ENERGY PREDICTED BY IDOCK:    3.21 KCAL/MOL
REMARK 927      BINDING AFFINITY PREDICTED BY RF-SCORE:    0.00 PKD
ROOT
HETATM    1  O   UNL     1      -7.160  13.988  70.305  1.00  0.00    -0.352 OA 
HETATM    2  C   UNL     1      -5.741  13.886  70.277  1.00  0.00    -0.139 C  
HETATM    3  H   UNL     1      -7.541  13.133  70.469  1.00  0.00     0.000 HD 
ENDROOT
BRANCH   2   4
HETATM    4  C   UNL     1      -5.131  15.254  70.014  1.00  0.00    -0.100 C  
BRANCH   4   5
HETATM    5  O   UNL     1      -6.157  16.248  70.011  1.00  0.00    -0.198 OA 
BRANCH   5   6
HETATM    6  C   UNL     1      -6.053  17.073  68.846  1.00  0.00    -0.170 C  
BRANCH   6   7
HETATM    7  C   UNL     1      -7.401  17.095  68.114  1.00  0.00    -0.202 C  
BRANCH   7   8
HETATM    8  N   UNL     1      -8.235  15.894  68.336  1.00  0.00    -0.155 NA 
HETATM    9  C   UNL     1      -9.568  16.207  68.891  1.00  0.00    -0.245 C  
HETATM   10  C   UNL     1     -10.549  16.858  67.885  1.00  0.00    -0.361 C  
HETATM   11  N   UNL     1     -10.763  16.068  66.647  1.00  0.00    -0.289 NA 
HETATM   12  C   UNL     1      -9.421  15.784  66.078  1.00  0.00    -0.357 C  
HETATM   13  C   UNL     1      -8.408  15.150  67.065  1.00  0.00    -0.231 C  
BRANCH  11  14
HETATM   14  C   UNL     1     -11.556  14.822  66.907  1.00  0.00    -0.327 C  
BRANCH  14  15
HETATM   15  C   UNL     1     -10.938  13.589  66.222  1.00  0.00    -0.293 A  
HETATM   16  C   UNL     1     -10.670  12.431  66.982  1.00  0.00    -0.268 A  
HETATM   17  C   UNL     1     -10.754  13.517  64.832  1.00  0.00    -0.391 A  
HETATM   18  C   UNL     1     -10.277  11.240  66.364  1.00  0.00    -0.273 A  
HETATM   19  C   UNL     1     -10.126  11.187  64.982  1.00  0.00    -0.338 A  
HETATM   20  C   UNL     1     -10.347  12.329  64.216  1.00  0.00    -0.375 A  
ENDBRANCH  14  15
BRANCH  14  21
HETATM   21  C   UNL     1     -11.833  14.616  68.405  1.00  0.00    -0.330 A  
HETATM   22  C   UNL     1     -11.917  13.098  70.314  1.00  0.00    -0.366 A  
HETATM   23  C   UNL     1     -12.898  15.298  70.491  1.00  0.00    -0.421 A  
HETATM   24  C   UNL     1     -11.527  13.377  69.001  1.00  0.00    -0.348 A  
HETATM   25 CL   UNL     1     -13.113  13.703  72.655  1.00  0.00    -0.507 Cl 
HETATM   26  C   UNL     1     -12.520  15.571  69.174  1.00  0.00     0.077 A  
HETATM   27  C   UNL     1     -12.602  14.059  71.052  1.00  0.00    -0.366 A  
ENDBRANCH  14  21
ENDBRANCH  11  14
ENDBRANCH   7   8
ENDBRANCH   6   7
ENDBRANCH   5   6
ENDBRANCH   4   5
ENDBRANCH   2   4
TORSDOF 8
ENDMDL
MODEL      156
REMARK 921   NORMALIZED FREE ENERGY PREDICTED BY IDOCK:   -2.63 KCAL/MOL
REMARK 922        TOTAL FREE ENERGY PREDICTED BY IDOCK:   -4.09 KCAL/MOL
REMARK 923 INTER-LIGAND FREE ENERGY PREDICTED BY IDOCK:   -3.68 KCAL/MOL
REMARK 924 INTRA-LIGAND FREE ENERGY PREDICTED BY IDOCK:   -0.41 KCAL/MOL
REMARK 927      BINDING AFFINITY PREDICTED BY RF-SCORE:    0.00 PKD
ROOT
HETATM    1  O   UNL     1      -8.706  14.524  66.875  1.00  0.00    -0.225 OA 
HETATM    2  C   UNL     1      -8.942  13.128  66.739  1.00  0.00    -0.176 C  
HETATM    3  H   UNL     1      -8.248  14.848  66.109  1.00  0.00     0.000 HD 
ENDROOT
BRANCH   2   4
HETATM    4  C   UNL     1      -9.676  12.608  67.966  1.00  0.00    -0.215 C  
BRANCH   4   5
HETATM    5  O   UNL     1      -9.162  11.326  68.330  1.00  0.00    -0.163 OA 
BRANCH   5   6
HETATM    6  C   UNL     1      -7.767  11.238  68.019  1.00  0.00    -0.108 C  
BRANCH   6   7
HETATM    7  C   UNL     1      -7.036  10.510  69.154  1.00  0.00    -0.080 C  
BRANCH   7   8
HETATM    8  N   UNL     1      -6.613   9.133  68.822  1.00  0.00    -0.052 NA 
HETATM    9  C   UNL     1      -6.571   8.238  69.998  1.00  0.00    -0.039 C  
HETATM   10  C   UNL     1      -7.960   7.818  70.537  1.00  0.00    -0.098 C  
HETATM   11  N   UNL     1      -8.835   7.174  69.526  1.00  0.00    -0.137 NA 
HETATM   12  C   UNL     1      -8.898   8.093  68.361  1.00  0.00    -0.133 C  
HETATM   13  C   UNL     1      -7.523   8.549  67.809  1.00  0.00    -0.097 C  
BRANCH  11  14
HETATM   14  C   UNL     1      -8.351   5.804  69.157  1.00  0.00    -0.105 C  
BRANCH  14  15
HETATM   15  C   UNL     1      -8.664   4.765  70.249  1.00  0.00    -0.121 A  
HETATM   16  C   UNL     1      -9.591   5.080  71.265  1.00  0.00    -0.223 A  
HETATM   17  C   UNL     1      -8.166   3.452  70.201  1.00  0.00    -0.066 A  
HETATM   18  C   UNL     1     -10.030   4.105  72.166  1.00  0.00    -0.243 A  
HETATM   19  C   UNL     1      -9.541   2.805  72.082  1.00  0.00    -0.206 A  
HETATM   20  C   UNL     1      -8.596   2.481  71.110  1.00  0.00    -0.104 A  
ENDBRANCH  14  15
BRANCH  14  21
HETATM   21  C   UNL     1      -8.826   5.381  67.756  1.00  0.00    -0.105 A  
HETATM   22  C   UNL     1     -10.642   4.606  66.322  1.00  0.00    -0.150 A  
HETATM   23  C   UNL     1      -8.367   4.545  65.511  1.00  0.00    -0.116 A  
HETATM   24  C   UNL     1     -10.197   5.149  67.531  1.00  0.00    -0.210 A  
HETATM   25 CL   UNL     1     -10.269   3.603  63.846  1.00  0.00    -0.209 Cl 
HETATM   26  C   UNL     1      -7.922   5.074  66.725  1.00  0.00    -0.104 A  
HETATM   27  C   UNL     1      -9.725   4.305  65.319  1.00  0.00    -0.197 A  
ENDBRANCH  14  21
ENDBRANCH  11  14
ENDBRANCH   7   8
ENDBRANCH   6   7
ENDBRANCH   5   6
ENDBRANCH   4   5
ENDBRANCH   2   4
TORSDOF 8
ENDMDL
MODEL      157
REMARK 921   NORMALIZED FREE ENERGY PREDICTED BY IDOCK:   -2.54 KCAL/MOL
REMARK 922        TOTAL FREE ENERGY PREDICTED BY IDOCK:   -3.96 KCAL/MOL
REMARK 923 INTER-LIGAND FREE ENERGY PREDICTED BY IDOCK:   -7.23 KCAL/MOL
REMARK 924 INTRA-LIGAND FREE ENERGY PREDICTED BY IDOCK:    3.28 KCAL/MOL
REMARK 927      BINDING AFFINITY PREDICTED BY RF-SCORE:    0.00 PKD
ROOT
HETATM    1  O   UNL     1      -8.449  15.061  69.835  1.00  0.00    -0.421 OA 
HETATM    2  C   UNL     1      -7.112  15.390  69.476  1.00  0.00    -0.200 C  
HETATM    3  H   UNL     1      -8.451  14.294  70.395  1.00  0.00     0.000 HD 
ENDROOT
BRANCH   2   4
HETATM    4  C   UNL     1      -7.107  16.618  68.578  1.00  0.00    -0.172 C  
BRANCH   4   5
HETATM    5  O   UNL     1      -8.438  16.909  68.151  1.00  0.00    -0.204 OA 
BRANCH   5   6
HETATM    6  C   UNL     1      -8.557  16.747  66.733  1.00  0.00    -0.232 C  
BRANCH   6   7
HETATM    7  C   UNL     1      -9.738  15.818  66.423  1.00  0.00    -0.282 C  
BRANCH   7   8
HETATM    8  N   UNL     1      -9.385  14.383  66.367  1.00  0.00    -0.278 NA 
HETATM    9  C   UNL     1      -9.675  13.664  67.626  1.00  0.00    -0.228 C  
HETATM   10  C   UNL     1     -11.179  13.415  67.894  1.00  0.00    -0.275 C  
HETATM   11  N   UNL     1     -11.879  12.691  66.804  1.00  0.00    -0.473 NA 
HETATM   12  C   UNL     1     -11.610  13.437  65.547  1.00  0.00    -0.325 C  
HETATM   13  C   UNL     1     -10.114  13.721  65.259  1.00  0.00    -0.288 C  
BRANCH  11  14
HETATM   14  C   UNL     1     -11.459  11.254  66.724  1.00  0.00     0.004 C  
BRANCH  14  15
HETATM   15  C   UNL     1     -10.300  11.044  65.733  1.00  0.00    -0.316 A  
HETATM   16  C   UNL     1      -8.986  10.883  66.222  1.00  0.00    -0.188 A  
HETATM   17  C   UNL     1     -10.514  10.866  64.356  1.00  0.00    -0.403 A  
HETATM   18  C   UNL     1      -7.942  10.515  65.368  1.00  0.00    -0.129 A  
HETATM   19  C   UNL     1      -8.184  10.320  64.011  1.00  0.00    -0.151 A  
HETATM   20  C   UNL     1      -9.466  10.511  63.501  1.00  0.00    -0.352 A  
ENDBRANCH  14  15
BRANCH  14  21
HETATM   21  C   UNL     1     -11.193  10.652  68.114  1.00  0.00    -0.366 A  
HETATM   22  C   UNL     1     -10.252   8.839  69.449  1.00  0.00    -0.210 A  
HETATM   23  C   UNL     1     -11.715  10.456  70.489  1.00  0.00    -0.434 A  
HETATM   24  C   UNL     1     -10.379   9.508  68.228  1.00  0.00    -0.244 A  
HETATM   25 CL   UNL     1     -10.793   8.472  72.066  1.00  0.00    -0.380 Cl 
HETATM   26  C   UNL     1     -11.853  11.115  69.265  1.00  0.00    -0.422 A  
HETATM   27  C   UNL     1     -10.922   9.315  70.573  1.00  0.00    -0.265 A  
ENDBRANCH  14  21
ENDBRANCH  11  14
ENDBRANCH   7   8
ENDBRANCH   6   7
ENDBRANCH   5   6
ENDBRANCH   4   5
ENDBRANCH   2   4
TORSDOF 8
ENDMDL
MODEL      158
REMARK 921   NORMALIZED FREE ENERGY PREDICTED BY IDOCK:   -2.50 KCAL/MOL
REMARK 922        TOTAL FREE ENERGY PREDICTED BY IDOCK:   -3.90 KCAL/MOL
REMARK 923 INTER-LIGAND FREE ENERGY PREDICTED BY IDOCK:   -6.57 KCAL/MOL
REMARK 924 INTRA-LIGAND FREE ENERGY PREDICTED BY IDOCK:    2.66 KCAL/MOL
REMARK 927      BINDING AFFINITY PREDICTED BY RF-SCORE:    0.00 PKD
ROOT
HETATM    1  O   UNL     1     -11.113  12.099  62.959  1.00  0.00    -0.680 OA 
HETATM    2  C   UNL     1     -12.439  12.084  63.475  1.00  0.00    -0.540 C  
HETATM    3  H   UNL     1     -11.051  11.507  62.218  1.00  0.00     0.000 HD 
ENDROOT
BRANCH   2   4
HETATM    4  C   UNL     1     -12.539  13.031  64.661  1.00  0.00    -0.362 C  
BRANCH   4   5
HETATM    5  O   UNL     1     -11.704  14.169  64.443  1.00  0.00    -0.399 OA 
BRANCH   5   6
HETATM    6  C   UNL     1     -10.916  14.443  65.606  1.00  0.00    -0.314 C  
BRANCH   6   7
HETATM    7  C   UNL     1     -11.429  13.601  66.781  1.00  0.00    -0.346 C  
BRANCH   7   8
HETATM    8  N   UNL     1     -10.364  12.958  67.580  1.00  0.00    -0.222 NA 
HETATM    9  C   UNL     1     -10.880  11.957  68.538  1.00  0.00    -0.221 C  
HETATM   10  C   UNL     1     -11.369  10.638  67.891  1.00  0.00    -0.268 C  
HETATM   11  N   UNL     1     -10.351   9.958  67.052  1.00  0.00    -0.235 NA 
HETATM   12  C   UNL     1      -9.859  10.960  66.072  1.00  0.00    -0.233 C  
HETATM   13  C   UNL     1      -9.381  12.301  66.685  1.00  0.00    -0.228 C  
BRANCH  11  14
HETATM   14  C   UNL     1      -9.247   9.368  67.878  1.00  0.00    -0.129 C  
BRANCH  14  15
HETATM   15  C   UNL     1      -8.008  10.281  67.925  1.00  0.00    -0.102 A  
HETATM   16  C   UNL     1      -7.811  11.130  69.035  1.00  0.00    -0.103 A  
HETATM   17  C   UNL     1      -6.983  10.204  66.968  1.00  0.00    -0.088 A  
HETATM   18  C   UNL     1      -6.616  11.838  69.195  1.00  0.00    -0.102 A  
HETATM   19  C   UNL     1      -5.604  11.726  68.246  1.00  0.00    -0.046 A  
HETATM   20  C   UNL     1      -5.794  10.923  67.123  1.00  0.00    -0.058 A  
ENDBRANCH  14  15
BRANCH  14  21
HETATM   21  C   UNL     1      -9.737   8.928  69.267  1.00  0.00    -0.165 A  
HETATM   22  C   UNL     1      -9.348   8.830  71.674  1.00  0.00    -0.345 A  
HETATM   23  C   UNL     1     -11.107   7.498  70.691  1.00  0.00    -0.280 A  
HETATM   24  C   UNL     1      -9.032   9.344  70.413  1.00  0.00    -0.294 A  
HETATM   25 CL   UNL     1     -10.749   7.248  73.353  1.00  0.00    -0.429 Cl 
HETATM   26  C   UNL     1     -10.781   8.001  69.429  1.00  0.00    -0.167 A  
HETATM   27  C   UNL     1     -10.383   7.908  71.807  1.00  0.00    -0.209 A  
ENDBRANCH  14  21
ENDBRANCH  11  14
ENDBRANCH   7   8
ENDBRANCH   6   7
ENDBRANCH   5   6
ENDBRANCH   4   5
ENDBRANCH   2   4
TORSDOF 8
ENDMDL
MODEL      159
REMARK 921   NORMALIZED FREE ENERGY PREDICTED BY IDOCK:   -2.28 KCAL/MOL
REMARK 922        TOTAL FREE ENERGY PREDICTED BY IDOCK:   -3.59 KCAL/MOL
REMARK 923 INTER-LIGAND FREE ENERGY PREDICTED BY IDOCK:   -6.42 KCAL/MOL
REMARK 924 INTRA-LIGAND FREE ENERGY PREDICTED BY IDOCK:    2.83 KCAL/MOL
REMARK 927      BINDING AFFINITY PREDICTED BY RF-SCORE:    0.00 PKD
ROOT
HETATM    1  O   UNL     1     -14.392   9.138  73.100  1.00  0.00    -1.102 OA 
HETATM    2  C   UNL     1     -13.720   8.599  71.967  1.00  0.00    -0.426 C  
HETATM    3  H   UNL     1     -15.299   8.855  73.099  1.00  0.00     0.000 HD 
ENDROOT
BRANCH   2   4
HETATM    4  C   UNL     1     -12.267   9.052  71.968  1.00  0.00    -0.375 C  
BRANCH   4   5
HETATM    5  O   UNL     1     -11.407   7.915  71.897  1.00  0.00    -0.253 OA 
BRANCH   5   6
HETATM    6  C   UNL     1     -10.076   8.312  71.550  1.00  0.00    -0.208 C  
BRANCH   6   7
HETATM    7  C   UNL     1      -9.781   7.899  70.102  1.00  0.00    -0.179 C  
BRANCH   7   8
HETATM    8  N   UNL     1      -9.111   8.942  69.296  1.00  0.00    -0.143 NA 
HETATM    9  C   UNL     1      -9.012   8.593  67.863  1.00  0.00    -0.140 C  
HETATM   10  C   UNL     1     -10.349   8.671  67.086  1.00  0.00    -0.299 C  
HETATM   11  N   UNL     1     -11.026   9.989  67.171  1.00  0.00    -0.181 NA 
HETATM   12  C   UNL     1     -11.151  10.318  68.614  1.00  0.00    -0.239 C  
HETATM   13  C   UNL     1      -9.833  10.230  69.426  1.00  0.00    -0.227 C  
BRANCH  11  14
HETATM   14  C   UNL     1     -10.295  11.046  66.399  1.00  0.00    -0.250 C  
BRANCH  14  15
HETATM   15  C   UNL     1      -9.914  12.249  67.280  1.00  0.00    -0.210 A  
HETATM   16  C   UNL     1      -8.573  12.425  67.679  1.00  0.00    -0.172 A  
HETATM   17  C   UNL     1     -10.830  13.267  67.595  1.00  0.00    -0.273 A  
HETATM   18  C   UNL     1      -8.162  13.593  68.327  1.00  0.00    -0.156 A  
HETATM   19  C   UNL     1      -9.083  14.599  68.606  1.00  0.00    -0.189 A  
HETATM   20  C   UNL     1     -10.421  14.429  68.256  1.00  0.00    -0.245 A  
ENDBRANCH  14  15
BRANCH  14  21
HETATM   21  C   UNL     1      -9.109  10.468  65.608  1.00  0.00    -0.209 A  
HETATM   22  C   UNL     1      -6.694  10.336  65.280  1.00  0.00    -0.126 A  
HETATM   23  C   UNL     1      -8.181   9.456  63.592  1.00  0.00    -0.169 A  
HETATM   24  C   UNL     1      -7.796  10.701  66.060  1.00  0.00    -0.156 A  
HETATM   25 CL   UNL     1      -5.538   9.298  63.075  1.00  0.00    -0.079 Cl 
HETATM   26  C   UNL     1      -9.281   9.835  64.365  1.00  0.00    -0.301 A  
HETATM   27  C   UNL     1      -6.892   9.716  64.050  1.00  0.00    -0.113 A  
ENDBRANCH  14  21
ENDBRANCH  11  14
ENDBRANCH   7   8
ENDBRANCH   6   7
ENDBRANCH   5   6
ENDBRANCH   4   5
ENDBRANCH   2   4
TORSDOF 8
ENDMDL
MODEL      160
REMARK 921   NORMALIZED FREE ENERGY PREDICTED BY IDOCK:   -2.24 KCAL/MOL
REMARK 922        TOTAL FREE ENERGY PREDICTED BY IDOCK:   -3.53 KCAL/MOL
REMARK 923 INTER-LIGAND FREE ENERGY PREDICTED BY IDOCK:   -6.92 KCAL/MOL
REMARK 924 INTRA-LIGAND FREE ENERGY PREDICTED BY IDOCK:    3.39 KCAL/MOL
REMARK 927      BINDING AFFINITY PREDICTED BY RF-SCORE:    0.00 PKD
ROOT
HETATM    1  O   UNL     1     -11.097   2.533  63.976  1.00  0.00    -0.535 OA 
HETATM    2  C   UNL     1     -10.298   3.703  64.109  1.00  0.00    -0.246 C  
HETATM    3  H   UNL     1     -11.628   2.594  63.191  1.00  0.00     0.000 HD 
ENDROOT
BRANCH   2   4
HETATM    4  C   UNL     1      -9.448   3.605  65.367  1.00  0.00    -0.160 C  
BRANCH   4   5
HETATM    5  O   UNL     1      -9.937   4.514  66.353  1.00  0.00    -0.207 OA 
BRANCH   5   6
HETATM    6  C   UNL     1      -9.111   4.480  67.522  1.00  0.00    -0.121 C  
BRANCH   6   7
HETATM    7  C   UNL     1      -9.949   4.857  68.750  1.00  0.00    -0.136 C  
BRANCH   7   8
HETATM    8  N   UNL     1      -9.581   6.152  69.363  1.00  0.00    -0.137 NA 
HETATM    9  C   UNL     1     -10.696   7.123  69.380  1.00  0.00    -0.231 C  
HETATM   10  C   UNL     1     -11.810   6.808  70.408  1.00  0.00    -0.338 C  
HETATM   11  N   UNL     1     -11.327   6.668  71.804  1.00  0.00    -0.265 NA 
HETATM   12  C   UNL     1     -10.230   5.668  71.785  1.00  0.00    -0.202 C  
HETATM   13  C   UNL     1      -9.107   5.944  70.752  1.00  0.00    -0.153 C  
BRANCH  11  14
HETATM   14  C   UNL     1     -10.901   7.984  72.384  1.00  0.00    -0.327 C  
BRANCH  14  15
HETATM   15  C   UNL     1      -9.425   7.972  72.822  1.00  0.00    -0.336 A  
HETATM   16  C   UNL     1      -8.439   8.507  71.967  1.00  0.00    -0.231 A  
HETATM   17  C   UNL     1      -9.028   7.571  74.109  1.00  0.00    -0.267 A  
HETATM   18  C   UNL     1      -7.121   8.673  72.403  1.00  0.00    -0.024 A  
HETATM   19  C   UNL     1      -6.758   8.293  73.691  1.00  0.00    -0.145 A  
HETATM   20  C   UNL     1      -7.707   7.725  74.540  1.00  0.00    -0.233 A  
ENDBRANCH  14  15
BRANCH  14  21
HETATM   21  C   UNL     1     -11.256   9.163  71.464  1.00  0.00    -0.430 A  
HETATM   22  C   UNL     1     -10.549  10.751  69.750  1.00  0.00    -0.191 A  
HETATM   23  C   UNL     1     -12.640  11.095  70.910  1.00  0.00    -0.483 A  
HETATM   24  C   UNL     1     -10.331   9.583  70.488  1.00  0.00    -0.350 A  
HETATM   25 CL   UNL     1     -11.952  12.956  69.083  1.00  0.00    -0.333 Cl 
HETATM   26  C   UNL     1     -12.414   9.936  71.657  1.00  0.00    -0.507 A  
HETATM   27  C   UNL     1     -11.701  11.501  69.966  1.00  0.00    -0.332 A  
ENDBRANCH  14  21
ENDBRANCH  11  14
ENDBRANCH   7   8
ENDBRANCH   6   7
ENDBRANCH   5   6
ENDBRANCH   4   5
ENDBRANCH   2   4
TORSDOF 8
ENDMDL
MODEL      161
REMARK 921   NORMALIZED FREE ENERGY PREDICTED BY IDOCK:   -2.17 KCAL/MOL
REMARK 922        TOTAL FREE ENERGY PREDICTED BY IDOCK:   -3.43 KCAL/MOL
REMARK 923 INTER-LIGAND FREE ENERGY PREDICTED BY IDOCK:   -5.11 KCAL/MOL
REMARK 924 INTRA-LIGAND FREE ENERGY PREDICTED BY IDOCK:    1.69 KCAL/MOL
REMARK 927      BINDING AFFINITY PREDICTED BY RF-SCORE:    0.00 PKD
ROOT
HETATM    1  O   UNL     1      -7.168  11.366  62.549  1.00  0.00    -0.340 OA 
HETATM    2  C   UNL     1      -7.537  10.091  63.061  1.00  0.00    -0.137 C  
HETATM    3  H   UNL     1      -6.223  11.459  62.568  1.00  0.00     0.000 HD 
ENDROOT
BRANCH   2   4
HETATM    4  C   UNL     1      -9.050   9.943  63.032  1.00  0.00    -0.269 C  
BRANCH   4   5
HETATM    5  O   UNL     1      -9.659  11.225  62.875  1.00  0.00    -0.348 OA 
BRANCH   5   6
HETATM    6  C   UNL     1     -10.637  11.445  63.896  1.00  0.00    -0.392 C  
BRANCH   6   7
HETATM    7  C   UNL     1     -10.262  12.696  64.702  1.00  0.00    -0.294 C  
BRANCH   7   8
HETATM    8  N   UNL     1      -9.475  12.420  65.922  1.00  0.00    -0.182 NA 
HETATM    9  C   UNL     1     -10.166  12.830  67.164  1.00  0.00    -0.233 C  
HETATM   10  C   UNL     1     -11.354  11.923  67.570  1.00  0.00    -0.314 C  
HETATM   11  N   UNL     1     -11.001  10.489  67.717  1.00  0.00    -0.294 NA 
HETATM   12  C   UNL     1     -10.336  10.076  66.454  1.00  0.00    -0.179 C  
HETATM   13  C   UNL     1      -9.155  10.975  66.008  1.00  0.00    -0.195 C  
BRANCH  11  14
HETATM   14  C   UNL     1     -10.150  10.241  68.926  1.00  0.00    -0.204 C  
BRANCH  14  15
HETATM   15  C   UNL     1     -10.982  10.197  70.220  1.00  0.00    -0.380 A  
HETATM   16  C   UNL     1     -11.510  11.393  70.751  1.00  0.00     0.353 A  
HETATM   17  C   UNL     1     -11.359   8.988  70.828  1.00  0.00    -0.329 A  
HETATM   18  C   UNL     1     -12.412  11.369  71.819  1.00  0.00    -0.103 A  
HETATM   19  C   UNL     1     -12.790  10.157  72.388  1.00  0.00    -0.068 A  
HETATM   20  C   UNL     1     -12.251   8.967  71.905  1.00  0.00    -0.445 A  
ENDBRANCH  14  15
BRANCH  14  21
HETATM   21  C   UNL     1      -9.231   9.021  68.747  1.00  0.00    -0.133 A  
HETATM   22  C   UNL     1      -7.107   8.116  67.956  1.00  0.00    -0.086 A  
HETATM   23  C   UNL     1      -8.896   6.612  68.566  1.00  0.00    -0.122 A  
HETATM   24  C   UNL     1      -7.913   9.209  68.289  1.00  0.00    -0.103 A  
HETATM   25 CL   UNL     1      -6.625   5.479  67.653  1.00  0.00    -0.051 Cl 
HETATM   26  C   UNL     1      -9.705   7.706  68.884  1.00  0.00    -0.156 A  
HETATM   27  C   UNL     1      -7.603   6.823  68.095  1.00  0.00    -0.107 A  
ENDBRANCH  14  21
ENDBRANCH  11  14
ENDBRANCH   7   8
ENDBRANCH   6   7
ENDBRANCH   5   6
ENDBRANCH   4   5
ENDBRANCH   2   4
TORSDOF 8
ENDMDL
MODEL      162
REMARK 921   NORMALIZED FREE ENERGY PREDICTED BY IDOCK:   -2.12 KCAL/MOL
REMARK 922        TOTAL FREE ENERGY PREDICTED BY IDOCK:   -3.35 KCAL/MOL
REMARK 923 INTER-LIGAND FREE ENERGY PREDICTED BY IDOCK:   -6.61 KCAL/MOL
REMARK 924 INTRA-LIGAND FREE ENERGY PREDICTED BY IDOCK:    3.26 KCAL/MOL
REMARK 927      BINDING AFFINITY PREDICTED BY RF-SCORE:    0.00 PKD
ROOT
HETATM    1  O   UNL     1      -9.742  19.900  67.266  1.00  0.00    -0.339 OA 
HETATM    2  C   UNL     1      -9.221  19.071  68.299  1.00  0.00    -0.334 C  
HETATM    3  H   UNL     1     -10.455  20.428  67.607  1.00  0.00     0.000 HD 
ENDROOT
BRANCH   2   4
HETATM    4  C   UNL     1      -8.080  18.225  67.754  1.00  0.00    -0.250 C  
BRANCH   4   5
HETATM    5  O   UNL     1      -8.544  16.901  67.492  1.00  0.00    -0.199 OA 
BRANCH   5   6
HETATM    6  C   UNL     1      -7.511  15.946  67.755  1.00  0.00    -0.140 C  
BRANCH   6   7
HETATM    7  C   UNL     1      -8.140  14.630  68.231  1.00  0.00    -0.143 C  
BRANCH   7   8
HETATM    8  N   UNL     1      -8.644  13.767  67.142  1.00  0.00    -0.211 NA 
HETATM    9  C   UNL     1      -8.288  12.343  67.318  1.00  0.00    -0.184 C  
HETATM   10  C   UNL     1      -9.077  11.614  68.433  1.00  0.00    -0.180 C  
HETATM   11  N   UNL     1     -10.552  11.682  68.278  1.00  0.00    -0.197 NA 
HETATM   12  C   UNL     1     -10.905  13.118  68.134  1.00  0.00    -0.251 C  
HETATM   13  C   UNL     1     -10.118  13.882  67.038  1.00  0.00    -0.256 C  
BRANCH  11  14
HETATM   14  C   UNL     1     -11.034  10.849  67.128  1.00  0.00    -0.272 C  
BRANCH  14  15
HETATM   15  C   UNL     1     -11.222  11.684  65.848  1.00  0.00    -0.296 A  
HETATM   16  C   UNL     1     -10.283  11.573  64.800  1.00  0.00    -0.331 A  
HETATM   17  C   UNL     1     -12.373  12.455  65.618  1.00  0.00    -0.182 A  
HETATM   18  C   UNL     1     -10.515  12.177  63.561  1.00  0.00    -0.490 A  
HETATM   19  C   UNL     1     -11.675  12.916  63.349  1.00  0.00    -0.526 A  
HETATM   20  C   UNL     1     -12.597  13.070  64.382  1.00  0.00    -0.356 A  
ENDBRANCH  14  15
BRANCH  14  21
HETATM   21  C   UNL     1     -10.169   9.595  66.920  1.00  0.00    -0.304 A  
HETATM   22  C   UNL     1      -8.711   8.294  65.458  1.00  0.00    -0.173 A  
HETATM   23  C   UNL     1      -9.573   7.298  67.483  1.00  0.00    -0.171 A  
HETATM   24  C   UNL     1      -9.378   9.485  65.760  1.00  0.00    -0.293 A  
HETATM   25 CL   UNL     1      -8.023   5.728  65.931  1.00  0.00    -0.105 Cl 
HETATM   26  C   UNL     1     -10.250   8.484  67.777  1.00  0.00    -0.283 A  
HETATM   27  C   UNL     1      -8.814   7.206  66.320  1.00  0.00    -0.148 A  
ENDBRANCH  14  21
ENDBRANCH  11  14
ENDBRANCH   7   8
ENDBRANCH   6   7
ENDBRANCH   5   6
ENDBRANCH   4   5
ENDBRANCH   2   4
TORSDOF 8
ENDMDL
MODEL      163
REMARK 921   NORMALIZED FREE ENERGY PREDICTED BY IDOCK:   -1.87 KCAL/MOL
REMARK 922        TOTAL FREE ENERGY PREDICTED BY IDOCK:   -2.98 KCAL/MOL
REMARK 923 INTER-LIGAND FREE ENERGY PREDICTED BY IDOCK:   -6.33 KCAL/MOL
REMARK 924 INTRA-LIGAND FREE ENERGY PREDICTED BY IDOCK:    3.35 KCAL/MOL
REMARK 927      BINDING AFFINITY PREDICTED BY RF-SCORE:    0.00 PKD
ROOT
HETATM    1  O   UNL     1      -8.156   5.901  64.101  1.00  0.00    -0.122 OA 
HETATM    2  C   UNL     1      -6.780   5.597  64.294  1.00  0.00    -0.045 C  
HETATM    3  H   UNL     1      -8.318   6.086  63.183  1.00  0.00     0.000 HD 
ENDROOT
BRANCH   2   4
HETATM    4  C   UNL     1      -6.520   5.301  65.764  1.00  0.00    -0.036 C  
BRANCH   4   5
HETATM    5  O   UNL     1      -7.647   5.702  66.544  1.00  0.00    -0.089 OA 
BRANCH   5   6
HETATM    6  C   UNL     1      -7.439   5.391  67.925  1.00  0.00    -0.077 C  
BRANCH   6   7
HETATM    7  C   UNL     1      -7.668   6.649  68.773  1.00  0.00    -0.109 C  
BRANCH   7   8
HETATM    8  N   UNL     1      -8.912   6.626  69.571  1.00  0.00    -0.138 NA 
HETATM    9  C   UNL     1      -8.960   7.684  70.603  1.00  0.00    -0.153 C  
HETATM   10  C   UNL     1      -9.188   9.113  70.052  1.00  0.00    -0.192 C  
HETATM   11  N   UNL     1     -10.409   9.256  69.221  1.00  0.00    -0.209 NA 
HETATM   12  C   UNL     1     -10.340   8.211  68.167  1.00  0.00    -0.201 C  
HETATM   13  C   UNL     1     -10.091   6.771  68.684  1.00  0.00    -0.159 C  
BRANCH  11  14
HETATM   14  C   UNL     1     -11.660   9.166  70.042  1.00  0.00     0.060 C  
BRANCH  14  15
HETATM   15  C   UNL     1     -11.525   8.155  71.195  1.00  0.00    -0.304 A  
HETATM   16  C   UNL     1     -11.968   6.828  71.014  1.00  0.00    -0.431 A  
HETATM   17  C   UNL     1     -10.847   8.463  72.386  1.00  0.00    -0.416 A  
HETATM   18  C   UNL     1     -11.701   5.844  71.970  1.00  0.00    -0.255 A  
HETATM   19  C   UNL     1     -11.005   6.167  73.131  1.00  0.00    -0.258 A  
HETATM   20  C   UNL     1     -10.592   7.480  73.348  1.00  0.00    -0.409 A  
ENDBRANCH  14  15
BRANCH  14  21
HETATM   21  C   UNL     1     -12.154  10.550  70.496  1.00  0.00    -0.437 A  
HETATM   22  C   UNL     1     -11.942  12.978  70.370  1.00  0.00    -0.337 A  
HETATM   23  C   UNL     1     -13.302  11.984  72.100  1.00  0.00    -0.396 A  
HETATM   24  C   UNL     1     -11.643  11.705  69.873  1.00  0.00    -0.366 A  
HETATM   25 CL   UNL     1     -13.108  14.674  72.114  1.00  0.00    -0.396 Cl 
HETATM   26  C   UNL     1     -12.991  10.712  71.613  1.00  0.00    -0.582 A  
HETATM   27  C   UNL     1     -12.769  13.110  71.482  1.00  0.00    -0.269 A  
ENDBRANCH  14  21
ENDBRANCH  11  14
ENDBRANCH   7   8
ENDBRANCH   6   7
ENDBRANCH   5   6
ENDBRANCH   4   5
ENDBRANCH   2   4
TORSDOF 8
ENDMDL
MODEL      164
REMARK 921   NORMALIZED FREE ENERGY PREDICTED BY IDOCK:   -1.83 KCAL/MOL
REMARK 922        TOTAL FREE ENERGY PREDICTED BY IDOCK:   -2.93 KCAL/MOL
REMARK 923 INTER-LIGAND FREE ENERGY PREDICTED BY IDOCK:   -2.88 KCAL/MOL
REMARK 924 INTRA-LIGAND FREE ENERGY PREDICTED BY IDOCK:   -0.05 KCAL/MOL
REMARK 927      BINDING AFFINITY PREDICTED BY RF-SCORE:    0.00 PKD
ROOT
HETATM    1  O   UNL     1      -8.255   6.707  73.831  1.00  0.00    -0.115 OA 
HETATM    2  C   UNL     1      -7.345   6.980  72.772  1.00  0.00    -0.077 C  
HETATM    3  H   UNL     1      -7.777   6.409  74.597  1.00  0.00     0.000 HD 
ENDROOT
BRANCH   2   4
HETATM    4  C   UNL     1      -8.109   7.456  71.546  1.00  0.00    -0.100 C  
BRANCH   4   5
HETATM    5  O   UNL     1      -7.880   8.851  71.345  1.00  0.00    -0.186 OA 
BRANCH   5   6
HETATM    6  C   UNL     1      -8.538   9.302  70.157  1.00  0.00    -0.198 C  
BRANCH   6   7
HETATM    7  C   UNL     1      -8.303  10.808  69.983  1.00  0.00     0.788 C  
BRANCH   7   8
HETATM    8  N   UNL     1      -7.942  11.214  68.608  1.00  0.00    -0.138 NA 
HETATM    9  C   UNL     1      -9.118  11.468  67.750  1.00  0.00    -0.165 C  
HETATM   10  C   UNL     1      -9.880  12.777  68.072  1.00  0.00    -0.226 C  
HETATM   11  N   UNL     1      -9.036  13.997  68.033  1.00  0.00    -0.182 NA 
HETATM   12  C   UNL     1      -7.874  13.747  68.923  1.00  0.00     0.005 C  
HETATM   13  C   UNL     1      -7.100  12.433  68.640  1.00  0.00    -0.103 C  
BRANCH  11  14
HETATM   14  C   UNL     1      -8.629  14.353  66.635  1.00  0.00    -0.019 C  
BRANCH  14  15
HETATM   15  C   UNL     1      -9.752  14.083  65.618  1.00  0.00    -0.181 A  
HETATM   16  C   UNL     1      -9.477  13.322  64.462  1.00  0.00     0.833 A  
HETATM   17  C   UNL     1     -11.087  14.448  65.860  1.00  0.00    -0.319 A  
HETATM   18  C   UNL     1     -10.507  12.910  63.611  1.00  0.00    -0.099 A  
HETATM   19  C   UNL     1     -11.825  13.263  63.886  1.00  0.00    -0.522 A  
HETATM   20  C   UNL     1     -12.114  14.046  65.001  1.00  0.00    -0.427 A  
ENDBRANCH  14  15
BRANCH  14  21
HETATM   21  C   UNL     1      -8.051  15.776  66.546  1.00  0.00    -0.231 A  
HETATM   22  C   UNL     1      -6.193  17.297  66.981  1.00  0.00    -0.203 A  
HETATM   23  C   UNL     1      -8.347  18.189  66.351  1.00  0.00    -0.272 A  
HETATM   24  C   UNL     1      -6.704  15.999  66.889  1.00  0.00    -0.031 A  
HETATM   25 CL   UNL     1      -6.398  19.984  66.858  1.00  0.00    -0.203 Cl 
HETATM   26  C   UNL     1      -8.860  16.892  66.274  1.00  0.00    -0.314 A  
HETATM   27  C   UNL     1      -7.017  18.386  66.712  1.00  0.00    -0.195 A  
ENDBRANCH  14  21
ENDBRANCH  11  14
ENDBRANCH   7   8
ENDBRANCH   6   7
ENDBRANCH   5   6
ENDBRANCH   4   5
ENDBRANCH   2   4
TORSDOF 8
ENDMDL
MODEL      165
REMARK 921   NORMALIZED FREE ENERGY PREDICTED BY IDOCK:   -1.77 KCAL/MOL
REMARK 922        TOTAL FREE ENERGY PREDICTED BY IDOCK:   -2.83 KCAL/MOL
REMARK 923 INTER-LIGAND FREE ENERGY PREDICTED BY IDOCK:   -5.10 KCAL/MOL
REMARK 924 INTRA-LIGAND FREE ENERGY PREDICTED BY IDOCK:    2.26 KCAL/MOL
REMARK 927      BINDING AFFINITY PREDICTED BY RF-SCORE:    0.00 PKD
ROOT
HETATM    1  O   UNL     1      -6.347  21.352  68.684  1.00  0.00     0.107 OA 
HETATM    2  C   UNL     1      -5.233  20.610  68.201  1.00  0.00    -0.246 C  
HETATM    3  H   UNL     1      -6.247  21.511  69.616  1.00  0.00     0.000 HD 
ENDROOT
BRANCH   2   4
HETATM    4  C   UNL     1      -5.394  20.355  66.709  1.00  0.00    -0.165 C  
BRANCH   4   5
HETATM    5  O   UNL     1      -6.371  19.336  66.496  1.00  0.00    -0.184 OA 
BRANCH   5   6
HETATM    6  C   UNL     1      -7.482  19.853  65.755  1.00  0.00    -0.315 C  
BRANCH   6   7
HETATM    7  C   UNL     1      -8.750  19.777  66.616  1.00  0.00    -0.354 C  
BRANCH   7   8
HETATM    8  N   UNL     1      -8.827  18.581  67.482  1.00  0.00    -0.264 NA 
HETATM    9  C   UNL     1     -10.215  18.179  67.793  1.00  0.00    -0.383 C  
HETATM   10  C   UNL     1     -10.978  17.530  66.612  1.00  0.00     0.210 C  
HETATM   11  N   UNL     1     -10.299  16.348  66.025  1.00  0.00    -0.342 NA 
HETATM   12  C   UNL     1      -8.916  16.769  65.685  1.00  0.00     0.342 C  
HETATM   13  C   UNL     1      -8.130  17.441  66.841  1.00  0.00    -0.227 C  
BRANCH  11  14
HETATM   14  C   UNL     1     -10.334  15.166  66.946  1.00  0.00    -0.272 C  
BRANCH  14  15
HETATM   15  C   UNL     1     -10.680  13.863  66.203  1.00  0.00    -0.283 A  
HETATM   16  C   UNL     1     -10.723  13.855  64.793  1.00  0.00    -0.437 A  
HETATM   17  C   UNL     1     -10.822  12.635  66.870  1.00  0.00    -0.282 A  
HETATM   18  C   UNL     1     -10.858  12.657  64.085  1.00  0.00    -0.431 A  
HETATM   19  C   UNL     1     -10.971  11.450  64.767  1.00  0.00    -0.303 A  
HETATM   20  C   UNL     1     -10.971  11.439  66.160  1.00  0.00    -0.294 A  
ENDBRANCH  14  15
BRANCH  14  21
HETATM   21  C   UNL     1      -9.061  15.063  67.803  1.00  0.00    -0.180 A  
HETATM   22  C   UNL     1      -6.867  14.055  68.153  1.00  0.00    -0.122 A  
HETATM   23  C   UNL     1      -7.891  15.337  69.926  1.00  0.00     0.062 A  
HETATM   24  C   UNL     1      -7.970  14.307  67.333  1.00  0.00    -0.211 A  
HETATM   25 CL   UNL     1      -5.492  14.230  70.468  1.00  0.00    -0.117 Cl 
HETATM   26  C   UNL     1      -9.000  15.576  69.110  1.00  0.00    -0.256 A  
HETATM   27  C   UNL     1      -6.833  14.570  69.446  1.00  0.00    -0.149 A  
ENDBRANCH  14  21
ENDBRANCH  11  14
ENDBRANCH   7   8
ENDBRANCH   6   7
ENDBRANCH   5   6
ENDBRANCH   4   5
ENDBRANCH   2   4
TORSDOF 8
ENDMDL
MODEL      166
REMARK 921   NORMALIZED FREE ENERGY PREDICTED BY IDOCK:   -1.64 KCAL/MOL
REMARK 922        TOTAL FREE ENERGY PREDICTED BY IDOCK:   -2.65 KCAL/MOL
REMARK 923 INTER-LIGAND FREE ENERGY PREDICTED BY IDOCK:   -5.72 KCAL/MOL
REMARK 924 INTRA-LIGAND FREE ENERGY PREDICTED BY IDOCK:    3.07 KCAL/MOL
REMARK 927      BINDING AFFINITY PREDICTED BY RF-SCORE:    0.00 PKD
ROOT
HETATM    1  O   UNL     1     -12.529   6.909  70.404  1.00  0.00    -0.611 OA 
HETATM    2  C   UNL     1     -13.066   7.674  71.477  1.00  0.00    -0.338 C  
HETATM    3  H   UNL     1     -13.230   6.637  69.822  1.00  0.00     0.000 HD 
ENDROOT
BRANCH   2   4
HETATM    4  C   UNL     1     -11.945   8.109  72.409  1.00  0.00    -0.372 C  
BRANCH   4   5
HETATM    5  O   UNL     1     -10.988   7.057  72.538  1.00  0.00    -0.239 OA 
BRANCH   5   6
HETATM    6  C   UNL     1      -9.684   7.593  72.787  1.00  0.00    -0.205 C  
BRANCH   6   7
HETATM    7  C   UNL     1      -8.771   7.292  71.590  1.00  0.00    -0.117 C  
BRANCH   7   8
HETATM    8  N   UNL     1      -9.408   7.498  70.272  1.00  0.00    -0.161 NA 
HETATM    9  C   UNL     1      -9.224   8.867  69.746  1.00  0.00    -0.165 C  
HETATM   10  C   UNL     1      -7.791   9.178  69.245  1.00  0.00    -0.095 C  
HETATM   11  N   UNL     1      -7.292   8.238  68.210  1.00  0.00    -0.093 NA 
HETATM   12  C   UNL     1      -7.451   6.867  68.759  1.00  0.00    -0.099 C  
HETATM   13  C   UNL     1      -8.869   6.530  69.287  1.00  0.00    -0.132 C  
BRANCH  11  14
HETATM   14  C   UNL     1      -7.996   8.422  66.899  1.00  0.00    -0.099 C  
BRANCH  14  15
HETATM   15  C   UNL     1      -8.910   7.231  66.561  1.00  0.00    -0.156 A  
HETATM   16  C   UNL     1      -8.360   6.077  65.966  1.00  0.00    -0.134 A  
HETATM   17  C   UNL     1     -10.260   7.187  66.950  1.00  0.00    -0.330 A  
HETATM   18  C   UNL     1      -9.122   4.915  65.808  1.00  0.00    -0.148 A  
HETATM   19  C   UNL     1     -10.450   4.888  66.224  1.00  0.00    -0.349 A  
HETATM   20  C   UNL     1     -11.025   6.029  66.779  1.00  0.00    -0.305 A  
ENDBRANCH  14  15
BRANCH  14  21
HETATM   21  C   UNL     1      -8.706   9.783  66.810  1.00  0.00    -0.140 A  
HETATM   22  C   UNL     1      -8.600  12.206  67.089  1.00  0.00    -0.185 A  
HETATM   23  C   UNL     1     -10.739  11.130  66.770  1.00  0.00    -0.326 A  
HETATM   24  C   UNL     1      -7.962  10.965  66.997  1.00  0.00    -0.132 A  
HETATM   25 CL   UNL     1     -10.774  13.803  67.123  1.00  0.00    -0.280 Cl 
HETATM   26  C   UNL     1     -10.102   9.889  66.693  1.00  0.00    -0.297 A  
HETATM   27  C   UNL     1      -9.986  12.282  66.976  1.00  0.00    -0.211 A  
ENDBRANCH  14  21
ENDBRANCH  11  14
ENDBRANCH   7   8
ENDBRANCH   6   7
ENDBRANCH   5   6
ENDBRANCH   4   5
ENDBRANCH   2   4
TORSDOF 8
ENDMDL
MODEL      167
REMARK 921   NORMALIZED FREE ENERGY PREDICTED BY IDOCK:   -1.46 KCAL/MOL
REMARK 922        TOTAL FREE ENERGY PREDICTED BY IDOCK:   -2.38 KCAL/MOL
REMARK 923 INTER-LIGAND FREE ENERGY PREDICTED BY IDOCK:   -3.96 KCAL/MOL
REMARK 924 INTRA-LIGAND FREE ENERGY PREDICTED BY IDOCK:    1.58 KCAL/MOL
REMARK 927      BINDING AFFINITY PREDICTED BY RF-SCORE:    0.00 PKD
ROOT
HETATM    1  O   UNL     1      -6.163  13.721  67.172  1.00  0.00    -0.407 OA 
HETATM    2  C   UNL     1      -6.725  12.474  67.566  1.00  0.00    -0.151 C  
HETATM    3  H   UNL     1      -6.526  13.986  66.334  1.00  0.00     0.000 HD 
ENDROOT
BRANCH   2   4
HETATM    4  C   UNL     1      -6.143  12.049  68.906  1.00  0.00    -0.067 C  
BRANCH   4   5
HETATM    5  O   UNL     1      -6.199  10.628  69.028  1.00  0.00    -0.043 OA 
BRANCH   5   6
HETATM    6  C   UNL     1      -6.521  10.028  67.768  1.00  0.00    -0.066 C  
BRANCH   6   7
HETATM    7  C   UNL     1      -5.504   8.923  67.454  1.00  0.00    -0.038 C  
BRANCH   7   8
HETATM    8  N   UNL     1      -6.024   7.550  67.626  1.00  0.00    -0.038 NA 
HETATM    9  C   UNL     1      -5.714   6.973  68.951  1.00  0.00    -0.018 C  
HETATM   10  C   UNL     1      -6.535   7.568  70.121  1.00  0.00    -0.034 C  
HETATM   11  N   UNL     1      -8.006   7.481  69.937  1.00  0.00    -0.120 NA 
HETATM   12  C   UNL     1      -8.313   8.091  68.618  1.00  0.00    -0.127 C  
HETATM   13  C   UNL     1      -7.493   7.531  67.428  1.00  0.00    -0.104 C  
BRANCH  11  14
HETATM   14  C   UNL     1      -8.503   6.071  70.053  1.00  0.00    -0.131 C  
BRANCH  14  15
HETATM   15  C   UNL     1      -9.284   5.838  71.358  1.00  0.00    -0.157 A  
HETATM   16  C   UNL     1     -10.053   6.886  71.907  1.00  0.00    -0.198 A  
HETATM   17  C   UNL     1      -9.377   4.572  71.961  1.00  0.00    -0.184 A  
HETATM   18  C   UNL     1     -10.911   6.659  72.988  1.00  0.00    -0.297 A  
HETATM   19  C   UNL     1     -11.005   5.390  73.551  1.00  0.00    -0.323 A  
HETATM   20  C   UNL     1     -10.225   4.350  73.050  1.00  0.00    -0.225 A  
ENDBRANCH  14  15
BRANCH  14  21
HETATM   21  C   UNL     1      -9.265   5.622  68.795  1.00  0.00    -0.133 A  
HETATM   22  C   UNL     1      -9.293   4.305  66.740  1.00  0.00    -0.180 A  
HETATM   23  C   UNL     1     -11.013   5.957  67.127  1.00  0.00    -0.289 A  
HETATM   24  C   UNL     1      -8.714   4.619  67.973  1.00  0.00    -0.112 A  
HETATM   25 CL   UNL     1     -11.131   4.615  64.790  1.00  0.00     0.058 Cl 
HETATM   26  C   UNL     1     -10.425   6.280  68.352  1.00  0.00    -0.273 A  
HETATM   27  C   UNL     1     -10.438   4.976  66.322  1.00  0.00    -0.303 A  
ENDBRANCH  14  21
ENDBRANCH  11  14
ENDBRANCH   7   8
ENDBRANCH   6   7
ENDBRANCH   5   6
ENDBRANCH   4   5
ENDBRANCH   2   4
TORSDOF 8
ENDMDL
MODEL      168
REMARK 921   NORMALIZED FREE ENERGY PREDICTED BY IDOCK:   -1.36 KCAL/MOL
REMARK 922        TOTAL FREE ENERGY PREDICTED BY IDOCK:   -2.23 KCAL/MOL
REMARK 923 INTER-LIGAND FREE ENERGY PREDICTED BY IDOCK:   -5.24 KCAL/MOL
REMARK 924 INTRA-LIGAND FREE ENERGY PREDICTED BY IDOCK:    3.01 KCAL/MOL
REMARK 927      BINDING AFFINITY PREDICTED BY RF-SCORE:    0.00 PKD
ROOT
HETATM    1  O   UNL     1     -10.199  11.558  63.430  1.00  0.00    -0.355 OA 
HETATM    2  C   UNL     1     -11.181  12.587  63.449  1.00  0.00    -0.397 C  
HETATM    3  H   UNL     1     -10.076  11.247  62.540  1.00  0.00     0.000 HD 
ENDROOT
BRANCH   2   4
HETATM    4  C   UNL     1     -11.378  13.084  64.874  1.00  0.00    -0.303 C  
BRANCH   4   5
HETATM    5  O   UNL     1     -10.513  14.192  65.123  1.00  0.00    -0.353 OA 
BRANCH   5   6
HETATM    6  C   UNL     1      -9.630  13.905  66.212  1.00  0.00    -0.256 C  
BRANCH   6   7
HETATM    7  C   UNL     1     -10.306  12.916  67.171  1.00  0.00    -0.238 C  
BRANCH   7   8
HETATM    8  N   UNL     1      -9.401  11.880  67.714  1.00  0.00    -0.178 NA 
HETATM    9  C   UNL     1      -9.980  11.146  68.860  1.00  0.00    -0.175 C  
HETATM   10  C   UNL     1     -11.105  10.150  68.485  1.00  0.00    -0.214 C  
HETATM   11  N   UNL     1     -10.710   9.140  67.471  1.00  0.00    -0.245 NA 
HETATM   12  C   UNL     1     -10.158   9.886  66.311  1.00  0.00    -0.241 C  
HETATM   13  C   UNL     1      -9.044  10.907  66.654  1.00  0.00    -0.162 C  
BRANCH  11  14
HETATM   14  C   UNL     1      -9.743   8.137  68.026  1.00  0.00    -0.161 C  
BRANCH  14  15
HETATM   15  C   UNL     1      -8.379   8.193  67.315  1.00  0.00    -0.121 A  
HETATM   16  C   UNL     1      -8.258   7.697  65.999  1.00  0.00    -0.128 A  
HETATM   17  C   UNL     1      -7.269   8.848  67.873  1.00  0.00    -0.083 A  
HETATM   18  C   UNL     1      -7.086   7.891  65.263  1.00  0.00    -0.060 A  
HETATM   19  C   UNL     1      -6.008   8.565  65.828  1.00  0.00    -0.048 A  
HETATM   20  C   UNL     1      -6.092   9.029  67.139  1.00  0.00    -0.058 A  
ENDBRANCH  14  15
BRANCH  14  21
HETATM   21  C   UNL     1      -9.638   8.221  69.558  1.00  0.00    -0.171 A  
HETATM   22  C   UNL     1      -8.269   8.675  71.527  1.00  0.00    -0.209 A  
HETATM   23  C   UNL     1     -10.424   7.615  71.786  1.00  0.00    -0.241 A  
HETATM   24  C   UNL     1      -8.466   8.737  70.144  1.00  0.00    -0.139 A  
HETATM   25 CL   UNL     1      -8.992   8.003  74.038  1.00  0.00    -0.247 Cl 
HETATM   26  C   UNL     1     -10.614   7.665  70.403  1.00  0.00    -0.233 A  
HETATM   27  C   UNL     1      -9.249   8.112  72.341  1.00  0.00    -0.226 A  
ENDBRANCH  14  21
ENDBRANCH  11  14
ENDBRANCH   7   8
ENDBRANCH   6   7
ENDBRANCH   5   6
ENDBRANCH   4   5
ENDBRANCH   2   4
TORSDOF 8
ENDMDL
MODEL      169
REMARK 921   NORMALIZED FREE ENERGY PREDICTED BY IDOCK:   -1.28 KCAL/MOL
REMARK 922        TOTAL FREE ENERGY PREDICTED BY IDOCK:   -2.11 KCAL/MOL
REMARK 923 INTER-LIGAND FREE ENERGY PREDICTED BY IDOCK:   -1.76 KCAL/MOL
REMARK 924 INTRA-LIGAND FREE ENERGY PREDICTED BY IDOCK:   -0.35 KCAL/MOL
REMARK 927      BINDING AFFINITY PREDICTED BY RF-SCORE:    0.00 PKD
ROOT
HETATM    1  O   UNL     1      -7.210  14.684  71.438  1.00  0.00     0.676 OA 
HETATM    2  C   UNL     1      -6.803  14.352  70.115  1.00  0.00     0.012 C  
HETATM    3  H   UNL     1      -7.964  15.262  71.406  1.00  0.00     0.000 HD 
ENDROOT
BRANCH   2   4
HETATM    4  C   UNL     1      -5.596  13.427  70.166  1.00  0.00    -0.126 C  
BRANCH   4   5
HETATM    5  O   UNL     1      -5.961  12.131  69.690  1.00  0.00    -0.093 OA 
BRANCH   5   6
HETATM    6  C   UNL     1      -5.356  11.874  68.418  1.00  0.00    -0.045 C  
BRANCH   6   7
HETATM    7  C   UNL     1      -6.435  11.433  67.420  1.00  0.00    -0.083 C  
BRANCH   7   8
HETATM    8  N   UNL     1      -7.490  10.577  68.002  1.00  0.00    -0.089 NA 
HETATM    9  C   UNL     1      -8.373   9.969  66.984  1.00  0.00    -0.121 C  
HETATM   10  C   UNL     1      -7.721   8.829  66.164  1.00  0.00    -0.101 C  
HETATM   11  N   UNL     1      -7.176   7.722  66.989  1.00  0.00    -0.087 NA 
HETATM   12  C   UNL     1      -6.266   8.336  67.989  1.00  0.00    -0.051 C  
HETATM   13  C   UNL     1      -6.881   9.496  68.814  1.00  0.00    -0.052 C  
BRANCH  11  14
HETATM   14  C   UNL     1      -8.263   6.905  67.621  1.00  0.00    -0.117 C  
BRANCH  14  15
HETATM   15  C   UNL     1      -8.949   5.971  66.608  1.00  0.00    -0.129 A  
HETATM   16  C   UNL     1      -8.163   5.225  65.705  1.00  0.00    -0.121 A  
HETATM   17  C   UNL     1     -10.331   5.722  66.634  1.00  0.00    -0.300 A  
HETATM   18  C   UNL     1      -8.737   4.240  64.896  1.00  0.00    -0.130 A  
HETATM   19  C   UNL     1     -10.105   3.994  64.958  1.00  0.00    -0.203 A  
HETATM   20  C   UNL     1     -10.906   4.746  65.815  1.00  0.00    -0.123 A  
ENDBRANCH  14  15
BRANCH  14  21
HETATM   21  C   UNL     1      -7.780   6.183  68.890  1.00  0.00    -0.093 A  
HETATM   22  C   UNL     1      -6.311   4.519  69.904  1.00  0.00    -0.027 A  
HETATM   23  C   UNL     1      -8.125   5.458  71.193  1.00  0.00    -0.111 A  
HETATM   24  C   UNL     1      -6.673   5.316  68.814  1.00  0.00    -0.050 A  
HETATM   25 CL   UNL     1      -6.616   3.587  72.417  1.00  0.00    -0.014 Cl 
HETATM   26  C   UNL     1      -8.495   6.244  70.098  1.00  0.00    -0.134 A  
HETATM   27  C   UNL     1      -7.040   4.593  71.087  1.00  0.00    -0.043 A  
ENDBRANCH  14  21
ENDBRANCH  11  14
ENDBRANCH   7   8
ENDBRANCH   6   7
ENDBRANCH   5   6
ENDBRANCH   4   5
ENDBRANCH   2   4
TORSDOF 8
ENDMDL
MODEL      170
REMARK 921   NORMALIZED FREE ENERGY PREDICTED BY IDOCK:   -1.25 KCAL/MOL
REMARK 922        TOTAL FREE ENERGY PREDICTED BY IDOCK:   -2.08 KCAL/MOL
REMARK 923 INTER-LIGAND FREE ENERGY PREDICTED BY IDOCK:   -5.01 KCAL/MOL
REMARK 924 INTRA-LIGAND FREE ENERGY PREDICTED BY IDOCK:    2.93 KCAL/MOL
REMARK 927      BINDING AFFINITY PREDICTED BY RF-SCORE:    0.00 PKD
ROOT
HETATM    1  O   UNL     1     -13.823  10.123  72.652  1.00  0.00    -0.551 OA 
HETATM    2  C   UNL     1     -13.747   8.881  71.961  1.00  0.00    -0.459 C  
HETATM    3  H   UNL     1     -14.713  10.455  72.620  1.00  0.00     0.000 HD 
ENDROOT
BRANCH   2   4
HETATM    4  C   UNL     1     -12.323   8.350  72.012  1.00  0.00    -0.361 C  
BRANCH   4   5
HETATM    5  O   UNL     1     -12.341   6.923  72.058  1.00  0.00    -0.315 OA 
BRANCH   5   6
HETATM    6  C   UNL     1     -11.089   6.390  71.614  1.00  0.00    -0.267 C  
BRANCH   6   7
HETATM    7  C   UNL     1     -11.171   6.074  70.115  1.00  0.00    -0.342 C  
BRANCH   7   8
HETATM    8  N   UNL     1      -9.929   6.355  69.365  1.00  0.00    -0.154 NA 
HETATM    9  C   UNL     1      -9.940   5.801  67.994  1.00  0.00    -0.144 C  
HETATM   10  C   UNL     1     -10.860   6.552  67.002  1.00  0.00    -0.395 C  
HETATM   11  N   UNL     1     -10.572   8.004  66.886  1.00  0.00    -0.324 NA 
HETATM   12  C   UNL     1     -10.594   8.560  68.263  1.00  0.00    -0.119 C  
HETATM   13  C   UNL     1      -9.698   7.817  69.287  1.00  0.00    -0.165 C  
BRANCH  11  14
HETATM   14  C   UNL     1      -9.276   8.264  66.178  1.00  0.00    -0.192 C  
BRANCH  14  15
HETATM   15  C   UNL     1      -8.557   9.510  66.726  1.00  0.00    -0.133 A  
HETATM   16  C   UNL     1      -7.180   9.444  67.026  1.00  0.00    -0.087 A  
HETATM   17  C   UNL     1      -9.187  10.762  66.813  1.00  0.00    -0.174 A  
HETATM   18  C   UNL     1      -6.460  10.596  67.356  1.00  0.00    -0.059 A  
HETATM   19  C   UNL     1      -7.101  11.830  67.410  1.00  0.00    -0.126 A  
HETATM   20  C   UNL     1      -8.468  11.912  67.155  1.00  0.00    -0.173 A  
ENDBRANCH  14  15
BRANCH  14  21
HETATM   21  C   UNL     1      -8.383   7.013  66.129  1.00  0.00    -0.130 A  
HETATM   22  C   UNL     1      -6.439   5.812  66.985  1.00  0.00    -0.047 A  
HETATM   23  C   UNL     1      -7.518   5.054  64.961  1.00  0.00    -0.076 A  
HETATM   24  C   UNL     1      -7.373   6.846  67.096  1.00  0.00    -0.090 A  
HETATM   25 CL   UNL     1      -5.346   3.670  65.762  1.00  0.00    -0.009 Cl 
HETATM   26  C   UNL     1      -8.442   6.097  65.065  1.00  0.00    -0.071 A  
HETATM   27  C   UNL     1      -6.515   4.922  65.918  1.00  0.00    -0.040 A  
ENDBRANCH  14  21
ENDBRANCH  11  14
ENDBRANCH   7   8
ENDBRANCH   6   7
ENDBRANCH   5   6
ENDBRANCH   4   5
ENDBRANCH   2   4
TORSDOF 8
ENDMDL
MODEL      171
REMARK 921   NORMALIZED FREE ENERGY PREDICTED BY IDOCK:   -1.24 KCAL/MOL
REMARK 922        TOTAL FREE ENERGY PREDICTED BY IDOCK:   -2.06 KCAL/MOL
REMARK 923 INTER-LIGAND FREE ENERGY PREDICTED BY IDOCK:   -5.39 KCAL/MOL
REMARK 924 INTRA-LIGAND FREE ENERGY PREDICTED BY IDOCK:    3.32 KCAL/MOL
REMARK 927      BINDING AFFINITY PREDICTED BY RF-SCORE:    0.00 PKD
ROOT
HETATM    1  O   UNL     1     -11.084   9.433  71.643  1.00  0.00    -0.369 OA 
HETATM    2  C   UNL     1     -10.333   8.364  72.207  1.00  0.00    -0.333 C  
HETATM    3  H   UNL     1     -11.812   9.650  72.214  1.00  0.00     0.000 HD 
ENDROOT
BRANCH   2   4
HETATM    4  C   UNL     1      -9.168   8.016  71.293  1.00  0.00    -0.150 C  
BRANCH   4   5
HETATM    5  O   UNL     1      -9.339   6.698  70.772  1.00  0.00    -0.158 OA 
BRANCH   5   6
HETATM    6  C   UNL     1      -9.243   6.705  69.344  1.00  0.00    -0.142 C  
BRANCH   6   7
HETATM    7  C   UNL     1     -10.481   7.393  68.752  1.00  0.00    -0.199 C  
BRANCH   7   8
HETATM    8  N   UNL     1     -10.229   8.115  67.487  1.00  0.00    -0.222 NA 
HETATM    9  C   UNL     1     -10.592   9.547  67.554  1.00  0.00    -0.275 C  
HETATM   10  C   UNL     1      -9.626  10.418  68.393  1.00  0.00    -0.148 C  
HETATM   11  N   UNL     1      -8.208  10.345  67.959  1.00  0.00    -0.113 NA 
HETATM   12  C   UNL     1      -7.841   8.906  67.925  1.00  0.00    -0.102 C  
HETATM   13  C   UNL     1      -8.800   8.001  67.109  1.00  0.00    -0.131 C  
BRANCH  11  14
HETATM   14  C   UNL     1      -7.988  11.029  66.643  1.00  0.00    -0.156 C  
BRANCH  14  15
HETATM   15  C   UNL     1      -7.530  10.048  65.550  1.00  0.00    -0.137 A  
HETATM   16  C   UNL     1      -8.453   9.605  64.579  1.00  0.00    -0.186 A  
HETATM   17  C   UNL     1      -6.184   9.675  65.393  1.00  0.00    -0.071 A  
HETATM   18  C   UNL     1      -8.032   8.858  63.474  1.00  0.00    -0.158 A  
HETATM   19  C   UNL     1      -6.689   8.523  63.327  1.00  0.00    -0.089 A  
HETATM   20  C   UNL     1      -5.767   8.917  64.295  1.00  0.00    -0.065 A  
ENDBRANCH  14  15
BRANCH  14  21
HETATM   21  C   UNL     1      -9.196  11.887  66.229  1.00  0.00    -0.218 A  
HETATM   22  C   UNL     1     -10.707  13.734  66.738  1.00  0.00    -0.276 A  
HETATM   23  C   UNL     1     -11.249  12.203  64.950  1.00  0.00    -0.374 A  
HETATM   24  C   UNL     1      -9.525  13.029  66.984  1.00  0.00    -0.237 A  
HETATM   25 CL   UNL     1     -13.035  14.163  65.443  1.00  0.00    -0.429 Cl 
HETATM   26  C   UNL     1     -10.074  11.490  65.206  1.00  0.00    -0.314 A  
HETATM   27  C   UNL     1     -11.564  13.317  65.723  1.00  0.00    -0.337 A  
ENDBRANCH  14  21
ENDBRANCH  11  14
ENDBRANCH   7   8
ENDBRANCH   6   7
ENDBRANCH   5   6
ENDBRANCH   4   5
ENDBRANCH   2   4
TORSDOF 8
ENDMDL
MODEL      172
REMARK 921   NORMALIZED FREE ENERGY PREDICTED BY IDOCK:   -1.20 KCAL/MOL
REMARK 922        TOTAL FREE ENERGY PREDICTED BY IDOCK:   -2.00 KCAL/MOL
REMARK 923 INTER-LIGAND FREE ENERGY PREDICTED BY IDOCK:   -2.27 KCAL/MOL
REMARK 924 INTRA-LIGAND FREE ENERGY PREDICTED BY IDOCK:    0.27 KCAL/MOL
REMARK 927      BINDING AFFINITY PREDICTED BY RF-SCORE:    0.00 PKD
ROOT
HETATM    1  O   UNL     1      -7.737  15.230  70.610  1.00  0.00     0.373 OA 
HETATM    2  C   UNL     1      -7.242  14.878  69.323  1.00  0.00    -0.172 C  
HETATM    3  H   UNL     1      -8.471  15.827  70.520  1.00  0.00     0.000 HD 
ENDROOT
BRANCH   2   4
HETATM    4  C   UNL     1      -6.068  13.922  69.468  1.00  0.00    -0.110 C  
BRANCH   4   5
HETATM    5  O   UNL     1      -6.446  12.620  69.018  1.00  0.00    -0.085 OA 
BRANCH   5   6
HETATM    6  C   UNL     1      -5.290  11.856  68.661  1.00  0.00    -0.049 C  
BRANCH   6   7
HETATM    7  C   UNL     1      -5.477  11.272  67.255  1.00  0.00    -0.056 C  
BRANCH   7   8
HETATM    8  N   UNL     1      -6.820  10.708  67.004  1.00  0.00    -0.086 NA 
HETATM    9  C   UNL     1      -6.923  10.007  65.706  1.00  0.00    -0.112 C  
HETATM   10  C   UNL     1      -6.198   8.640  65.652  1.00  0.00    -0.052 C  
HETATM   11  N   UNL     1      -6.627   7.683  66.703  1.00  0.00    -0.056 NA 
HETATM   12  C   UNL     1      -6.491   8.383  68.006  1.00  0.00    -0.057 C  
HETATM   13  C   UNL     1      -7.188   9.765  68.087  1.00  0.00    -0.079 C  
BRANCH  11  14
HETATM   14  C   UNL     1      -8.015   7.172  66.463  1.00  0.00    -0.112 C  
BRANCH  14  15
HETATM   15  C   UNL     1      -8.054   6.094  65.364  1.00  0.00    -0.133 A  
HETATM   16  C   UNL     1      -7.706   6.436  64.041  1.00  0.00    -0.104 A  
HETATM   17  C   UNL     1      -8.291   4.740  65.651  1.00  0.00    -0.118 A  
HETATM   18  C   UNL     1      -7.559   5.452  63.059  1.00  0.00    -0.068 A  
HETATM   19  C   UNL     1      -7.774   4.114  63.372  1.00  0.00    -0.066 A  
HETATM   20  C   UNL     1      -8.157   3.758  64.664  1.00  0.00    -0.090 A  
ENDBRANCH  14  15
BRANCH  14  21
HETATM   21  C   UNL     1      -8.706   6.741  67.768  1.00  0.00    -0.120 A  
HETATM   22  C   UNL     1      -8.812   5.191  69.650  1.00  0.00    -0.125 A  
HETATM   23  C   UNL     1     -10.649   6.706  69.242  1.00  0.00    -0.276 A  
HETATM   24  C   UNL     1      -8.130   5.722  68.552  1.00  0.00    -0.108 A  
HETATM   25 CL   UNL     1     -10.924   5.008  71.320  1.00  0.00     0.006 Cl 
HETATM   26  C   UNL     1      -9.972   7.225  68.135  1.00  0.00    -0.181 A  
HETATM   27  C   UNL     1     -10.069   5.685  69.989  1.00  0.00    -0.228 A  
ENDBRANCH  14  21
ENDBRANCH  11  14
ENDBRANCH   7   8
ENDBRANCH   6   7
ENDBRANCH   5   6
ENDBRANCH   4   5
ENDBRANCH   2   4
TORSDOF 8
ENDMDL
MODEL      173
REMARK 921   NORMALIZED FREE ENERGY PREDICTED BY IDOCK:   -1.12 KCAL/MOL
REMARK 922        TOTAL FREE ENERGY PREDICTED BY IDOCK:   -1.88 KCAL/MOL
REMARK 923 INTER-LIGAND FREE ENERGY PREDICTED BY IDOCK:   -5.24 KCAL/MOL
REMARK 924 INTRA-LIGAND FREE ENERGY PREDICTED BY IDOCK:    3.36 KCAL/MOL
REMARK 927      BINDING AFFINITY PREDICTED BY RF-SCORE:    0.00 PKD
ROOT
HETATM    1  O   UNL     1     -10.118   4.766  65.954  1.00  0.00    -0.208 OA 
HETATM    2  C   UNL     1      -8.835   5.291  66.273  1.00  0.00    -0.130 C  
HETATM    3  H   UNL     1     -10.334   4.060  66.553  1.00  0.00     0.000 HD 
ENDROOT
BRANCH   2   4
HETATM    4  C   UNL     1      -8.489   6.421  65.315  1.00  0.00    -0.098 C  
BRANCH   4   5
HETATM    5  O   UNL     1      -8.896   7.670  65.874  1.00  0.00    -0.164 OA 
BRANCH   5   6
HETATM    6  C   UNL     1      -8.569   7.727  67.267  1.00  0.00    -0.128 C  
BRANCH   6   7
HETATM    7  C   UNL     1      -8.059   9.132  67.615  1.00  0.00    -0.104 C  
BRANCH   7   8
HETATM    8  N   UNL     1      -8.776  10.227  66.927  1.00  0.00    -0.126 NA 
HETATM    9  C   UNL     1      -9.974  10.688  67.661  1.00  0.00    -0.169 C  
HETATM   10  C   UNL     1      -9.671  11.514  68.935  1.00  0.00    -0.054 C  
HETATM   11  N   UNL     1      -8.816  12.704  68.699  1.00  0.00    -0.026 NA 
HETATM   12  C   UNL     1      -7.600  12.229  67.990  1.00  0.00    -0.126 C  
HETATM   13  C   UNL     1      -7.869  11.381  66.721  1.00  0.00    -0.157 C  
BRANCH  11  14
HETATM   14  C   UNL     1      -9.543  13.776  67.945  1.00  0.00    -0.222 C  
BRANCH  14  15
HETATM   15  C   UNL     1      -8.625  14.961  67.593  1.00  0.00    -0.181 A  
HETATM   16  C   UNL     1      -7.276  14.945  68.009  1.00  0.00    -0.143 A  
HETATM   17  C   UNL     1      -9.037  16.004  66.749  1.00  0.00    -0.271 A  
HETATM   18  C   UNL     1      -6.374  15.913  67.559  1.00  0.00    -0.198 A  
HETATM   19  C   UNL     1      -6.800  16.923  66.702  1.00  0.00    -0.271 A  
HETATM   20  C   UNL     1      -8.136  16.980  66.310  1.00  0.00    -0.332 A  
ENDBRANCH  14  15
BRANCH  14  21
HETATM   21  C   UNL     1     -10.309  13.215  66.735  1.00  0.00    -0.252 A  
HETATM   22  C   UNL     1     -10.374  12.783  64.334  1.00  0.00    -0.388 A  
HETATM   23  C   UNL     1     -12.390  12.557  65.647  1.00  0.00    -0.296 A  
HETATM   24  C   UNL     1      -9.663  13.130  65.487  1.00  0.00    -0.061 A  
HETATM   25 CL   UNL     1     -12.618  12.107  62.997  1.00  0.00    -0.319 Cl 
HETATM   26  C   UNL     1     -11.681  12.918  66.795  1.00  0.00    -0.445 A  
HETATM   27  C   UNL     1     -11.735  12.500  64.420  1.00  0.00    -0.368 A  
ENDBRANCH  14  21
ENDBRANCH  11  14
ENDBRANCH   7   8
ENDBRANCH   6   7
ENDBRANCH   5   6
ENDBRANCH   4   5
ENDBRANCH   2   4
TORSDOF 8
ENDMDL
MODEL      174
REMARK 921   NORMALIZED FREE ENERGY PREDICTED BY IDOCK:   -1.01 KCAL/MOL
REMARK 922        TOTAL FREE ENERGY PREDICTED BY IDOCK:   -1.72 KCAL/MOL
REMARK 923 INTER-LIGAND FREE ENERGY PREDICTED BY IDOCK:   -1.81 KCAL/MOL
REMARK 924 INTRA-LIGAND FREE ENERGY PREDICTED BY IDOCK:    0.08 KCAL/MOL
REMARK 927      BINDING AFFINITY PREDICTED BY RF-SCORE:    0.00 PKD
ROOT
HETATM    1  O   UNL     1      -8.951  21.106  66.329  1.00  0.00     0.206 OA 
HETATM    2  C   UNL     1      -8.111  20.918  67.462  1.00  0.00    -0.055 C  
HETATM    3  H   UNL     1      -8.541  21.713  65.723  1.00  0.00     0.000 HD 
ENDROOT
BRANCH   2   4
HETATM    4  C   UNL     1      -8.765  19.946  68.432  1.00  0.00    -0.172 C  
BRANCH   4   5
HETATM    5  O   UNL     1      -8.803  18.640  67.856  1.00  0.00    -0.278 OA 
BRANCH   5   6
HETATM    6  C   UNL     1     -10.149  18.155  67.797  1.00  0.00    -0.362 C  
BRANCH   6   7
HETATM    7  C   UNL     1     -10.490  17.771  66.351  1.00  0.00    -0.297 C  
BRANCH   7   8
HETATM    8  N   UNL     1     -11.151  16.457  66.210  1.00  0.00     0.071 NA 
HETATM    9  C   UNL     1     -10.708  15.709  65.014  1.00  0.00    -0.436 C  
HETATM   10  C   UNL     1      -9.278  15.123  65.114  1.00  0.00     1.037 C  
HETATM   11  N   UNL     1      -9.063  14.241  66.289  1.00  0.00    -0.142 NA 
HETATM   12  C   UNL     1      -9.481  15.010  67.489  1.00  0.00    -0.203 C  
HETATM   13  C   UNL     1     -10.901  15.627  67.413  1.00  0.00    -0.315 C  
BRANCH  11  14
HETATM   14  C   UNL     1      -9.794  12.938  66.153  1.00  0.00    -0.270 C  
BRANCH  14  15
HETATM   15  C   UNL     1      -9.085  11.975  65.185  1.00  0.00     0.329 A  
HETATM   16  C   UNL     1      -9.309  12.091  63.797  1.00  0.00     0.178 A  
HETATM   17  C   UNL     1      -8.107  11.063  65.616  1.00  0.00     0.004 A  
HETATM   18  C   UNL     1      -8.551  11.354  62.882  1.00  0.00     0.050 A  
HETATM   19  C   UNL     1      -7.571  10.476  63.333  1.00  0.00     0.016 A  
HETATM   20  C   UNL     1      -7.359  10.316  64.700  1.00  0.00    -0.085 A  
ENDBRANCH  14  15
BRANCH  14  21
HETATM   21  C   UNL     1     -10.112  12.309  67.520  1.00  0.00    -0.206 A  
HETATM   22  C   UNL     1      -9.318  11.114  69.494  1.00  0.00     0.432 A  
HETATM   23  C   UNL     1     -11.691  11.341  69.106  1.00  0.00    -0.410 A  
HETATM   24  C   UNL     1      -9.058  11.838  68.327  1.00  0.00    -0.187 A  
HETATM   25 CL   UNL     1     -10.953   9.946  71.294  1.00  0.00    -0.330 Cl 
HETATM   26  C   UNL     1     -11.430  12.052  67.932  1.00  0.00    -0.396 A  
HETATM   27  C   UNL     1     -10.633  10.867  69.877  1.00  0.00     0.014 A  
ENDBRANCH  14  21
ENDBRANCH  11  14
ENDBRANCH   7   8
ENDBRANCH   6   7
ENDBRANCH   5   6
ENDBRANCH   4   5
ENDBRANCH   2   4
TORSDOF 8
ENDMDL
MODEL      175
REMARK 921   NORMALIZED FREE ENERGY PREDICTED BY IDOCK:   -0.98 KCAL/MOL
REMARK 922        TOTAL FREE ENERGY PREDICTED BY IDOCK:   -1.68 KCAL/MOL
REMARK 923 INTER-LIGAND FREE ENERGY PREDICTED BY IDOCK:   -1.11 KCAL/MOL
REMARK 924 INTRA-LIGAND FREE ENERGY PREDICTED BY IDOCK:   -0.56 KCAL/MOL
REMARK 927      BINDING AFFINITY PREDICTED BY RF-SCORE:    0.00 PKD
ROOT
HETATM    1  O   UNL     1     -12.113  14.567  64.693  1.00  0.00    -0.438 OA 
HETATM    2  C   UNL     1     -11.026  15.303  65.245  1.00  0.00    -0.393 C  
HETATM    3  H   UNL     1     -12.074  14.602  63.744  1.00  0.00     0.000 HD 
ENDROOT
BRANCH   2   4
HETATM    4  C   UNL     1     -11.088  15.249  66.764  1.00  0.00    -0.278 C  
BRANCH   4   5
HETATM    5  O   UNL     1      -9.948  15.907  67.317  1.00  0.00    -0.234 OA 
BRANCH   5   6
HETATM    6  C   UNL     1      -8.830  15.014  67.370  1.00  0.00    -0.190 C  
BRANCH   6   7
HETATM    7  C   UNL     1      -9.328  13.585  67.621  1.00  0.00    -0.216 C  
BRANCH   7   8
HETATM    8  N   UNL     1      -9.302  13.172  69.040  1.00  0.00     0.311 NA 
HETATM    9  C   UNL     1     -10.634  12.800  69.562  1.00  0.00     0.442 C  
HETATM   10  C   UNL     1     -11.173  11.444  69.044  1.00  0.00    -0.256 C  
HETATM   11  N   UNL     1     -10.268  10.295  69.293  1.00  0.00    -0.214 NA 
HETATM   12  C   UNL     1      -8.940  10.663  68.739  1.00  0.00    -0.172 C  
HETATM   13  C   UNL     1      -8.380  12.025  69.222  1.00  0.00     0.643 C  
BRANCH  11  14
HETATM   14  C   UNL     1     -10.207   9.933  70.747  1.00  0.00    -0.060 C  
BRANCH  14  15
HETATM   15  C   UNL     1     -11.609   9.765  71.361  1.00  0.00    -0.452 A  
HETATM   16  C   UNL     1     -12.273   8.525  71.252  1.00  0.00    -0.310 A  
HETATM   17  C   UNL     1     -12.205  10.761  72.152  1.00  0.00     0.765 A  
HETATM   18  C   UNL     1     -13.463   8.284  71.946  1.00  0.00    -0.372 A  
HETATM   19  C   UNL     1     -14.022   9.278  72.744  1.00  0.00    -0.192 A  
HETATM   20  C   UNL     1     -13.403  10.523  72.834  1.00  0.00     1.523 A  
ENDBRANCH  14  15
BRANCH  14  21
HETATM   21  C   UNL     1      -9.278   8.736  71.007  1.00  0.00    -0.278 A  
HETATM   22  C   UNL     1      -8.584   6.474  70.408  1.00  0.00    -0.146 A  
HETATM   23  C   UNL     1      -7.805   7.458  72.472  1.00  0.00    -0.108 A  
HETATM   24  C   UNL     1      -9.288   7.646  70.115  1.00  0.00    -0.157 A  
HETATM   25 CL   UNL     1      -7.008   4.932  71.963  1.00  0.00    -0.059 Cl 
HETATM   26  C   UNL     1      -8.521   8.623  72.186  1.00  0.00    -0.171 A  
HETATM   27  C   UNL     1      -7.847   6.385  71.586  1.00  0.00    -0.101 A  
ENDBRANCH  14  21
ENDBRANCH  11  14
ENDBRANCH   7   8
ENDBRANCH   6   7
ENDBRANCH   5   6
ENDBRANCH   4   5
ENDBRANCH   2   4
TORSDOF 8
ENDMDL
MODEL      176
REMARK 921   NORMALIZED FREE ENERGY PREDICTED BY IDOCK:   -0.97 KCAL/MOL
REMARK 922        TOTAL FREE ENERGY PREDICTED BY IDOCK:   -1.66 KCAL/MOL
REMARK 923 INTER-LIGAND FREE ENERGY PREDICTED BY IDOCK:   -4.95 KCAL/MOL
REMARK 924 INTRA-LIGAND FREE ENERGY PREDICTED BY IDOCK:    3.29 KCAL/MOL
REMARK 927      BINDING AFFINITY PREDICTED BY RF-SCORE:    0.00 PKD
ROOT
HETATM    1  O   UNL     1     -13.563  10.311  72.396  1.00  0.00    -0.611 OA 
HETATM    2  C   UNL     1     -13.692   8.922  72.115  1.00  0.00    -0.474 C  
HETATM    3  H   UNL     1     -14.410  10.736  72.311  1.00  0.00     0.000 HD 
ENDROOT
BRANCH   2   4
HETATM    4  C   UNL     1     -12.338   8.243  72.250  1.00  0.00    -0.356 C  
BRANCH   4   5
HETATM    5  O   UNL     1     -12.504   6.825  72.223  1.00  0.00    -0.198 OA 
BRANCH   5   6
HETATM    6  C   UNL     1     -11.397   6.202  71.563  1.00  0.00    -0.280 C  
BRANCH   6   7
HETATM    7  C   UNL     1     -11.501   6.445  70.052  1.00  0.00    -0.428 C  
BRANCH   7   8
HETATM    8  N   UNL     1     -10.206   6.704  69.387  1.00  0.00    -0.176 NA 
HETATM    9  C   UNL     1     -10.347   7.410  68.096  1.00  0.00    -0.192 C  
HETATM   10  C   UNL     1     -10.731   8.905  68.217  1.00  0.00    -0.082 C  
HETATM   11  N   UNL     1      -9.802   9.705  69.055  1.00  0.00    -0.175 NA 
HETATM   12  C   UNL     1      -9.690   9.007  70.361  1.00  0.00    -0.206 C  
HETATM   13  C   UNL     1      -9.327   7.503  70.275  1.00  0.00    -0.161 C  
BRANCH  11  14
HETATM   14  C   UNL     1      -8.474   9.902  68.388  1.00  0.00    -0.111 C  
BRANCH  14  15
HETATM   15  C   UNL     1      -7.324   9.266  69.190  1.00  0.00    -0.071 A  
HETATM   16  C   UNL     1      -6.844   9.910  70.351  1.00  0.00    -0.141 A  
HETATM   17  C   UNL     1      -6.818   7.991  68.892  1.00  0.00    -0.061 A  
HETATM   18  C   UNL     1      -5.928   9.279  71.197  1.00  0.00    -0.068 A  
HETATM   19  C   UNL     1      -5.460   8.004  70.894  1.00  0.00    -0.029 A  
HETATM   20  C   UNL     1      -5.891   7.365  69.733  1.00  0.00    -0.024 A  
ENDBRANCH  14  15
BRANCH  14  21
HETATM   21  C   UNL     1      -8.499   9.475  66.911  1.00  0.00    -0.128 A  
HETATM   22  C   UNL     1      -7.638   8.018  65.153  1.00  0.00    -0.098 A  
HETATM   23  C   UNL     1      -8.981   9.938  64.565  1.00  0.00    -0.272 A  
HETATM   24  C   UNL     1      -7.773   8.338  66.507  1.00  0.00    -0.092 A  
HETATM   25 CL   UNL     1      -8.046   8.448  62.521  1.00  0.00    -0.161 Cl 
HETATM   26  C   UNL     1      -9.103  10.265  65.918  1.00  0.00    -0.194 A  
HETATM   27  C   UNL     1      -8.241   8.821  64.189  1.00  0.00    -0.162 A  
ENDBRANCH  14  21
ENDBRANCH  11  14
ENDBRANCH   7   8
ENDBRANCH   6   7
ENDBRANCH   5   6
ENDBRANCH   4   5
ENDBRANCH   2   4
TORSDOF 8
ENDMDL
MODEL      177
REMARK 921   NORMALIZED FREE ENERGY PREDICTED BY IDOCK:   -0.93 KCAL/MOL
REMARK 922        TOTAL FREE ENERGY PREDICTED BY IDOCK:   -1.61 KCAL/MOL
REMARK 923 INTER-LIGAND FREE ENERGY PREDICTED BY IDOCK:   -4.99 KCAL/MOL
REMARK 924 INTRA-LIGAND FREE ENERGY PREDICTED BY IDOCK:    3.39 KCAL/MOL
REMARK 927      BINDING AFFINITY PREDICTED BY RF-SCORE:    0.00 PKD
ROOT
HETATM    1  O   UNL     1      -9.880   5.561  66.313  1.00  0.00    -0.158 OA 
HETATM    2  C   UNL     1      -8.604   6.034  66.730  1.00  0.00    -0.110 C  
HETATM    3  H   UNL     1     -10.138   4.820  66.849  1.00  0.00     0.000 HD 
ENDROOT
BRANCH   2   4
HETATM    4  C   UNL     1      -8.190   7.220  65.872  1.00  0.00    -0.132 C  
BRANCH   4   5
HETATM    5  O   UNL     1      -8.498   8.438  66.551  1.00  0.00    -0.107 OA 
BRANCH   5   6
HETATM    6  C   UNL     1      -9.571   9.121  65.894  1.00  0.00    -0.273 C  
BRANCH   6   7
HETATM    7  C   UNL     1     -10.478   9.776  66.945  1.00  0.00    -0.211 C  
BRANCH   7   8
HETATM    8  N   UNL     1     -10.105  11.164  67.291  1.00  0.00    -0.184 NA 
HETATM    9  C   UNL     1     -10.828  12.176  66.491  1.00  0.00    -0.270 C  
HETATM   10  C   UNL     1     -12.320  12.348  66.866  1.00  0.00     0.511 C  
HETATM   11  N   UNL     1     -12.555  12.669  68.296  1.00  0.00     0.454 NA 
HETATM   12  C   UNL     1     -11.854  11.630  69.093  1.00  0.00    -0.326 C  
HETATM   13  C   UNL     1     -10.362  11.418  68.729  1.00  0.00    -0.204 C  
BRANCH  11  14
HETATM   14  C   UNL     1     -12.111  14.059  68.639  1.00  0.00    -0.297 C  
BRANCH  14  15
HETATM   15  C   UNL     1     -12.461  14.436  70.090  1.00  0.00    -0.395 A  
HETATM   16  C   UNL     1     -12.882  13.434  70.989  1.00  0.00    -0.329 A  
HETATM   17  C   UNL     1     -12.245  15.726  70.602  1.00  0.00    -0.422 A  
HETATM   18  C   UNL     1     -13.036  13.708  72.351  1.00  0.00    -0.416 A  
HETATM   19  C   UNL     1     -12.791  14.988  72.839  1.00  0.00    -0.542 A  
HETATM   20  C   UNL     1     -12.412  16.002  71.963  1.00  0.00    -0.498 A  
ENDBRANCH  14  15
BRANCH  14  21
HETATM   21  C   UNL     1     -10.635  14.299  68.283  1.00  0.00    -0.247 A  
HETATM   22  C   UNL     1      -8.340  14.630  69.043  1.00  0.00    -0.102 A  
HETATM   23  C   UNL     1      -8.912  15.069  66.738  1.00  0.00    -0.293 A  
HETATM   24  C   UNL     1      -9.661  14.254  69.300  1.00  0.00     0.140 A  
HETATM   25 CL   UNL     1      -6.354  15.533  67.456  1.00  0.00    -0.181 Cl 
HETATM   26  C   UNL     1     -10.236  14.707  66.999  1.00  0.00    -0.261 A  
HETATM   27  C   UNL     1      -7.972  15.037  67.764  1.00  0.00    -0.143 A  
ENDBRANCH  14  21
ENDBRANCH  11  14
ENDBRANCH   7   8
ENDBRANCH   6   7
ENDBRANCH   5   6
ENDBRANCH   4   5
ENDBRANCH   2   4
TORSDOF 8
ENDMDL
MODEL      178
REMARK 921   NORMALIZED FREE ENERGY PREDICTED BY IDOCK:   -0.79 KCAL/MOL
REMARK 922        TOTAL FREE ENERGY PREDICTED BY IDOCK:   -1.39 KCAL/MOL
REMARK 923 INTER-LIGAND FREE ENERGY PREDICTED BY IDOCK:   -5.07 KCAL/MOL
REMARK 924 INTRA-LIGAND FREE ENERGY PREDICTED BY IDOCK:    3.68 KCAL/MOL
REMARK 927      BINDING AFFINITY PREDICTED BY RF-SCORE:    0.00 PKD
ROOT
HETATM    1  O   UNL     1      -9.340   7.394  66.370  1.00  0.00    -0.177 OA 
HETATM    2  C   UNL     1     -10.070   8.515  66.855  1.00  0.00    -0.294 C  
HETATM    3  H   UNL     1      -8.987   7.589  65.510  1.00  0.00     0.000 HD 
ENDROOT
BRANCH   2   4
HETATM    4  C   UNL     1     -10.636   8.204  68.233  1.00  0.00    -0.098 C  
BRANCH   4   5
HETATM    5  O   UNL     1     -11.298   9.356  68.755  1.00  0.00     0.074 OA 
BRANCH   5   6
HETATM    6  C   UNL     1     -10.427  10.085  69.626  1.00  0.00    -0.248 C  
BRANCH   6   7
HETATM    7  C   UNL     1     -10.751  11.582  69.536  1.00  0.00    -0.000 C  
BRANCH   7   8
HETATM    8  N   UNL     1     -10.349  12.217  68.263  1.00  0.00    -0.207 NA 
HETATM    9  C   UNL     1     -11.452  12.303  67.283  1.00  0.00    -0.357 C  
HETATM   10  C   UNL     1     -12.531  13.362  67.619  1.00  0.00     0.260 C  
HETATM   11  N   UNL     1     -11.998  14.735  67.802  1.00  0.00    -0.292 NA 
HETATM   12  C   UNL     1     -10.912  14.646  68.811  1.00  0.00    -0.258 C  
HETATM   13  C   UNL     1      -9.825  13.580  68.515  1.00  0.00    -0.189 C  
BRANCH  11  14
HETATM   14  C   UNL     1     -11.538  15.336  66.508  1.00  0.00    -0.015 C  
BRANCH  14  15
HETATM   15  C   UNL     1     -10.358  16.305  66.707  1.00  0.00    -0.296 A  
HETATM   16  C   UNL     1      -9.152  16.086  66.009  1.00  0.00    -0.361 A  
HETATM   17  C   UNL     1     -10.477  17.487  67.455  1.00  0.00    -0.355 A  
HETATM   18  C   UNL     1      -8.127  17.038  66.028  1.00  0.00    -0.178 A  
HETATM   19  C   UNL     1      -8.279  18.214  66.757  1.00  0.00    -0.270 A  
HETATM   20  C   UNL     1      -9.446  18.432  67.485  1.00  0.00    -0.277 A  
ENDBRANCH  14  15
BRANCH  14  21
HETATM   21  C   UNL     1     -11.277  14.266  65.435  1.00  0.00    -0.329 A  
HETATM   22  C   UNL     1     -12.183  12.686  63.811  1.00  0.00    -0.600 A  
HETATM   23  C   UNL     1      -9.846  12.578  64.410  1.00  0.00    -0.096 A  
HETATM   24  C   UNL     1     -12.354  13.772  64.674  1.00  0.00    -0.410 A  
HETATM   25 CL   UNL     1     -10.727  10.735  62.648  1.00  0.00     0.597 Cl 
HETATM   26  C   UNL     1     -10.021  13.654  65.283  1.00  0.00    -0.229 A  
HETATM   27  C   UNL     1     -10.930  12.093  63.684  1.00  0.00    -0.461 A  
ENDBRANCH  14  21
ENDBRANCH  11  14
ENDBRANCH   7   8
ENDBRANCH   6   7
ENDBRANCH   5   6
ENDBRANCH   4   5
ENDBRANCH   2   4
TORSDOF 8
ENDMDL
MODEL      179
REMARK 921   NORMALIZED FREE ENERGY PREDICTED BY IDOCK:   -0.64 KCAL/MOL
REMARK 922        TOTAL FREE ENERGY PREDICTED BY IDOCK:   -1.18 KCAL/MOL
REMARK 923 INTER-LIGAND FREE ENERGY PREDICTED BY IDOCK:   -2.18 KCAL/MOL
REMARK 924 INTRA-LIGAND FREE ENERGY PREDICTED BY IDOCK:    1.00 KCAL/MOL
REMARK 927      BINDING AFFINITY PREDICTED BY RF-SCORE:    0.00 PKD
ROOT
HETATM    1  O   UNL     1      -9.203   2.709  62.672  1.00  0.00    -0.087 OA 
HETATM    2  C   UNL     1      -8.069   3.514  62.370  1.00  0.00    -0.071 C  
HETATM    3  H   UNL     1      -9.569   2.357  61.869  1.00  0.00     0.000 HD 
ENDROOT
BRANCH   2   4
HETATM    4  C   UNL     1      -7.483   4.079  63.656  1.00  0.00    -0.055 C  
BRANCH   4   5
HETATM    5  O   UNL     1      -6.223   3.462  63.924  1.00  0.00    -0.018 OA 
BRANCH   5   6
HETATM    6  C   UNL     1      -6.398   2.293  64.731  1.00  0.00    -0.019 C  
BRANCH   6   7
HETATM    7  C   UNL     1      -6.024   2.615  66.184  1.00  0.00    -0.023 C  
BRANCH   7   8
HETATM    8  N   UNL     1      -5.695   4.035  66.428  1.00  0.00    -0.018 NA 
HETATM    9  C   UNL     1      -6.812   4.952  66.118  1.00  0.00    -0.058 C  
HETATM   10  C   UNL     1      -7.978   4.915  67.137  1.00  0.00    -0.099 C  
HETATM   11  N   UNL     1      -7.568   5.180  68.539  1.00  0.00    -0.078 NA 
HETATM   12  C   UNL     1      -6.467   4.234  68.853  1.00  0.00    -0.040 C  
HETATM   13  C   UNL     1      -5.293   4.231  67.841  1.00  0.00    -0.015 C  
BRANCH  11  14
HETATM   14  C   UNL     1      -7.177   6.612  68.748  1.00  0.00    -0.085 C  
BRANCH  14  15
HETATM   15  C   UNL     1      -8.199   7.587  68.134  1.00  0.00    -0.125 A  
HETATM   16  C   UNL     1      -9.549   7.529  68.541  1.00  0.00    -0.150 A  
HETATM   17  C   UNL     1      -7.817   8.633  67.279  1.00  0.00    -0.097 A  
HETATM   18  C   UNL     1     -10.463   8.507  68.139  1.00  0.00    -0.236 A  
HETATM   19  C   UNL     1     -10.055   9.549  67.313  1.00  0.00    -0.272 A  
HETATM   20  C   UNL     1      -8.736   9.604  66.868  1.00  0.00    -0.139 A  
ENDBRANCH  14  15
BRANCH  14  21
HETATM   21  C   UNL     1      -6.852   6.914  70.220  1.00  0.00    -0.057 A  
HETATM   22  C   UNL     1      -7.660   7.437  72.463  1.00  0.00    -0.092 A  
HETATM   23  C   UNL     1      -5.310   7.670  71.952  1.00  0.00    -0.035 A  
HETATM   24  C   UNL     1      -7.901   7.003  71.156  1.00  0.00    -0.099 A  
HETATM   25 CL   UNL     1      -6.074   8.338  74.451  1.00  0.00    -0.115 Cl 
HETATM   26  C   UNL     1      -5.555   7.249  70.643  1.00  0.00    -0.027 A  
HETATM   27  C   UNL     1      -6.366   7.770  72.854  1.00  0.00    -0.065 A  
ENDBRANCH  14  21
ENDBRANCH  11  14
ENDBRANCH   7   8
ENDBRANCH   6   7
ENDBRANCH   5   6
ENDBRANCH   4   5
ENDBRANCH   2   4
TORSDOF 8
ENDMDL
MODEL      180
REMARK 921   NORMALIZED FREE ENERGY PREDICTED BY IDOCK:   -0.57 KCAL/MOL
REMARK 922        TOTAL FREE ENERGY PREDICTED BY IDOCK:   -1.07 KCAL/MOL
REMARK 923 INTER-LIGAND FREE ENERGY PREDICTED BY IDOCK:   -1.79 KCAL/MOL
REMARK 924 INTRA-LIGAND FREE ENERGY PREDICTED BY IDOCK:    0.72 KCAL/MOL
REMARK 927      BINDING AFFINITY PREDICTED BY RF-SCORE:    0.00 PKD
ROOT
HETATM    1  O   UNL     1      -7.563  11.206  62.998  1.00  0.00    -0.338 OA 
HETATM    2  C   UNL     1      -7.440   9.891  62.470  1.00  0.00    -0.118 C  
HETATM    3  H   UNL     1      -6.712  11.628  63.010  1.00  0.00     0.000 HD 
ENDROOT
BRANCH   2   4
HETATM    4  C   UNL     1      -8.803   9.215  62.450  1.00  0.00    -0.204 C  
BRANCH   4   5
HETATM    5  O   UNL     1      -9.288   9.068  63.785  1.00  0.00     0.304 OA 
BRANCH   5   6
HETATM    6  C   UNL     1      -8.458   8.168  64.526  1.00  0.00     0.005 C  
BRANCH   6   7
HETATM    7  C   UNL     1      -9.337   7.271  65.408  1.00  0.00     0.620 C  
BRANCH   7   8
HETATM    8  N   UNL     1      -9.312   7.619  66.845  1.00  0.00    -0.152 NA 
HETATM    9  C   UNL     1      -8.190   8.511  67.207  1.00  0.00    -0.108 C  
HETATM   10  C   UNL     1      -8.348   9.973  66.725  1.00  0.00    -0.125 C  
HETATM   11  N   UNL     1      -9.597  10.633  67.180  1.00  0.00    -0.163 NA 
HETATM   12  C   UNL     1     -10.722   9.747  66.784  1.00  0.00    -0.073 C  
HETATM   13  C   UNL     1     -10.586   8.270  67.235  1.00  0.00    -0.265 C  
BRANCH  11  14
HETATM   14  C   UNL     1      -9.577  10.918  68.652  1.00  0.00    -0.190 C  
BRANCH  14  15
HETATM   15  C   UNL     1      -8.143  10.993  69.207  1.00  0.00    -0.012 A  
HETATM   16  C   UNL     1      -7.723  10.060  70.180  1.00  0.00    -0.158 A  
HETATM   17  C   UNL     1      -7.180  11.871  68.683  1.00  0.00    -0.109 A  
HETATM   18  C   UNL     1      -6.384   9.987  70.574  1.00  0.00    -0.116 A  
HETATM   19  C   UNL     1      -5.443  10.851  70.022  1.00  0.00    -0.063 A  
HETATM   20  C   UNL     1      -5.843  11.805  69.088  1.00  0.00    -0.062 A  
ENDBRANCH  14  15
BRANCH  14  21
HETATM   21  C   UNL     1     -10.438  12.139  69.016  1.00  0.00    -0.072 A  
HETATM   22  C   UNL     1     -12.519  13.014  69.943  1.00  0.00    -0.061 A  
HETATM   23  C   UNL     1     -11.032  14.489  68.739  1.00  0.00    -0.262 A  
HETATM   24  C   UNL     1     -11.631  11.953  69.740  1.00  0.00    -0.359 A  
HETATM   25 CL   UNL     1     -13.324  15.573  69.659  1.00  0.00     0.774 Cl 
HETATM   26  C   UNL     1     -10.153  13.425  68.525  1.00  0.00    -0.208 A  
HETATM   27  C   UNL     1     -12.216  14.276  69.440  1.00  0.00    -0.278 A  
ENDBRANCH  14  21
ENDBRANCH  11  14
ENDBRANCH   7   8
ENDBRANCH   6   7
ENDBRANCH   5   6
ENDBRANCH   4   5
ENDBRANCH   2   4
TORSDOF 8
ENDMDL
MODEL      181
REMARK 921   NORMALIZED FREE ENERGY PREDICTED BY IDOCK:   -0.41 KCAL/MOL
REMARK 922        TOTAL FREE ENERGY PREDICTED BY IDOCK:   -0.83 KCAL/MOL
REMARK 923 INTER-LIGAND FREE ENERGY PREDICTED BY IDOCK:   -1.98 KCAL/MOL
REMARK 924 INTRA-LIGAND FREE ENERGY PREDICTED BY IDOCK:    1.14 KCAL/MOL
REMARK 927      BINDING AFFINITY PREDICTED BY RF-SCORE:    0.00 PKD
ROOT
HETATM    1  O   UNL     1     -12.064  13.891  64.225  1.00  0.00    -0.432 OA 
HETATM    2  C   UNL     1     -12.125  15.091  63.463  1.00  0.00     0.862 C  
HETATM    3  H   UNL     1     -11.997  13.144  63.642  1.00  0.00     0.000 HD 
ENDROOT
BRANCH   2   4
HETATM    4  C   UNL     1     -12.233  16.288  64.395  1.00  0.00     0.747 C  
BRANCH   4   5
HETATM    5  O   UNL     1     -10.988  16.986  64.431  1.00  0.00    -0.993 OA 
BRANCH   5   6
HETATM    6  C   UNL     1     -10.701  17.432  65.761  1.00  0.00    -0.120 C  
BRANCH   6   7
HETATM    7  C   UNL     1      -9.191  17.333  66.018  1.00  0.00    -0.087 C  
BRANCH   7   8
HETATM    8  N   UNL     1      -8.814  16.346  67.052  1.00  0.00    -0.191 NA 
HETATM    9  C   UNL     1      -8.933  16.873  68.428  1.00  0.00    -0.244 C  
HETATM   10  C   UNL     1     -10.388  17.035  68.933  1.00  0.00    -0.337 C  
HETATM   11  N   UNL     1     -11.196  15.792  68.866  1.00  0.00    -0.309 NA 
HETATM   12  C   UNL     1     -11.098  15.286  67.473  1.00  0.00    -0.324 C  
HETATM   13  C   UNL     1      -9.654  15.131  66.930  1.00  0.00    -0.239 C  
BRANCH  11  14
HETATM   14  C   UNL     1     -10.755  14.781  69.881  1.00  0.00    -0.113 C  
BRANCH  14  15
HETATM   15  C   UNL     1     -11.546  14.897  71.197  1.00  0.00    -0.347 A  
HETATM   16  C   UNL     1     -11.147  14.141  72.319  1.00  0.00     2.535 A  
HETATM   17  C   UNL     1     -12.577  15.835  71.371  1.00  0.00    -0.516 A  
HETATM   18  C   UNL     1     -11.730  14.352  73.572  1.00  0.00     0.517 A  
HETATM   19  C   UNL     1     -12.731  15.306  73.726  1.00  0.00    -0.697 A  
HETATM   20  C   UNL     1     -13.168  16.036  72.623  1.00  0.00    -0.451 A  
ENDBRANCH  14  15
BRANCH  14  21
HETATM   21  C   UNL     1     -10.731  13.356  69.305  1.00  0.00    -0.018 A  
HETATM   22  C   UNL     1     -11.861  11.213  69.010  1.00  0.00    -0.418 A  
HETATM   23  C   UNL     1      -9.516  11.413  68.469  1.00  0.00    -0.183 A  
HETATM   24  C   UNL     1     -11.894  12.563  69.371  1.00  0.00    -0.368 A  
HETATM   25 CL   UNL     1     -10.624   8.974  68.152  1.00  0.00    -0.253 Cl 
HETATM   26  C   UNL     1      -9.546  12.759  68.844  1.00  0.00     0.220 A  
HETATM   27  C   UNL     1     -10.672  10.644  68.562  1.00  0.00    -0.217 A  
ENDBRANCH  14  21
ENDBRANCH  11  14
ENDBRANCH   7   8
ENDBRANCH   6   7
ENDBRANCH   5   6
ENDBRANCH   4   5
ENDBRANCH   2   4
TORSDOF 8
ENDMDL
MODEL      182
REMARK 921   NORMALIZED FREE ENERGY PREDICTED BY IDOCK:   -0.13 KCAL/MOL
REMARK 922        TOTAL FREE ENERGY PREDICTED BY IDOCK:   -0.43 KCAL/MOL
REMARK 923 INTER-LIGAND FREE ENERGY PREDICTED BY IDOCK:   -3.67 KCAL/MOL
REMARK 924 INTRA-LIGAND FREE ENERGY PREDICTED BY IDOCK:    3.23 KCAL/MOL
REMARK 927      BINDING AFFINITY PREDICTED BY RF-SCORE:    0.00 PKD
ROOT
HETATM    1  O   UNL     1      -9.760   2.232  67.267  1.00  0.00    -0.401 OA 
HETATM    2  C   UNL     1      -9.328   3.407  66.591  1.00  0.00    -0.159 C  
HETATM    3  H   UNL     1     -10.283   2.471  68.024  1.00  0.00     0.000 HD 
ENDROOT
BRANCH   2   4
HETATM    4  C   UNL     1      -8.491   3.026  65.380  1.00  0.00    -0.100 C  
BRANCH   4   5
HETATM    5  O   UNL     1      -8.866   3.830  64.261  1.00  0.00    -0.113 OA 
BRANCH   5   6
HETATM    6  C   UNL     1      -7.738   4.064  63.411  1.00  0.00    -0.066 C  
BRANCH   6   7
HETATM    7  C   UNL     1      -6.748   4.997  64.122  1.00  0.00    -0.047 C  
BRANCH   7   8
HETATM    8  N   UNL     1      -7.055   6.436  63.976  1.00  0.00    -0.050 NA 
HETATM    9  C   UNL     1      -8.194   6.874  64.810  1.00  0.00    -0.050 C  
HETATM   10  C   UNL     1      -7.886   6.962  66.325  1.00  0.00    -0.101 C  
HETATM   11  N   UNL     1      -6.733   7.835  66.662  1.00  0.00    -0.064 NA 
HETATM   12  C   UNL     1      -5.585   7.368  65.844  1.00  0.00    -0.032 C  
HETATM   13  C   UNL     1      -5.866   7.249  64.324  1.00  0.00    -0.037 C  
BRANCH  11  14
HETATM   14  C   UNL     1      -7.046   9.285  66.446  1.00  0.00    -0.088 C  
BRANCH  14  15
HETATM   15  C   UNL     1      -7.292   9.610  64.962  1.00  0.00    -0.117 A  
HETATM   16  C   UNL     1      -8.608   9.594  64.454  1.00  0.00    -0.208 A  
HETATM   17  C   UNL     1      -6.267  10.060  64.113  1.00  0.00    -0.132 A  
HETATM   18  C   UNL     1      -8.886  10.053  63.163  1.00  0.00    -0.244 A  
HETATM   19  C   UNL     1      -7.858  10.519  62.350  1.00  0.00    -0.200 A  
HETATM   20  C   UNL     1      -6.545  10.507  62.817  1.00  0.00    -0.097 A  
ENDBRANCH  14  15
BRANCH  14  21
HETATM   21  C   UNL     1      -8.168   9.779  67.375  1.00  0.00    -0.114 A  
HETATM   22  C   UNL     1      -9.503   9.434  69.389  1.00  0.00    -0.177 A  
HETATM   23  C   UNL     1     -10.179  11.099  67.775  1.00  0.00    -0.205 A  
HETATM   24  C   UNL     1      -8.392   9.121  68.600  1.00  0.00    -0.126 A  
HETATM   25 CL   UNL     1     -11.778  10.782  69.924  1.00  0.00    -0.372 Cl 
HETATM   26  C   UNL     1      -9.077  10.775  66.980  1.00  0.00    -0.155 A  
HETATM   27  C   UNL     1     -10.392  10.421  68.971  1.00  0.00    -0.214 A  
ENDBRANCH  14  21
ENDBRANCH  11  14
ENDBRANCH   7   8
ENDBRANCH   6   7
ENDBRANCH   5   6
ENDBRANCH   4   5
ENDBRANCH   2   4
TORSDOF 8
ENDMDL
MODEL      183
REMARK 921   NORMALIZED FREE ENERGY PREDICTED BY IDOCK:    0.40 KCAL/MOL
REMARK 922        TOTAL FREE ENERGY PREDICTED BY IDOCK:    0.34 KCAL/MOL
REMARK 923 INTER-LIGAND FREE ENERGY PREDICTED BY IDOCK:   -3.25 KCAL/MOL
REMARK 924 INTRA-LIGAND FREE ENERGY PREDICTED BY IDOCK:    3.59 KCAL/MOL
REMARK 927      BINDING AFFINITY PREDICTED BY RF-SCORE:    0.00 PKD
ROOT
HETATM    1  O   UNL     1     -10.802   2.983  74.171  1.00  0.00    -0.185 OA 
HETATM    2  C   UNL     1      -9.602   2.532  73.554  1.00  0.00    -0.087 C  
HETATM    3  H   UNL     1     -10.637   3.186  75.085  1.00  0.00     0.000 HD 
ENDROOT
BRANCH   2   4
HETATM    4  C   UNL     1      -9.866   2.206  72.092  1.00  0.00    -0.146 C  
BRANCH   4   5
HETATM    5  O   UNL     1     -10.258   3.390  71.397  1.00  0.00    -0.035 OA 
BRANCH   5   6
HETATM    6  C   UNL     1      -9.199   4.352  71.406  1.00  0.00    -0.133 C  
BRANCH   6   7
HETATM    7  C   UNL     1      -8.868   4.762  69.965  1.00  0.00    -0.086 C  
BRANCH   7   8
HETATM    8  N   UNL     1      -8.970   6.214  69.706  1.00  0.00    -0.138 NA 
HETATM    9  C   UNL     1      -7.668   6.910  69.778  1.00  0.00    -0.113 C  
HETATM   10  C   UNL     1      -6.722   6.634  68.584  1.00  0.00    -0.064 C  
HETATM   11  N   UNL     1      -7.312   6.943  67.257  1.00  0.00    -0.089 NA 
HETATM   12  C   UNL     1      -8.605   6.216  67.179  1.00  0.00    -0.103 C  
HETATM   13  C   UNL     1      -9.567   6.454  68.371  1.00  0.00    -0.125 C  
BRANCH  11  14
HETATM   14  C   UNL     1      -7.465   8.419  67.042  1.00  0.00    -0.088 C  
BRANCH  14  15
HETATM   15  C   UNL     1      -7.436   8.792  65.549  1.00  0.00    -0.086 A  
HETATM   16  C   UNL     1      -7.887   7.862  64.589  1.00  0.00    -0.133 A  
HETATM   17  C   UNL     1      -7.104  10.083  65.105  1.00  0.00    -0.135 A  
HETATM   18  C   UNL     1      -8.039   8.229  63.248  1.00  0.00    -0.137 A  
HETATM   19  C   UNL     1      -7.729   9.521  62.837  1.00  0.00    -0.118 A  
HETATM   20  C   UNL     1      -7.245  10.445  63.761  1.00  0.00     0.011 A  
ENDBRANCH  14  15
BRANCH  14  21
HETATM   21  C   UNL     1      -8.680   8.989  67.791  1.00  0.00    -0.125 A  
HETATM   22  C   UNL     1      -9.624   9.851  69.871  1.00  0.00    -0.265 A  
HETATM   23  C   UNL     1     -11.089   9.289  68.034  1.00  0.00     0.055 A  
HETATM   24  C   UNL     1      -8.517   9.481  69.101  1.00  0.00    -0.131 A  
HETATM   25 CL   UNL     1     -12.269  10.174  70.292  1.00  0.00    -0.284 Cl 
HETATM   26  C   UNL     1      -9.983   8.905  67.271  1.00  0.00    -0.277 A  
HETATM   27  C   UNL     1     -10.905   9.751  69.334  1.00  0.00    -0.232 A  
ENDBRANCH  14  21
ENDBRANCH  11  14
ENDBRANCH   7   8
ENDBRANCH   6   7
ENDBRANCH   5   6
ENDBRANCH   4   5
ENDBRANCH   2   4
TORSDOF 8
ENDMDL
MODEL      184
REMARK 921   NORMALIZED FREE ENERGY PREDICTED BY IDOCK:    1.03 KCAL/MOL
REMARK 922        TOTAL FREE ENERGY PREDICTED BY IDOCK:    1.27 KCAL/MOL
REMARK 923 INTER-LIGAND FREE ENERGY PREDICTED BY IDOCK:    0.54 KCAL/MOL
REMARK 924 INTRA-LIGAND FREE ENERGY PREDICTED BY IDOCK:    0.73 KCAL/MOL
REMARK 927      BINDING AFFINITY PREDICTED BY RF-SCORE:    0.00 PKD
ROOT
HETATM    1  O   UNL     1      -6.735  15.147  74.191  1.00  0.00     2.711 OA 
HETATM    2  C   UNL     1      -5.772  14.211  73.721  1.00  0.00    -0.091 C  
HETATM    3  H   UNL     1      -6.696  15.198  75.140  1.00  0.00     0.000 HD 
ENDROOT
BRANCH   2   4
HETATM    4  C   UNL     1      -5.835  14.129  72.203  1.00  0.00     0.053 C  
BRANCH   4   5
HETATM    5  O   UNL     1      -5.343  12.861  71.767  1.00  0.00    -0.349 OA 
BRANCH   5   6
HETATM    6  C   UNL     1      -5.382  12.771  70.339  1.00  0.00    -0.134 C  
BRANCH   6   7
HETATM    7  C   UNL     1      -5.178  11.311  69.914  1.00  0.00    -0.058 C  
BRANCH   7   8
HETATM    8  N   UNL     1      -6.137  10.361  70.518  1.00  0.00    -0.112 NA 
HETATM    9  C   UNL     1      -7.539  10.628  70.132  1.00  0.00     0.356 C  
HETATM   10  C   UNL     1      -7.889  10.251  68.672  1.00  0.00    -0.101 C  
HETATM   11  N   UNL     1      -7.599   8.838  68.322  1.00  0.00    -0.095 NA 
HETATM   12  C   UNL     1      -6.180   8.586  68.683  1.00  0.00    -0.046 C  
HETATM   13  C   UNL     1      -5.791   8.972  70.133  1.00  0.00    -0.030 C  
BRANCH  11  14
HETATM   14  C   UNL     1      -8.543   7.889  68.996  1.00  0.00    -0.135 C  
BRANCH  14  15
HETATM   15  C   UNL     1      -9.638   8.626  69.788  1.00  0.00    -0.171 A  
HETATM   16  C   UNL     1     -10.844   8.980  69.147  1.00  0.00    -0.110 A  
HETATM   17  C   UNL     1      -9.544   8.842  71.173  1.00  0.00    -0.309 A  
HETATM   18  C   UNL     1     -11.923   9.488  69.876  1.00  0.00     0.227 A  
HETATM   19  C   UNL     1     -11.815   9.669  71.252  1.00  0.00    -0.460 A  
HETATM   20  C   UNL     1     -10.620   9.363  71.899  1.00  0.00     0.021 A  
ENDBRANCH  14  15
BRANCH  14  21
HETATM   21  C   UNL     1      -9.097   6.836  68.021  1.00  0.00    -0.119 A  
HETATM   22  C   UNL     1      -9.260   4.490  67.367  1.00  0.00    -0.154 A  
HETATM   23  C   UNL     1     -10.003   6.212  65.844  1.00  0.00     0.259 A  
HETATM   24  C   UNL     1      -8.920   5.468  68.306  1.00  0.00    -0.109 A  
HETATM   25 CL   UNL     1     -10.185   3.667  64.970  1.00  0.00    -0.070 Cl 
HETATM   26  C   UNL     1      -9.648   7.189  66.778  1.00  0.00    -0.230 A  
HETATM   27  C   UNL     1      -9.799   4.867  66.140  1.00  0.00    -0.207 A  
ENDBRANCH  14  21
ENDBRANCH  11  14
ENDBRANCH   7   8
ENDBRANCH   6   7
ENDBRANCH   5   6
ENDBRANCH   4   5
ENDBRANCH   2   4
TORSDOF 8
ENDMDL
MODEL      185
REMARK 921   NORMALIZED FREE ENERGY PREDICTED BY IDOCK:    1.10 KCAL/MOL
REMARK 922        TOTAL FREE ENERGY PREDICTED BY IDOCK:    1.38 KCAL/MOL
REMARK 923 INTER-LIGAND FREE ENERGY PREDICTED BY IDOCK:   -3.71 KCAL/MOL
REMARK 924 INTRA-LIGAND FREE ENERGY PREDICTED BY IDOCK:    5.09 KCAL/MOL
REMARK 927      BINDING AFFINITY PREDICTED BY RF-SCORE:    0.00 PKD
ROOT
HETATM    1  O   UNL     1      -8.136   5.458  69.084  1.00  0.00    -0.092 OA 
HETATM    2  C   UNL     1      -9.334   6.190  68.851  1.00  0.00    -0.124 C  
HETATM    3  H   UNL     1      -7.383   6.013  68.917  1.00  0.00     0.000 HD 
ENDROOT
BRANCH   2   4
HETATM    4  C   UNL     1     -10.540   5.302  69.118  1.00  0.00    -0.097 C  
BRANCH   4   5
HETATM    5  O   UNL     1     -11.222   5.754  70.288  1.00  0.00    -0.304 OA 
BRANCH   5   6
HETATM    6  C   UNL     1     -10.681   7.001  70.736  1.00  0.00    -0.228 C  
BRANCH   6   7
HETATM    7  C   UNL     1     -11.433   8.156  70.061  1.00  0.00     0.083 C  
BRANCH   7   8
HETATM    8  N   UNL     1     -10.705   9.442  70.067  1.00  0.00    -0.226 NA 
HETATM    9  C   UNL     1     -10.070   9.757  68.770  1.00  0.00    -0.174 C  
HETATM   10  C   UNL     1     -11.058  10.175  67.653  1.00  0.00    -0.206 C  
HETATM   11  N   UNL     1     -11.925  11.326  68.008  1.00  0.00    -0.641 NA 
HETATM   12  C   UNL     1     -12.583  10.990  69.297  1.00  0.00     0.273 C  
HETATM   13  C   UNL     1     -11.623  10.548  70.430  1.00  0.00    -0.342 C  
BRANCH  11  14
HETATM   14  C   UNL     1     -11.153  12.610  68.071  1.00  0.00    -0.251 C  
BRANCH  14  15
HETATM   15  C   UNL     1     -11.495  13.430  69.328  1.00  0.00    -0.345 A  
HETATM   16  C   UNL     1     -10.763  14.601  69.616  1.00  0.00    -0.168 A  
HETATM   17  C   UNL     1     -12.606  13.136  70.136  1.00  0.00    -0.077 A  
HETATM   18  C   UNL     1     -11.159  15.461  70.645  1.00  0.00    -0.364 A  
HETATM   19  C   UNL     1     -12.278  15.162  71.416  1.00  0.00    -0.401 A  
HETATM   20  C   UNL     1     -12.992  13.991  71.174  1.00  0.00    -0.402 A  
ENDBRANCH  14  15
BRANCH  14  21
HETATM   21  C   UNL     1      -9.644  12.388  67.876  1.00  0.00    -0.205 A  
HETATM   22  C   UNL     1      -7.456  11.984  68.878  1.00  0.00    -0.043 A  
HETATM   23  C   UNL     1      -7.609  12.612  66.550  1.00  0.00     0.658 A  
HETATM   24  C   UNL     1      -8.849  12.031  68.983  1.00  0.00     0.345 A  
HETATM   25 CL   UNL     1      -5.127  12.253  67.543  1.00  0.00    -0.088 Cl 
HETATM   26  C   UNL     1      -9.001  12.672  66.660  1.00  0.00    -0.164 A  
HETATM   27  C   UNL     1      -6.843  12.276  67.663  1.00  0.00    -0.124 A  
ENDBRANCH  14  21
ENDBRANCH  11  14
ENDBRANCH   7   8
ENDBRANCH   6   7
ENDBRANCH   5   6
ENDBRANCH   4   5
ENDBRANCH   2   4
TORSDOF 8
ENDMDL
MODEL      186
REMARK 921   NORMALIZED FREE ENERGY PREDICTED BY IDOCK:    1.16 KCAL/MOL
REMARK 922        TOTAL FREE ENERGY PREDICTED BY IDOCK:    1.47 KCAL/MOL
REMARK 923 INTER-LIGAND FREE ENERGY PREDICTED BY IDOCK:   -3.13 KCAL/MOL
REMARK 924 INTRA-LIGAND FREE ENERGY PREDICTED BY IDOCK:    4.60 KCAL/MOL
REMARK 927      BINDING AFFINITY PREDICTED BY RF-SCORE:    0.00 PKD
ROOT
HETATM    1  O   UNL     1     -10.672   3.861  65.234  1.00  0.00    -0.480 OA 
HETATM    2  C   UNL     1      -9.254   3.743  65.255  1.00  0.00    -0.151 C  
HETATM    3  H   UNL     1     -11.066   3.055  65.548  1.00  0.00     0.000 HD 
ENDROOT
BRANCH   2   4
HETATM    4  C   UNL     1      -8.623   5.032  64.751  1.00  0.00    -0.150 C  
BRANCH   4   5
HETATM    5  O   UNL     1      -7.225   5.029  65.038  1.00  0.00    -0.061 OA 
BRANCH   5   6
HETATM    6  C   UNL     1      -6.779   6.347  65.377  1.00  0.00    -0.047 C  
BRANCH   6   7
HETATM    7  C   UNL     1      -7.143   7.316  64.245  1.00  0.00    -0.063 C  
BRANCH   7   8
HETATM    8  N   UNL     1      -8.243   8.248  64.572  1.00  0.00    -0.157 NA 
HETATM    9  C   UNL     1      -8.774   8.063  65.939  1.00  0.00    -0.157 C  
HETATM   10  C   UNL     1      -7.841   8.566  67.067  1.00  0.00    -0.096 C  
HETATM   11  N   UNL     1      -7.446   9.991  66.940  1.00  0.00    -0.094 NA 
HETATM   12  C   UNL     1      -6.884  10.163  65.576  1.00  0.00    -0.130 C  
HETATM   13  C   UNL     1      -7.785   9.651  64.423  1.00  0.00    -0.128 C  
BRANCH  11  14
HETATM   14  C   UNL     1      -8.593  10.917  67.214  1.00  0.00    -0.128 C  
BRANCH  14  15
HETATM   15  C   UNL     1      -9.472  11.133  65.969  1.00  0.00    -0.234 A  
HETATM   16  C   UNL     1     -10.690  10.431  65.845  1.00  0.00    -0.023 A  
HETATM   17  C   UNL     1      -9.180  12.113  65.005  1.00  0.00     0.335 A  
HETATM   18  C   UNL     1     -11.593  10.732  64.821  1.00  0.00     1.208 A  
HETATM   19  C   UNL     1     -11.292  11.724  63.893  1.00  0.00    -0.494 A  
HETATM   20  C   UNL     1     -10.079  12.404  63.974  1.00  0.00    -0.342 A  
ENDBRANCH  14  15
BRANCH  14  21
HETATM   21  C   UNL     1      -9.389  10.498  68.461  1.00  0.00    -0.168 A  
HETATM   22  C   UNL     1     -10.068   8.727  69.997  1.00  0.00    -0.200 A  
HETATM   23  C   UNL     1     -11.192  10.864  70.062  1.00  0.00    -0.340 A  
HETATM   24  C   UNL     1      -9.240   9.194  68.971  1.00  0.00    -0.143 A  
HETATM   25 CL   UNL     1     -12.082   8.979  71.774  1.00  0.00    -0.413 Cl 
HETATM   26  C   UNL     1     -10.374  11.325  69.027  1.00  0.00    -0.189 A  
HETATM   27  C   UNL     1     -11.041   9.564  70.536  1.00  0.00    -0.283 A  
ENDBRANCH  14  21
ENDBRANCH  11  14
ENDBRANCH   7   8
ENDBRANCH   6   7
ENDBRANCH   5   6
ENDBRANCH   4   5
ENDBRANCH   2   4
TORSDOF 8
ENDMDL
MODEL      187
REMARK 921   NORMALIZED FREE ENERGY PREDICTED BY IDOCK:    1.32 KCAL/MOL
REMARK 922        TOTAL FREE ENERGY PREDICTED BY IDOCK:    1.70 KCAL/MOL
REMARK 923 INTER-LIGAND FREE ENERGY PREDICTED BY IDOCK:   -3.11 KCAL/MOL
REMARK 924 INTRA-LIGAND FREE ENERGY PREDICTED BY IDOCK:    4.81 KCAL/MOL
REMARK 927      BINDING AFFINITY PREDICTED BY RF-SCORE:    0.00 PKD
ROOT
HETATM    1  O   UNL     1     -10.411   9.730  71.155  1.00  0.00    -0.274 OA 
HETATM    2  C   UNL     1      -9.868   8.653  71.909  1.00  0.00    -0.314 C  
HETATM    3  H   UNL     1     -10.654  10.440  71.738  1.00  0.00     0.000 HD 
ENDROOT
BRANCH   2   4
HETATM    4  C   UNL     1      -9.481   7.516  70.975  1.00  0.00    -0.160 C  
BRANCH   4   5
HETATM    5  O   UNL     1     -10.622   6.698  70.711  1.00  0.00    -0.215 OA 
BRANCH   5   6
HETATM    6  C   UNL     1     -10.834   6.573  69.301  1.00  0.00    -0.307 C  
BRANCH   6   7
HETATM    7  C   UNL     1     -10.303   7.825  68.591  1.00  0.00    -0.199 C  
BRANCH   7   8
HETATM    8  N   UNL     1      -9.445   7.544  67.421  1.00  0.00    -0.138 NA 
HETATM    9  C   UNL     1      -8.053   7.205  67.788  1.00  0.00    -0.115 C  
HETATM   10  C   UNL     1      -7.876   5.801  68.416  1.00  0.00    -0.101 C  
HETATM   11  N   UNL     1      -8.391   4.690  67.578  1.00  0.00    -0.104 NA 
HETATM   12  C   UNL     1      -9.799   5.022  67.239  1.00  0.00    -0.179 C  
HETATM   13  C   UNL     1     -10.014   6.429  66.626  1.00  0.00    -0.149 C  
BRANCH  11  14
HETATM   14  C   UNL     1      -7.542   4.464  66.363  1.00  0.00    -0.086 C  
BRANCH  14  15
HETATM   15  C   UNL     1      -8.147   3.406  65.423  1.00  0.00    -0.090 A  
HETATM   16  C   UNL     1      -9.007   2.418  65.947  1.00  0.00    -0.117 A  
HETATM   17  C   UNL     1      -7.988   3.464  64.028  1.00  0.00    -0.082 A  
HETATM   18  C   UNL     1      -9.710   1.554  65.101  1.00  0.00     0.252 A  
HETATM   19  C   UNL     1      -9.556   1.648  63.722  1.00  0.00    -0.126 A  
HETATM   20  C   UNL     1      -8.682   2.591  63.184  1.00  0.00    -0.085 A  
ENDBRANCH  14  15
BRANCH  14  21
HETATM   21  C   UNL     1      -7.185   5.781  65.654  1.00  0.00    -0.075 A  
HETATM   22  C   UNL     1      -7.602   7.332  63.816  1.00  0.00    -0.110 A  
HETATM   23  C   UNL     1      -5.618   7.587  65.171  1.00  0.00    -0.033 A  
HETATM   24  C   UNL     1      -7.989   6.233  64.589  1.00  0.00    -0.120 A  
HETATM   25 CL   UNL     1      -5.924   9.333  63.138  1.00  0.00    -0.088 Cl 
HETATM   26  C   UNL     1      -5.998   6.479  65.933  1.00  0.00    -0.029 A  
HETATM   27  C   UNL     1      -6.418   8.003  64.110  1.00  0.00    -0.062 A  
ENDBRANCH  14  21
ENDBRANCH  11  14
ENDBRANCH   7   8
ENDBRANCH   6   7
ENDBRANCH   5   6
ENDBRANCH   4   5
ENDBRANCH   2   4
TORSDOF 8
ENDMDL
MODEL      188
REMARK 921   NORMALIZED FREE ENERGY PREDICTED BY IDOCK:    1.65 KCAL/MOL
REMARK 922        TOTAL FREE ENERGY PREDICTED BY IDOCK:    2.19 KCAL/MOL
REMARK 923 INTER-LIGAND FREE ENERGY PREDICTED BY IDOCK:   -2.69 KCAL/MOL
REMARK 924 INTRA-LIGAND FREE ENERGY PREDICTED BY IDOCK:    4.88 KCAL/MOL
REMARK 927      BINDING AFFINITY PREDICTED BY RF-SCORE:    0.00 PKD
ROOT
HETATM    1  O   UNL     1      -8.918   8.954  68.303  1.00  0.00    -0.137 OA 
HETATM    2  C   UNL     1      -8.846  10.323  68.684  1.00  0.00    -0.137 C  
HETATM    3  H   UNL     1      -8.096   8.687  67.907  1.00  0.00     0.000 HD 
ENDROOT
BRANCH   2   4
HETATM    4  C   UNL     1     -10.162  10.750  69.317  1.00  0.00    -0.194 C  
BRANCH   4   5
HETATM    5  O   UNL     1     -10.621   9.734  70.209  1.00  0.00    -0.251 OA 
BRANCH   5   6
HETATM    6  C   UNL     1     -11.533   8.855  69.542  1.00  0.00     0.355 C  
BRANCH   6   7
HETATM    7  C   UNL     1     -11.434   7.453  70.157  1.00  0.00    -0.129 C  
BRANCH   7   8
HETATM    8  N   UNL     1     -10.110   7.133  70.732  1.00  0.00    -0.190 NA 
HETATM    9  C   UNL     1      -9.744   8.004  71.868  1.00  0.00    -0.190 C  
HETATM   10  C   UNL     1     -10.523   7.720  73.176  1.00  0.00    -0.349 C  
HETATM   11  N   UNL     1     -10.424   6.317  73.650  1.00  0.00    -0.265 NA 
HETATM   12  C   UNL     1     -10.824   5.448  72.513  1.00  0.00    -0.250 C  
HETATM   13  C   UNL     1     -10.077   5.721  71.182  1.00  0.00    -0.203 C  
BRANCH  11  14
HETATM   14  C   UNL     1      -9.055   5.995  74.169  1.00  0.00    -0.130 C  
BRANCH  14  15
HETATM   15  C   UNL     1      -8.718   4.500  74.026  1.00  0.00    -0.104 A  
HETATM   16  C   UNL     1      -7.383   4.106  73.793  1.00  0.00    -0.075 A  
HETATM   17  C   UNL     1      -9.668   3.491  74.255  1.00  0.00    -0.144 A  
HETATM   18  C   UNL     1      -7.014   2.758  73.833  1.00  0.00    -0.036 A  
HETATM   19  C   UNL     1      -7.969   1.779  74.088  1.00  0.00    -0.045 A  
HETATM   20  C   UNL     1      -9.300   2.143  74.282  1.00  0.00    -0.094 A  
ENDBRANCH  14  15
BRANCH  14  21
HETATM   21  C   UNL     1      -7.981   6.925  73.581  1.00  0.00    -0.114 A  
HETATM   22  C   UNL     1      -6.968   9.144  73.502  1.00  0.00     0.520 A  
HETATM   23  C   UNL     1      -6.393   7.505  71.823  1.00  0.00    -0.039 A  
HETATM   24  C   UNL     1      -7.816   8.217  74.116  1.00  0.00    -0.276 A  
HETATM   25 CL   UNL     1      -5.247   9.934  71.581  1.00  0.00    -0.075 Cl 
HETATM   26  C   UNL     1      -7.252   6.584  72.429  1.00  0.00    -0.082 A  
HETATM   27  C   UNL     1      -6.262   8.784  72.357  1.00  0.00    -0.055 A  
ENDBRANCH  14  21
ENDBRANCH  11  14
ENDBRANCH   7   8
ENDBRANCH   6   7
ENDBRANCH   5   6
ENDBRANCH   4   5
ENDBRANCH   2   4
TORSDOF 8
ENDMDL
MODEL      189
REMARK 921   NORMALIZED FREE ENERGY PREDICTED BY IDOCK:    2.08 KCAL/MOL
REMARK 922        TOTAL FREE ENERGY PREDICTED BY IDOCK:    2.82 KCAL/MOL
REMARK 923 INTER-LIGAND FREE ENERGY PREDICTED BY IDOCK:   -1.86 KCAL/MOL
REMARK 924 INTRA-LIGAND FREE ENERGY PREDICTED BY IDOCK:    4.68 KCAL/MOL
REMARK 927      BINDING AFFINITY PREDICTED BY RF-SCORE:    0.00 PKD
ROOT
HETATM    1  O   UNL     1      -9.245   9.905  68.791  1.00  0.00    -0.138 OA 
HETATM    2  C   UNL     1      -8.978  11.287  69.000  1.00  0.00     0.038 C  
HETATM    3  H   UNL     1      -8.498   9.494  68.370  1.00  0.00     0.000 HD 
ENDROOT
BRANCH   2   4
HETATM    4  C   UNL     1     -10.173  11.946  69.673  1.00  0.00     0.802 C  
BRANCH   4   5
HETATM    5  O   UNL     1     -10.817  11.009  70.537  1.00  0.00     0.163 OA 
BRANCH   5   6
HETATM    6  C   UNL     1     -11.977  10.458  69.905  1.00  0.00    -0.215 C  
BRANCH   6   7
HETATM    7  C   UNL     1     -11.902   8.926  69.946  1.00  0.00     0.471 C  
BRANCH   7   8
HETATM    8  N   UNL     1     -10.533   8.387  70.087  1.00  0.00    -0.222 NA 
HETATM    9  C   UNL     1     -10.149   8.138  71.493  1.00  0.00    -0.188 C  
HETATM   10  C   UNL     1     -10.836   6.912  72.141  1.00  0.00    -0.225 C  
HETATM   11  N   UNL     1     -10.637   5.641  71.400  1.00  0.00    -0.248 NA 
HETATM   12  C   UNL     1     -11.055   5.890  69.997  1.00  0.00    -0.341 C  
HETATM   13  C   UNL     1     -10.400   7.124  69.324  1.00  0.00    -0.203 C  
BRANCH  11  14
HETATM   14  C   UNL     1      -9.226   5.146  71.504  1.00  0.00    -0.146 C  
BRANCH  14  15
HETATM   15  C   UNL     1      -8.703   4.602  70.163  1.00  0.00    -0.113 A  
HETATM   16  C   UNL     1      -9.143   3.343  69.702  1.00  0.00    -0.202 A  
HETATM   17  C   UNL     1      -7.904   5.372  69.302  1.00  0.00    -0.089 A  
HETATM   18  C   UNL     1      -8.829   2.899  68.414  1.00  0.00    -0.168 A  
HETATM   19  C   UNL     1      -8.057   3.691  67.570  1.00  0.00    -0.089 A  
HETATM   20  C   UNL     1      -7.579   4.920  68.018  1.00  0.00    -0.082 A  
ENDBRANCH  14  15
BRANCH  14  21
HETATM   21  C   UNL     1      -8.294   6.187  72.148  1.00  0.00    -0.110 A  
HETATM   22  C   UNL     1      -6.238   7.495  72.024  1.00  0.00    -0.039 A  
HETATM   23  C   UNL     1      -7.463   7.386  74.103  1.00  0.00    -0.134 A  
HETATM   24  C   UNL     1      -7.196   6.679  71.416  1.00  0.00    -0.082 A  
HETATM   25 CL   UNL     1      -5.178   8.819  74.122  1.00  0.00    -0.095 Cl 
HETATM   26  C   UNL     1      -8.413   6.558  73.498  1.00  0.00    -0.129 A  
HETATM   27  C   UNL     1      -6.375   7.843  73.364  1.00  0.00    -0.079 A  
ENDBRANCH  14  21
ENDBRANCH  11  14
ENDBRANCH   7   8
ENDBRANCH   6   7
ENDBRANCH   5   6
ENDBRANCH   4   5
ENDBRANCH   2   4
TORSDOF 8
ENDMDL
MODEL      190
REMARK 921   NORMALIZED FREE ENERGY PREDICTED BY IDOCK:    2.19 KCAL/MOL
REMARK 922        TOTAL FREE ENERGY PREDICTED BY IDOCK:    2.98 KCAL/MOL
REMARK 923 INTER-LIGAND FREE ENERGY PREDICTED BY IDOCK:   -3.10 KCAL/MOL
REMARK 924 INTRA-LIGAND FREE ENERGY PREDICTED BY IDOCK:    6.08 KCAL/MOL
REMARK 927      BINDING AFFINITY PREDICTED BY RF-SCORE:    0.00 PKD
ROOT
HETATM    1  O   UNL     1      -7.055  11.928  66.291  1.00  0.00    -0.350 OA 
HETATM    2  C   UNL     1      -5.937  11.202  66.789  1.00  0.00    -0.116 C  
HETATM    3  H   UNL     1      -6.761  12.587  65.672  1.00  0.00     0.000 HD 
ENDROOT
BRANCH   2   4
HETATM    4  C   UNL     1      -6.408  10.148  67.779  1.00  0.00    -0.058 C  
BRANCH   4   5
HETATM    5  O   UNL     1      -5.367   9.864  68.714  1.00  0.00    -0.036 OA 
BRANCH   5   6
HETATM    6  C   UNL     1      -5.668  10.438  69.991  1.00  0.00    -0.055 C  
BRANCH   6   7
HETATM    7  C   UNL     1      -5.310   9.438  71.098  1.00  0.00    -0.051 C  
BRANCH   7   8
HETATM    8  N   UNL     1      -6.267   8.320  71.241  1.00  0.00    -0.035 NA 
HETATM    9  C   UNL     1      -7.618   8.644  70.736  1.00  0.00    -0.083 C  
HETATM   10  C   UNL     1      -7.731   8.712  69.194  1.00  0.00    -0.097 C  
HETATM   11  N   UNL     1      -7.286   7.480  68.496  1.00  0.00    -0.096 NA 
HETATM   12  C   UNL     1      -5.916   7.178  68.984  1.00  0.00    -0.022 C  
HETATM   13  C   UNL     1      -5.764   7.123  70.526  1.00  0.00    -0.024 C  
BRANCH  11  14
HETATM   14  C   UNL     1      -8.239   6.341  68.707  1.00  0.00    -0.120 C  
BRANCH  14  15
HETATM   15  C   UNL     1      -9.575   6.809  69.312  1.00  0.00    -0.144 A  
HETATM   16  C   UNL     1     -10.240   5.990  70.249  1.00  0.00    -0.266 A  
HETATM   17  C   UNL     1     -10.098   8.090  69.074  1.00  0.00    -0.206 A  
HETATM   18  C   UNL     1     -11.357   6.457  70.948  1.00  0.00    -0.398 A  
HETATM   19  C   UNL     1     -11.842   7.740  70.713  1.00  0.00    -0.205 A  
HETATM   20  C   UNL     1     -11.224   8.552  69.764  1.00  0.00     0.023 A  
ENDBRANCH  14  15
BRANCH  14  21
HETATM   21  C   UNL     1      -8.407   5.486  67.440  1.00  0.00    -0.103 A  
HETATM   22  C   UNL     1      -8.097   3.337  66.326  1.00  0.00    -0.092 A  
HETATM   23  C   UNL     1      -8.695   5.283  65.027  1.00  0.00    -0.136 A  
HETATM   24  C   UNL     1      -8.116   4.109  67.492  1.00  0.00    -0.095 A  
HETATM   25 CL   UNL     1      -8.327   2.986  63.661  1.00  0.00    -0.086 Cl 
HETATM   26  C   UNL     1      -8.700   6.057  66.190  1.00  0.00    -0.146 A  
HETATM   27  C   UNL     1      -8.385   3.928  65.099  1.00  0.00    -0.101 A  
ENDBRANCH  14  21
ENDBRANCH  11  14
ENDBRANCH   7   8
ENDBRANCH   6   7
ENDBRANCH   5   6
ENDBRANCH   4   5
ENDBRANCH   2   4
TORSDOF 8
ENDMDL
MODEL      191
REMARK 921   NORMALIZED FREE ENERGY PREDICTED BY IDOCK:    2.48 KCAL/MOL
REMARK 922        TOTAL FREE ENERGY PREDICTED BY IDOCK:    3.40 KCAL/MOL
REMARK 923 INTER-LIGAND FREE ENERGY PREDICTED BY IDOCK:   -2.29 KCAL/MOL
REMARK 924 INTRA-LIGAND FREE ENERGY PREDICTED BY IDOCK:    5.69 KCAL/MOL
REMARK 927      BINDING AFFINITY PREDICTED BY RF-SCORE:    0.00 PKD
ROOT
HETATM    1  O   UNL     1      -5.728   9.737  62.951  1.00  0.00    -0.089 OA 
HETATM    2  C   UNL     1      -6.210  10.489  64.059  1.00  0.00     0.011 C  
HETATM    3  H   UNL     1      -6.404   9.143  62.648  1.00  0.00     0.000 HD 
ENDROOT
BRANCH   2   4
HETATM    4  C   UNL     1      -5.127  11.441  64.544  1.00  0.00     0.955 C  
BRANCH   4   5
HETATM    5  O   UNL     1      -5.200  11.571  65.965  1.00  0.00    -0.299 OA 
BRANCH   5   6
HETATM    6  C   UNL     1      -5.980  10.511  66.527  1.00  0.00    -0.077 C  
BRANCH   6   7
HETATM    7  C   UNL     1      -7.336  10.441  65.812  1.00  0.00    -0.147 C  
BRANCH   7   8
HETATM    8  N   UNL     1      -7.881   9.073  65.673  1.00  0.00    -0.100 NA 
HETATM    9  C   UNL     1      -7.128   8.067  66.452  1.00  0.00    -0.074 C  
HETATM   10  C   UNL     1      -7.350   8.138  67.983  1.00  0.00    -0.096 C  
HETATM   11  N   UNL     1      -8.772   8.039  68.396  1.00  0.00    -0.131 NA 
HETATM   12  C   UNL     1      -9.517   9.074  67.633  1.00  0.00    -0.140 C  
HETATM   13  C   UNL     1      -9.300   9.043  66.099  1.00  0.00    -0.232 C  
BRANCH  11  14
HETATM   14  C   UNL     1      -9.322   6.660  68.187  1.00  0.00    -0.114 C  
BRANCH  14  15
HETATM   15  C   UNL     1      -8.626   5.928  67.026  1.00  0.00    -0.110 A  
HETATM   16  C   UNL     1      -7.307   5.456  67.191  1.00  0.00    -0.083 A  
HETATM   17  C   UNL     1      -9.301   5.586  65.843  1.00  0.00    -0.140 A  
HETATM   18  C   UNL     1      -6.710   4.638  66.227  1.00  0.00    -0.050 A  
HETATM   19  C   UNL     1      -7.409   4.290  65.075  1.00  0.00    -0.072 A  
HETATM   20  C   UNL     1      -8.699   4.778  64.873  1.00  0.00    -0.148 A  
ENDBRANCH  14  15
BRANCH  14  21
HETATM   21  C   UNL     1      -9.354   5.847  69.492  1.00  0.00    -0.156 A  
HETATM   22  C   UNL     1      -8.830   5.713  71.872  1.00  0.00    -0.137 A  
HETATM   23  C   UNL     1      -9.480   3.718  70.676  1.00  0.00    -0.240 A  
HETATM   24  C   UNL     1      -8.973   6.462  70.700  1.00  0.00    -0.144 A  
HETATM   25 CL   UNL     1      -8.872   3.416  73.286  1.00  0.00    -0.081 Cl 
HETATM   26  C   UNL     1      -9.609   4.465  69.502  1.00  0.00    -0.271 A  
HETATM   27  C   UNL     1      -9.082   4.344  71.853  1.00  0.00    -0.126 A  
ENDBRANCH  14  21
ENDBRANCH  11  14
ENDBRANCH   7   8
ENDBRANCH   6   7
ENDBRANCH   5   6
ENDBRANCH   4   5
ENDBRANCH   2   4
TORSDOF 8
ENDMDL
MODEL      192
REMARK 921   NORMALIZED FREE ENERGY PREDICTED BY IDOCK:    2.49 KCAL/MOL
REMARK 922        TOTAL FREE ENERGY PREDICTED BY IDOCK:    3.42 KCAL/MOL
REMARK 923 INTER-LIGAND FREE ENERGY PREDICTED BY IDOCK:   -3.59 KCAL/MOL
REMARK 924 INTRA-LIGAND FREE ENERGY PREDICTED BY IDOCK:    7.02 KCAL/MOL
REMARK 927      BINDING AFFINITY PREDICTED BY RF-SCORE:    0.00 PKD
ROOT
HETATM    1  O   UNL     1     -12.780  15.270  64.252  1.00  0.00    -0.551 OA 
HETATM    2  C   UNL     1     -13.057  14.203  65.152  1.00  0.00    -0.019 C  
HETATM    3  H   UNL     1     -13.478  15.339  63.611  1.00  0.00     0.000 HD 
ENDROOT
BRANCH   2   4
HETATM    4  C   UNL     1     -11.939  14.092  66.178  1.00  0.00    -0.420 C  
BRANCH   4   5
HETATM    5  O   UNL     1     -12.227  14.928  67.299  1.00  0.00    -0.149 OA 
BRANCH   5   6
HETATM    6  C   UNL     1     -11.042  15.598  67.743  1.00  0.00    -0.311 C  
BRANCH   6   7
HETATM    7  C   UNL     1      -9.825  15.026  67.005  1.00  0.00    -0.238 C  
BRANCH   7   8
HETATM    8  N   UNL     1      -8.767  14.499  67.893  1.00  0.00    -0.158 NA 
HETATM    9  C   UNL     1      -9.259  13.477  68.840  1.00  0.00     0.208 C  
HETATM   10  C   UNL     1      -9.582  12.105  68.199  1.00  0.00    -0.208 C  
HETATM   11  N   UNL     1      -8.449  11.502  67.452  1.00  0.00    -0.142 NA 
HETATM   12  C   UNL     1      -7.980  12.523  66.480  1.00  0.00     0.346 C  
HETATM   13  C   UNL     1      -7.668  13.915  67.088  1.00  0.00     0.029 C  
BRANCH  11  14
HETATM   14  C   UNL     1      -7.360  11.032  68.369  1.00  0.00    -0.096 C  
BRANCH  14  15
HETATM   15  C   UNL     1      -6.534  12.202  68.934  1.00  0.00    -0.088 A  
HETATM   16  C   UNL     1      -6.039  13.192  68.059  1.00  0.00    -0.118 A  
HETATM   17  C   UNL     1      -6.367  12.405  70.314  1.00  0.00     0.141 A  
HETATM   18  C   UNL     1      -5.440  14.355  68.554  1.00  0.00    -0.099 A  
HETATM   19  C   UNL     1      -5.309  14.544  69.926  1.00  0.00    -0.095 A  
HETATM   20  C   UNL     1      -5.757  13.562  70.807  1.00  0.00    -0.189 A  
ENDBRANCH  14  15
BRANCH  14  21
HETATM   21  C   UNL     1      -7.887  10.076  69.451  1.00  0.00    -0.141 A  
HETATM   22  C   UNL     1      -9.769   9.283  70.787  1.00  0.00    -0.348 A  
HETATM   23  C   UNL     1      -7.521   8.626  71.378  1.00  0.00    -0.124 A  
HETATM   24  C   UNL     1      -9.272  10.012  69.703  1.00  0.00    -0.236 A  
HETATM   25 CL   UNL     1      -9.501   7.726  72.974  1.00  0.00    -0.280 Cl 
HETATM   26  C   UNL     1      -7.024   9.367  70.303  1.00  0.00    -0.087 A  
HETATM   27  C   UNL     1      -8.892   8.595  71.620  1.00  0.00    -0.223 A  
ENDBRANCH  14  21
ENDBRANCH  11  14
ENDBRANCH   7   8
ENDBRANCH   6   7
ENDBRANCH   5   6
ENDBRANCH   4   5
ENDBRANCH   2   4
TORSDOF 8
ENDMDL
MODEL      193
REMARK 921   NORMALIZED FREE ENERGY PREDICTED BY IDOCK:    2.76 KCAL/MOL
REMARK 922        TOTAL FREE ENERGY PREDICTED BY IDOCK:    3.82 KCAL/MOL
REMARK 923 INTER-LIGAND FREE ENERGY PREDICTED BY IDOCK:   -1.42 KCAL/MOL
REMARK 924 INTRA-LIGAND FREE ENERGY PREDICTED BY IDOCK:    5.24 KCAL/MOL
REMARK 927      BINDING AFFINITY PREDICTED BY RF-SCORE:    0.00 PKD
ROOT
HETATM    1  O   UNL     1      -7.048  11.906  66.286  1.00  0.00    -0.350 OA 
HETATM    2  C   UNL     1      -5.881  11.170  66.634  1.00  0.00    -0.123 C  
HETATM    3  H   UNL     1      -6.810  12.647  65.740  1.00  0.00     0.000 HD 
ENDROOT
BRANCH   2   4
HETATM    4  C   UNL     1      -6.262   9.984  67.507  1.00  0.00    -0.058 C  
BRANCH   4   5
HETATM    5  O   UNL     1      -6.295   8.794  66.719  1.00  0.00    -0.058 OA 
BRANCH   5   6
HETATM    6  C   UNL     1      -5.128   8.001  66.956  1.00  0.00    -0.027 C  
BRANCH   6   7
HETATM    7  C   UNL     1      -5.512   6.516  66.960  1.00  0.00    -0.013 C  
BRANCH   7   8
HETATM    8  N   UNL     1      -6.124   6.049  68.222  1.00  0.00    -0.020 NA 
HETATM    9  C   UNL     1      -5.742   6.869  69.391  1.00  0.00    -0.015 C  
HETATM   10  C   UNL     1      -6.402   8.269  69.440  1.00  0.00    -0.038 C  
HETATM   11  N   UNL     1      -7.885   8.244  69.386  1.00  0.00    -0.102 NA 
HETATM   12  C   UNL     1      -8.261   7.446  68.192  1.00  0.00    -0.124 C  
HETATM   13  C   UNL     1      -7.602   6.046  68.102  1.00  0.00    -0.094 C  
BRANCH  11  14
HETATM   14  C   UNL     1      -8.483   7.708  70.652  1.00  0.00    -0.127 C  
BRANCH  14  15
HETATM   15  C   UNL     1      -7.444   7.595  71.782  1.00  0.00    -0.081 A  
HETATM   16  C   UNL     1      -7.513   6.516  72.688  1.00  0.00    -0.094 A  
HETATM   17  C   UNL     1      -6.334   8.453  71.868  1.00  0.00    -0.064 A  
HETATM   18  C   UNL     1      -6.489   6.286  73.612  1.00  0.00    -0.070 A  
HETATM   19  C   UNL     1      -5.388   7.135  73.661  1.00  0.00    -0.046 A  
HETATM   20  C   UNL     1      -5.317   8.229  72.801  1.00  0.00    -0.041 A  
ENDBRANCH  14  15
BRANCH  14  21
HETATM   21  C   UNL     1      -9.752   8.474  71.062  1.00  0.00    -0.243 A  
HETATM   22  C   UNL     1     -12.161   8.450  71.451  1.00  0.00    -0.335 A  
HETATM   23  C   UNL     1     -10.987  10.559  71.344  1.00  0.00     1.115 A  
HETATM   24  C   UNL     1     -10.958   7.770  71.243  1.00  0.00    -0.259 A  
HETATM   25 CL   UNL     1     -13.655  10.681  71.720  1.00  0.00    -0.268 Cl 
HETATM   26  C   UNL     1      -9.787   9.878  71.121  1.00  0.00     0.519 A  
HETATM   27  C   UNL     1     -12.170   9.841  71.499  1.00  0.00    -0.406 A  
ENDBRANCH  14  21
ENDBRANCH  11  14
ENDBRANCH   7   8
ENDBRANCH   6   7
ENDBRANCH   5   6
ENDBRANCH   4   5
ENDBRANCH   2   4
TORSDOF 8
ENDMDL
MODEL      194
REMARK 921   NORMALIZED FREE ENERGY PREDICTED BY IDOCK:    5.90 KCAL/MOL
REMARK 922        TOTAL FREE ENERGY PREDICTED BY IDOCK:    8.42 KCAL/MOL
REMARK 923 INTER-LIGAND FREE ENERGY PREDICTED BY IDOCK:    2.70 KCAL/MOL
REMARK 924 INTRA-LIGAND FREE ENERGY PREDICTED BY IDOCK:    5.72 KCAL/MOL
REMARK 927      BINDING AFFINITY PREDICTED BY RF-SCORE:    0.00 PKD
ROOT
HETATM    1  O   UNL     1      -8.128   6.962  63.196  1.00  0.00    -0.237 OA 
HETATM    2  C   UNL     1      -7.994   8.378  63.173  1.00  0.00    -0.161 C  
HETATM    3  H   UNL     1      -8.552   6.667  62.399  1.00  0.00     0.000 HD 
ENDROOT
BRANCH   2   4
HETATM    4  C   UNL     1      -7.316   8.852  64.450  1.00  0.00    -0.099 C  
BRANCH   4   5
HETATM    5  O   UNL     1      -8.132   9.830  65.096  1.00  0.00    -0.121 OA 
BRANCH   5   6
HETATM    6  C   UNL     1      -8.669   9.309  66.317  1.00  0.00    -0.142 C  
BRANCH   6   7
HETATM    7  C   UNL     1     -10.201   9.372  66.268  1.00  0.00    -0.214 C  
BRANCH   7   8
HETATM    8  N   UNL     1     -10.747  10.725  66.028  1.00  0.00    -0.153 NA 
HETATM    9  C   UNL     1     -10.968  11.491  67.273  1.00  0.00    -0.271 C  
HETATM   10  C   UNL     1      -9.673  11.996  67.957  1.00  0.00    -0.198 C  
HETATM   11  N   UNL     1      -8.805  12.821  67.081  1.00  0.00    -0.196 NA 
HETATM   12  C   UNL     1      -8.562  12.032  65.847  1.00  0.00     0.298 C  
HETATM   13  C   UNL     1      -9.837  11.495  65.148  1.00  0.00    -0.257 C  
BRANCH  11  14
HETATM   14  C   UNL     1      -9.407  14.165  66.800  1.00  0.00    -0.282 C  
BRANCH  14  15
HETATM   15  C   UNL     1     -10.641  14.442  67.677  1.00  0.00    -0.260 A  
HETATM   16  C   UNL     1     -11.892  13.901  67.312  1.00  0.00    -0.442 A  
HETATM   17  C   UNL     1     -10.549  15.102  68.914  1.00  0.00    -0.242 A  
HETATM   18  C   UNL     1     -12.990  13.983  68.173  1.00  0.00     1.933 A  
HETATM   19  C   UNL     1     -12.868  14.619  69.404  1.00  0.00     0.394 A  
HETATM   20  C   UNL     1     -11.652  15.195  69.768  1.00  0.00    -0.338 A  
ENDBRANCH  14  15
BRANCH  14  21
HETATM   21  C   UNL     1      -8.359  15.289  66.845  1.00  0.00    -0.278 A  
HETATM   22  C   UNL     1      -7.832  17.622  67.333  1.00  0.00    -0.217 A  
HETATM   23  C   UNL     1      -6.245  16.265  66.119  1.00  0.00     1.586 A  
HETATM   24  C   UNL     1      -8.698  16.528  67.423  1.00  0.00    -0.195 A  
HETATM   25 CL   UNL     1      -5.560  18.840  66.538  1.00  0.00    -0.166 Cl 
HETATM   26  C   UNL     1      -7.118  15.176  66.197  1.00  0.00     3.172 A  
HETATM   27  C   UNL     1      -6.610  17.485  66.680  1.00  0.00    -0.217 A  
ENDBRANCH  14  21
ENDBRANCH  11  14
ENDBRANCH   7   8
ENDBRANCH   6   7
ENDBRANCH   5   6
ENDBRANCH   4   5
ENDBRANCH   2   4
TORSDOF 8
ENDMDL
MODEL      195
REMARK 921   NORMALIZED FREE ENERGY PREDICTED BY IDOCK:    8.52 KCAL/MOL
REMARK 922        TOTAL FREE ENERGY PREDICTED BY IDOCK:   12.27 KCAL/MOL
REMARK 923 INTER-LIGAND FREE ENERGY PREDICTED BY IDOCK:   -2.25 KCAL/MOL
REMARK 924 INTRA-LIGAND FREE ENERGY PREDICTED BY IDOCK:   14.53 KCAL/MOL
REMARK 927      BINDING AFFINITY PREDICTED BY RF-SCORE:    0.00 PKD
ROOT
HETATM    1  O   UNL     1      -8.233   7.161  63.402  1.00  0.00    -0.320 OA 
HETATM    2  C   UNL     1      -8.411   8.550  63.654  1.00  0.00    -0.080 C  
HETATM    3  H   UNL     1      -9.025   6.800  63.021  1.00  0.00     0.000 HD 
ENDROOT
BRANCH   2   4
HETATM    4  C   UNL     1      -7.144   9.129  64.266  1.00  0.00    -0.095 C  
BRANCH   4   5
HETATM    5  O   UNL     1      -7.373   9.452  65.637  1.00  0.00    -0.089 OA 
BRANCH   5   6
HETATM    6  C   UNL     1      -7.779  10.818  65.770  1.00  0.00    -0.094 C  
BRANCH   6   7
HETATM    7  C   UNL     1      -6.874  11.524  66.787  1.00  0.00    -0.114 C  
BRANCH   7   8
HETATM    8  N   UNL     1      -6.246  10.620  67.774  1.00  0.00    -0.054 NA 
HETATM    9  C   UNL     1      -7.213  10.049  68.736  1.00  0.00    -0.076 C  
HETATM   10  C   UNL     1      -8.146   8.965  68.145  1.00  0.00    -0.106 C  
HETATM   11  N   UNL     1      -7.432   7.827  67.512  1.00  0.00    -0.095 NA 
HETATM   12  C   UNL     1      -6.486   8.406  66.525  1.00  0.00    -0.055 C  
HETATM   13  C   UNL     1      -5.550   9.510  67.080  1.00  0.00    -0.047 C  
BRANCH  11  14
HETATM   14  C   UNL     1      -6.750   6.959  68.526  1.00  0.00    -0.064 C  
BRANCH  14  15
HETATM   15  C   UNL     1      -6.501   7.703  69.851  1.00  0.00    -0.034 A  
HETATM   16  C   UNL     1      -5.712   8.872  69.856  1.00  0.00    -0.028 A  
HETATM   17  C   UNL     1      -7.145   7.342  71.046  1.00  0.00    -0.064 A  
HETATM   18  C   UNL     1      -5.612   9.667  71.002  1.00  0.00    -0.064 A  
HETATM   19  C   UNL     1      -6.280   9.302  72.167  1.00  0.00     0.111 A  
HETATM   20  C   UNL     1      -7.033   8.131  72.195  1.00  0.00    -0.090 A  
ENDBRANCH  14  15
BRANCH  14  21
HETATM   21  C   UNL     1      -7.465   5.610  68.707  1.00  0.00    -0.084 A  
HETATM   22  C   UNL     1      -7.303   3.187  68.949  1.00  0.00    -0.049 A  
HETATM   23  C   UNL     1      -9.450   4.205  68.513  1.00  0.00    -0.216 A  
HETATM   24  C   UNL     1      -6.703   4.449  68.946  1.00  0.00    -0.046 A  
HETATM   25 CL   UNL     1      -9.405   1.514  68.700  1.00  0.00    -0.207 Cl 
HETATM   26  C   UNL     1      -8.847   5.465  68.496  1.00  0.00    -0.103 A  
HETATM   27  C   UNL     1      -8.673   3.070  68.731  1.00  0.00    -0.092 A  
ENDBRANCH  14  21
ENDBRANCH  11  14
ENDBRANCH   7   8
ENDBRANCH   6   7
ENDBRANCH   5   6
ENDBRANCH   4   5
ENDBRANCH   2   4
TORSDOF 8
ENDMDL
MODEL      196
REMARK 921   NORMALIZED FREE ENERGY PREDICTED BY IDOCK:    9.58 KCAL/MOL
REMARK 922        TOTAL FREE ENERGY PREDICTED BY IDOCK:   13.82 KCAL/MOL
REMARK 923 INTER-LIGAND FREE ENERGY PREDICTED BY IDOCK:    7.93 KCAL/MOL
REMARK 924 INTRA-LIGAND FREE ENERGY PREDICTED BY IDOCK:    5.89 KCAL/MOL
REMARK 927      BINDING AFFINITY PREDICTED BY RF-SCORE:    0.00 PKD
ROOT
HETATM    1  O   UNL     1      -6.232  21.035  67.845  1.00  0.00    -0.317 OA 
HETATM    2  C   UNL     1      -5.608  20.209  66.869  1.00  0.00    -0.169 C  
HETATM    3  H   UNL     1      -5.953  20.771  68.715  1.00  0.00     0.000 HD 
ENDROOT
BRANCH   2   4
HETATM    4  C   UNL     1      -6.056  20.630  65.477  1.00  0.00    -0.234 C  
BRANCH   4   5
HETATM    5  O   UNL     1      -7.326  20.049  65.182  1.00  0.00    -0.330 OA 
BRANCH   5   6
HETATM    6  C   UNL     1      -8.080  20.904  64.315  1.00  0.00     2.053 C  
BRANCH   6   7
HETATM    7  C   UNL     1      -9.521  21.010  64.830  1.00  0.00     2.501 C  
BRANCH   7   8
HETATM    8  N   UNL     1      -9.853  20.058  65.910  1.00  0.00    -0.402 NA 
HETATM    9  C   UNL     1     -10.929  19.113  65.541  1.00  0.00     0.138 C  
HETATM   10  C   UNL     1     -10.507  18.018  64.531  1.00  0.00     3.520 C  
HETATM   11  N   UNL     1      -9.341  17.208  64.964  1.00  0.00     1.308 NA 
HETATM   12  C   UNL     1      -8.254  18.162  65.303  1.00  0.00     1.748 C  
HETATM   13  C   UNL     1      -8.650  19.284  66.297  1.00  0.00    -0.325 C  
BRANCH  11  14
HETATM   14  C   UNL     1      -9.685  16.295  66.103  1.00  0.00    -0.329 C  
BRANCH  14  15
HETATM   15  C   UNL     1     -10.044  14.878  65.620  1.00  0.00    -0.387 A  
HETATM   16  C   UNL     1     -10.459  13.907  66.556  1.00  0.00    -0.282 A  
HETATM   17  C   UNL     1     -10.108  14.544  64.257  1.00  0.00     1.181 A  
HETATM   18  C   UNL     1     -10.959  12.671  66.136  1.00  0.00    -0.313 A  
HETATM   19  C   UNL     1     -11.038  12.373  64.779  1.00  0.00    -0.345 A  
HETATM   20  C   UNL     1     -10.597  13.302  63.839  1.00  0.00    -0.075 A  
ENDBRANCH  14  15
BRANCH  14  21
HETATM   21  C   UNL     1      -8.610  16.313  67.203  1.00  0.00    -0.207 A  
HETATM   22  C   UNL     1      -7.833  17.209  69.336  1.00  0.00     0.219 A  
HETATM   23  C   UNL     1      -6.325  15.919  67.959  1.00  0.00    -0.144 A  
HETATM   24  C   UNL     1      -8.847  17.033  68.390  1.00  0.00    -0.247 A  
HETATM   25 CL   UNL     1      -5.318  16.899  70.262  1.00  0.00    -0.200 Cl 
HETATM   26  C   UNL     1      -7.335  15.756  67.007  1.00  0.00    -0.226 A  
HETATM   27  C   UNL     1      -6.577  16.653  69.115  1.00  0.00    -0.207 A  
ENDBRANCH  14  21
ENDBRANCH  11  14
ENDBRANCH   7   8
ENDBRANCH   6   7
ENDBRANCH   5   6
ENDBRANCH   4   5
ENDBRANCH   2   4
TORSDOF 8
ENDMDL
MODEL      197
REMARK 921   NORMALIZED FREE ENERGY PREDICTED BY IDOCK:   10.36 KCAL/MOL
REMARK 922        TOTAL FREE ENERGY PREDICTED BY IDOCK:   14.97 KCAL/MOL
REMARK 923 INTER-LIGAND FREE ENERGY PREDICTED BY IDOCK:    7.22 KCAL/MOL
REMARK 924 INTRA-LIGAND FREE ENERGY PREDICTED BY IDOCK:    7.75 KCAL/MOL
REMARK 927      BINDING AFFINITY PREDICTED BY RF-SCORE:    0.00 PKD
ROOT
HETATM    1  O   UNL     1      -7.233  19.200  63.684  1.00  0.00     2.649 OA 
HETATM    2  C   UNL     1      -7.081  19.077  65.094  1.00  0.00     0.270 C  
HETATM    3  H   UNL     1      -7.172  18.343  63.279  1.00  0.00     0.000 HD 
ENDROOT
BRANCH   2   4
HETATM    4  C   UNL     1      -7.178  20.450  65.743  1.00  0.00    -0.171 C  
BRANCH   4   5
HETATM    5  O   UNL     1      -8.328  20.506  66.586  1.00  0.00    -0.203 OA 
BRANCH   5   6
HETATM    6  C   UNL     1      -8.909  19.205  66.730  1.00  0.00    -0.311 C  
BRANCH   6   7
HETATM    7  C   UNL     1     -10.329  19.340  67.297  1.00  0.00    -0.436 C  
BRANCH   7   8
HETATM    8  N   UNL     1     -11.280  18.322  66.803  1.00  0.00     0.401 NA 
HETATM    9  C   UNL     1     -10.691  17.419  65.791  1.00  0.00    -0.120 C  
HETATM   10  C   UNL     1      -9.683  16.389  66.355  1.00  0.00    -0.287 C  
HETATM   11  N   UNL     1     -10.228  15.535  67.440  1.00  0.00    -0.251 NA 
HETATM   12  C   UNL     1     -10.789  16.449  68.468  1.00  0.00    -0.339 C  
HETATM   13  C   UNL     1     -11.788  17.507  67.933  1.00  0.00     1.609 C  
BRANCH  11  14
HETATM   14  C   UNL     1     -11.237  14.553  66.928  1.00  0.00    -0.336 C  
BRANCH  14  15
HETATM   15  C   UNL     1     -11.625  14.831  65.464  1.00  0.00    -0.301 A  
HETATM   16  C   UNL     1     -11.486  16.135  64.942  1.00  0.00    -0.086 A  
HETATM   17  C   UNL     1     -11.984  13.804  64.575  1.00  0.00    -0.458 A  
HETATM   18  C   UNL     1     -11.659  16.385  63.578  1.00  0.00     2.466 A  
HETATM   19  C   UNL     1     -11.990  15.347  62.712  1.00  0.00     4.439 A  
HETATM   20  C   UNL     1     -12.170  14.059  63.213  1.00  0.00     0.329 A  
ENDBRANCH  14  15
BRANCH  14  21
HETATM   21  C   UNL     1     -10.809  13.098  67.181  1.00  0.00    -0.271 A  
HETATM   22  C   UNL     1     -10.997  11.082  68.544  1.00  0.00    -0.276 A  
HETATM   23  C   UNL     1      -9.220  11.266  66.918  1.00  0.00    -0.184 A  
HETATM   24  C   UNL     1     -11.467  12.345  68.173  1.00  0.00    -0.370 A  
HETATM   25 CL   UNL     1      -9.275   9.010  68.396  1.00  0.00    -0.136 Cl 
HETATM   26  C   UNL     1      -9.682  12.534  66.558  1.00  0.00    -0.249 A  
HETATM   27  C   UNL     1      -9.875  10.549  67.916  1.00  0.00    -0.160 A  
ENDBRANCH  14  21
ENDBRANCH  11  14
ENDBRANCH   7   8
ENDBRANCH   6   7
ENDBRANCH   5   6
ENDBRANCH   4   5
ENDBRANCH   2   4
TORSDOF 8
ENDMDL
MODEL      198
REMARK 921   NORMALIZED FREE ENERGY PREDICTED BY IDOCK:   12.60 KCAL/MOL
REMARK 922        TOTAL FREE ENERGY PREDICTED BY IDOCK:   18.25 KCAL/MOL
REMARK 923 INTER-LIGAND FREE ENERGY PREDICTED BY IDOCK:   12.61 KCAL/MOL
REMARK 924 INTRA-LIGAND FREE ENERGY PREDICTED BY IDOCK:    5.65 KCAL/MOL
REMARK 927      BINDING AFFINITY PREDICTED BY RF-SCORE:    0.00 PKD
ROOT
HETATM    1  O   UNL     1      -7.061  11.954  66.306  1.00  0.00    -0.350 OA 
HETATM    2  C   UNL     1      -5.980  11.265  66.923  1.00  0.00    -0.116 C  
HETATM    3  H   UNL     1      -6.734  12.493  65.595  1.00  0.00     0.000 HD 
ENDROOT
BRANCH   2   4
HETATM    4  C   UNL     1      -6.503  10.403  68.062  1.00  0.00    -0.060 C  
BRANCH   4   5
HETATM    5  O   UNL     1      -5.474  10.206  69.032  1.00  0.00    -0.035 OA 
BRANCH   5   6
HETATM    6  C   UNL     1      -5.659  11.086  70.146  1.00  0.00    -0.088 C  
BRANCH   6   7
HETATM    7  C   UNL     1      -5.517  10.292  71.452  1.00  0.00    -0.025 C  
BRANCH   7   8
HETATM    8  N   UNL     1      -6.676   9.432  71.771  1.00  0.00    -0.304 NA 
HETATM    9  C   UNL     1      -7.945   9.934  71.203  1.00  0.00     1.066 C  
HETATM   10  C   UNL     1      -8.078   9.763  69.670  1.00  0.00    -0.154 C  
HETATM   11  N   UNL     1      -7.907   8.366  69.197  1.00  0.00    -0.103 NA 
HETATM   12  C   UNL     1      -6.616   7.879  69.745  1.00  0.00    -0.034 C  
HETATM   13  C   UNL     1      -6.442   8.055  71.276  1.00  0.00    -0.038 C  
BRANCH  11  14
HETATM   14  C   UNL     1      -9.065   7.497  69.587  1.00  0.00    -0.140 C  
BRANCH  14  15
HETATM   15  C   UNL     1     -10.123   7.408  68.472  1.00  0.00    -0.187 A  
HETATM   16  C   UNL     1     -11.489   7.310  68.814  1.00  0.00     0.455 A  
HETATM   17  C   UNL     1      -9.797   7.560  67.115  1.00  0.00    -0.263 A  
HETATM   18  C   UNL     1     -12.483   7.405  67.836  1.00  0.00     6.000 A  
HETATM   19  C   UNL     1     -12.136   7.582  66.500  1.00  0.00     5.881 A  
HETATM   20  C   UNL     1     -10.792   7.642  66.136  1.00  0.00     1.700 A  
ENDBRANCH  14  15
BRANCH  14  21
HETATM   21  C   UNL     1      -8.608   6.124  70.108  1.00  0.00    -0.133 A  
HETATM   22  C   UNL     1      -8.461   4.549  71.966  1.00  0.00    -0.116 A  
HETATM   23  C   UNL     1      -7.175   4.156  69.959  1.00  0.00    -0.045 A  
HETATM   24  C   UNL     1      -8.992   5.711  71.398  1.00  0.00    -0.148 A  
HETATM   25 CL   UNL     1      -6.872   2.368  71.956  1.00  0.00    -0.022 Cl 
HETATM   26  C   UNL     1      -7.696   5.325  69.399  1.00  0.00    -0.080 A  
HETATM   27  C   UNL     1      -7.553   3.779  71.245  1.00  0.00    -0.055 A  
ENDBRANCH  14  21
ENDBRANCH  11  14
ENDBRANCH   7   8
ENDBRANCH   6   7
ENDBRANCH   5   6
ENDBRANCH   4   5
ENDBRANCH   2   4
TORSDOF 8
ENDMDL
MODEL      199
REMARK 921   NORMALIZED FREE ENERGY PREDICTED BY IDOCK:   12.79 KCAL/MOL
REMARK 922        TOTAL FREE ENERGY PREDICTED BY IDOCK:   18.54 KCAL/MOL
REMARK 923 INTER-LIGAND FREE ENERGY PREDICTED BY IDOCK:   -1.58 KCAL/MOL
REMARK 924 INTRA-LIGAND FREE ENERGY PREDICTED BY IDOCK:   20.12 KCAL/MOL
REMARK 927      BINDING AFFINITY PREDICTED BY RF-SCORE:    0.00 PKD
ROOT
HETATM    1  O   UNL     1      -9.771   9.866  72.052  1.00  0.00     0.855 OA 
HETATM    2  C   UNL     1      -8.472   9.396  72.395  1.00  0.00     1.634 C  
HETATM    3  H   UNL     1      -9.841  10.792  72.252  1.00  0.00     0.000 HD 
ENDROOT
BRANCH   2   4
HETATM    4  C   UNL     1      -8.360   7.913  72.075  1.00  0.00    -0.127 C  
BRANCH   4   5
HETATM    5  O   UNL     1      -9.159   7.161  72.989  1.00  0.00    -0.128 OA 
BRANCH   5   6
HETATM    6  C   UNL     1     -10.547   7.456  72.804  1.00  0.00    -0.297 C  
BRANCH   6   7
HETATM    7  C   UNL     1     -10.697   8.877  72.245  1.00  0.00    -0.149 C  
BRANCH   7   8
HETATM    8  N   UNL     1     -10.789   8.944  70.771  1.00  0.00    -0.227 NA 
HETATM    9  C   UNL     1      -9.494   8.712  70.097  1.00  0.00    -0.164 C  
HETATM   10  C   UNL     1      -9.007   7.242  70.127  1.00  0.00    -0.148 C  
HETATM   11  N   UNL     1      -9.976   6.269  69.564  1.00  0.00    -0.159 NA 
HETATM   12  C   UNL     1     -11.265   6.487  70.268  1.00  0.00    -0.374 C  
HETATM   13  C   UNL     1     -11.772   7.952  70.274  1.00  0.00     0.075 C  
BRANCH  11  14
HETATM   14  C   UNL     1     -10.101   6.398  68.076  1.00  0.00    -0.148 C  
BRANCH  14  15
HETATM   15  C   UNL     1      -9.549   7.740  67.563  1.00  0.00    -0.184 A  
HETATM   16  C   UNL     1      -8.192   8.063  67.774  1.00  0.00    -0.129 A  
HETATM   17  C   UNL     1     -10.313   8.608  66.764  1.00  0.00    -0.336 A  
HETATM   18  C   UNL     1      -7.618   9.187  67.172  1.00  0.00    -0.091 A  
HETATM   19  C   UNL     1      -8.388  10.017  66.364  1.00  0.00    -0.126 A  
HETATM   20  C   UNL     1      -9.740   9.739  66.173  1.00  0.00    -0.309 A  
ENDBRANCH  14  15
BRANCH  14  21
HETATM   21  C   UNL     1      -9.523   5.178  67.339  1.00  0.00    -0.144 A  
HETATM   22  C   UNL     1      -8.880   4.136  65.228  1.00  0.00    -0.129 A  
HETATM   23  C   UNL     1      -9.017   2.794  67.232  1.00  0.00    -0.183 A  
HETATM   24  C   UNL     1      -9.246   5.268  65.961  1.00  0.00    -0.163 A  
HETATM   25 CL   UNL     1      -8.353   1.504  64.959  1.00  0.00    -0.076 Cl 
HETATM   26  C   UNL     1      -9.397   3.924  67.961  1.00  0.00    -0.226 A  
HETATM   27  C   UNL     1      -8.769   2.904  65.867  1.00  0.00    -0.129 A  
ENDBRANCH  14  21
ENDBRANCH  11  14
ENDBRANCH   7   8
ENDBRANCH   6   7
ENDBRANCH   5   6
ENDBRANCH   4   5
ENDBRANCH   2   4
TORSDOF 8
ENDMDL
MODEL      200
REMARK 921   NORMALIZED FREE ENERGY PREDICTED BY IDOCK:   12.88 KCAL/MOL
REMARK 922        TOTAL FREE ENERGY PREDICTED BY IDOCK:   18.67 KCAL/MOL
REMARK 923 INTER-LIGAND FREE ENERGY PREDICTED BY IDOCK:   11.74 KCAL/MOL
REMARK 924 INTRA-LIGAND FREE ENERGY PREDICTED BY IDOCK:    6.93 KCAL/MOL
REMARK 927      BINDING AFFINITY PREDICTED BY RF-SCORE:    0.00 PKD
ROOT
HETATM    1  O   UNL     1      -6.315  20.998  67.976  1.00  0.00    -0.338 OA 
HETATM    2  C   UNL     1      -5.945  19.878  67.179  1.00  0.00    -0.178 C  
HETATM    3  H   UNL     1      -5.911  20.928  68.834  1.00  0.00     0.000 HD 
ENDROOT
BRANCH   2   4
HETATM    4  C   UNL     1      -6.591  19.988  65.806  1.00  0.00    -0.244 C  
BRANCH   4   5
HETATM    5  O   UNL     1      -7.960  19.590  65.883  1.00  0.00    -0.373 OA 
BRANCH   5   6
HETATM    6  C   UNL     1      -8.728  20.232  64.860  1.00  0.00     1.791 C  
BRANCH   6   7
HETATM    7  C   UNL     1     -10.059  20.717  65.449  1.00  0.00     1.044 C  
BRANCH   7   8
HETATM    8  N   UNL     1     -10.364  20.177  66.791  1.00  0.00    -0.426 NA 
HETATM    9  C   UNL     1     -11.478  19.206  66.787  1.00  0.00     0.827 C  
HETATM   10  C   UNL     1     -11.131  17.828  66.171  1.00  0.00     0.532 C  
HETATM   11  N   UNL     1      -9.966  17.157  66.800  1.00  0.00    -0.279 NA 
HETATM   12  C   UNL     1      -8.841  18.127  66.772  1.00  0.00    -0.264 C  
HETATM   13  C   UNL     1      -9.162  19.523  67.364  1.00  0.00    -0.315 C  
BRANCH  11  14
HETATM   14  C   UNL     1     -10.278  16.673  68.184  1.00  0.00    -0.280 C  
BRANCH  14  15
HETATM   15  C   UNL     1     -10.574  15.163  68.216  1.00  0.00    -0.243 A  
HETATM   16  C   UNL     1     -10.938  14.550  69.434  1.00  0.00    -0.275 A  
HETATM   17  C   UNL     1     -10.633  14.385  67.048  1.00  0.00    -0.274 A  
HETATM   18  C   UNL     1     -11.383  13.225  69.467  1.00  0.00    -0.236 A  
HETATM   19  C   UNL     1     -11.457  12.482  68.293  1.00  0.00    -0.355 A  
HETATM   20  C   UNL     1     -11.066  13.056  67.085  1.00  0.00    -0.304 A  
ENDBRANCH  14  15
BRANCH  14  21
HETATM   21  C   UNL     1      -9.212  17.110  69.203  1.00  0.00    -0.042 A  
HETATM   22  C   UNL     1      -8.536  18.644  70.976  1.00  0.00     5.661 A  
HETATM   23  C   UNL     1      -6.898  17.181  69.971  1.00  0.00     0.604 A  
HETATM   24  C   UNL     1      -9.526  18.106  70.148  1.00  0.00     1.879 A  
HETATM   25 CL   UNL     1      -6.003  18.866  71.878  1.00  0.00     0.400 Cl 
HETATM   26  C   UNL     1      -7.885  16.654  69.133  1.00  0.00    -0.170 A  
HETATM   27  C   UNL     1      -7.227  18.180  70.883  1.00  0.00     3.604 A  
ENDBRANCH  14  21
ENDBRANCH  11  14
ENDBRANCH   7   8
ENDBRANCH   6   7
ENDBRANCH   5   6
ENDBRANCH   4   5
ENDBRANCH   2   4
TORSDOF 8
ENDMDL
MODEL      201
REMARK 921   NORMALIZED FREE ENERGY PREDICTED BY IDOCK:   14.78 KCAL/MOL
REMARK 922        TOTAL FREE ENERGY PREDICTED BY IDOCK:   21.46 KCAL/MOL
REMARK 923 INTER-LIGAND FREE ENERGY PREDICTED BY IDOCK:   12.93 KCAL/MOL
REMARK 924 INTRA-LIGAND FREE ENERGY PREDICTED BY IDOCK:    8.53 KCAL/MOL
REMARK 927      BINDING AFFINITY PREDICTED BY RF-SCORE:    0.00 PKD
ROOT
HETATM    1  O   UNL     1     -14.099  14.132  65.649  1.00  0.00     0.363 OA 
HETATM    2  C   UNL     1     -13.177  14.545  66.651  1.00  0.00     2.106 C  
HETATM    3  H   UNL     1     -13.846  14.498  64.810  1.00  0.00     0.000 HD 
ENDROOT
BRANCH   2   4
HETATM    4  C   UNL     1     -13.582  13.959  67.995  1.00  0.00     6.295 C  
BRANCH   4   5
HETATM    5  O   UNL     1     -12.481  14.021  68.902  1.00  0.00    -0.197 OA 
BRANCH   5   6
HETATM    6  C   UNL     1     -12.919  13.777  70.242  1.00  0.00     0.102 C  
BRANCH   6   7
HETATM    7  C   UNL     1     -11.915  12.856  70.948  1.00  0.00     0.119 C  
BRANCH   7   8
HETATM    8  N   UNL     1     -11.295  11.843  70.068  1.00  0.00    -0.109 NA 
HETATM    9  C   UNL     1      -9.976  11.382  70.552  1.00  0.00     3.103 C  
HETATM   10  C   UNL     1     -10.032  10.456  71.791  1.00  0.00     4.416 C  
HETATM   11  N   UNL     1     -10.879   9.251  71.612  1.00  0.00    -0.372 NA 
HETATM   12  C   UNL     1     -12.212   9.724  71.157  1.00  0.00    -0.362 C  
HETATM   13  C   UNL     1     -12.190  10.670  69.929  1.00  0.00    -0.275 C  
BRANCH  11  14
HETATM   14  C   UNL     1     -10.261   8.266  70.666  1.00  0.00    -0.193 C  
BRANCH  14  15
HETATM   15  C   UNL     1      -9.938   8.899  69.301  1.00  0.00    -0.192 A  
HETATM   16  C   UNL     1     -10.156   8.158  68.120  1.00  0.00    -0.237 A  
HETATM   17  C   UNL     1      -9.561  10.246  69.169  1.00  0.00    -0.229 A  
HETATM   18  C   UNL     1     -10.042   8.759  66.863  1.00  0.00    -0.348 A  
HETATM   19  C   UNL     1      -9.692  10.102  66.758  1.00  0.00    -0.235 A  
HETATM   20  C   UNL     1      -9.435  10.842  67.910  1.00  0.00    -0.166 A  
ENDBRANCH  14  15
BRANCH  14  21
HETATM   21  C   UNL     1      -9.068   7.529  71.297  1.00  0.00    -0.147 A  
HETATM   22  C   UNL     1      -6.699   7.529  71.884  1.00  0.00    -0.054 A  
HETATM   23  C   UNL     1      -7.962   5.473  72.002  1.00  0.00    -0.111 A  
HETATM   24  C   UNL     1      -7.847   8.210  71.470  1.00  0.00    -0.122 A  
HETATM   25 CL   UNL     1      -5.341   5.317  72.621  1.00  0.00    -0.016 Cl 
HETATM   26  C   UNL     1      -9.105   6.152  71.575  1.00  0.00    -0.145 A  
HETATM   27  C   UNL     1      -6.761   6.163  72.146  1.00  0.00    -0.068 A  
ENDBRANCH  14  21
ENDBRANCH  11  14
ENDBRANCH   7   8
ENDBRANCH   6   7
ENDBRANCH   5   6
ENDBRANCH   4   5
ENDBRANCH   2   4
TORSDOF 8
ENDMDL
MODEL      202
REMARK 921   NORMALIZED FREE ENERGY PREDICTED BY IDOCK:   16.75 KCAL/MOL
REMARK 922        TOTAL FREE ENERGY PREDICTED BY IDOCK:   24.34 KCAL/MOL
REMARK 923 INTER-LIGAND FREE ENERGY PREDICTED BY IDOCK:    7.26 KCAL/MOL
REMARK 924 INTRA-LIGAND FREE ENERGY PREDICTED BY IDOCK:   17.08 KCAL/MOL
REMARK 927      BINDING AFFINITY PREDICTED BY RF-SCORE:    0.00 PKD
ROOT
HETATM    1  O   UNL     1      -7.588   6.677  62.464  1.00  0.00    -0.073 OA 
HETATM    2  C   UNL     1      -7.778   8.050  62.786  1.00  0.00    -0.134 C  
HETATM    3  H   UNL     1      -8.180   6.427  61.763  1.00  0.00     0.000 HD 
ENDROOT
BRANCH   2   4
HETATM    4  C   UNL     1      -6.832   8.450  63.908  1.00  0.00    -0.075 C  
BRANCH   4   5
HETATM    5  O   UNL     1      -7.584   8.844  65.056  1.00  0.00    -0.095 OA 
BRANCH   5   6
HETATM    6  C   UNL     1      -7.557  10.266  65.211  1.00  0.00    -0.143 C  
BRANCH   6   7
HETATM    7  C   UNL     1      -7.591  10.618  66.704  1.00  0.00    -0.129 C  
BRANCH   7   8
HETATM    8  N   UNL     1      -8.146   9.555  67.568  1.00  0.00    -0.110 NA 
HETATM    9  C   UNL     1      -9.560   9.243  67.269  1.00  0.00    -0.155 C  
HETATM   10  C   UNL     1      -9.783   8.465  65.949  1.00  0.00     0.028 C  
HETATM   11  N   UNL     1      -9.024   7.193  65.857  1.00  0.00    -0.114 NA 
HETATM   12  C   UNL     1      -7.600   7.518  66.127  1.00  0.00    -0.088 C  
HETATM   13  C   UNL     1      -7.344   8.315  67.432  1.00  0.00    -0.092 C  
BRANCH  11  14
HETATM   14  C   UNL     1      -9.565   6.149  66.787  1.00  0.00    -0.148 C  
BRANCH  14  15
HETATM   15  C   UNL     1     -10.390   6.764  67.931  1.00  0.00    -0.236 A  
HETATM   16  C   UNL     1     -11.395   5.996  68.558  1.00  0.00     0.060 A  
HETATM   17  C   UNL     1     -10.092   8.024  68.478  1.00  0.00    -0.218 A  
HETATM   18  C   UNL     1     -12.040   6.458  69.709  1.00  0.00     0.446 A  
HETATM   19  C   UNL     1     -11.709   7.698  70.247  1.00  0.00    -0.005 A  
HETATM   20  C   UNL     1     -10.748   8.489  69.622  1.00  0.00    -0.200 A  
ENDBRANCH  14  15
BRANCH  14  21
HETATM   21  C   UNL     1     -10.302   5.029  66.034  1.00  0.00    -0.276 A  
HETATM   22  C   UNL     1     -10.889   2.665  65.877  1.00  0.00     3.731 A  
HETATM   23  C   UNL     1     -11.310   4.130  64.003  1.00  0.00     0.604 A  
HETATM   24  C   UNL     1     -10.375   3.743  66.604  1.00  0.00     0.810 A  
HETATM   25 CL   UNL     1     -11.953   1.532  63.672  1.00  0.00     1.080 Cl 
HETATM   26  C   UNL     1     -10.782   5.204  64.725  1.00  0.00     1.051 A  
HETATM   27  C   UNL     1     -11.353   2.864  64.579  1.00  0.00     1.738 A  
ENDBRANCH  14  21
ENDBRANCH  11  14
ENDBRANCH   7   8
ENDBRANCH   6   7
ENDBRANCH   5   6
ENDBRANCH   4   5
ENDBRANCH   2   4
TORSDOF 8
ENDMDL
MODEL      203
REMARK 921   NORMALIZED FREE ENERGY PREDICTED BY IDOCK:   21.26 KCAL/MOL
REMARK 922        TOTAL FREE ENERGY PREDICTED BY IDOCK:   30.97 KCAL/MOL
REMARK 923 INTER-LIGAND FREE ENERGY PREDICTED BY IDOCK:   22.31 KCAL/MOL
REMARK 924 INTRA-LIGAND FREE ENERGY PREDICTED BY IDOCK:    8.66 KCAL/MOL
REMARK 927      BINDING AFFINITY PREDICTED BY RF-SCORE:    0.00 PKD
ROOT
HETATM    1  O   UNL     1      -8.215   7.550  68.019  1.00  0.00    -0.122 OA 
HETATM    2  C   UNL     1      -9.448   8.221  67.784  1.00  0.00    -0.149 C  
HETATM    3  H   UNL     1      -7.491   8.112  67.767  1.00  0.00     0.000 HD 
ENDROOT
BRANCH   2   4
HETATM    4  C   UNL     1     -10.607   7.321  68.186  1.00  0.00    -0.177 C  
BRANCH   4   5
HETATM    5  O   UNL     1     -11.094   7.707  69.471  1.00  0.00    -0.155 OA 
BRANCH   5   6
HETATM    6  C   UNL     1     -10.648   9.026  69.803  1.00  0.00    -0.228 C  
BRANCH   6   7
HETATM    7  C   UNL     1     -11.314  10.041  68.866  1.00  0.00    -0.068 C  
BRANCH   7   8
HETATM    8  N   UNL     1     -10.451  11.182  68.491  1.00  0.00    -0.182 NA 
HETATM    9  C   UNL     1     -10.184  11.255  67.039  1.00  0.00    -0.215 C  
HETATM   10  C   UNL     1     -11.389  11.722  66.185  1.00  0.00    -0.280 C  
HETATM   11  N   UNL     1     -11.954  13.032  66.595  1.00  0.00    -0.403 NA 
HETATM   12  C   UNL     1     -12.249  12.940  68.048  1.00  0.00     0.031 C  
HETATM   13  C   UNL     1     -11.069  12.456  68.929  1.00  0.00    -0.258 C  
BRANCH  11  14
HETATM   14  C   UNL     1     -11.034  14.168  66.263  1.00  0.00    -0.303 C  
BRANCH  14  15
HETATM   15  C   UNL     1     -11.712  15.537  66.454  1.00  0.00     0.327 A  
HETATM   16  C   UNL     1     -11.000  16.716  66.147  1.00  0.00     0.110 A  
HETATM   17  C   UNL     1     -13.069  15.660  66.794  1.00  0.00     3.617 A  
HETATM   18  C   UNL     1     -11.639  17.960  66.140  1.00  0.00     2.069 A  
HETATM   19  C   UNL     1     -12.991  18.054  66.455  1.00  0.00     9.564 A  
HETATM   20  C   UNL     1     -13.703  16.907  66.799  1.00  0.00    10.322 A  
ENDBRANCH  14  15
BRANCH  14  21
HETATM   21  C   UNL     1      -9.682  14.048  66.986  1.00  0.00    -0.256 A  
HETATM   22  C   UNL     1      -7.770  15.159  68.017  1.00  0.00    -0.131 A  
HETATM   23  C   UNL     1      -7.669  12.791  67.549  1.00  0.00    -0.168 A  
HETATM   24  C   UNL     1      -9.069  15.205  67.504  1.00  0.00    -0.187 A  
HETATM   25 CL   UNL     1      -5.464  13.902  68.635  1.00  0.00    -0.082 Cl 
HETATM   26  C   UNL     1      -8.962  12.842  67.023  1.00  0.00    -0.221 A  
HETATM   27  C   UNL     1      -7.075  13.953  68.036  1.00  0.00    -0.144 A  
ENDBRANCH  14  21
ENDBRANCH  11  14
ENDBRANCH   7   8
ENDBRANCH   6   7
ENDBRANCH   5   6
ENDBRANCH   4   5
ENDBRANCH   2   4
TORSDOF 8
ENDMDL
MODEL      204
REMARK 921   NORMALIZED FREE ENERGY PREDICTED BY IDOCK:   24.95 KCAL/MOL
REMARK 922        TOTAL FREE ENERGY PREDICTED BY IDOCK:   36.38 KCAL/MOL
REMARK 923 INTER-LIGAND FREE ENERGY PREDICTED BY IDOCK:   27.36 KCAL/MOL
REMARK 924 INTRA-LIGAND FREE ENERGY PREDICTED BY IDOCK:    9.02 KCAL/MOL
REMARK 927      BINDING AFFINITY PREDICTED BY RF-SCORE:    0.00 PKD
ROOT
HETATM    1  O   UNL     1      -7.588   8.038  66.684  1.00  0.00    -0.090 OA 
HETATM    2  C   UNL     1      -7.144   9.145  67.460  1.00  0.00    -0.079 C  
HETATM    3  H   UNL     1      -7.638   7.262  67.231  1.00  0.00     0.000 HD 
ENDROOT
BRANCH   2   4
HETATM    4  C   UNL     1      -7.063  10.387  66.585  1.00  0.00    -0.112 C  
BRANCH   4   5
HETATM    5  O   UNL     1      -7.420  10.056  65.243  1.00  0.00    -0.125 OA 
BRANCH   5   6
HETATM    6  C   UNL     1      -8.561   9.192  65.225  1.00  0.00    -0.167 C  
BRANCH   6   7
HETATM    7  C   UNL     1      -9.680   9.842  64.400  1.00  0.00    -0.107 C  
BRANCH   7   8
HETATM    8  N   UNL     1     -10.274  11.045  65.022  1.00  0.00    -0.280 NA 
HETATM    9  C   UNL     1     -11.676  10.848  65.446  1.00  0.00     1.227 C  
HETATM   10  C   UNL     1     -11.851   9.957  66.700  1.00  0.00     3.391 C  
HETATM   11  N   UNL     1     -11.094  10.426  67.889  1.00  0.00    -0.301 NA 
HETATM   12  C   UNL     1      -9.681  10.591  67.463  1.00  0.00    -0.166 C  
HETATM   13  C   UNL     1      -9.472  11.461  66.197  1.00  0.00    -0.216 C  
BRANCH  11  14
HETATM   14  C   UNL     1     -11.676  11.682  68.464  1.00  0.00    -0.315 C  
BRANCH  14  15
HETATM   15  C   UNL     1     -11.422  11.797  69.978  1.00  0.00    -0.234 A  
HETATM   16  C   UNL     1     -10.514  12.763  70.461  1.00  0.00     3.339 A  
HETATM   17  C   UNL     1     -12.164  11.066  70.921  1.00  0.00    -0.471 A  
HETATM   18  C   UNL     1     -10.392  13.014  71.831  1.00  0.00    10.452 A  
HETATM   19  C   UNL     1     -11.158  12.295  72.744  1.00  0.00    11.158 A  
HETATM   20  C   UNL     1     -12.031  11.308  72.292  1.00  0.00     2.471 A  
ENDBRANCH  14  15
BRANCH  14  21
HETATM   21  C   UNL     1     -11.249  12.931  67.675  1.00  0.00    -0.317 A  
HETATM   22  C   UNL     1      -9.611  14.705  67.318  1.00  0.00    -0.221 A  
HETATM   23  C   UNL     1     -11.782  14.850  66.267  1.00  0.00    -0.178 A  
HETATM   24  C   UNL     1      -9.970  13.481  67.890  1.00  0.00    -0.245 A  
HETATM   25 CL   UNL     1     -10.092  16.907  65.835  1.00  0.00    -0.327 Cl 
HETATM   26  C   UNL     1     -12.144  13.634  66.852  1.00  0.00    -0.431 A  
HETATM   27  C   UNL     1     -10.520  15.384  66.511  1.00  0.00    -0.294 A  
ENDBRANCH  14  21
ENDBRANCH  11  14
ENDBRANCH   7   8
ENDBRANCH   6   7
ENDBRANCH   5   6
ENDBRANCH   4   5
ENDBRANCH   2   4
TORSDOF 8
ENDMDL
MODEL      205
REMARK 921   NORMALIZED FREE ENERGY PREDICTED BY IDOCK:   25.28 KCAL/MOL
REMARK 922        TOTAL FREE ENERGY PREDICTED BY IDOCK:   36.87 KCAL/MOL
REMARK 923 INTER-LIGAND FREE ENERGY PREDICTED BY IDOCK:   29.36 KCAL/MOL
REMARK 924 INTRA-LIGAND FREE ENERGY PREDICTED BY IDOCK:    7.51 KCAL/MOL
REMARK 927      BINDING AFFINITY PREDICTED BY RF-SCORE:    0.00 PKD
ROOT
HETATM    1  O   UNL     1      -7.061  11.954  66.306  1.00  0.00    -0.350 OA 
HETATM    2  C   UNL     1      -5.989  11.261  66.934  1.00  0.00    -0.116 C  
HETATM    3  H   UNL     1      -6.726  12.488  65.595  1.00  0.00     0.000 HD 
ENDROOT
BRANCH   2   4
HETATM    4  C   UNL     1      -6.526  10.407  68.073  1.00  0.00    -0.060 C  
BRANCH   4   5
HETATM    5  O   UNL     1      -5.505  10.208  69.051  1.00  0.00    -0.035 OA 
BRANCH   5   6
HETATM    6  C   UNL     1      -5.478  11.299  69.977  1.00  0.00    -0.080 C  
BRANCH   6   7
HETATM    7  C   UNL     1      -5.770  10.778  71.390  1.00  0.00     0.189 C  
BRANCH   7   8
HETATM    8  N   UNL     1      -7.189  10.438  71.631  1.00  0.00     1.631 NA 
HETATM    9  C   UNL     1      -8.124  11.215  70.790  1.00  0.00     4.062 C  
HETATM   10  C   UNL     1      -8.145  10.801  69.299  1.00  0.00    -0.096 C  
HETATM   11  N   UNL     1      -8.441   9.364  69.071  1.00  0.00    -0.125 NA 
HETATM   12  C   UNL     1      -7.478   8.589  69.895  1.00  0.00    -0.063 C  
HETATM   13  C   UNL     1      -7.417   8.993  71.390  1.00  0.00    -0.037 C  
BRANCH  11  14
HETATM   14  C   UNL     1      -9.869   9.029  69.383  1.00  0.00    -0.183 C  
BRANCH  14  15
HETATM   15  C   UNL     1     -10.763   9.083  68.131  1.00  0.00    -0.165 A  
HETATM   16  C   UNL     1     -12.100   9.520  68.248  1.00  0.00     2.613 A  
HETATM   17  C   UNL     1     -10.262   8.847  66.841  1.00  0.00    -0.347 A  
HETATM   18  C   UNL     1     -12.883   9.749  67.113  1.00  0.00    10.751 A  
HETATM   19  C   UNL     1     -12.356   9.532  65.844  1.00  0.00    10.056 A  
HETATM   20  C   UNL     1     -11.051   9.064  65.707  1.00  0.00     2.961 A  
ENDBRANCH  14  15
BRANCH  14  21
HETATM   21  C   UNL     1      -9.996   7.713  70.169  1.00  0.00    -0.186 A  
HETATM   22  C   UNL     1     -10.001   5.273  70.151  1.00  0.00    -0.313 A  
HETATM   23  C   UNL     1     -10.758   6.457  72.116  1.00  0.00    -0.259 A  
HETATM   24  C   UNL     1      -9.735   6.491  69.519  1.00  0.00    -0.161 A  
HETATM   25 CL   UNL     1     -10.871   3.764  72.211  1.00  0.00     0.104 Cl 
HETATM   26  C   UNL     1     -10.506   7.674  71.478  1.00  0.00    -0.231 A  
HETATM   27  C   UNL     1     -10.512   5.262  71.446  1.00  0.00    -0.203 A  
ENDBRANCH  14  21
ENDBRANCH  11  14
ENDBRANCH   7   8
ENDBRANCH   6   7
ENDBRANCH   5   6
ENDBRANCH   4   5
ENDBRANCH   2   4
TORSDOF 8
ENDMDL
MODEL      206
REMARK 921   NORMALIZED FREE ENERGY PREDICTED BY IDOCK:   28.15 KCAL/MOL
REMARK 922        TOTAL FREE ENERGY PREDICTED BY IDOCK:   41.08 KCAL/MOL
REMARK 923 INTER-LIGAND FREE ENERGY PREDICTED BY IDOCK:   -0.03 KCAL/MOL
REMARK 924 INTRA-LIGAND FREE ENERGY PREDICTED BY IDOCK:   41.11 KCAL/MOL
REMARK 927      BINDING AFFINITY PREDICTED BY RF-SCORE:    0.00 PKD
ROOT
HETATM    1  O   UNL     1      -9.457   8.447  70.645  1.00  0.00    -0.160 OA 
HETATM    2  C   UNL     1      -8.189   7.802  70.683  1.00  0.00    -0.115 C  
HETATM    3  H   UNL     1      -9.375   9.334  70.975  1.00  0.00     0.000 HD 
ENDROOT
BRANCH   2   4
HETATM    4  C   UNL     1      -8.319   6.381  70.155  1.00  0.00    -0.134 C  
BRANCH   4   5
HETATM    5  O   UNL     1      -9.136   5.611  71.037  1.00  0.00    -0.142 OA 
BRANCH   5   6
HETATM    6  C   UNL     1     -10.128   6.439  71.654  1.00  0.00    -0.186 C  
BRANCH   6   7
HETATM    7  C   UNL     1      -9.882   7.903  71.269  1.00  0.00    -0.168 C  
BRANCH   7   8
HETATM    8  N   UNL     1     -10.213   8.228  69.865  1.00  0.00    -0.197 NA 
HETATM    9  C   UNL     1      -9.102   7.957  68.928  1.00  0.00    -0.141 C  
HETATM   10  C   UNL     1      -8.842   6.455  68.654  1.00  0.00    -0.120 C  
HETATM   11  N   UNL     1     -10.028   5.714  68.155  1.00  0.00    -0.138 NA 
HETATM   12  C   UNL     1     -11.131   5.965  69.118  1.00  0.00    -0.258 C  
HETATM   13  C   UNL     1     -11.404   7.459  69.430  1.00  0.00     0.165 C  
BRANCH  11  14
HETATM   14  C   UNL     1     -10.384   6.105  66.753  1.00  0.00    -0.231 C  
BRANCH  14  15
HETATM   15  C   UNL     1      -9.601   7.342  66.280  1.00  0.00    -0.119 A  
HETATM   16  C   UNL     1     -10.202   8.244  65.376  1.00  0.00     1.989 A  
HETATM   17  C   UNL     1      -8.352   7.691  66.820  1.00  0.00    -0.125 A  
HETATM   18  C   UNL     1      -9.592   9.463  65.065  1.00  0.00    -0.126 A  
HETATM   19  C   UNL     1      -8.367   9.798  65.632  1.00  0.00    -0.138 A  
HETATM   20  C   UNL     1      -7.737   8.905  66.497  1.00  0.00    -0.099 A  
ENDBRANCH  14  15
BRANCH  14  21
HETATM   21  C   UNL     1     -10.295   4.916  65.781  1.00  0.00    -0.219 A  
HETATM   22  C   UNL     1      -9.517   2.646  65.339  1.00  0.00     0.014 A  
HETATM   23  C   UNL     1     -10.353   3.999  63.521  1.00  0.00    -0.135 A  
HETATM   24  C   UNL     1      -9.766   3.691  66.233  1.00  0.00    -0.093 A  
HETATM   25 CL   UNL     1      -9.471   1.532  62.882  1.00  0.00    -0.089 Cl 
HETATM   26  C   UNL     1     -10.588   5.049  64.413  1.00  0.00     1.084 A  
HETATM   27  C   UNL     1      -9.810   2.805  63.987  1.00  0.00    -0.152 A  
ENDBRANCH  14  21
ENDBRANCH  11  14
ENDBRANCH   7   8
ENDBRANCH   6   7
ENDBRANCH   5   6
ENDBRANCH   4   5
ENDBRANCH   2   4
TORSDOF 8
ENDMDL
MODEL      207
REMARK 921   NORMALIZED FREE ENERGY PREDICTED BY IDOCK:   29.82 KCAL/MOL
REMARK 922        TOTAL FREE ENERGY PREDICTED BY IDOCK:   43.53 KCAL/MOL
REMARK 923 INTER-LIGAND FREE ENERGY PREDICTED BY IDOCK:   31.47 KCAL/MOL
REMARK 924 INTRA-LIGAND FREE ENERGY PREDICTED BY IDOCK:   12.07 KCAL/MOL
REMARK 927      BINDING AFFINITY PREDICTED BY RF-SCORE:    0.00 PKD
ROOT
HETATM    1  O   UNL     1      -9.730  17.799  65.091  1.00  0.00     0.417 OA 
HETATM    2  C   UNL     1     -10.983  18.087  65.701  1.00  0.00     0.265 C  
HETATM    3  H   UNL     1      -9.849  17.156  64.402  1.00  0.00     0.000 HD 
ENDROOT
BRANCH   2   4
HETATM    4  C   UNL     1     -10.793  19.116  66.805  1.00  0.00    -0.312 C  
BRANCH   4   5
HETATM    5  O   UNL     1      -9.426  19.135  67.218  1.00  0.00    -0.304 OA 
BRANCH   5   6
HETATM    6  C   UNL     1      -8.669  18.159  66.494  1.00  0.00    -0.268 C  
BRANCH   6   7
HETATM    7  C   UNL     1      -7.838  17.325  67.478  1.00  0.00    -0.181 C  
BRANCH   7   8
HETATM    8  N   UNL     1      -8.639  16.584  68.476  1.00  0.00    -0.213 NA 
HETATM    9  C   UNL     1      -9.008  15.224  68.028  1.00  0.00    -0.171 C  
HETATM   10  C   UNL     1      -7.840  14.208  68.021  1.00  0.00    -0.146 C  
HETATM   11  N   UNL     1      -7.148  14.067  69.327  1.00  0.00    -0.091 NA 
HETATM   12  C   UNL     1      -6.752  15.433  69.755  1.00  0.00    -0.170 C  
HETATM   13  C   UNL     1      -7.895  16.481  69.754  1.00  0.00     0.620 C  
BRANCH  11  14
HETATM   14  C   UNL     1      -8.003  13.369  70.342  1.00  0.00     3.420 C  
BRANCH  14  15
HETATM   15  C   UNL     1      -7.224  13.048  71.631  1.00  0.00     6.264 A  
HETATM   16  C   UNL     1      -6.070  12.239  71.566  1.00  0.00     1.498 A  
HETATM   17  C   UNL     1      -7.538  13.644  72.864  1.00  0.00     8.265 A  
HETATM   18  C   UNL     1      -5.244  12.074  72.681  1.00  0.00     0.530 A  
HETATM   19  C   UNL     1      -5.561  12.695  73.885  1.00  0.00     0.914 A  
HETATM   20  C   UNL     1      -6.717  13.467  73.983  1.00  0.00     2.769 A  
ENDBRANCH  14  15
BRANCH  14  21
HETATM   21  C   UNL     1      -9.325  14.112  70.595  1.00  0.00     3.300 A  
HETATM   22  C   UNL     1     -11.730  13.999  70.996  1.00  0.00    -0.062 A  
HETATM   23  C   UNL     1     -10.706  16.118  70.451  1.00  0.00    -0.170 A  
HETATM   24  C   UNL     1     -10.480  13.376  70.924  1.00  0.00     4.046 A  
HETATM   25 CL   UNL     1     -13.379  16.126  70.811  1.00  0.00     0.889 Cl 
HETATM   26  C   UNL     1      -9.459  15.492  70.365  1.00  0.00     0.711 A  
HETATM   27  C   UNL     1     -11.837  15.366  70.757  1.00  0.00    -0.353 A  
ENDBRANCH  14  21
ENDBRANCH  11  14
ENDBRANCH   7   8
ENDBRANCH   6   7
ENDBRANCH   5   6
ENDBRANCH   4   5
ENDBRANCH   2   4
TORSDOF 8
ENDMDL
MODEL      208
REMARK 921   NORMALIZED FREE ENERGY PREDICTED BY IDOCK:   34.62 KCAL/MOL
REMARK 922        TOTAL FREE ENERGY PREDICTED BY IDOCK:   50.57 KCAL/MOL
REMARK 923 INTER-LIGAND FREE ENERGY PREDICTED BY IDOCK:    5.30 KCAL/MOL
REMARK 924 INTRA-LIGAND FREE ENERGY PREDICTED BY IDOCK:   45.26 KCAL/MOL
REMARK 927      BINDING AFFINITY PREDICTED BY RF-SCORE:    0.00 PKD
ROOT
HETATM    1  O   UNL     1      -9.274   8.746  71.273  1.00  0.00    -0.196 OA 
HETATM    2  C   UNL     1      -8.470   9.136  70.166  1.00  0.00    -0.176 C  
HETATM    3  H   UNL     1      -8.916   7.960  71.669  1.00  0.00     0.000 HD 
ENDROOT
BRANCH   2   4
HETATM    4  C   UNL     1      -9.043  10.394  69.531  1.00  0.00    -0.107 C  
BRANCH   4   5
HETATM    5  O   UNL     1      -9.494  11.287  70.549  1.00  0.00     2.276 OA 
BRANCH   5   6
HETATM    6  C   UNL     1     -10.499  12.168  70.037  1.00  0.00     1.478 C  
BRANCH   6   7
HETATM    7  C   UNL     1     -10.621  11.975  68.519  1.00  0.00    -0.231 C  
BRANCH   7   8
HETATM    8  N   UNL     1     -10.544  10.567  68.076  1.00  0.00    -0.197 NA 
HETATM    9  C   UNL     1      -9.623   9.750  68.895  1.00  0.00    -0.167 C  
HETATM   10  C   UNL     1     -10.150   9.409  70.311  1.00  0.00    -0.240 C  
HETATM   11  N   UNL     1     -11.469   8.728  70.322  1.00  0.00    -0.159 NA 
HETATM   12  C   UNL     1     -12.396   9.570  69.524  1.00  0.00     1.120 C  
HETATM   13  C   UNL     1     -11.890   9.947  68.108  1.00  0.00     1.232 C  
BRANCH  11  14
HETATM   14  C   UNL     1     -11.378   7.322  69.809  1.00  0.00    -0.071 C  
BRANCH  14  15
HETATM   15  C   UNL     1     -10.212   7.141  68.819  1.00  0.00    -0.184 A  
HETATM   16  C   UNL     1      -9.966   5.871  68.257  1.00  0.00    -0.177 A  
HETATM   17  C   UNL     1      -9.460   8.226  68.341  1.00  0.00    -0.144 A  
HETATM   18  C   UNL     1      -9.034   5.708  67.228  1.00  0.00    -0.111 A  
HETATM   19  C   UNL     1      -8.319   6.803  66.752  1.00  0.00    -0.115 A  
HETATM   20  C   UNL     1      -8.518   8.060  67.320  1.00  0.00    -0.125 A  
ENDBRANCH  14  15
BRANCH  14  21
HETATM   21  C   UNL     1     -11.379   6.290  70.948  1.00  0.00    -0.389 A  
HETATM   22  C   UNL     1     -11.032   5.804  73.314  1.00  0.00    -0.292 A  
HETATM   23  C   UNL     1     -11.250   3.986  71.739  1.00  0.00     1.294 A  
HETATM   24  C   UNL     1     -11.202   6.725  72.276  1.00  0.00    -0.295 A  
HETATM   25 CL   UNL     1     -10.811   3.308  74.312  1.00  0.00    -0.211 Cl 
HETATM   26  C   UNL     1     -11.405   4.907  70.700  1.00  0.00     1.667 A  
HETATM   27  C   UNL     1     -11.055   4.440  73.041  1.00  0.00    -0.176 A  
ENDBRANCH  14  21
ENDBRANCH  11  14
ENDBRANCH   7   8
ENDBRANCH   6   7
ENDBRANCH   5   6
ENDBRANCH   4   5
ENDBRANCH   2   4
TORSDOF 8
ENDMDL
MODEL      209
REMARK 921   NORMALIZED FREE ENERGY PREDICTED BY IDOCK:   38.03 KCAL/MOL
REMARK 922        TOTAL FREE ENERGY PREDICTED BY IDOCK:   55.59 KCAL/MOL
REMARK 923 INTER-LIGAND FREE ENERGY PREDICTED BY IDOCK:   27.80 KCAL/MOL
REMARK 924 INTRA-LIGAND FREE ENERGY PREDICTED BY IDOCK:   27.79 KCAL/MOL
REMARK 927      BINDING AFFINITY PREDICTED BY RF-SCORE:    0.00 PKD
ROOT
HETATM    1  O   UNL     1      -9.799  17.700  64.902  1.00  0.00     0.928 OA 
HETATM    2  C   UNL     1     -10.487  18.714  65.626  1.00  0.00    -0.111 C  
HETATM    3  H   UNL     1     -10.308  16.897  64.912  1.00  0.00     0.000 HD 
ENDROOT
BRANCH   2   4
HETATM    4  C   UNL     1      -9.674  19.999  65.610  1.00  0.00    -0.041 C  
BRANCH   4   5
HETATM    5  O   UNL     1      -8.526  19.834  64.777  1.00  0.00     1.023 OA 
BRANCH   5   6
HETATM    6  C   UNL     1      -8.727  18.761  63.851  1.00  0.00    11.717 C  
BRANCH   6   7
HETATM    7  C   UNL     1      -8.392  17.429  64.533  1.00  0.00     7.188 C  
BRANCH   7   8
HETATM    8  N   UNL     1      -8.527  17.447  66.006  1.00  0.00    -0.539 NA 
HETATM    9  C   UNL     1      -9.804  16.872  66.478  1.00  0.00    -0.296 C  
HETATM   10  C   UNL     1      -9.900  15.331  66.361  1.00  0.00    -0.275 C  
HETATM   11  N   UNL     1      -8.807  14.600  67.050  1.00  0.00    -0.229 NA 
HETATM   12  C   UNL     1      -7.527  15.161  66.547  1.00  0.00     0.921 C  
HETATM   13  C   UNL     1      -7.407  16.705  66.631  1.00  0.00    -0.255 C  
BRANCH  11  14
HETATM   14  C   UNL     1      -8.928  14.685  68.542  1.00  0.00    -0.184 C  
BRANCH  14  15
HETATM   15  C   UNL     1      -7.970  13.716  69.258  1.00  0.00     0.419 A  
HETATM   16  C   UNL     1      -7.968  12.350  68.904  1.00  0.00     0.150 A  
HETATM   17  C   UNL     1      -6.990  14.161  70.161  1.00  0.00     0.210 A  
HETATM   18  C   UNL     1      -6.995  11.480  69.404  1.00  0.00    -0.071 A  
HETATM   19  C   UNL     1      -6.019  11.949  70.277  1.00  0.00    -0.150 A  
HETATM   20  C   UNL     1      -6.025  13.286  70.670  1.00  0.00    -0.089 A  
ENDBRANCH  14  15
BRANCH  14  21
HETATM   21  C   UNL     1      -8.825  16.134  69.048  1.00  0.00    -0.251 A  
HETATM   22  C   UNL     1      -9.423  17.795  70.733  1.00  0.00     4.351 A  
HETATM   23  C   UNL     1      -8.414  18.506  68.657  1.00  0.00    -0.326 A  
HETATM   24  C   UNL     1      -9.350  16.464  70.313  1.00  0.00     1.474 A  
HETATM   25 CL   UNL     1      -9.078  20.450  70.404  1.00  0.00     1.257 Cl 
HETATM   26  C   UNL     1      -8.355  17.176  68.232  1.00  0.00    -0.232 A  
HETATM   27  C   UNL     1      -8.956  18.810  69.902  1.00  0.00     1.210 A  
ENDBRANCH  14  21
ENDBRANCH  11  14
ENDBRANCH   7   8
ENDBRANCH   6   7
ENDBRANCH   5   6
ENDBRANCH   4   5
ENDBRANCH   2   4
TORSDOF 8
ENDMDL
