MODEL        1
REMARK 921   NORMALIZED FREE ENERGY PREDICTED BY IDOCK:   -6.79 KCAL/MOL
REMARK 922        TOTAL FREE ENERGY PREDICTED BY IDOCK:   -8.06 KCAL/MOL
REMARK 923 INTER-LIGAND FREE ENERGY PREDICTED BY IDOCK:   -7.59 KCAL/MOL
REMARK 924 INTRA-LIGAND FREE ENERGY PREDICTED BY IDOCK:   -0.47 KCAL/MOL
REMARK 927      BINDING AFFINITY PREDICTED BY RF-SCORE:    0.00 PKD
ROOT
HETATM    1  C   UNL     1      -6.870  19.771  68.947  1.00  0.00    -0.338 C  
HETATM    2  N   UNL     1      -6.538  19.615  67.538  1.00  0.00    -0.207 NA 
HETATM    3  C   UNL     1      -7.501  20.165  66.584  1.00  0.00    -0.279 C  
HETATM    4  C   UNL     1      -6.883  19.735  65.252  1.00  0.00    -0.291 C  
HETATM    5  C   UNL     1      -6.124  18.454  65.582  1.00  0.00    -0.279 C  
HETATM    6  C   UNL     1      -6.362  18.237  67.078  1.00  0.00    -0.173 C  
HETATM    7  C   UNL     1      -7.601  17.373  67.327  1.00  0.00    -0.214 C  
HETATM    8  C   UNL     1      -8.946  18.080  67.082  1.00  0.00    -0.255 C  
HETATM    9  C   UNL     1      -8.913  19.578  66.746  1.00  0.00    -0.386 C  
ENDROOT
BRANCH   8  10
HETATM   10  O   UNL     1      -9.622  17.332  66.054  1.00  0.00    -0.455 OA 
BRANCH  10  11
HETATM   11  C   UNL     1     -10.432  16.351  66.551  1.00  0.00    -0.282 C  
HETATM   12  C   UNL     1     -10.477  15.184  65.578  1.00  0.00    -0.400 C  
HETATM   13  O   UNL     1     -10.988  16.421  67.638  1.00  0.00    -0.308 OA 
HETATM   14  C   UNL     1     -11.623  15.372  64.582  1.00  0.00    -0.311 C  
HETATM   15  C   UNL     1     -10.554  13.842  66.296  1.00  0.00    -0.289 A  
HETATM   16  C   UNL     1      -9.464  12.958  66.257  1.00  0.00    -0.205 A  
HETATM   17  O   UNL     1     -11.439  16.527  63.764  1.00  0.00    -1.615 OA 
HETATM   18  H   UNL     1     -12.151  16.644  63.146  1.00  0.00     0.000 HD 
HETATM   19  C   UNL     1      -9.536  11.713  66.888  1.00  0.00    -0.199 A  
HETATM   20  C   UNL     1     -10.691  11.341  67.571  1.00  0.00    -0.275 A  
HETATM   21  C   UNL     1     -11.771  12.217  67.637  1.00  0.00    -0.403 A  
HETATM   22  C   UNL     1     -11.702  13.461  67.009  1.00  0.00    -0.426 A  
ENDBRANCH  10  11
ENDBRANCH   8  10
TORSDOF 2
ENDMDL
MODEL        2
REMARK 921   NORMALIZED FREE ENERGY PREDICTED BY IDOCK:   -6.78 KCAL/MOL
REMARK 922        TOTAL FREE ENERGY PREDICTED BY IDOCK:   -8.04 KCAL/MOL
REMARK 923 INTER-LIGAND FREE ENERGY PREDICTED BY IDOCK:   -7.50 KCAL/MOL
REMARK 924 INTRA-LIGAND FREE ENERGY PREDICTED BY IDOCK:   -0.54 KCAL/MOL
REMARK 927      BINDING AFFINITY PREDICTED BY RF-SCORE:    0.00 PKD
ROOT
HETATM    1  C   UNL     1      -7.411  19.501  66.037  1.00  0.00    -0.299 C  
HETATM    2  N   UNL     1      -8.648  19.847  66.721  1.00  0.00    -0.323 NA 
HETATM    3  C   UNL     1      -8.697  19.553  68.153  1.00  0.00    -0.324 C  
HETATM    4  C   UNL     1     -10.136  19.946  68.491  1.00  0.00    -0.538 C  
HETATM    5  C   UNL     1     -10.907  19.716  67.196  1.00  0.00    -0.526 C  
HETATM    6  C   UNL     1      -9.858  19.205  66.206  1.00  0.00    -0.383 C  
HETATM    7  C   UNL     1      -9.765  17.677  66.231  1.00  0.00    -0.275 C  
HETATM    8  C   UNL     1      -9.073  17.087  67.472  1.00  0.00    -0.223 C  
HETATM    9  C   UNL     1      -8.447  18.070  68.473  1.00  0.00    -0.314 C  
ENDROOT
BRANCH   8  10
HETATM   10  O   UNL     1     -10.038  16.236  68.116  1.00  0.00    -0.234 OA 
BRANCH  10  11
HETATM   11  C   UNL     1     -10.059  14.969  67.606  1.00  0.00    -0.231 C  
HETATM   12  C   UNL     1     -11.488  14.582  67.259  1.00  0.00    -0.381 C  
HETATM   13  O   UNL     1      -9.054  14.294  67.432  1.00  0.00    -0.180 OA 
HETATM   14  C   UNL     1     -12.159  13.913  68.460  1.00  0.00    -0.296 C  
HETATM   15  C   UNL     1     -11.559  13.718  66.006  1.00  0.00    -0.361 A  
HETATM   16  C   UNL     1     -12.126  14.229  64.827  1.00  0.00    -0.457 A  
HETATM   17  O   UNL     1     -12.278  14.799  69.572  1.00  0.00    -0.427 OA 
HETATM   18  H   UNL     1     -12.694  14.384  70.318  1.00  0.00     0.000 HD 
HETATM   19  C   UNL     1     -12.222  13.434  63.682  1.00  0.00    -0.480 A  
HETATM   20  C   UNL     1     -11.746  12.125  63.697  1.00  0.00    -0.588 A  
HETATM   21  C   UNL     1     -11.160  11.613  64.852  1.00  0.00    -0.317 A  
HETATM   22  C   UNL     1     -11.062  12.404  65.996  1.00  0.00    -0.344 A  
ENDBRANCH  10  11
ENDBRANCH   8  10
TORSDOF 2
ENDMDL
MODEL        3
REMARK 921   NORMALIZED FREE ENERGY PREDICTED BY IDOCK:   -6.69 KCAL/MOL
REMARK 922        TOTAL FREE ENERGY PREDICTED BY IDOCK:   -7.94 KCAL/MOL
REMARK 923 INTER-LIGAND FREE ENERGY PREDICTED BY IDOCK:   -7.53 KCAL/MOL
REMARK 924 INTRA-LIGAND FREE ENERGY PREDICTED BY IDOCK:   -0.41 KCAL/MOL
REMARK 927      BINDING AFFINITY PREDICTED BY RF-SCORE:    0.00 PKD
ROOT
HETATM    1  C   UNL     1      -7.517  19.394  68.819  1.00  0.00    -0.358 C  
HETATM    2  N   UNL     1      -8.678  19.779  68.031  1.00  0.00    -0.314 NA 
HETATM    3  C   UNL     1      -9.970  19.278  68.500  1.00  0.00    -0.433 C  
HETATM    4  C   UNL     1     -10.906  19.785  67.401  1.00  0.00    -0.440 C  
HETATM    5  C   UNL     1     -10.028  19.849  66.155  1.00  0.00    -0.593 C  
HETATM    6  C   UNL     1      -8.652  19.371  66.625  1.00  0.00    -0.329 C  
HETATM    7  C   UNL     1      -8.499  17.857  66.457  1.00  0.00    -0.284 C  
HETATM    8  C   UNL     1      -9.285  17.007  67.470  1.00  0.00    -0.231 C  
HETATM    9  C   UNL     1     -10.023  17.744  68.598  1.00  0.00    -0.379 C  
ENDROOT
BRANCH   8  10
HETATM   10  O   UNL     1     -10.190  16.189  66.706  1.00  0.00    -0.267 OA 
BRANCH  10  11
HETATM   11  C   UNL     1      -9.831  14.872  66.683  1.00  0.00    -0.260 C  
HETATM   12  C   UNL     1     -11.013  14.028  66.232  1.00  0.00    -0.300 C  
HETATM   13  O   UNL     1      -8.707  14.474  66.953  1.00  0.00    -0.225 OA 
HETATM   14  C   UNL     1     -11.842  13.593  67.442  1.00  0.00    -0.393 C  
HETATM   15  C   UNL     1     -10.577  12.844  65.378  1.00  0.00    -0.308 A  
HETATM   16  C   UNL     1     -10.894  12.807  64.009  1.00  0.00    -0.458 A  
HETATM   17  O   UNL     1     -12.422  14.704  68.123  1.00  0.00    -0.587 OA 
HETATM   18  H   UNL     1     -12.936  14.434  68.875  1.00  0.00     0.000 HD 
HETATM   19  C   UNL     1     -10.524  11.712  63.225  1.00  0.00    -0.438 A  
HETATM   20  C   UNL     1      -9.829  10.647  63.792  1.00  0.00    -0.394 A  
HETATM   21  C   UNL     1      -9.489  10.681  65.142  1.00  0.00    -0.276 A  
HETATM   22  C   UNL     1      -9.855  11.773  65.928  1.00  0.00    -0.265 A  
ENDBRANCH  10  11
ENDBRANCH   8  10
TORSDOF 2
ENDMDL
MODEL        4
REMARK 921   NORMALIZED FREE ENERGY PREDICTED BY IDOCK:   -6.66 KCAL/MOL
REMARK 922        TOTAL FREE ENERGY PREDICTED BY IDOCK:   -7.91 KCAL/MOL
REMARK 923 INTER-LIGAND FREE ENERGY PREDICTED BY IDOCK:   -7.33 KCAL/MOL
REMARK 924 INTRA-LIGAND FREE ENERGY PREDICTED BY IDOCK:   -0.59 KCAL/MOL
REMARK 927      BINDING AFFINITY PREDICTED BY RF-SCORE:    0.00 PKD
ROOT
HETATM    1  C   UNL     1     -13.417  12.615  72.139  1.00  0.00    -0.460 C  
HETATM    2  N   UNL     1     -13.588  13.943  72.709  1.00  0.00    -0.699 NA 
HETATM    3  C   UNL     1     -14.189  14.949  71.834  1.00  0.00    -0.548 C  
HETATM    4  C   UNL     1     -14.114  16.197  72.715  1.00  0.00    -0.031 C  
HETATM    5  C   UNL     1     -12.901  15.960  73.607  1.00  0.00    -0.717 C  
HETATM    6  C   UNL     1     -12.362  14.595  73.174  1.00  0.00    -0.244 C  
HETATM    7  C   UNL     1     -11.316  14.733  72.065  1.00  0.00     0.106 C  
HETATM    8  C   UNL     1     -11.879  15.096  70.681  1.00  0.00    -0.325 C  
HETATM    9  C   UNL     1     -13.407  15.156  70.526  1.00  0.00    -0.200 C  
ENDROOT
BRANCH   8  10
HETATM   10  O   UNL     1     -11.271  16.345  70.304  1.00  0.00    -0.367 OA 
BRANCH  10  11
HETATM   11  C   UNL     1     -11.030  16.439  68.963  1.00  0.00    -0.325 C  
HETATM   12  C   UNL     1     -10.579  15.089  68.429  1.00  0.00    -0.239 C  
HETATM   13  O   UNL     1     -11.200  17.463  68.316  1.00  0.00    -0.142 OA 
HETATM   14  C   UNL     1      -9.056  14.971  68.510  1.00  0.00    -0.188 C  
HETATM   15  C   UNL     1     -11.102  14.827  67.022  1.00  0.00    -0.333 A  
HETATM   16  C   UNL     1     -12.071  13.834  66.803  1.00  0.00    -0.460 A  
HETATM   17  O   UNL     1      -8.586  15.010  69.856  1.00  0.00    -0.430 OA 
HETATM   18  H   UNL     1      -7.639  14.938  69.907  1.00  0.00     0.000 HD 
HETATM   19  C   UNL     1     -12.535  13.566  65.512  1.00  0.00    -0.538 A  
HETATM   20  C   UNL     1     -12.044  14.290  64.428  1.00  0.00    -0.490 A  
HETATM   21  C   UNL     1     -11.101  15.293  64.634  1.00  0.00    -0.346 A  
HETATM   22  C   UNL     1     -10.636  15.563  65.921  1.00  0.00    -0.350 A  
ENDBRANCH  10  11
ENDBRANCH   8  10
TORSDOF 2
ENDMDL
MODEL        5
REMARK 921   NORMALIZED FREE ENERGY PREDICTED BY IDOCK:   -6.53 KCAL/MOL
REMARK 922        TOTAL FREE ENERGY PREDICTED BY IDOCK:   -7.76 KCAL/MOL
REMARK 923 INTER-LIGAND FREE ENERGY PREDICTED BY IDOCK:   -7.04 KCAL/MOL
REMARK 924 INTRA-LIGAND FREE ENERGY PREDICTED BY IDOCK:   -0.72 KCAL/MOL
REMARK 927      BINDING AFFINITY PREDICTED BY RF-SCORE:    0.00 PKD
ROOT
HETATM    1  C   UNL     1     -10.450  19.881  66.152  1.00  0.00    -0.473 C  
HETATM    2  N   UNL     1      -9.237  19.695  66.935  1.00  0.00    -0.332 NA 
HETATM    3  C   UNL     1      -8.335  18.635  66.486  1.00  0.00    -0.291 C  
HETATM    4  C   UNL     1      -7.262  18.672  67.575  1.00  0.00    -0.218 C  
HETATM    5  C   UNL     1      -7.995  19.173  68.814  1.00  0.00    -0.382 C  
HETATM    6  C   UNL     1      -9.438  19.385  68.351  1.00  0.00    -0.374 C  
HETATM    7  C   UNL     1     -10.283  18.125  68.560  1.00  0.00    -0.399 C  
HETATM    8  C   UNL     1      -9.996  16.979  67.574  1.00  0.00    -0.274 C  
HETATM    9  C   UNL     1      -9.009  17.254  66.430  1.00  0.00    -0.282 C  
ENDROOT
BRANCH   8  10
HETATM   10  O   UNL     1      -9.574  15.852  68.364  1.00  0.00    -0.202 OA 
BRANCH  10  11
HETATM   11  C   UNL     1      -9.810  14.653  67.755  1.00  0.00    -0.216 C  
HETATM   12  C   UNL     1     -11.290  14.529  67.428  1.00  0.00    -0.370 C  
HETATM   13  O   UNL     1      -8.932  13.844  67.493  1.00  0.00    -0.178 OA 
HETATM   14  C   UNL     1     -12.035  13.877  68.594  1.00  0.00    -0.366 C  
HETATM   15  C   UNL     1     -11.526  13.796  66.113  1.00  0.00    -0.350 A  
HETATM   16  C   UNL     1     -12.028  14.489  64.999  1.00  0.00    -0.399 A  
HETATM   17  O   UNL     1     -11.985  14.674  69.776  1.00  0.00    -0.293 OA 
HETATM   18  H   UNL     1     -12.447  14.269  70.501  1.00  0.00     0.000 HD 
HETATM   19  C   UNL     1     -12.275  13.819  63.798  1.00  0.00    -0.364 A  
HETATM   20  C   UNL     1     -12.017  12.454  63.692  1.00  0.00    -0.626 A  
HETATM   21  C   UNL     1     -11.497  11.760  64.781  1.00  0.00    -0.281 A  
HETATM   22  C   UNL     1     -11.249  12.426  65.981  1.00  0.00    -0.374 A  
ENDBRANCH  10  11
ENDBRANCH   8  10
TORSDOF 2
ENDMDL
MODEL        6
REMARK 921   NORMALIZED FREE ENERGY PREDICTED BY IDOCK:   -6.51 KCAL/MOL
REMARK 922        TOTAL FREE ENERGY PREDICTED BY IDOCK:   -7.74 KCAL/MOL
REMARK 923 INTER-LIGAND FREE ENERGY PREDICTED BY IDOCK:   -7.26 KCAL/MOL
REMARK 924 INTRA-LIGAND FREE ENERGY PREDICTED BY IDOCK:   -0.48 KCAL/MOL
REMARK 927      BINDING AFFINITY PREDICTED BY RF-SCORE:    0.00 PKD
ROOT
HETATM    1  C   UNL     1      -7.106  18.222  68.833  1.00  0.00    -0.274 C  
HETATM    2  N   UNL     1      -8.098  19.087  68.211  1.00  0.00    -0.311 NA 
HETATM    3  C   UNL     1      -9.453  19.010  68.756  1.00  0.00    -0.382 C  
HETATM    4  C   UNL     1     -10.208  19.951  67.816  1.00  0.00    -0.567 C  
HETATM    5  C   UNL     1      -9.442  19.868  66.500  1.00  0.00    -0.516 C  
HETATM    6  C   UNL     1      -8.303  18.884  66.776  1.00  0.00    -0.281 C  
HETATM    7  C   UNL     1      -8.712  17.448  66.440  1.00  0.00    -0.275 C  
HETATM    8  C   UNL     1      -9.689  16.800  67.436  1.00  0.00    -0.245 C  
HETATM    9  C   UNL     1     -10.046  17.593  68.703  1.00  0.00    -0.377 C  
ENDROOT
BRANCH   8  10
HETATM   10  O   UNL     1     -10.871  16.457  66.690  1.00  0.00    -0.229 OA 
BRANCH  10  11
HETATM   11  C   UNL     1     -11.311  15.188  66.938  1.00  0.00    -0.264 C  
HETATM   12  C   UNL     1     -10.793  14.247  65.861  1.00  0.00    -0.300 C  
HETATM   13  O   UNL     1     -11.986  14.885  67.912  1.00  0.00    -0.317 OA 
HETATM   14  C   UNL     1     -11.791  14.171  64.704  1.00  0.00    -0.431 C  
HETATM   15  C   UNL     1     -10.454  12.871  66.419  1.00  0.00    -0.278 A  
HETATM   16  C   UNL     1      -9.116  12.446  66.484  1.00  0.00    -0.181 A  
HETATM   17  O   UNL     1     -11.951  15.429  64.049  1.00  0.00    -0.904 OA 
HETATM   18  H   UNL     1     -12.571  15.382  63.330  1.00  0.00     0.000 HD 
HETATM   19  C   UNL     1      -8.797  11.174  66.966  1.00  0.00    -0.149 A  
HETATM   20  C   UNL     1      -9.806  10.316  67.396  1.00  0.00    -0.214 A  
HETATM   21  C   UNL     1     -11.134  10.732  67.359  1.00  0.00    -0.363 A  
HETATM   22  C   UNL     1     -11.456  12.001  66.879  1.00  0.00    -0.402 A  
ENDBRANCH  10  11
ENDBRANCH   8  10
TORSDOF 2
ENDMDL
MODEL        7
REMARK 921   NORMALIZED FREE ENERGY PREDICTED BY IDOCK:   -6.44 KCAL/MOL
REMARK 922        TOTAL FREE ENERGY PREDICTED BY IDOCK:   -7.67 KCAL/MOL
REMARK 923 INTER-LIGAND FREE ENERGY PREDICTED BY IDOCK:   -7.22 KCAL/MOL
REMARK 924 INTRA-LIGAND FREE ENERGY PREDICTED BY IDOCK:   -0.45 KCAL/MOL
REMARK 927      BINDING AFFINITY PREDICTED BY RF-SCORE:    0.00 PKD
ROOT
HETATM    1  C   UNL     1      -9.133  11.057  64.789  1.00  0.00    -0.137 C  
HETATM    2  N   UNL     1     -10.351  11.673  64.285  1.00  0.00    -0.295 NA 
HETATM    3  C   UNL     1     -10.360  13.134  64.228  1.00  0.00    -0.339 C  
HETATM    4  C   UNL     1     -11.790  13.408  63.761  1.00  0.00    -0.483 C  
HETATM    5  C   UNL     1     -12.596  12.227  64.292  1.00  0.00    -0.470 C  
HETATM    6  C   UNL     1     -11.573  11.360  65.029  1.00  0.00     0.143 C  
HETATM    7  C   UNL     1     -11.473  11.748  66.507  1.00  0.00    -0.325 C  
HETATM    8  C   UNL     1     -10.744  13.074  66.784  1.00  0.00    -0.262 C  
HETATM    9  C   UNL     1     -10.095  13.793  65.592  1.00  0.00    -0.315 C  
ENDROOT
BRANCH   8  10
HETATM   10  O   UNL     1     -11.688  13.930  67.454  1.00  0.00    -0.345 OA 
BRANCH  10  11
HETATM   11  C   UNL     1     -11.355  14.179  68.754  1.00  0.00    -0.278 C  
HETATM   12  C   UNL     1     -11.985  15.488  69.202  1.00  0.00    -0.331 C  
HETATM   13  O   UNL     1     -10.680  13.420  69.436  1.00  0.00    -0.059 OA 
HETATM   14  C   UNL     1     -11.034  16.654  68.926  1.00  0.00    -0.294 C  
HETATM   15  C   UNL     1     -12.428  15.441  70.659  1.00  0.00    -0.478 A  
HETATM   16  C   UNL     1     -13.796  15.452  70.982  1.00  0.00    -0.361 A  
HETATM   17  O   UNL     1     -10.784  16.824  67.531  1.00  0.00    -0.328 OA 
HETATM   18  H   UNL     1     -10.192  17.547  67.360  1.00  0.00     0.000 HD 
HETATM   19  C   UNL     1     -14.211  15.439  72.316  1.00  0.00    -0.639 A  
HETATM   20  C   UNL     1     -13.269  15.406  73.341  1.00  0.00    -0.570 A  
HETATM   21  C   UNL     1     -11.911  15.371  73.036  1.00  0.00    -0.557 A  
HETATM   22  C   UNL     1     -11.493  15.384  71.705  1.00  0.00    -0.497 A  
ENDBRANCH  10  11
ENDBRANCH   8  10
TORSDOF 2
ENDMDL
MODEL        8
REMARK 921   NORMALIZED FREE ENERGY PREDICTED BY IDOCK:   -6.42 KCAL/MOL
REMARK 922        TOTAL FREE ENERGY PREDICTED BY IDOCK:   -7.65 KCAL/MOL
REMARK 923 INTER-LIGAND FREE ENERGY PREDICTED BY IDOCK:   -7.04 KCAL/MOL
REMARK 924 INTRA-LIGAND FREE ENERGY PREDICTED BY IDOCK:   -0.61 KCAL/MOL
REMARK 927      BINDING AFFINITY PREDICTED BY RF-SCORE:    0.00 PKD
ROOT
HETATM    1  C   UNL     1      -9.456  12.562  66.441  1.00  0.00    -0.233 C  
HETATM    2  N   UNL     1     -10.687  12.996  65.796  1.00  0.00    -0.271 NA 
HETATM    3  C   UNL     1     -10.555  14.066  64.808  1.00  0.00    -0.421 C  
HETATM    4  C   UNL     1     -12.018  14.312  64.435  1.00  0.00    -0.476 C  
HETATM    5  C   UNL     1     -12.798  13.931  65.689  1.00  0.00    -0.467 C  
HETATM    6  C   UNL     1     -11.729  13.496  66.694  1.00  0.00    -0.387 C  
HETATM    7  C   UNL     1     -11.251  14.674  67.547  1.00  0.00    -0.343 C  
HETATM    8  C   UNL     1     -10.343  15.679  66.817  1.00  0.00    -0.287 C  
HETATM    9  C   UNL     1      -9.915  15.341  65.382  1.00  0.00    -0.364 C  
ENDROOT
BRANCH   8  10
HETATM   10  O   UNL     1     -11.012  16.953  66.872  1.00  0.00    -0.092 OA 
BRANCH  10  11
HETATM   11  C   UNL     1     -10.245  17.980  66.404  1.00  0.00    -0.393 C  
HETATM   12  C   UNL     1      -9.016  18.143  67.284  1.00  0.00    -0.248 C  
HETATM   13  O   UNL     1     -10.518  18.625  65.401  1.00  0.00    -0.520 OA 
HETATM   14  C   UNL     1      -9.308  19.121  68.424  1.00  0.00    -0.363 C  
HETATM   15  C   UNL     1      -7.786  18.547  66.481  1.00  0.00    -0.278 A  
HETATM   16  C   UNL     1      -6.721  17.645  66.320  1.00  0.00    -0.317 A  
HETATM   17  O   UNL     1     -10.327  18.638  69.298  1.00  0.00    -0.470 OA 
HETATM   18  H   UNL     1     -10.508  19.245  70.006  1.00  0.00     0.000 HD 
HETATM   19  C   UNL     1      -5.576  18.017  65.610  1.00  0.00    -0.216 A  
HETATM   20  C   UNL     1      -5.485  19.288  65.047  1.00  0.00    -0.227 A  
HETATM   21  C   UNL     1      -6.542  20.183  65.179  1.00  0.00    -0.336 A  
HETATM   22  C   UNL     1      -7.686  19.815  65.886  1.00  0.00    -0.328 A  
ENDBRANCH  10  11
ENDBRANCH   8  10
TORSDOF 2
ENDMDL
MODEL        9
REMARK 921   NORMALIZED FREE ENERGY PREDICTED BY IDOCK:   -6.30 KCAL/MOL
REMARK 922        TOTAL FREE ENERGY PREDICTED BY IDOCK:   -7.51 KCAL/MOL
REMARK 923 INTER-LIGAND FREE ENERGY PREDICTED BY IDOCK:   -7.03 KCAL/MOL
REMARK 924 INTRA-LIGAND FREE ENERGY PREDICTED BY IDOCK:   -0.48 KCAL/MOL
REMARK 927      BINDING AFFINITY PREDICTED BY RF-SCORE:    0.00 PKD
ROOT
HETATM    1  C   UNL     1     -11.934  12.704  63.331  1.00  0.00    -0.528 C  
HETATM    2  N   UNL     1     -11.504  12.274  64.654  1.00  0.00    -0.325 NA 
HETATM    3  C   UNL     1     -12.359  12.675  65.771  1.00  0.00    -0.253 C  
HETATM    4  C   UNL     1     -11.559  12.148  66.964  1.00  0.00    -0.406 C  
HETATM    5  C   UNL     1     -10.109  12.183  66.495  1.00  0.00    -0.229 C  
HETATM    6  C   UNL     1     -10.177  12.731  65.067  1.00  0.00    -0.272 C  
HETATM    7  C   UNL     1     -10.050  14.256  65.047  1.00  0.00    -0.324 C  
HETATM    8  C   UNL     1     -11.292  15.019  65.538  1.00  0.00    -0.312 C  
HETATM    9  C   UNL     1     -12.548  14.198  65.870  1.00  0.00    -0.447 C  
ENDROOT
BRANCH   8  10
HETATM   10  O   UNL     1     -10.873  15.804  66.670  1.00  0.00    -0.310 OA 
BRANCH  10  11
HETATM   11  C   UNL     1     -10.309  16.996  66.315  1.00  0.00    -0.306 C  
HETATM   12  C   UNL     1      -9.201  17.349  67.293  1.00  0.00    -0.234 C  
HETATM   13  O   UNL     1     -10.646  17.634  65.328  1.00  0.00    -0.663 OA 
HETATM   14  C   UNL     1      -9.765  18.170  68.455  1.00  0.00    -0.355 C  
HETATM   15  C   UNL     1      -8.034  18.049  66.609  1.00  0.00    -0.278 A  
HETATM   16  C   UNL     1      -6.795  17.398  66.484  1.00  0.00    -0.289 A  
HETATM   17  O   UNL     1     -10.713  17.432  69.223  1.00  0.00    -0.373 OA 
HETATM   18  H   UNL     1     -11.064  17.942  69.945  1.00  0.00     0.000 HD 
HETATM   19  C   UNL     1      -5.711  18.044  65.884  1.00  0.00    -0.241 A  
HETATM   20  C   UNL     1      -5.852  19.340  65.393  1.00  0.00    -0.231 A  
HETATM   21  C   UNL     1      -7.080  19.988  65.489  1.00  0.00    -0.336 A  
HETATM   22  C   UNL     1      -8.165  19.347  66.087  1.00  0.00    -0.319 A  
ENDBRANCH  10  11
ENDBRANCH   8  10
TORSDOF 2
ENDMDL
MODEL       10
REMARK 921   NORMALIZED FREE ENERGY PREDICTED BY IDOCK:   -6.26 KCAL/MOL
REMARK 922        TOTAL FREE ENERGY PREDICTED BY IDOCK:   -7.46 KCAL/MOL
REMARK 923 INTER-LIGAND FREE ENERGY PREDICTED BY IDOCK:   -6.81 KCAL/MOL
REMARK 924 INTRA-LIGAND FREE ENERGY PREDICTED BY IDOCK:   -0.65 KCAL/MOL
REMARK 927      BINDING AFFINITY PREDICTED BY RF-SCORE:    0.00 PKD
ROOT
HETATM    1  C   UNL     1     -11.294  15.458  67.689  1.00  0.00    -0.290 C  
HETATM    2  N   UNL     1     -11.358  14.807  66.389  1.00  0.00    -0.348 NA 
HETATM    3  C   UNL     1     -12.218  13.628  66.299  1.00  0.00    -0.436 C  
HETATM    4  C   UNL     1     -11.957  13.174  64.862  1.00  0.00    -0.431 C  
HETATM    5  C   UNL     1     -10.536  13.643  64.568  1.00  0.00    -0.428 C  
HETATM    6  C   UNL     1     -10.080  14.330  65.857  1.00  0.00    -0.326 C  
HETATM    7  C   UNL     1      -9.386  13.343  66.800  1.00  0.00    -0.260 C  
HETATM    8  C   UNL     1     -10.323  12.349  67.506  1.00  0.00    -0.215 C  
HETATM    9  C   UNL     1     -11.835  12.524  67.299  1.00  0.00    -0.381 C  
ENDROOT
BRANCH   8  10
HETATM   10  O   UNL     1      -9.896  11.031  67.115  1.00  0.00    -0.179 OA 
BRANCH  10  11
HETATM   11  C   UNL     1     -10.338  10.053  67.959  1.00  0.00    -0.198 C  
HETATM   12  C   UNL     1     -10.070  10.460  69.399  1.00  0.00    -0.251 C  
HETATM   13  O   UNL     1     -10.897   9.034  67.577  1.00  0.00    -0.232 OA 
HETATM   14  C   UNL     1      -8.691   9.963  69.839  1.00  0.00    -0.201 C  
HETATM   15  C   UNL     1     -11.175   9.997  70.340  1.00  0.00    -0.393 A  
HETATM   16  C   UNL     1     -12.028  10.937  70.942  1.00  0.00    -0.416 A  
HETATM   17  O   UNL     1      -7.639  10.562  69.085  1.00  0.00    -0.100 OA 
HETATM   18  H   UNL     1      -6.783  10.253  69.359  1.00  0.00     0.000 HD 
HETATM   19  C   UNL     1     -13.026  10.524  71.829  1.00  0.00    -0.582 A  
HETATM   20  C   UNL     1     -13.190   9.172  72.119  1.00  0.00    -0.524 A  
HETATM   21  C   UNL     1     -12.366   8.228  71.511  1.00  0.00    -0.336 A  
HETATM   22  C   UNL     1     -11.370   8.636  70.625  1.00  0.00    -0.277 A  
ENDBRANCH  10  11
ENDBRANCH   8  10
TORSDOF 2
ENDMDL
MODEL       11
REMARK 921   NORMALIZED FREE ENERGY PREDICTED BY IDOCK:   -6.18 KCAL/MOL
REMARK 922        TOTAL FREE ENERGY PREDICTED BY IDOCK:   -7.38 KCAL/MOL
REMARK 923 INTER-LIGAND FREE ENERGY PREDICTED BY IDOCK:   -6.85 KCAL/MOL
REMARK 924 INTRA-LIGAND FREE ENERGY PREDICTED BY IDOCK:   -0.53 KCAL/MOL
REMARK 927      BINDING AFFINITY PREDICTED BY RF-SCORE:    0.00 PKD
ROOT
HETATM    1  C   UNL     1     -12.453  13.529  65.156  1.00  0.00    -0.451 C  
HETATM    2  N   UNL     1     -11.503  14.188  66.041  1.00  0.00    -0.334 NA 
HETATM    3  C   UNL     1     -10.103  13.792  65.894  1.00  0.00    -0.313 C  
HETATM    4  C   UNL     1      -9.445  14.592  67.020  1.00  0.00    -0.247 C  
HETATM    5  C   UNL     1     -10.542  14.744  68.068  1.00  0.00    -0.244 C  
HETATM    6  C   UNL     1     -11.751  14.018  67.474  1.00  0.00    -0.387 C  
HETATM    7  C   UNL     1     -11.780  12.546  67.892  1.00  0.00    -0.416 C  
HETATM    8  C   UNL     1     -10.737  11.652  67.199  1.00  0.00    -0.247 C  
HETATM    9  C   UNL     1      -9.879  12.284  66.093  1.00  0.00    -0.257 C  
ENDROOT
BRANCH   8  10
HETATM   10  O   UNL     1      -9.913  11.098  68.241  1.00  0.00    -0.174 OA 
BRANCH  10  11
HETATM   11  C   UNL     1     -10.391   9.916  68.730  1.00  0.00    -0.203 C  
HETATM   12  C   UNL     1     -10.414   9.963  70.250  1.00  0.00    -0.348 C  
HETATM   13  O   UNL     1     -10.772   8.996  68.020  1.00  0.00    -0.208 OA 
HETATM   14  C   UNL     1      -9.087   9.449  70.813  1.00  0.00    -0.204 C  
HETATM   15  C   UNL     1     -11.611   9.218  70.828  1.00  0.00    -0.345 A  
HETATM   16  C   UNL     1     -12.644   9.927  71.463  1.00  0.00    -0.513 A  
HETATM   17  O   UNL     1      -7.987  10.275  70.435  1.00  0.00    -0.423 OA 
HETATM   18  H   UNL     1      -7.163   9.956  70.784  1.00  0.00     0.000 HD 
HETATM   19  C   UNL     1     -13.731   9.250  72.022  1.00  0.00    -0.493 A  
HETATM   20  C   UNL     1     -13.804   7.862  71.946  1.00  0.00    -0.402 A  
HETATM   21  C   UNL     1     -12.799   7.148  71.300  1.00  0.00    -0.399 A  
HETATM   22  C   UNL     1     -11.713   7.820  70.740  1.00  0.00    -0.242 A  
ENDBRANCH  10  11
ENDBRANCH   8  10
TORSDOF 2
ENDMDL
MODEL       12
REMARK 921   NORMALIZED FREE ENERGY PREDICTED BY IDOCK:   -6.15 KCAL/MOL
REMARK 922        TOTAL FREE ENERGY PREDICTED BY IDOCK:   -7.34 KCAL/MOL
REMARK 923 INTER-LIGAND FREE ENERGY PREDICTED BY IDOCK:   -6.96 KCAL/MOL
REMARK 924 INTRA-LIGAND FREE ENERGY PREDICTED BY IDOCK:   -0.38 KCAL/MOL
REMARK 927      BINDING AFFINITY PREDICTED BY RF-SCORE:    0.00 PKD
ROOT
HETATM    1  C   UNL     1     -12.126   6.723  71.556  1.00  0.00    -0.363 C  
HETATM    2  N   UNL     1     -10.736   7.119  71.730  1.00  0.00    -0.215 NA 
HETATM    3  C   UNL     1     -10.509   8.485  72.200  1.00  0.00    -0.342 C  
HETATM    4  C   UNL     1      -8.981   8.565  72.165  1.00  0.00    -0.300 C  
HETATM    5  C   UNL     1      -8.577   7.597  71.057  1.00  0.00    -0.131 C  
HETATM    6  C   UNL     1      -9.899   7.033  70.532  1.00  0.00    -0.179 C  
HETATM    7  C   UNL     1     -10.445   7.874  69.375  1.00  0.00    -0.222 C  
HETATM    8  C   UNL     1     -11.036   9.235  69.782  1.00  0.00    -0.196 C  
HETATM    9  C   UNL     1     -11.132   9.550  71.282  1.00  0.00    -0.449 C  
ENDROOT
BRANCH   8  10
HETATM   10  O   UNL     1     -10.271  10.239  69.090  1.00  0.00    -0.193 OA 
BRANCH  10  11
HETATM   11  C   UNL     1     -11.042  11.065  68.323  1.00  0.00    -0.257 C  
HETATM   12  C   UNL     1     -10.172  11.767  67.293  1.00  0.00    -0.226 C  
HETATM   13  O   UNL     1     -12.255  11.168  68.451  1.00  0.00    -0.610 OA 
HETATM   14  C   UNL     1      -9.645  13.086  67.860  1.00  0.00    -0.215 C  
HETATM   15  C   UNL     1     -10.898  11.960  65.967  1.00  0.00    -0.342 A  
HETATM   16  C   UNL     1     -10.492  11.243  64.830  1.00  0.00    -0.384 A  
HETATM   17  O   UNL     1      -8.792  12.884  68.986  1.00  0.00    -0.331 OA 
HETATM   18  H   UNL     1      -8.464  13.704  69.338  1.00  0.00     0.000 HD 
HETATM   19  C   UNL     1     -11.133  11.435  63.603  1.00  0.00    -0.411 A  
HETATM   20  C   UNL     1     -12.189  12.338  63.499  1.00  0.00    -0.669 A  
HETATM   21  C   UNL     1     -12.616  13.038  64.623  1.00  0.00    -0.425 A  
HETATM   22  C   UNL     1     -11.980  12.848  65.850  1.00  0.00    -0.504 A  
ENDBRANCH  10  11
ENDBRANCH   8  10
TORSDOF 2
ENDMDL
MODEL       13
REMARK 921   NORMALIZED FREE ENERGY PREDICTED BY IDOCK:   -6.13 KCAL/MOL
REMARK 922        TOTAL FREE ENERGY PREDICTED BY IDOCK:   -7.32 KCAL/MOL
REMARK 923 INTER-LIGAND FREE ENERGY PREDICTED BY IDOCK:   -6.75 KCAL/MOL
REMARK 924 INTRA-LIGAND FREE ENERGY PREDICTED BY IDOCK:   -0.57 KCAL/MOL
REMARK 927      BINDING AFFINITY PREDICTED BY RF-SCORE:    0.00 PKD
ROOT
HETATM    1  C   UNL     1     -11.995  12.668  64.877  1.00  0.00    -0.406 C  
HETATM    2  N   UNL     1     -11.937  12.102  66.217  1.00  0.00    -0.613 NA 
HETATM    3  C   UNL     1     -12.126  13.041  67.322  1.00  0.00    -0.245 C  
HETATM    4  C   UNL     1     -11.904  12.131  68.531  1.00  0.00    -0.365 C  
HETATM    5  C   UNL     1     -10.949  11.055  68.026  1.00  0.00    -0.312 C  
HETATM    6  C   UNL     1     -10.687  11.425  66.564  1.00  0.00    -0.277 C  
HETATM    7  C   UNL     1      -9.467  12.341  66.430  1.00  0.00    -0.240 C  
HETATM    8  C   UNL     1      -9.690  13.791  66.894  1.00  0.00    -0.265 C  
HETATM    9  C   UNL     1     -11.111  14.196  67.314  1.00  0.00    -0.315 C  
ENDROOT
BRANCH   8  10
HETATM   10  O   UNL     1      -8.747  14.033  67.955  1.00  0.00    -0.162 OA 
BRANCH  10  11
HETATM   11  C   UNL     1      -8.774  15.319  68.412  1.00  0.00    -0.170 C  
HETATM   12  C   UNL     1      -8.298  16.261  67.317  1.00  0.00    -0.203 C  
HETATM   13  O   UNL     1      -9.165  15.632  69.528  1.00  0.00    -0.272 OA 
HETATM   14  C   UNL     1      -6.782  16.452  67.408  1.00  0.00    -0.169 C  
HETATM   15  C   UNL     1      -9.047  17.587  67.336  1.00  0.00    -0.237 A  
HETATM   16  C   UNL     1      -9.935  17.911  66.297  1.00  0.00    -0.333 A  
HETATM   17  O   UNL     1      -6.073  15.236  67.182  1.00  0.00    -0.292 OA 
HETATM   18  H   UNL     1      -5.132  15.355  67.239  1.00  0.00     0.000 HD 
HETATM   19  C   UNL     1     -10.604  19.138  66.292  1.00  0.00    -0.521 A  
HETATM   20  C   UNL     1     -10.403  20.050  67.325  1.00  0.00    -0.550 A  
HETATM   21  C   UNL     1      -9.544  19.732  68.373  1.00  0.00    -0.454 A  
HETATM   22  C   UNL     1      -8.874  18.508  68.382  1.00  0.00    -0.346 A  
ENDBRANCH  10  11
ENDBRANCH   8  10
TORSDOF 2
ENDMDL
MODEL       14
REMARK 921   NORMALIZED FREE ENERGY PREDICTED BY IDOCK:   -6.10 KCAL/MOL
REMARK 922        TOTAL FREE ENERGY PREDICTED BY IDOCK:   -7.29 KCAL/MOL
REMARK 923 INTER-LIGAND FREE ENERGY PREDICTED BY IDOCK:   -7.00 KCAL/MOL
REMARK 924 INTRA-LIGAND FREE ENERGY PREDICTED BY IDOCK:   -0.29 KCAL/MOL
REMARK 927      BINDING AFFINITY PREDICTED BY RF-SCORE:    0.00 PKD
ROOT
HETATM    1  C   UNL     1     -12.639  12.125  63.362  1.00  0.00    -0.463 C  
HETATM    2  N   UNL     1     -12.029  11.731  64.623  1.00  0.00    -0.156 NA 
HETATM    3  C   UNL     1     -12.367  12.551  65.786  1.00  0.00    -0.153 C  
HETATM    4  C   UNL     1     -11.489  11.916  66.866  1.00  0.00    -0.390 C  
HETATM    5  C   UNL     1     -10.293  11.358  66.103  1.00  0.00    -0.294 C  
HETATM    6  C   UNL     1     -10.565  11.714  64.640  1.00  0.00    -0.312 C  
HETATM    7  C   UNL     1      -9.959  13.071  64.273  1.00  0.00    -0.085 C  
HETATM    8  C   UNL     1     -10.702  14.291  64.845  1.00  0.00    -0.432 C  
HETATM    9  C   UNL     1     -12.015  14.036  65.600  1.00  0.00    -0.408 C  
ENDROOT
BRANCH   8  10
HETATM   10  O   UNL     1      -9.758  14.997  65.671  1.00  0.00    -0.339 OA 
BRANCH  10  11
HETATM   11  C   UNL     1     -10.100  16.303  65.878  1.00  0.00    -0.357 C  
HETATM   12  C   UNL     1      -9.674  16.729  67.273  1.00  0.00    -0.250 C  
HETATM   13  O   UNL     1     -10.633  17.004  65.029  1.00  0.00    -0.703 OA 
HETATM   14  C   UNL     1     -10.802  16.465  68.273  1.00  0.00    -0.347 C  
HETATM   15  C   UNL     1      -9.199  18.176  67.311  1.00  0.00    -0.252 A  
HETATM   16  C   UNL     1      -7.845  18.470  67.539  1.00  0.00    -0.241 A  
HETATM   17  O   UNL     1     -11.103  15.075  68.388  1.00  0.00    -0.255 OA 
HETATM   18  H   UNL     1     -11.804  14.912  69.008  1.00  0.00     0.000 HD 
HETATM   19  C   UNL     1      -7.406  19.795  67.604  1.00  0.00    -0.306 A  
HETATM   20  C   UNL     1      -8.310  20.840  67.433  1.00  0.00    -0.216 A  
HETATM   21  C   UNL     1      -9.652  20.564  67.184  1.00  0.00    -0.570 A  
HETATM   22  C   UNL     1     -10.093  19.243  67.117  1.00  0.00    -0.473 A  
ENDBRANCH  10  11
ENDBRANCH   8  10
TORSDOF 2
ENDMDL
MODEL       15
REMARK 921   NORMALIZED FREE ENERGY PREDICTED BY IDOCK:   -6.05 KCAL/MOL
REMARK 922        TOTAL FREE ENERGY PREDICTED BY IDOCK:   -7.23 KCAL/MOL
REMARK 923 INTER-LIGAND FREE ENERGY PREDICTED BY IDOCK:   -6.83 KCAL/MOL
REMARK 924 INTRA-LIGAND FREE ENERGY PREDICTED BY IDOCK:   -0.40 KCAL/MOL
REMARK 927      BINDING AFFINITY PREDICTED BY RF-SCORE:    0.00 PKD
ROOT
HETATM    1  C   UNL     1     -12.077   6.669  71.019  1.00  0.00    -0.327 C  
HETATM    2  N   UNL     1     -10.759   7.188  71.353  1.00  0.00    -0.224 NA 
HETATM    3  C   UNL     1     -10.731   8.435  72.116  1.00  0.00    -0.337 C  
HETATM    4  C   UNL     1      -9.228   8.711  72.186  1.00  0.00    -0.326 C  
HETATM    5  C   UNL     1      -8.665   8.069  70.923  1.00  0.00    -0.143 C  
HETATM    6  C   UNL     1      -9.884   7.473  70.215  1.00  0.00    -0.183 C  
HETATM    7  C   UNL     1     -10.505   8.471  69.234  1.00  0.00    -0.224 C  
HETATM    8  C   UNL     1     -11.285   9.625  69.888  1.00  0.00    -0.207 C  
HETATM    9  C   UNL     1     -11.466   9.589  71.413  1.00  0.00    -0.462 C  
ENDROOT
BRANCH   8  10
HETATM   10  O   UNL     1     -10.643  10.844  69.471  1.00  0.00    -0.229 OA 
BRANCH  10  11
HETATM   11  C   UNL     1     -11.346  11.519  68.515  1.00  0.00    -0.277 C  
HETATM   12  C   UNL     1     -11.100  13.012  68.657  1.00  0.00    -0.305 C  
HETATM   13  O   UNL     1     -12.030  10.967  67.664  1.00  0.00    -0.583 OA 
HETATM   14  C   UNL     1     -12.137  13.631  69.598  1.00  0.00    -0.321 C  
HETATM   15  C   UNL     1     -11.056  13.717  67.307  1.00  0.00    -0.309 A  
HETATM   16  C   UNL     1      -9.847  14.247  66.827  1.00  0.00    -0.274 A  
HETATM   17  O   UNL     1     -12.036  13.113  70.923  1.00  0.00    -0.484 OA 
HETATM   18  H   UNL     1     -12.680  13.497  71.507  1.00  0.00     0.000 HD 
HETATM   19  C   UNL     1      -9.803  14.920  65.603  1.00  0.00    -0.372 A  
HETATM   20  C   UNL     1     -10.960  15.065  64.842  1.00  0.00    -0.427 A  
HETATM   21  C   UNL     1     -12.161  14.524  65.295  1.00  0.00    -0.337 A  
HETATM   22  C   UNL     1     -12.208  13.851  66.516  1.00  0.00    -0.482 A  
ENDBRANCH  10  11
ENDBRANCH   8  10
TORSDOF 2
ENDMDL
MODEL       16
REMARK 921   NORMALIZED FREE ENERGY PREDICTED BY IDOCK:   -6.01 KCAL/MOL
REMARK 922        TOTAL FREE ENERGY PREDICTED BY IDOCK:   -7.18 KCAL/MOL
REMARK 923 INTER-LIGAND FREE ENERGY PREDICTED BY IDOCK:   -6.92 KCAL/MOL
REMARK 924 INTRA-LIGAND FREE ENERGY PREDICTED BY IDOCK:   -0.26 KCAL/MOL
REMARK 927      BINDING AFFINITY PREDICTED BY RF-SCORE:    0.00 PKD
ROOT
HETATM    1  C   UNL     1      -8.589  19.652  66.169  1.00  0.00    -0.333 C  
HETATM    2  N   UNL     1      -7.699  18.863  67.007  1.00  0.00    -0.228 NA 
HETATM    3  C   UNL     1      -7.388  17.516  66.529  1.00  0.00    -0.270 C  
HETATM    4  C   UNL     1      -6.539  16.976  67.682  1.00  0.00    -0.163 C  
HETATM    5  C   UNL     1      -7.051  17.721  68.910  1.00  0.00    -0.262 C  
HETATM    6  C   UNL     1      -8.159  18.632  68.378  1.00  0.00    -0.333 C  
HETATM    7  C   UNL     1      -9.524  17.942  68.429  1.00  0.00    -0.304 C  
HETATM    8  C   UNL     1      -9.738  16.845  67.371  1.00  0.00    -0.247 C  
HETATM    9  C   UNL     1      -8.638  16.647  66.317  1.00  0.00    -0.359 C  
ENDROOT
BRANCH   8  10
HETATM   10  O   UNL     1      -9.993  15.624  68.090  1.00  0.00    -0.215 OA 
BRANCH  10  11
HETATM   11  C   UNL     1     -11.222  15.599  68.683  1.00  0.00    -0.338 C  
HETATM   12  C   UNL     1     -11.211  14.615  69.842  1.00  0.00    -0.271 C  
HETATM   13  O   UNL     1     -12.156  16.306  68.332  1.00  0.00     0.050 OA 
HETATM   14  C   UNL     1     -11.620  13.223  69.355  1.00  0.00    -0.305 C  
HETATM   15  C   UNL     1     -12.070  15.092  71.006  1.00  0.00    -0.381 A  
HETATM   16  C   UNL     1     -11.468  15.483  72.214  1.00  0.00    -0.496 A  
HETATM   17  O   UNL     1     -10.692  12.691  68.411  1.00  0.00    -0.227 OA 
HETATM   18  H   UNL     1     -10.946  11.826  68.109  1.00  0.00     0.000 HD 
HETATM   19  C   UNL     1     -12.250  15.893  73.297  1.00  0.00    -0.625 A  
HETATM   20  C   UNL     1     -13.638  15.927  73.186  1.00  0.00    -0.580 A  
HETATM   21  C   UNL     1     -14.247  15.565  71.987  1.00  0.00    -0.606 A  
HETATM   22  C   UNL     1     -13.469  15.155  70.904  1.00  0.00    -0.432 A  
ENDBRANCH  10  11
ENDBRANCH   8  10
TORSDOF 2
ENDMDL
MODEL       17
REMARK 921   NORMALIZED FREE ENERGY PREDICTED BY IDOCK:   -5.95 KCAL/MOL
REMARK 922        TOTAL FREE ENERGY PREDICTED BY IDOCK:   -7.11 KCAL/MOL
REMARK 923 INTER-LIGAND FREE ENERGY PREDICTED BY IDOCK:   -6.41 KCAL/MOL
REMARK 924 INTRA-LIGAND FREE ENERGY PREDICTED BY IDOCK:   -0.70 KCAL/MOL
REMARK 927      BINDING AFFINITY PREDICTED BY RF-SCORE:    0.00 PKD
ROOT
HETATM    1  C   UNL     1      -8.107   6.531  66.550  1.00  0.00    -0.111 C  
HETATM    2  N   UNL     1      -8.938   6.228  67.706  1.00  0.00    -0.114 NA 
HETATM    3  C   UNL     1     -10.359   6.549  67.579  1.00  0.00    -0.201 C  
HETATM    4  C   UNL     1     -10.871   6.199  68.978  1.00  0.00    -0.416 C  
HETATM    5  C   UNL     1      -9.670   6.426  69.889  1.00  0.00    -0.185 C  
HETATM    6  C   UNL     1      -8.554   6.893  68.952  1.00  0.00    -0.131 C  
HETATM    7  C   UNL     1      -8.537   8.418  68.821  1.00  0.00    -0.135 C  
HETATM    8  C   UNL     1      -9.676   9.011  67.974  1.00  0.00    -0.155 C  
HETATM    9  C   UNL     1     -10.618   8.030  67.258  1.00  0.00    -0.360 C  
ENDROOT
BRANCH   8  10
HETATM   10  O   UNL     1     -10.412   9.899  68.837  1.00  0.00    -0.193 OA 
BRANCH  10  11
HETATM   11  C   UNL     1     -11.078  10.876  68.155  1.00  0.00    -0.280 C  
HETATM   12  C   UNL     1     -10.141  11.529  67.152  1.00  0.00    -0.223 C  
HETATM   13  O   UNL     1     -12.262  11.133  68.327  1.00  0.00    -0.613 OA 
HETATM   14  C   UNL     1      -9.425  12.719  67.795  1.00  0.00    -0.205 C  
HETATM   15  C   UNL     1     -10.860  11.918  65.866  1.00  0.00    -0.342 A  
HETATM   16  C   UNL     1     -10.581  11.240  64.668  1.00  0.00    -0.392 A  
HETATM   17  O   UNL     1      -8.585  12.319  68.877  1.00  0.00    -0.365 OA 
HETATM   18  H   UNL     1      -8.141  13.058  69.276  1.00  0.00     0.000 HD 
HETATM   19  C   UNL     1     -11.214  11.609  63.479  1.00  0.00    -0.462 A  
HETATM   20  C   UNL     1     -12.138  12.651  63.471  1.00  0.00    -0.648 A  
HETATM   21  C   UNL     1     -12.441  13.317  64.656  1.00  0.00    -0.408 A  
HETATM   22  C   UNL     1     -11.812  12.951  65.845  1.00  0.00    -0.476 A  
ENDBRANCH  10  11
ENDBRANCH   8  10
TORSDOF 2
ENDMDL
MODEL       18
REMARK 921   NORMALIZED FREE ENERGY PREDICTED BY IDOCK:   -5.89 KCAL/MOL
REMARK 922        TOTAL FREE ENERGY PREDICTED BY IDOCK:   -7.05 KCAL/MOL
REMARK 923 INTER-LIGAND FREE ENERGY PREDICTED BY IDOCK:   -6.74 KCAL/MOL
REMARK 924 INTRA-LIGAND FREE ENERGY PREDICTED BY IDOCK:   -0.31 KCAL/MOL
REMARK 927      BINDING AFFINITY PREDICTED BY RF-SCORE:    0.00 PKD
ROOT
HETATM    1  C   UNL     1     -11.537  12.383  64.782  1.00  0.00    -0.341 C  
HETATM    2  N   UNL     1     -11.664  12.418  66.232  1.00  0.00    -0.472 NA 
HETATM    3  C   UNL     1     -12.118  13.683  66.808  1.00  0.00    -0.399 C  
HETATM    4  C   UNL     1     -12.033  13.379  68.305  1.00  0.00    -0.352 C  
HETATM    5  C   UNL     1     -10.919  12.344  68.419  1.00  0.00    -0.272 C  
HETATM    6  C   UNL     1     -10.440  12.129  66.981  1.00  0.00    -0.220 C  
HETATM    7  C   UNL     1      -9.297  13.083  66.625  1.00  0.00    -0.242 C  
HETATM    8  C   UNL     1      -9.715  14.547  66.407  1.00  0.00    -0.296 C  
HETATM    9  C   UNL     1     -11.215  14.873  66.441  1.00  0.00    -0.331 C  
ENDROOT
BRANCH   8  10
HETATM   10  O   UNL     1      -8.992  15.330  67.375  1.00  0.00    -0.173 OA 
BRANCH  10  11
HETATM   11  C   UNL     1      -8.841  16.635  67.002  1.00  0.00    -0.199 C  
HETATM   12  C   UNL     1      -8.875  17.526  68.234  1.00  0.00    -0.274 C  
HETATM   13  O   UNL     1      -8.668  16.991  65.845  1.00  0.00    -0.524 OA 
HETATM   14  C   UNL     1     -10.311  17.965  68.527  1.00  0.00    -0.360 C  
HETATM   15  C   UNL     1      -7.925  18.710  68.110  1.00  0.00    -0.312 A  
HETATM   16  C   UNL     1      -6.779  18.783  68.918  1.00  0.00    -0.303 A  
HETATM   17  O   UNL     1     -11.156  16.861  68.847  1.00  0.00    -0.262 OA 
HETATM   18  H   UNL     1     -12.048  17.134  69.029  1.00  0.00     0.000 HD 
HETATM   19  C   UNL     1      -5.918  19.880  68.832  1.00  0.00    -0.298 A  
HETATM   20  C   UNL     1      -6.185  20.911  67.935  1.00  0.00    -0.393 A  
HETATM   21  C   UNL     1      -7.305  20.841  67.111  1.00  0.00    -0.385 A  
HETATM   22  C   UNL     1      -8.167  19.747  67.194  1.00  0.00    -0.335 A  
ENDBRANCH  10  11
ENDBRANCH   8  10
TORSDOF 2
ENDMDL
MODEL       19
REMARK 921   NORMALIZED FREE ENERGY PREDICTED BY IDOCK:   -5.89 KCAL/MOL
REMARK 922        TOTAL FREE ENERGY PREDICTED BY IDOCK:   -7.05 KCAL/MOL
REMARK 923 INTER-LIGAND FREE ENERGY PREDICTED BY IDOCK:   -6.34 KCAL/MOL
REMARK 924 INTRA-LIGAND FREE ENERGY PREDICTED BY IDOCK:   -0.71 KCAL/MOL
REMARK 927      BINDING AFFINITY PREDICTED BY RF-SCORE:    0.00 PKD
ROOT
HETATM    1  C   UNL     1      -9.914   8.252  66.679  1.00  0.00    -0.278 C  
HETATM    2  N   UNL     1      -8.783   8.820  65.959  1.00  0.00    -0.156 NA 
HETATM    3  C   UNL     1      -8.077   9.912  66.628  1.00  0.00    -0.117 C  
HETATM    4  C   UNL     1      -7.052  10.304  65.561  1.00  0.00    -0.142 C  
HETATM    5  C   UNL     1      -7.724   9.945  64.240  1.00  0.00    -0.139 C  
HETATM    6  C   UNL     1      -9.087   9.376  64.640  1.00  0.00    -0.173 C  
HETATM    7  C   UNL     1     -10.155  10.471  64.698  1.00  0.00    -0.408 C  
HETATM    8  C   UNL     1     -10.049  11.419  65.906  1.00  0.00    -0.243 C  
HETATM    9  C   UNL     1      -8.989  11.101  66.971  1.00  0.00    -0.156 C  
ENDROOT
BRANCH   8  10
HETATM   10  O   UNL     1      -9.868  12.745  65.374  1.00  0.00    -0.229 OA 
BRANCH  10  11
HETATM   11  C   UNL     1     -10.269  13.726  66.235  1.00  0.00    -0.297 C  
HETATM   12  C   UNL     1     -11.667  13.416  66.748  1.00  0.00    -0.429 C  
HETATM   13  O   UNL     1      -9.566  14.675  66.553  1.00  0.00    -0.261 OA 
HETATM   14  C   UNL     1     -12.716  14.045  65.829  1.00  0.00    -0.450 C  
HETATM   15  C   UNL     1     -11.850  13.834  68.201  1.00  0.00    -0.411 A  
HETATM   16  C   UNL     1     -11.997  12.861  69.203  1.00  0.00    -0.308 A  
HETATM   17  O   UNL     1     -12.677  13.496  64.513  1.00  0.00    -0.635 OA 
HETATM   18  H   UNL     1     -13.328  13.887  63.943  1.00  0.00     0.000 HD 
HETATM   19  C   UNL     1     -12.195  13.236  70.534  1.00  0.00    -0.416 A  
HETATM   20  C   UNL     1     -12.239  14.584  70.883  1.00  0.00    -0.409 A  
HETATM   21  C   UNL     1     -12.071  15.559  69.903  1.00  0.00    -0.378 A  
HETATM   22  C   UNL     1     -11.873  15.188  68.574  1.00  0.00    -0.307 A  
ENDBRANCH  10  11
ENDBRANCH   8  10
TORSDOF 2
ENDMDL
MODEL       20
REMARK 921   NORMALIZED FREE ENERGY PREDICTED BY IDOCK:   -5.84 KCAL/MOL
REMARK 922        TOTAL FREE ENERGY PREDICTED BY IDOCK:   -7.00 KCAL/MOL
REMARK 923 INTER-LIGAND FREE ENERGY PREDICTED BY IDOCK:   -6.58 KCAL/MOL
REMARK 924 INTRA-LIGAND FREE ENERGY PREDICTED BY IDOCK:   -0.42 KCAL/MOL
REMARK 927      BINDING AFFINITY PREDICTED BY RF-SCORE:    0.00 PKD
ROOT
HETATM    1  C   UNL     1      -9.164  12.207  66.098  1.00  0.00    -0.155 C  
HETATM    2  N   UNL     1     -10.442  12.788  66.482  1.00  0.00    -0.260 NA 
HETATM    3  C   UNL     1     -11.041  13.718  65.526  1.00  0.00    -0.298 C  
HETATM    4  C   UNL     1     -12.279  14.183  66.295  1.00  0.00    -0.474 C  
HETATM    5  C   UNL     1     -11.880  14.067  67.762  1.00  0.00    -0.419 C  
HETATM    6  C   UNL     1     -10.441  13.548  67.733  1.00  0.00    -0.240 C  
HETATM    7  C   UNL     1      -9.431  14.699  67.717  1.00  0.00    -0.205 C  
HETATM    8  C   UNL     1      -9.326  15.453  66.380  1.00  0.00    -0.299 C  
HETATM    9  C   UNL     1     -10.128  14.908  65.189  1.00  0.00    -0.354 C  
ENDROOT
BRANCH   8  10
HETATM   10  O   UNL     1      -9.669  16.824  66.653  1.00  0.00    -0.245 OA 
BRANCH  10  11
HETATM   11  C   UNL     1      -8.622  17.683  66.477  1.00  0.00    -0.259 C  
HETATM   12  C   UNL     1      -8.865  18.956  67.272  1.00  0.00    -0.297 C  
HETATM   13  O   UNL     1      -7.635  17.416  65.805  1.00  0.00    -0.484 OA 
HETATM   14  C   UNL     1      -9.612  19.979  66.414  1.00  0.00    -0.421 C  
HETATM   15  C   UNL     1      -7.576  19.524  67.853  1.00  0.00    -0.324 A  
HETATM   16  C   UNL     1      -7.357  19.501  69.240  1.00  0.00    -0.311 A  
HETATM   17  O   UNL     1     -10.911  19.522  66.043  1.00  0.00    -0.351 OA 
HETATM   18  H   UNL     1     -11.375  20.158  65.509  1.00  0.00     0.000 HD 
HETATM   19  C   UNL     1      -6.191  20.046  69.784  1.00  0.00    -0.392 A  
HETATM   20  C   UNL     1      -5.228  20.611  68.951  1.00  0.00    -0.321 A  
HETATM   21  C   UNL     1      -5.421  20.619  67.572  1.00  0.00    -0.237 A  
HETATM   22  C   UNL     1      -6.584  20.075  67.026  1.00  0.00    -0.237 A  
ENDBRANCH  10  11
ENDBRANCH   8  10
TORSDOF 2
ENDMDL
MODEL       21
REMARK 921   NORMALIZED FREE ENERGY PREDICTED BY IDOCK:   -5.83 KCAL/MOL
REMARK 922        TOTAL FREE ENERGY PREDICTED BY IDOCK:   -6.99 KCAL/MOL
REMARK 923 INTER-LIGAND FREE ENERGY PREDICTED BY IDOCK:   -6.51 KCAL/MOL
REMARK 924 INTRA-LIGAND FREE ENERGY PREDICTED BY IDOCK:   -0.48 KCAL/MOL
REMARK 927      BINDING AFFINITY PREDICTED BY RF-SCORE:    0.00 PKD
ROOT
HETATM    1  C   UNL     1      -9.327   8.288  72.814  1.00  0.00    -0.268 C  
HETATM    2  N   UNL     1     -10.470   7.652  72.176  1.00  0.00    -0.211 NA 
HETATM    3  C   UNL     1     -10.250   7.138  70.825  1.00  0.00    -0.197 C  
HETATM    4  C   UNL     1     -11.653   6.650  70.458  1.00  0.00    -0.448 C  
HETATM    5  C   UNL     1     -12.589   7.549  71.259  1.00  0.00    -0.345 C  
HETATM    6  C   UNL     1     -11.659   8.491  72.026  1.00  0.00    -0.362 C  
HETATM    7  C   UNL     1     -11.377   9.768  71.230  1.00  0.00    -0.445 C  
HETATM    8  C   UNL     1     -10.426   9.592  70.033  1.00  0.00    -0.261 C  
HETATM    9  C   UNL     1      -9.772   8.216  69.839  1.00  0.00    -0.176 C  
ENDROOT
BRANCH   8  10
HETATM   10  O   UNL     1     -11.163   9.986  68.861  1.00  0.00    -0.209 OA 
BRANCH  10  11
HETATM   11  C   UNL     1     -10.541  10.965  68.141  1.00  0.00    -0.198 C  
HETATM   12  C   UNL     1     -11.031  10.933  66.703  1.00  0.00    -0.212 C  
HETATM   13  O   UNL     1      -9.743  11.755  68.626  1.00  0.00    -0.191 OA 
HETATM   14  C   UNL     1     -10.147  10.008  65.864  1.00  0.00    -0.249 C  
HETATM   15  C   UNL     1     -11.135  12.329  66.102  1.00  0.00    -0.349 A  
HETATM   16  C   UNL     1     -12.393  12.880  65.809  1.00  0.00    -0.437 A  
HETATM   17  O   UNL     1     -10.216   8.653  66.307  1.00  0.00    -0.403 OA 
HETATM   18  H   UNL     1      -9.666   8.079  65.786  1.00  0.00     0.000 HD 
HETATM   19  C   UNL     1     -12.497  14.148  65.231  1.00  0.00    -0.474 A  
HETATM   20  C   UNL     1     -11.348  14.883  64.947  1.00  0.00    -0.415 A  
HETATM   21  C   UNL     1     -10.095  14.359  65.253  1.00  0.00    -0.387 A  
HETATM   22  C   UNL     1      -9.989  13.094  65.830  1.00  0.00    -0.275 A  
ENDBRANCH  10  11
ENDBRANCH   8  10
TORSDOF 2
ENDMDL
MODEL       22
REMARK 921   NORMALIZED FREE ENERGY PREDICTED BY IDOCK:   -5.73 KCAL/MOL
REMARK 922        TOTAL FREE ENERGY PREDICTED BY IDOCK:   -6.87 KCAL/MOL
REMARK 923 INTER-LIGAND FREE ENERGY PREDICTED BY IDOCK:   -6.15 KCAL/MOL
REMARK 924 INTRA-LIGAND FREE ENERGY PREDICTED BY IDOCK:   -0.72 KCAL/MOL
REMARK 927      BINDING AFFINITY PREDICTED BY RF-SCORE:    0.00 PKD
ROOT
HETATM    1  C   UNL     1     -11.611  11.916  67.726  1.00  0.00    -0.323 C  
HETATM    2  N   UNL     1     -11.683  12.212  66.303  1.00  0.00    -0.544 NA 
HETATM    3  C   UNL     1     -10.408  12.455  65.629  1.00  0.00    -0.258 C  
HETATM    4  C   UNL     1     -10.877  12.820  64.220  1.00  0.00    -0.419 C  
HETATM    5  C   UNL     1     -12.257  13.436  64.427  1.00  0.00    -0.444 C  
HETATM    6  C   UNL     1     -12.482  13.384  65.940  1.00  0.00    -0.408 C  
HETATM    7  C   UNL     1     -11.988  14.662  66.622  1.00  0.00    -0.293 C  
HETATM    8  C   UNL     1     -10.459  14.798  66.722  1.00  0.00    -0.282 C  
HETATM    9  C   UNL     1      -9.606  13.609  66.254  1.00  0.00    -0.254 C  
ENDROOT
BRANCH   8  10
HETATM   10  O   UNL     1     -10.105  16.000  66.013  1.00  0.00    -0.297 OA 
BRANCH  10  11
HETATM   11  C   UNL     1      -9.002  16.619  66.526  1.00  0.00    -0.277 C  
HETATM   12  C   UNL     1      -9.121  16.704  68.039  1.00  0.00    -0.218 C  
HETATM   13  O   UNL     1      -8.061  16.998  65.843  1.00  0.00    -0.494 OA 
HETATM   14  C   UNL     1      -9.814  18.008  68.441  1.00  0.00    -0.366 C  
HETATM   15  C   UNL     1      -7.774  16.533  68.730  1.00  0.00    -0.226 A  
HETATM   16  C   UNL     1      -7.512  15.381  69.491  1.00  0.00    -0.211 A  
HETATM   17  O   UNL     1     -11.156  18.072  67.961  1.00  0.00    -0.161 OA 
HETATM   18  H   UNL     1     -11.587  18.882  68.210  1.00  0.00     0.000 HD 
HETATM   19  C   UNL     1      -6.291  15.229  70.152  1.00  0.00    -0.112 A  
HETATM   20  C   UNL     1      -5.315  16.218  70.056  1.00  0.00    -0.162 A  
HETATM   21  C   UNL     1      -5.552  17.354  69.287  1.00  0.00    -0.193 A  
HETATM   22  C   UNL     1      -6.770  17.509  68.625  1.00  0.00    -0.211 A  
ENDBRANCH  10  11
ENDBRANCH   8  10
TORSDOF 2
ENDMDL
MODEL       23
REMARK 921   NORMALIZED FREE ENERGY PREDICTED BY IDOCK:   -5.71 KCAL/MOL
REMARK 922        TOTAL FREE ENERGY PREDICTED BY IDOCK:   -6.86 KCAL/MOL
REMARK 923 INTER-LIGAND FREE ENERGY PREDICTED BY IDOCK:   -6.39 KCAL/MOL
REMARK 924 INTRA-LIGAND FREE ENERGY PREDICTED BY IDOCK:   -0.46 KCAL/MOL
REMARK 927      BINDING AFFINITY PREDICTED BY RF-SCORE:    0.00 PKD
ROOT
HETATM    1  C   UNL     1     -12.664  12.149  63.687  1.00  0.00    -0.432 C  
HETATM    2  N   UNL     1     -11.385  11.558  64.051  1.00  0.00    -0.347 NA 
HETATM    3  C   UNL     1     -11.272  11.060  65.422  1.00  0.00     0.183 C  
HETATM    4  C   UNL     1      -9.807  10.621  65.462  1.00  0.00    -0.316 C  
HETATM    5  C   UNL     1      -9.110  11.535  64.460  1.00  0.00     0.160 C  
HETATM    6  C   UNL     1     -10.221  12.436  63.918  1.00  0.00    -0.383 C  
HETATM    7  C   UNL     1     -10.356  13.717  64.745  1.00  0.00    -0.422 C  
HETATM    8  C   UNL     1     -11.001  13.532  66.130  1.00  0.00    -0.284 C  
HETATM    9  C   UNL     1     -11.548  12.140  66.481  1.00  0.00    -0.425 C  
ENDROOT
BRANCH   8  10
HETATM   10  O   UNL     1     -10.029  13.967  67.098  1.00  0.00    -0.233 OA 
BRANCH  10  11
HETATM   11  C   UNL     1     -10.341  15.168  67.667  1.00  0.00    -0.248 C  
HETATM   12  C   UNL     1      -9.075  15.989  67.856  1.00  0.00    -0.187 C  
HETATM   13  O   UNL     1     -11.484  15.513  67.933  1.00  0.00    -0.330 OA 
HETATM   14  C   UNL     1      -8.462  15.704  69.229  1.00  0.00    -0.265 C  
HETATM   15  C   UNL     1      -9.317  17.476  67.631  1.00  0.00    -0.244 A  
HETATM   16  C   UNL     1      -8.762  18.121  66.514  1.00  0.00    -0.286 A  
HETATM   17  O   UNL     1      -8.044  14.346  69.359  1.00  0.00    -0.357 OA 
HETATM   18  H   UNL     1      -7.664  14.170  70.212  1.00  0.00     0.000 HD 
HETATM   19  C   UNL     1      -8.955  19.490  66.316  1.00  0.00    -0.400 A  
HETATM   20  C   UNL     1      -9.709  20.230  67.223  1.00  0.00    -0.590 A  
HETATM   21  C   UNL     1     -10.285  19.599  68.323  1.00  0.00    -0.567 A  
HETATM   22  C   UNL     1     -10.095  18.232  68.523  1.00  0.00    -0.419 A  
ENDBRANCH  10  11
ENDBRANCH   8  10
TORSDOF 2
ENDMDL
MODEL       24
REMARK 921   NORMALIZED FREE ENERGY PREDICTED BY IDOCK:   -5.71 KCAL/MOL
REMARK 922        TOTAL FREE ENERGY PREDICTED BY IDOCK:   -6.85 KCAL/MOL
REMARK 923 INTER-LIGAND FREE ENERGY PREDICTED BY IDOCK:   -6.64 KCAL/MOL
REMARK 924 INTRA-LIGAND FREE ENERGY PREDICTED BY IDOCK:   -0.21 KCAL/MOL
REMARK 927      BINDING AFFINITY PREDICTED BY RF-SCORE:    0.00 PKD
ROOT
HETATM    1  C   UNL     1     -11.891  11.782  67.816  1.00  0.00    -0.196 C  
HETATM    2  N   UNL     1     -11.934  12.171  66.414  1.00  0.00    -0.621 NA 
HETATM    3  C   UNL     1     -10.665  12.109  65.690  1.00  0.00    -0.275 C  
HETATM    4  C   UNL     1     -11.071  12.668  64.325  1.00  0.00    -0.405 C  
HETATM    5  C   UNL     1     -12.229  13.611  64.631  1.00  0.00    -0.448 C  
HETATM    6  C   UNL     1     -12.405  13.531  66.149  1.00  0.00    -0.407 C  
HETATM    7  C   UNL     1     -11.565  14.592  66.865  1.00  0.00    -0.399 C  
HETATM    8  C   UNL     1     -10.052  14.313  66.893  1.00  0.00    -0.264 C  
HETATM    9  C   UNL     1      -9.563  12.972  66.327  1.00  0.00    -0.243 C  
ENDROOT
BRANCH   8  10
HETATM   10  O   UNL     1      -9.417  15.420  66.225  1.00  0.00    -0.262 OA 
BRANCH  10  11
HETATM   11  C   UNL     1      -8.945  16.366  67.088  1.00  0.00    -0.202 C  
HETATM   12  C   UNL     1      -7.513  16.722  66.724  1.00  0.00    -0.279 C  
HETATM   13  O   UNL     1      -9.617  16.859  67.984  1.00  0.00    -0.238 OA 
HETATM   14  C   UNL     1      -6.537  15.814  67.473  1.00  0.00    -0.183 C  
HETATM   15  C   UNL     1      -7.214  18.199  66.951  1.00  0.00    -0.229 A  
HETATM   16  C   UNL     1      -6.992  19.051  65.857  1.00  0.00    -0.299 A  
HETATM   17  O   UNL     1      -6.682  14.445  67.099  1.00  0.00    -0.381 OA 
HETATM   18  H   UNL     1      -6.076  13.880  67.565  1.00  0.00     0.000 HD 
HETATM   19  C   UNL     1      -6.688  20.400  66.057  1.00  0.00    -0.278 A  
HETATM   20  C   UNL     1      -6.612  20.916  67.349  1.00  0.00    -0.412 A  
HETATM   21  C   UNL     1      -6.853  20.088  68.442  1.00  0.00    -0.337 A  
HETATM   22  C   UNL     1      -7.157  18.741  68.246  1.00  0.00    -0.278 A  
ENDBRANCH  10  11
ENDBRANCH   8  10
TORSDOF 2
ENDMDL
MODEL       25
REMARK 921   NORMALIZED FREE ENERGY PREDICTED BY IDOCK:   -5.68 KCAL/MOL
REMARK 922        TOTAL FREE ENERGY PREDICTED BY IDOCK:   -6.82 KCAL/MOL
REMARK 923 INTER-LIGAND FREE ENERGY PREDICTED BY IDOCK:   -6.11 KCAL/MOL
REMARK 924 INTRA-LIGAND FREE ENERGY PREDICTED BY IDOCK:   -0.70 KCAL/MOL
REMARK 927      BINDING AFFINITY PREDICTED BY RF-SCORE:    0.00 PKD
ROOT
HETATM    1  C   UNL     1      -9.912  19.641  69.520  1.00  0.00    -0.052 C  
HETATM    2  N   UNL     1      -9.892  20.040  68.120  1.00  0.00    -0.385 NA 
HETATM    3  C   UNL     1     -10.830  19.346  67.239  1.00  0.00    -0.448 C  
HETATM    4  C   UNL     1     -10.459  19.940  65.879  1.00  0.00    -0.567 C  
HETATM    5  C   UNL     1      -8.983  20.298  66.011  1.00  0.00    -0.131 C  
HETATM    6  C   UNL     1      -8.609  19.882  67.435  1.00  0.00    -0.335 C  
HETATM    7  C   UNL     1      -8.095  18.440  67.479  1.00  0.00    -0.253 C  
HETATM    8  C   UNL     1      -9.177  17.359  67.307  1.00  0.00    -0.234 C  
HETATM    9  C   UNL     1     -10.641  17.820  67.238  1.00  0.00    -0.322 C  
ENDROOT
BRANCH   8  10
HETATM   10  O   UNL     1      -8.817  16.600  66.138  1.00  0.00    -0.334 OA 
BRANCH  10  11
HETATM   11  C   UNL     1      -9.254  15.307  66.185  1.00  0.00    -0.310 C  
HETATM   12  C   UNL     1      -8.939  14.710  67.547  1.00  0.00    -0.193 C  
HETATM   13  O   UNL     1      -9.842  14.758  65.263  1.00  0.00    -0.329 OA 
HETATM   14  C   UNL     1      -7.558  14.051  67.528  1.00  0.00    -0.180 C  
HETATM   15  C   UNL     1     -10.026  13.752  68.018  1.00  0.00    -0.246 A  
HETATM   16  C   UNL     1     -10.845  14.094  69.107  1.00  0.00    -0.254 A  
HETATM   17  O   UNL     1      -6.516  14.995  67.289  1.00  0.00    -0.305 OA 
HETATM   18  H   UNL     1      -5.658  14.586  67.277  1.00  0.00     0.000 HD 
HETATM   19  C   UNL     1     -11.825  13.210  69.564  1.00  0.00    -0.383 A  
HETATM   20  C   UNL     1     -12.006  11.980  68.936  1.00  0.00    -0.303 A  
HETATM   21  C   UNL     1     -11.217  11.637  67.841  1.00  0.00    -0.334 A  
HETATM   22  C   UNL     1     -10.238  12.518  67.382  1.00  0.00    -0.217 A  
ENDBRANCH  10  11
ENDBRANCH   8  10
TORSDOF 2
ENDMDL
MODEL       26
REMARK 921   NORMALIZED FREE ENERGY PREDICTED BY IDOCK:   -5.67 KCAL/MOL
REMARK 922        TOTAL FREE ENERGY PREDICTED BY IDOCK:   -6.81 KCAL/MOL
REMARK 923 INTER-LIGAND FREE ENERGY PREDICTED BY IDOCK:   -6.15 KCAL/MOL
REMARK 924 INTRA-LIGAND FREE ENERGY PREDICTED BY IDOCK:   -0.66 KCAL/MOL
REMARK 927      BINDING AFFINITY PREDICTED BY RF-SCORE:    0.00 PKD
ROOT
HETATM    1  C   UNL     1     -11.959  13.972  68.261  1.00  0.00    -0.349 C  
HETATM    2  N   UNL     1     -11.939  14.546  66.924  1.00  0.00    -0.391 NA 
HETATM    3  C   UNL     1     -12.511  13.722  65.860  1.00  0.00    -0.468 C  
HETATM    4  C   UNL     1     -12.228  14.584  64.628  1.00  0.00    -0.474 C  
HETATM    5  C   UNL     1     -10.970  15.364  64.991  1.00  0.00    -0.450 C  
HETATM    6  C   UNL     1     -10.616  14.894  66.404  1.00  0.00    -0.307 C  
HETATM    7  C   UNL     1      -9.666  13.693  66.372  1.00  0.00    -0.300 C  
HETATM    8  C   UNL     1     -10.313  12.363  65.949  1.00  0.00    -0.257 C  
HETATM    9  C   UNL     1     -11.834  12.347  65.731  1.00  0.00    -0.467 C  
ENDROOT
BRANCH   8  10
HETATM   10  O   UNL     1      -9.616  11.923  64.768  1.00  0.00    -0.167 OA 
BRANCH  10  11
HETATM   11  C   UNL     1      -9.367  10.581  64.764  1.00  0.00    -0.238 C  
HETATM   12  C   UNL     1      -8.884  10.146  66.139  1.00  0.00    -0.162 C  
HETATM   13  O   UNL     1      -9.553   9.862  63.792  1.00  0.00    -0.237 OA 
HETATM   14  C   UNL     1      -7.360  10.245  66.218  1.00  0.00    -0.118 C  
HETATM   15  C   UNL     1      -9.390   8.758  66.510  1.00  0.00    -0.260 A  
HETATM   16  C   UNL     1     -10.337   8.603  67.536  1.00  0.00    -0.336 A  
HETATM   17  O   UNL     1      -6.901  11.588  66.075  1.00  0.00    -0.366 OA 
HETATM   18  H   UNL     1      -5.953  11.649  66.124  1.00  0.00     0.000 HD 
HETATM   19  C   UNL     1     -10.785   7.331  67.904  1.00  0.00    -0.239 A  
HETATM   20  C   UNL     1     -10.301   6.202  67.247  1.00  0.00    -0.272 A  
HETATM   21  C   UNL     1      -9.380   6.342  66.213  1.00  0.00    -0.149 A  
HETATM   22  C   UNL     1      -8.931   7.610  65.843  1.00  0.00    -0.144 A  
ENDBRANCH  10  11
ENDBRANCH   8  10
TORSDOF 2
ENDMDL
MODEL       27
REMARK 921   NORMALIZED FREE ENERGY PREDICTED BY IDOCK:   -5.67 KCAL/MOL
REMARK 922        TOTAL FREE ENERGY PREDICTED BY IDOCK:   -6.81 KCAL/MOL
REMARK 923 INTER-LIGAND FREE ENERGY PREDICTED BY IDOCK:   -6.52 KCAL/MOL
REMARK 924 INTRA-LIGAND FREE ENERGY PREDICTED BY IDOCK:   -0.29 KCAL/MOL
REMARK 927      BINDING AFFINITY PREDICTED BY RF-SCORE:    0.00 PKD
ROOT
HETATM    1  C   UNL     1      -9.592  14.956  66.405  1.00  0.00    -0.293 C  
HETATM    2  N   UNL     1     -10.784  14.368  65.813  1.00  0.00    -0.296 NA 
HETATM    3  C   UNL     1     -12.033  14.559  66.550  1.00  0.00    -0.340 C  
HETATM    4  C   UNL     1     -13.010  13.744  65.702  1.00  0.00    -0.346 C  
HETATM    5  C   UNL     1     -12.148  12.655  65.072  1.00  0.00    -0.497 C  
HETATM    6  C   UNL     1     -10.738  12.920  65.604  1.00  0.00    -0.274 C  
HETATM    7  C   UNL     1     -10.476  12.149  66.900  1.00  0.00    -0.250 C  
HETATM    8  C   UNL     1     -11.191  12.705  68.143  1.00  0.00    -0.269 C  
HETATM    9  C   UNL     1     -11.973  14.018  67.988  1.00  0.00    -0.386 C  
ENDROOT
BRANCH   8  10
HETATM   10  O   UNL     1     -12.040  11.652  68.636  1.00  0.00    -0.449 OA 
BRANCH  10  11
HETATM   11  C   UNL     1     -11.466  10.929  69.642  1.00  0.00    -0.305 C  
HETATM   12  C   UNL     1     -12.534  10.498  70.635  1.00  0.00    -0.456 C  
HETATM   13  O   UNL     1     -10.275  10.656  69.683  1.00  0.00    -0.206 OA 
HETATM   14  C   UNL     1     -12.692  11.555  71.730  1.00  0.00    -0.235 C  
HETATM   15  C   UNL     1     -12.258   9.114  71.208  1.00  0.00    -0.395 A  
HETATM   16  C   UNL     1     -13.090   8.032  70.872  1.00  0.00     0.171 A  
HETATM   17  O   UNL     1     -13.153  12.801  71.212  1.00  0.00    -0.278 OA 
HETATM   18  H   UNL     1     -13.251  13.457  71.892  1.00  0.00     0.000 HD 
HETATM   19  C   UNL     1     -12.862   6.766  71.416  1.00  0.00    -0.287 A  
HETATM   20  C   UNL     1     -11.798   6.561  72.291  1.00  0.00    -0.299 A  
HETATM   21  C   UNL     1     -10.951   7.618  72.614  1.00  0.00    -0.405 A  
HETATM   22  C   UNL     1     -11.176   8.883  72.073  1.00  0.00    -0.422 A  
ENDBRANCH  10  11
ENDBRANCH   8  10
TORSDOF 2
ENDMDL
MODEL       28
REMARK 921   NORMALIZED FREE ENERGY PREDICTED BY IDOCK:   -5.60 KCAL/MOL
REMARK 922        TOTAL FREE ENERGY PREDICTED BY IDOCK:   -6.72 KCAL/MOL
REMARK 923 INTER-LIGAND FREE ENERGY PREDICTED BY IDOCK:   -6.24 KCAL/MOL
REMARK 924 INTRA-LIGAND FREE ENERGY PREDICTED BY IDOCK:   -0.48 KCAL/MOL
REMARK 927      BINDING AFFINITY PREDICTED BY RF-SCORE:    0.00 PKD
ROOT
HETATM    1  C   UNL     1      -9.490   6.172  69.415  1.00  0.00    -0.138 C  
HETATM    2  N   UNL     1      -9.120   7.030  70.531  1.00  0.00    -0.155 NA 
HETATM    3  C   UNL     1     -10.220   7.710  71.214  1.00  0.00    -0.187 C  
HETATM    4  C   UNL     1      -9.460   8.568  72.227  1.00  0.00    -0.365 C  
HETATM    5  C   UNL     1      -8.115   8.839  71.561  1.00  0.00    -0.174 C  
HETATM    6  C   UNL     1      -8.198   8.121  70.213  1.00  0.00    -0.122 C  
HETATM    7  C   UNL     1      -8.741   9.046  69.120  1.00  0.00    -0.135 C  
HETATM    8  C   UNL     1     -10.249   9.338  69.205  1.00  0.00    -0.206 C  
HETATM    9  C   UNL     1     -11.060   8.591  70.274  1.00  0.00    -0.222 C  
ENDROOT
BRANCH   8  10
HETATM   10  O   UNL     1     -10.384  10.764  69.355  1.00  0.00    -0.218 OA 
BRANCH  10  11
HETATM   11  C   UNL     1     -11.178  11.329  68.399  1.00  0.00    -0.262 C  
HETATM   12  C   UNL     1     -10.318  12.104  67.413  1.00  0.00    -0.220 C  
HETATM   13  O   UNL     1     -12.391  11.179  68.353  1.00  0.00    -0.556 OA 
HETATM   14  C   UNL     1     -10.158  13.553  67.878  1.00  0.00    -0.248 C  
HETATM   15  C   UNL     1     -10.855  12.013  65.990  1.00  0.00    -0.329 A  
HETATM   16  C   UNL     1     -10.144  11.298  65.012  1.00  0.00    -0.331 A  
HETATM   17  O   UNL     1      -9.466  13.644  69.122  1.00  0.00    -0.387 OA 
HETATM   18  H   UNL     1      -9.367  14.544  69.411  1.00  0.00     0.000 HD 
HETATM   19  C   UNL     1     -10.613  11.234  63.698  1.00  0.00    -0.453 A  
HETATM   20  C   UNL     1     -11.800  11.873  63.346  1.00  0.00    -0.512 A  
HETATM   21  C   UNL     1     -12.526  12.566  64.311  1.00  0.00    -0.520 A  
HETATM   22  C   UNL     1     -12.061  12.632  65.624  1.00  0.00    -0.502 A  
ENDBRANCH  10  11
ENDBRANCH   8  10
TORSDOF 2
ENDMDL
MODEL       29
REMARK 921   NORMALIZED FREE ENERGY PREDICTED BY IDOCK:   -5.60 KCAL/MOL
REMARK 922        TOTAL FREE ENERGY PREDICTED BY IDOCK:   -6.72 KCAL/MOL
REMARK 923 INTER-LIGAND FREE ENERGY PREDICTED BY IDOCK:   -6.23 KCAL/MOL
REMARK 924 INTRA-LIGAND FREE ENERGY PREDICTED BY IDOCK:   -0.49 KCAL/MOL
REMARK 927      BINDING AFFINITY PREDICTED BY RF-SCORE:    0.00 PKD
ROOT
HETATM    1  C   UNL     1     -12.388  14.676  64.229  1.00  0.00    -0.349 C  
HETATM    2  N   UNL     1     -11.825  13.496  64.868  1.00  0.00    -0.358 NA 
HETATM    3  C   UNL     1     -12.278  13.222  66.231  1.00  0.00    -0.377 C  
HETATM    4  C   UNL     1     -11.423  12.007  66.593  1.00  0.00    -0.411 C  
HETATM    5  C   UNL     1     -10.153  12.177  65.766  1.00  0.00    -0.272 C  
HETATM    6  C   UNL     1     -10.366  13.478  64.990  1.00  0.00    -0.362 C  
HETATM    7  C   UNL     1      -9.829  14.685  65.764  1.00  0.00    -0.359 C  
HETATM    8  C   UNL     1     -10.679  15.113  66.974  1.00  0.00    -0.307 C  
HETATM    9  C   UNL     1     -12.013  14.385  67.201  1.00  0.00    -0.419 C  
ENDROOT
BRANCH   8  10
HETATM   10  O   UNL     1      -9.829  15.009  68.131  1.00  0.00    -0.211 OA 
BRANCH  10  11
HETATM   11  C   UNL     1      -9.306  16.209  68.519  1.00  0.00    -0.209 C  
HETATM   12  C   UNL     1      -7.813  16.232  68.234  1.00  0.00    -0.164 C  
HETATM   13  O   UNL     1      -9.976  17.119  68.986  1.00  0.00    -0.288 OA 
HETATM   14  C   UNL     1      -7.036  15.709  69.444  1.00  0.00    -0.198 C  
HETATM   15  C   UNL     1      -7.334  17.611  67.797  1.00  0.00    -0.193 A  
HETATM   16  C   UNL     1      -6.906  17.824  66.476  1.00  0.00    -0.266 A  
HETATM   17  O   UNL     1      -7.337  14.343  69.724  1.00  0.00    -0.363 OA 
HETATM   18  H   UNL     1      -6.855  14.018  70.476  1.00  0.00     0.000 HD 
HETATM   19  C   UNL     1      -6.439  19.077  66.074  1.00  0.00    -0.240 A  
HETATM   20  C   UNL     1      -6.400  20.134  66.980  1.00  0.00    -0.225 A  
HETATM   21  C   UNL     1      -6.843  19.944  68.286  1.00  0.00    -0.330 A  
HETATM   22  C   UNL     1      -7.312  18.694  68.691  1.00  0.00    -0.329 A  
ENDBRANCH  10  11
ENDBRANCH   8  10
TORSDOF 2
ENDMDL
MODEL       30
REMARK 921   NORMALIZED FREE ENERGY PREDICTED BY IDOCK:   -5.59 KCAL/MOL
REMARK 922        TOTAL FREE ENERGY PREDICTED BY IDOCK:   -6.72 KCAL/MOL
REMARK 923 INTER-LIGAND FREE ENERGY PREDICTED BY IDOCK:   -6.07 KCAL/MOL
REMARK 924 INTRA-LIGAND FREE ENERGY PREDICTED BY IDOCK:   -0.64 KCAL/MOL
REMARK 927      BINDING AFFINITY PREDICTED BY RF-SCORE:    0.00 PKD
ROOT
HETATM    1  C   UNL     1     -11.174  15.379  68.440  1.00  0.00    -0.315 C  
HETATM    2  N   UNL     1     -11.438  15.048  67.048  1.00  0.00    -0.323 NA 
HETATM    3  C   UNL     1     -12.323  13.907  66.813  1.00  0.00    -0.330 C  
HETATM    4  C   UNL     1     -12.283  13.805  65.287  1.00  0.00    -0.461 C  
HETATM    5  C   UNL     1     -10.912  14.354  64.906  1.00  0.00    -0.416 C  
HETATM    6  C   UNL     1     -10.260  14.729  66.239  1.00  0.00    -0.298 C  
HETATM    7  C   UNL     1      -9.453  13.563  66.814  1.00  0.00    -0.272 C  
HETATM    8  C   UNL     1     -10.295  12.415  67.399  1.00  0.00    -0.207 C  
HETATM    9  C   UNL     1     -11.817  12.607  67.461  1.00  0.00    -0.396 C  
ENDROOT
BRANCH   8  10
HETATM   10  O   UNL     1      -9.951  11.232  66.653  1.00  0.00    -0.200 OA 
BRANCH  10  11
HETATM   11  C   UNL     1     -10.195  10.078  67.340  1.00  0.00    -0.219 C  
HETATM   12  C   UNL     1      -9.707  10.223  68.773  1.00  0.00    -0.178 C  
HETATM   13  O   UNL     1     -10.757   9.107  66.852  1.00  0.00    -0.203 OA 
HETATM   14  C   UNL     1      -8.251   9.767  68.883  1.00  0.00    -0.117 C  
HETATM   15  C   UNL     1     -10.613   9.499  69.761  1.00  0.00    -0.257 A  
HETATM   16  C   UNL     1     -11.398  10.232  70.667  1.00  0.00    -0.431 A  
HETATM   17  O   UNL     1      -7.373  10.585  68.111  1.00  0.00    -0.086 OA 
HETATM   18  H   UNL     1      -6.468  10.302  68.179  1.00  0.00     0.000 HD 
HETATM   19  C   UNL     1     -12.208   9.576  71.596  1.00  0.00    -0.477 A  
HETATM   20  C   UNL     1     -12.252   8.184  71.629  1.00  0.00    -0.343 A  
HETATM   21  C   UNL     1     -11.497   7.445  70.722  1.00  0.00    -0.313 A  
HETATM   22  C   UNL     1     -10.687   8.097  69.792  1.00  0.00    -0.229 A  
ENDBRANCH  10  11
ENDBRANCH   8  10
TORSDOF 2
ENDMDL
MODEL       31
REMARK 921   NORMALIZED FREE ENERGY PREDICTED BY IDOCK:   -5.59 KCAL/MOL
REMARK 922        TOTAL FREE ENERGY PREDICTED BY IDOCK:   -6.72 KCAL/MOL
REMARK 923 INTER-LIGAND FREE ENERGY PREDICTED BY IDOCK:   -6.26 KCAL/MOL
REMARK 924 INTRA-LIGAND FREE ENERGY PREDICTED BY IDOCK:   -0.46 KCAL/MOL
REMARK 927      BINDING AFFINITY PREDICTED BY RF-SCORE:    0.00 PKD
ROOT
HETATM    1  C   UNL     1      -9.990   9.924  65.468  1.00  0.00    -0.292 C  
HETATM    2  N   UNL     1     -10.134   9.990  66.915  1.00  0.00    -0.218 NA 
HETATM    3  C   UNL     1     -11.238  10.808  67.416  1.00  0.00    -0.241 C  
HETATM    4  C   UNL     1     -11.014  10.722  68.926  1.00  0.00    -0.289 C  
HETATM    5  C   UNL     1      -9.510  10.522  69.076  1.00  0.00    -0.211 C  
HETATM    6  C   UNL     1      -8.975  10.511  67.642  1.00  0.00    -0.138 C  
HETATM    7  C   UNL     1      -8.579  11.916  67.183  1.00  0.00    -0.172 C  
HETATM    8  C   UNL     1      -9.757  12.857  66.876  1.00  0.00    -0.240 C  
HETATM    9  C   UNL     1     -11.174  12.268  66.937  1.00  0.00    -0.367 C  
ENDROOT
BRANCH   8  10
HETATM   10  O   UNL     1      -9.626  13.983  67.763  1.00  0.00    -0.206 OA 
BRANCH  10  11
HETATM   11  C   UNL     1      -9.992  15.165  67.185  1.00  0.00    -0.237 C  
HETATM   12  C   UNL     1     -10.390  16.160  68.263  1.00  0.00    -0.266 C  
HETATM   13  O   UNL     1      -9.955  15.367  65.979  1.00  0.00    -0.278 OA 
HETATM   14  C   UNL     1     -11.888  16.049  68.557  1.00  0.00    -0.120 C  
HETATM   15  C   UNL     1      -9.978  17.583  67.909  1.00  0.00    -0.312 A  
HETATM   16  C   UNL     1      -8.964  18.226  68.637  1.00  0.00    -0.303 A  
HETATM   17  O   UNL     1     -12.237  14.771  69.088  1.00  0.00    -0.509 OA 
HETATM   18  H   UNL     1     -13.167  14.702  69.270  1.00  0.00     0.000 HD 
HETATM   19  C   UNL     1      -8.600  19.542  68.338  1.00  0.00    -0.389 A  
HETATM   20  C   UNL     1      -9.236  20.227  67.306  1.00  0.00    -0.523 A  
HETATM   21  C   UNL     1     -10.228  19.594  66.561  1.00  0.00    -0.588 A  
HETATM   22  C   UNL     1     -10.593  18.281  66.856  1.00  0.00    -0.356 A  
ENDBRANCH  10  11
ENDBRANCH   8  10
TORSDOF 2
ENDMDL
MODEL       32
REMARK 921   NORMALIZED FREE ENERGY PREDICTED BY IDOCK:   -5.55 KCAL/MOL
REMARK 922        TOTAL FREE ENERGY PREDICTED BY IDOCK:   -6.67 KCAL/MOL
REMARK 923 INTER-LIGAND FREE ENERGY PREDICTED BY IDOCK:   -6.31 KCAL/MOL
REMARK 924 INTRA-LIGAND FREE ENERGY PREDICTED BY IDOCK:   -0.36 KCAL/MOL
REMARK 927      BINDING AFFINITY PREDICTED BY RF-SCORE:    0.00 PKD
ROOT
HETATM    1  C   UNL     1     -12.173  11.115  69.163  1.00  0.00    -0.175 C  
HETATM    2  N   UNL     1     -11.715  11.160  67.782  1.00  0.00    -0.602 NA 
HETATM    3  C   UNL     1     -10.302  10.852  67.561  1.00  0.00    -0.202 C  
HETATM    4  C   UNL     1     -10.174  11.092  66.056  1.00  0.00    -0.300 C  
HETATM    5  C   UNL     1     -11.230  12.149  65.750  1.00  0.00    -0.384 C  
HETATM    6  C   UNL     1     -11.887  12.443  67.100  1.00  0.00    -0.291 C  
HETATM    7  C   UNL     1     -11.183  13.592  67.826  1.00  0.00    -0.310 C  
HETATM    8  C   UNL     1      -9.810  13.238  68.424  1.00  0.00    -0.218 C  
HETATM    9  C   UNL     1      -9.353  11.774  68.345  1.00  0.00    -0.185 C  
ENDROOT
BRANCH   8  10
HETATM   10  O   UNL     1      -8.852  14.114  67.800  1.00  0.00    -0.168 OA 
BRANCH  10  11
HETATM   11  C   UNL     1      -8.854  15.373  68.329  1.00  0.00    -0.176 C  
HETATM   12  C   UNL     1      -8.323  16.360  67.302  1.00  0.00    -0.200 C  
HETATM   13  O   UNL     1      -9.267  15.634  69.450  1.00  0.00    -0.258 OA 
HETATM   14  C   UNL     1      -6.806  16.501  67.442  1.00  0.00    -0.160 C  
HETATM   15  C   UNL     1      -9.035  17.705  67.378  1.00  0.00    -0.231 A  
HETATM   16  C   UNL     1      -9.885  18.114  66.337  1.00  0.00    -0.353 A  
HETATM   17  O   UNL     1      -6.125  15.278  67.165  1.00  0.00    -0.292 OA 
HETATM   18  H   UNL     1      -5.183  15.366  67.252  1.00  0.00     0.000 HD 
HETATM   19  C   UNL     1     -10.519  19.358  66.385  1.00  0.00    -0.581 A  
HETATM   20  C   UNL     1     -10.320  20.203  67.474  1.00  0.00    -0.472 A  
HETATM   21  C   UNL     1      -9.498  19.801  68.524  1.00  0.00    -0.398 A  
HETATM   22  C   UNL     1      -8.864  18.560  68.479  1.00  0.00    -0.351 A  
ENDBRANCH  10  11
ENDBRANCH   8  10
TORSDOF 2
ENDMDL
MODEL       33
REMARK 921   NORMALIZED FREE ENERGY PREDICTED BY IDOCK:   -5.53 KCAL/MOL
REMARK 922        TOTAL FREE ENERGY PREDICTED BY IDOCK:   -6.64 KCAL/MOL
REMARK 923 INTER-LIGAND FREE ENERGY PREDICTED BY IDOCK:   -6.00 KCAL/MOL
REMARK 924 INTRA-LIGAND FREE ENERGY PREDICTED BY IDOCK:   -0.64 KCAL/MOL
REMARK 927      BINDING AFFINITY PREDICTED BY RF-SCORE:    0.00 PKD
ROOT
HETATM    1  C   UNL     1     -12.597  12.048  63.802  1.00  0.00    -0.454 C  
HETATM    2  N   UNL     1     -11.949  13.230  64.352  1.00  0.00    -0.386 NA 
HETATM    3  C   UNL     1     -10.487  13.211  64.377  1.00  0.00    -0.407 C  
HETATM    4  C   UNL     1     -10.182  14.529  65.090  1.00  0.00    -0.420 C  
HETATM    5  C   UNL     1     -11.391  14.762  65.990  1.00  0.00    -0.332 C  
HETATM    6  C   UNL     1     -12.303  13.560  65.733  1.00  0.00    -0.468 C  
HETATM    7  C   UNL     1     -12.005  12.414  66.704  1.00  0.00    -0.300 C  
HETATM    8  C   UNL     1     -10.699  11.650  66.426  1.00  0.00    -0.272 C  
HETATM    9  C   UNL     1      -9.912  12.020  65.160  1.00  0.00    -0.265 C  
ENDROOT
BRANCH   8  10
HETATM   10  O   UNL     1      -9.882  11.788  67.603  1.00  0.00    -0.180 OA 
BRANCH  10  11
HETATM   11  C   UNL     1      -9.333  10.608  68.015  1.00  0.00    -0.147 C  
HETATM   12  C   UNL     1     -10.433   9.661  68.465  1.00  0.00    -0.241 C  
HETATM   13  O   UNL     1      -8.133  10.371  67.975  1.00  0.00    -0.108 OA 
HETATM   14  C   UNL     1     -10.708   9.844  69.960  1.00  0.00    -0.292 C  
HETATM   15  C   UNL     1     -10.123   8.212  68.112  1.00  0.00    -0.237 A  
HETATM   16  C   UNL     1     -10.879   7.547  67.132  1.00  0.00    -0.298 A  
HETATM   17  O   UNL     1     -11.199  11.149  70.259  1.00  0.00    -0.467 OA 
HETATM   18  H   UNL     1     -11.369  11.263  71.187  1.00  0.00     0.000 HD 
HETATM   19  C   UNL     1     -10.620   6.209  66.822  1.00  0.00    -0.351 A  
HETATM   20  C   UNL     1      -9.601   5.523  67.478  1.00  0.00    -0.131 A  
HETATM   21  C   UNL     1      -8.828   6.177  68.434  1.00  0.00    -0.113 A  
HETATM   22  C   UNL     1      -9.083   7.512  68.745  1.00  0.00    -0.135 A  
ENDBRANCH  10  11
ENDBRANCH   8  10
TORSDOF 2
ENDMDL
MODEL       34
REMARK 921   NORMALIZED FREE ENERGY PREDICTED BY IDOCK:   -5.51 KCAL/MOL
REMARK 922        TOTAL FREE ENERGY PREDICTED BY IDOCK:   -6.63 KCAL/MOL
REMARK 923 INTER-LIGAND FREE ENERGY PREDICTED BY IDOCK:   -5.91 KCAL/MOL
REMARK 924 INTRA-LIGAND FREE ENERGY PREDICTED BY IDOCK:   -0.72 KCAL/MOL
REMARK 927      BINDING AFFINITY PREDICTED BY RF-SCORE:    0.00 PKD
ROOT
HETATM    1  C   UNL     1     -11.021   7.818  70.183  1.00  0.00    -0.241 C  
HETATM    2  N   UNL     1      -9.778   7.829  69.427  1.00  0.00    -0.167 NA 
HETATM    3  C   UNL     1      -8.856   8.927  69.719  1.00  0.00    -0.144 C  
HETATM    4  C   UNL     1      -7.749   8.669  68.695  1.00  0.00    -0.099 C  
HETATM    5  C   UNL     1      -8.459   7.979  67.535  1.00  0.00    -0.127 C  
HETATM    6  C   UNL     1      -9.922   7.892  67.972  1.00  0.00    -0.177 C  
HETATM    7  C   UNL     1     -10.716   9.118  67.515  1.00  0.00    -0.255 C  
HETATM    8  C   UNL     1     -10.423  10.411  68.296  1.00  0.00    -0.191 C  
HETATM    9  C   UNL     1      -9.483  10.314  69.507  1.00  0.00    -0.207 C  
ENDROOT
BRANCH   8  10
HETATM   10  O   UNL     1      -9.937  11.369  67.338  1.00  0.00    -0.184 OA 
BRANCH  10  11
HETATM   11  C   UNL     1     -10.093  12.662  67.749  1.00  0.00    -0.220 C  
HETATM   12  C   UNL     1     -11.557  12.926  68.062  1.00  0.00    -0.385 C  
HETATM   13  O   UNL     1      -9.164  13.449  67.871  1.00  0.00    -0.198 OA 
HETATM   14  C   UNL     1     -12.281  13.428  66.811  1.00  0.00    -0.312 C  
HETATM   15  C   UNL     1     -11.728  13.872  69.244  1.00  0.00    -0.381 A  
HETATM   16  C   UNL     1     -12.251  13.398  70.458  1.00  0.00    -0.425 A  
HETATM   17  O   UNL     1     -12.297  12.451  65.772  1.00  0.00    -0.644 OA 
HETATM   18  H   UNL     1     -12.747  12.763  64.995  1.00  0.00     0.000 HD 
HETATM   19  C   UNL     1     -12.439  14.264  71.537  1.00  0.00    -0.435 A  
HETATM   20  C   UNL     1     -12.100  15.610  71.422  1.00  0.00    -0.476 A  
HETATM   21  C   UNL     1     -11.558  16.090  70.232  1.00  0.00    -0.335 A  
HETATM   22  C   UNL     1     -11.369  15.227  69.153  1.00  0.00    -0.307 A  
ENDBRANCH  10  11
ENDBRANCH   8  10
TORSDOF 2
ENDMDL
MODEL       35
REMARK 921   NORMALIZED FREE ENERGY PREDICTED BY IDOCK:   -5.49 KCAL/MOL
REMARK 922        TOTAL FREE ENERGY PREDICTED BY IDOCK:   -6.61 KCAL/MOL
REMARK 923 INTER-LIGAND FREE ENERGY PREDICTED BY IDOCK:   -6.10 KCAL/MOL
REMARK 924 INTRA-LIGAND FREE ENERGY PREDICTED BY IDOCK:   -0.51 KCAL/MOL
REMARK 927      BINDING AFFINITY PREDICTED BY RF-SCORE:    0.00 PKD
ROOT
HETATM    1  C   UNL     1     -12.989  12.876  64.989  1.00  0.00    -0.093 C  
HETATM    2  N   UNL     1     -11.719  12.196  65.195  1.00  0.00    -0.338 NA 
HETATM    3  C   UNL     1     -11.362  11.905  66.584  1.00  0.00    -0.337 C  
HETATM    4  C   UNL     1      -9.966  11.301  66.414  1.00  0.00    -0.252 C  
HETATM    5  C   UNL     1      -9.420  11.957  65.151  1.00  0.00    -0.059 C  
HETATM    6  C   UNL     1     -10.538  12.893  64.685  1.00  0.00    -0.363 C  
HETATM    7  C   UNL     1     -10.380  14.293  65.284  1.00  0.00    -0.417 C  
HETATM    8  C   UNL     1     -10.730  14.405  66.778  1.00  0.00    -0.292 C  
HETATM    9  C   UNL     1     -11.310  13.161  67.469  1.00  0.00    -0.336 C  
ENDROOT
BRANCH   8  10
HETATM   10  O   UNL     1      -9.539  14.861  67.446  1.00  0.00    -0.203 OA 
BRANCH  10  11
HETATM   11  C   UNL     1      -9.769  15.267  68.730  1.00  0.00    -0.212 C  
HETATM   12  C   UNL     1     -11.021  16.129  68.777  1.00  0.00    -0.330 C  
HETATM   13  O   UNL     1      -9.072  14.935  69.678  1.00  0.00    -0.054 OA 
HETATM   14  C   UNL     1     -10.656  17.600  68.570  1.00  0.00    -0.280 C  
HETATM   15  C   UNL     1     -11.819  15.909  70.056  1.00  0.00    -0.322 A  
HETATM   16  C   UNL     1     -13.072  15.276  70.006  1.00  0.00     0.086 A  
HETATM   17  O   UNL     1     -10.095  17.838  67.280  1.00  0.00    -0.311 OA 
HETATM   18  H   UNL     1      -9.868  18.752  67.151  1.00  0.00     0.000 HD 
HETATM   19  C   UNL     1     -13.824  15.096  71.169  1.00  0.00    -0.495 A  
HETATM   20  C   UNL     1     -13.332  15.537  72.396  1.00  0.00    -0.577 A  
HETATM   21  C   UNL     1     -12.082  16.146  72.463  1.00  0.00    -0.644 A  
HETATM   22  C   UNL     1     -11.328  16.326  71.304  1.00  0.00    -0.272 A  
ENDBRANCH  10  11
ENDBRANCH   8  10
TORSDOF 2
ENDMDL
MODEL       36
REMARK 921   NORMALIZED FREE ENERGY PREDICTED BY IDOCK:   -5.49 KCAL/MOL
REMARK 922        TOTAL FREE ENERGY PREDICTED BY IDOCK:   -6.61 KCAL/MOL
REMARK 923 INTER-LIGAND FREE ENERGY PREDICTED BY IDOCK:   -6.14 KCAL/MOL
REMARK 924 INTRA-LIGAND FREE ENERGY PREDICTED BY IDOCK:   -0.47 KCAL/MOL
REMARK 927      BINDING AFFINITY PREDICTED BY RF-SCORE:    0.00 PKD
ROOT
HETATM    1  C   UNL     1      -6.858   8.589  67.624  1.00  0.00    -0.071 C  
HETATM    2  N   UNL     1      -8.234   8.123  67.706  1.00  0.00    -0.127 NA 
HETATM    3  C   UNL     1      -8.939   7.968  66.435  1.00  0.00    -0.169 C  
HETATM    4  C   UNL     1     -10.338   7.575  66.913  1.00  0.00    -0.379 C  
HETATM    5  C   UNL     1     -10.470   8.235  68.282  1.00  0.00    -0.211 C  
HETATM    6  C   UNL     1      -9.140   8.962  68.491  1.00  0.00    -0.137 C  
HETATM    7  C   UNL     1      -9.202  10.401  67.972  1.00  0.00    -0.142 C  
HETATM    8  C   UNL     1      -9.188  10.541  66.440  1.00  0.00    -0.166 C  
HETATM    9  C   UNL     1      -8.988   9.264  65.610  1.00  0.00    -0.243 C  
ENDROOT
BRANCH   8  10
HETATM   10  O   UNL     1     -10.410  11.210  66.076  1.00  0.00    -0.241 OA 
BRANCH  10  11
HETATM   11  C   UNL     1     -10.400  12.542  66.378  1.00  0.00    -0.243 C  
HETATM   12  C   UNL     1     -11.767  12.957  66.898  1.00  0.00    -0.445 C  
HETATM   13  O   UNL     1      -9.410  13.252  66.271  1.00  0.00    -0.220 OA 
HETATM   14  C   UNL     1     -12.656  13.413  65.739  1.00  0.00    -0.393 C  
HETATM   15  C   UNL     1     -11.667  14.011  67.994  1.00  0.00    -0.394 A  
HETATM   16  C   UNL     1     -12.008  13.688  69.318  1.00  0.00    -0.384 A  
HETATM   17  O   UNL     1     -12.919  12.356  64.817  1.00  0.00    -0.786 OA 
HETATM   18  H   UNL     1     -13.471  12.639  64.097  1.00  0.00     0.000 HD 
HETATM   19  C   UNL     1     -11.947  14.656  70.323  1.00  0.00    -0.370 A  
HETATM   20  C   UNL     1     -11.537  15.953  70.023  1.00  0.00    -0.346 A  
HETATM   21  C   UNL     1     -11.173  16.281  68.720  1.00  0.00    -0.343 A  
HETATM   22  C   UNL     1     -11.232  15.317  67.713  1.00  0.00    -0.327 A  
ENDBRANCH  10  11
ENDBRANCH   8  10
TORSDOF 2
ENDMDL
MODEL       37
REMARK 921   NORMALIZED FREE ENERGY PREDICTED BY IDOCK:   -5.49 KCAL/MOL
REMARK 922        TOTAL FREE ENERGY PREDICTED BY IDOCK:   -6.61 KCAL/MOL
REMARK 923 INTER-LIGAND FREE ENERGY PREDICTED BY IDOCK:   -5.90 KCAL/MOL
REMARK 924 INTRA-LIGAND FREE ENERGY PREDICTED BY IDOCK:   -0.71 KCAL/MOL
REMARK 927      BINDING AFFINITY PREDICTED BY RF-SCORE:    0.00 PKD
ROOT
HETATM    1  C   UNL     1     -13.563   7.836  71.558  1.00  0.00    -0.331 C  
HETATM    2  N   UNL     1     -12.326   7.336  72.139  1.00  0.00    -0.238 NA 
HETATM    3  C   UNL     1     -11.284   8.331  72.391  1.00  0.00    -0.381 C  
HETATM    4  C   UNL     1     -10.139   7.447  72.890  1.00  0.00    -0.293 C  
HETATM    5  C   UNL     1     -10.371   6.104  72.205  1.00  0.00    -0.221 C  
HETATM    6  C   UNL     1     -11.629   6.312  71.360  1.00  0.00    -0.278 C  
HETATM    7  C   UNL     1     -11.281   6.787  69.947  1.00  0.00    -0.379 C  
HETATM    8  C   UNL     1     -10.815   8.251  69.850  1.00  0.00    -0.213 C  
HETATM    9  C   UNL     1     -10.867   9.102  71.127  1.00  0.00    -0.381 C  
ENDROOT
BRANCH   8  10
HETATM   10  O   UNL     1      -9.484   8.223  69.300  1.00  0.00    -0.154 OA 
BRANCH  10  11
HETATM   11  C   UNL     1      -9.190   9.331  68.558  1.00  0.00    -0.135 C  
HETATM   12  C   UNL     1     -10.346   9.642  67.621  1.00  0.00    -0.290 C  
HETATM   13  O   UNL     1      -8.157   9.974  68.684  1.00  0.00    -0.096 OA 
HETATM   14  C   UNL     1     -10.152   8.920  66.286  1.00  0.00    -0.214 C  
HETATM   15  C   UNL     1     -10.549  11.141  67.440  1.00  0.00    -0.272 A  
HETATM   16  C   UNL     1     -11.691  11.767  67.967  1.00  0.00    -0.363 A  
HETATM   17  O   UNL     1     -10.170   7.501  66.436  1.00  0.00    -0.473 OA 
HETATM   18  H   UNL     1     -10.049   7.053  65.606  1.00  0.00     0.000 HD 
HETATM   19  C   UNL     1     -11.900  13.136  67.781  1.00  0.00    -0.392 A  
HETATM   20  C   UNL     1     -10.971  13.896  67.075  1.00  0.00    -0.301 A  
HETATM   21  C   UNL     1      -9.823  13.293  66.567  1.00  0.00    -0.281 A  
HETATM   22  C   UNL     1      -9.611  11.927  66.752  1.00  0.00    -0.214 A  
ENDBRANCH  10  11
ENDBRANCH   8  10
TORSDOF 2
ENDMDL
MODEL       38
REMARK 921   NORMALIZED FREE ENERGY PREDICTED BY IDOCK:   -5.46 KCAL/MOL
REMARK 922        TOTAL FREE ENERGY PREDICTED BY IDOCK:   -6.57 KCAL/MOL
REMARK 923 INTER-LIGAND FREE ENERGY PREDICTED BY IDOCK:   -6.27 KCAL/MOL
REMARK 924 INTRA-LIGAND FREE ENERGY PREDICTED BY IDOCK:   -0.29 KCAL/MOL
REMARK 927      BINDING AFFINITY PREDICTED BY RF-SCORE:    0.00 PKD
ROOT
HETATM    1  C   UNL     1     -11.073   7.722  72.939  1.00  0.00    -0.398 C  
HETATM    2  N   UNL     1     -10.598   6.867  71.861  1.00  0.00    -0.210 NA 
HETATM    3  C   UNL     1      -9.338   7.261  71.233  1.00  0.00    -0.154 C  
HETATM    4  C   UNL     1      -9.220   6.220  70.118  1.00  0.00    -0.162 C  
HETATM    5  C   UNL     1     -10.663   5.859  69.782  1.00  0.00    -0.411 C  
HETATM    6  C   UNL     1     -11.507   6.720  70.724  1.00  0.00    -0.342 C  
HETATM    7  C   UNL     1     -11.866   8.063  70.083  1.00  0.00     0.282 C  
HETATM    8  C   UNL     1     -10.706   9.070  69.991  1.00  0.00    -0.229 C  
HETATM    9  C   UNL     1      -9.373   8.684  70.650  1.00  0.00    -0.218 C  
ENDROOT
BRANCH   8  10
HETATM   10  O   UNL     1     -10.527   9.365  68.593  1.00  0.00    -0.202 OA 
BRANCH  10  11
HETATM   11  C   UNL     1     -11.132  10.527  68.210  1.00  0.00    -0.284 C  
HETATM   12  C   UNL     1     -10.208  11.304  67.285  1.00  0.00    -0.226 C  
HETATM   13  O   UNL     1     -12.264  10.843  68.549  1.00  0.00    -0.535 OA 
HETATM   14  C   UNL     1      -9.320  12.248  68.098  1.00  0.00    -0.205 C  
HETATM   15  C   UNL     1     -10.976  12.037  66.192  1.00  0.00    -0.343 A  
HETATM   16  C   UNL     1     -10.864  11.625  64.854  1.00  0.00    -0.359 A  
HETATM   17  O   UNL     1      -8.449  11.539  68.979  1.00  0.00    -0.355 OA 
HETATM   18  H   UNL     1      -7.897  12.126  69.484  1.00  0.00     0.000 HD 
HETATM   19  C   UNL     1     -11.542  12.309  63.842  1.00  0.00    -0.525 A  
HETATM   20  C   UNL     1     -12.344  13.404  64.152  1.00  0.00    -0.395 A  
HETATM   21  C   UNL     1     -12.482  13.809  65.477  1.00  0.00    -0.548 A  
HETATM   22  C   UNL     1     -11.808  13.128  66.491  1.00  0.00    -0.456 A  
ENDBRANCH  10  11
ENDBRANCH   8  10
TORSDOF 2
ENDMDL
MODEL       39
REMARK 921   NORMALIZED FREE ENERGY PREDICTED BY IDOCK:   -5.43 KCAL/MOL
REMARK 922        TOTAL FREE ENERGY PREDICTED BY IDOCK:   -6.54 KCAL/MOL
REMARK 923 INTER-LIGAND FREE ENERGY PREDICTED BY IDOCK:   -6.31 KCAL/MOL
REMARK 924 INTRA-LIGAND FREE ENERGY PREDICTED BY IDOCK:   -0.23 KCAL/MOL
REMARK 927      BINDING AFFINITY PREDICTED BY RF-SCORE:    0.00 PKD
ROOT
HETATM    1  C   UNL     1     -12.702  14.027  65.349  1.00  0.00    -0.471 C  
HETATM    2  N   UNL     1     -11.476  14.545  65.940  1.00  0.00    -0.342 NA 
HETATM    3  C   UNL     1     -10.274  13.736  65.743  1.00  0.00    -0.311 C  
HETATM    4  C   UNL     1      -9.248  14.520  66.563  1.00  0.00    -0.282 C  
HETATM    5  C   UNL     1     -10.070  15.194  67.656  1.00  0.00    -0.231 C  
HETATM    6  C   UNL     1     -11.510  14.749  67.389  1.00  0.00    -0.363 C  
HETATM    7  C   UNL     1     -11.848  13.466  68.152  1.00  0.00    -0.396 C  
HETATM    8  C   UNL     1     -11.208  12.185  67.589  1.00  0.00    -0.286 C  
HETATM    9  C   UNL     1     -10.418  12.301  66.276  1.00  0.00    -0.266 C  
ENDROOT
BRANCH   8  10
HETATM   10  O   UNL     1     -10.389  11.638  68.639  1.00  0.00    -0.210 OA 
BRANCH  10  11
HETATM   11  C   UNL     1     -11.007  10.636  69.331  1.00  0.00    -0.255 C  
HETATM   12  C   UNL     1     -10.063   9.453  69.470  1.00  0.00    -0.214 C  
HETATM   13  O   UNL     1     -12.138  10.729  69.789  1.00  0.00    -0.312 OA 
HETATM   14  C   UNL     1     -10.238   8.497  68.288  1.00  0.00    -0.205 C  
HETATM   15  C   UNL     1     -10.224   8.745  70.810  1.00  0.00    -0.262 A  
HETATM   16  C   UNL     1      -9.202   8.811  71.771  1.00  0.00    -0.332 A  
HETATM   17  O   UNL     1      -9.885   9.106  67.048  1.00  0.00    -0.176 OA 
HETATM   18  H   UNL     1      -9.994   8.513  66.314  1.00  0.00     0.000 HD 
HETATM   19  C   UNL     1      -9.329   8.142  72.990  1.00  0.00    -0.335 A  
HETATM   20  C   UNL     1     -10.478   7.407  73.269  1.00  0.00    -0.424 A  
HETATM   21  C   UNL     1     -11.510   7.352  72.336  1.00  0.00    -0.343 A  
HETATM   22  C   UNL     1     -11.387   8.020  71.117  1.00  0.00    -0.292 A  
ENDBRANCH  10  11
ENDBRANCH   8  10
TORSDOF 2
ENDMDL
MODEL       40
REMARK 921   NORMALIZED FREE ENERGY PREDICTED BY IDOCK:   -5.42 KCAL/MOL
REMARK 922        TOTAL FREE ENERGY PREDICTED BY IDOCK:   -6.53 KCAL/MOL
REMARK 923 INTER-LIGAND FREE ENERGY PREDICTED BY IDOCK:   -5.88 KCAL/MOL
REMARK 924 INTRA-LIGAND FREE ENERGY PREDICTED BY IDOCK:   -0.65 KCAL/MOL
REMARK 927      BINDING AFFINITY PREDICTED BY RF-SCORE:    0.00 PKD
ROOT
HETATM    1  C   UNL     1     -10.515  14.404  68.486  1.00  0.00    -0.254 C  
HETATM    2  N   UNL     1     -10.914  14.056  67.130  1.00  0.00    -0.292 NA 
HETATM    3  C   UNL     1     -11.896  12.980  67.003  1.00  0.00    -0.377 C  
HETATM    4  C   UNL     1     -11.987  12.834  65.483  1.00  0.00    -0.497 C  
HETATM    5  C   UNL     1     -10.615  13.267  64.978  1.00  0.00    -0.360 C  
HETATM    6  C   UNL     1      -9.832  13.628  66.242  1.00  0.00    -0.301 C  
HETATM    7  C   UNL     1      -9.069  12.420  66.790  1.00  0.00    -0.212 C  
HETATM    8  C   UNL     1      -9.942  11.355  67.476  1.00  0.00    -0.182 C  
HETATM    9  C   UNL     1     -11.436  11.664  67.652  1.00  0.00    -0.373 C  
ENDROOT
BRANCH   8  10
HETATM   10  O   UNL     1      -9.748  10.130  66.746  1.00  0.00    -0.173 OA 
BRANCH  10  11
HETATM   11  C   UNL     1     -10.088   9.019  67.464  1.00  0.00    -0.228 C  
HETATM   12  C   UNL     1      -9.491   9.110  68.859  1.00  0.00    -0.151 C  
HETATM   13  O   UNL     1     -10.800   8.126  67.028  1.00  0.00    -0.265 OA 
HETATM   14  C   UNL     1      -8.100   8.474  68.879  1.00  0.00    -0.119 C  
HETATM   15  C   UNL     1     -10.412   8.512  69.915  1.00  0.00    -0.219 A  
HETATM   16  C   UNL     1     -11.035   9.344  70.860  1.00  0.00    -0.391 A  
HETATM   17  O   UNL     1      -7.179   9.169  68.039  1.00  0.00    -0.078 OA 
HETATM   18  H   UNL     1      -6.315   8.774  68.051  1.00  0.00     0.000 HD 
HETATM   19  C   UNL     1     -11.858   8.802  71.851  1.00  0.00    -0.437 A  
HETATM   20  C   UNL     1     -12.074   7.427  71.905  1.00  0.00    -0.341 A  
HETATM   21  C   UNL     1     -11.481   6.593  70.961  1.00  0.00    -0.382 A  
HETATM   22  C   UNL     1     -10.660   7.131  69.971  1.00  0.00    -0.248 A  
ENDBRANCH  10  11
ENDBRANCH   8  10
TORSDOF 2
ENDMDL
MODEL       41
REMARK 921   NORMALIZED FREE ENERGY PREDICTED BY IDOCK:   -5.41 KCAL/MOL
REMARK 922        TOTAL FREE ENERGY PREDICTED BY IDOCK:   -6.52 KCAL/MOL
REMARK 923 INTER-LIGAND FREE ENERGY PREDICTED BY IDOCK:   -6.09 KCAL/MOL
REMARK 924 INTRA-LIGAND FREE ENERGY PREDICTED BY IDOCK:   -0.43 KCAL/MOL
REMARK 927      BINDING AFFINITY PREDICTED BY RF-SCORE:    0.00 PKD
ROOT
HETATM    1  C   UNL     1     -10.638  13.718  64.551  1.00  0.00    -0.386 C  
HETATM    2  N   UNL     1     -10.749  14.465  65.795  1.00  0.00    -0.296 NA 
HETATM    3  C   UNL     1      -9.588  14.416  66.683  1.00  0.00    -0.281 C  
HETATM    4  C   UNL     1     -10.099  15.206  67.889  1.00  0.00    -0.222 C  
HETATM    5  C   UNL     1     -11.607  14.982  67.878  1.00  0.00    -0.350 C  
HETATM    6  C   UNL     1     -11.857  14.077  66.670  1.00  0.00    -0.419 C  
HETATM    7  C   UNL     1     -11.804  12.597  67.059  1.00  0.00    -0.415 C  
HETATM    8  C   UNL     1     -10.394  12.050  67.344  1.00  0.00    -0.207 C  
HETATM    9  C   UNL     1      -9.202  12.985  67.091  1.00  0.00    -0.226 C  
ENDROOT
BRANCH   8  10
HETATM   10  O   UNL     1     -10.403  11.578  68.704  1.00  0.00    -0.201 OA 
BRANCH  10  11
HETATM   11  C   UNL     1     -10.369  10.216  68.798  1.00  0.00    -0.194 C  
HETATM   12  C   UNL     1      -9.701   9.810  70.102  1.00  0.00    -0.299 C  
HETATM   13  O   UNL     1     -10.850   9.469  67.957  1.00  0.00    -0.233 OA 
HETATM   14  C   UNL     1      -8.194   9.651  69.895  1.00  0.00    -0.174 C  
HETATM   15  C   UNL     1     -10.333   8.561  70.704  1.00  0.00    -0.232 A  
HETATM   16  C   UNL     1     -11.074   8.649  71.894  1.00  0.00    -0.416 A  
HETATM   17  O   UNL     1      -7.570  10.881  69.529  1.00  0.00    -0.280 OA 
HETATM   18  H   UNL     1      -6.633  10.782  69.400  1.00  0.00     0.000 HD 
HETATM   19  C   UNL     1     -11.632   7.505  72.470  1.00  0.00    -0.352 A  
HETATM   20  C   UNL     1     -11.466   6.263  71.861  1.00  0.00    -0.360 A  
HETATM   21  C   UNL     1     -10.754   6.165  70.669  1.00  0.00    -0.336 A  
HETATM   22  C   UNL     1     -10.196   7.305  70.091  1.00  0.00    -0.209 A  
ENDBRANCH  10  11
ENDBRANCH   8  10
TORSDOF 2
ENDMDL
MODEL       42
REMARK 921   NORMALIZED FREE ENERGY PREDICTED BY IDOCK:   -5.34 KCAL/MOL
REMARK 922        TOTAL FREE ENERGY PREDICTED BY IDOCK:   -6.43 KCAL/MOL
REMARK 923 INTER-LIGAND FREE ENERGY PREDICTED BY IDOCK:   -6.77 KCAL/MOL
REMARK 924 INTRA-LIGAND FREE ENERGY PREDICTED BY IDOCK:    0.34 KCAL/MOL
REMARK 927      BINDING AFFINITY PREDICTED BY RF-SCORE:    0.00 PKD
ROOT
HETATM    1  C   UNL     1     -13.236  12.550  72.152  1.00  0.00    -0.403 C  
HETATM    2  N   UNL     1     -13.499  13.872  72.702  1.00  0.00    -0.617 NA 
HETATM    3  C   UNL     1     -14.249  14.789  71.845  1.00  0.00    -0.544 C  
HETATM    4  C   UNL     1     -14.241  16.064  72.690  1.00  0.00    -0.123 C  
HETATM    5  C   UNL     1     -12.956  15.970  73.506  1.00  0.00    -0.694 C  
HETATM    6  C   UNL     1     -12.316  14.651  73.070  1.00  0.00    -0.235 C  
HETATM    7  C   UNL     1     -11.360  14.856  71.892  1.00  0.00    -0.133 C  
HETATM    8  C   UNL     1     -12.043  15.123  70.539  1.00  0.00    -0.343 C  
HETATM    9  C   UNL     1     -13.575  15.032  70.484  1.00  0.00     0.014 C  
ENDROOT
BRANCH   8  10
HETATM   10  O   UNL     1     -11.584  16.413  70.094  1.00  0.00    -0.216 OA 
BRANCH  10  11
HETATM   11  C   UNL     1     -10.449  16.345  69.338  1.00  0.00    -0.309 C  
HETATM   12  C   UNL     1     -10.775  16.695  67.895  1.00  0.00    -0.344 C  
HETATM   13  O   UNL     1      -9.347  16.078  69.797  1.00  0.00    -0.149 OA 
HETATM   14  C   UNL     1     -11.150  15.431  67.118  1.00  0.00    -0.291 C  
HETATM   15  C   UNL     1      -9.646  17.468  67.225  1.00  0.00    -0.273 A  
HETATM   16  C   UNL     1      -9.821  18.820  66.884  1.00  0.00    -0.366 A  
HETATM   17  O   UNL     1     -12.335  14.821  67.625  1.00  0.00    -0.551 OA 
HETATM   18  H   UNL     1     -12.568  14.036  67.143  1.00  0.00     0.000 HD 
HETATM   19  C   UNL     1      -8.802  19.529  66.243  1.00  0.00    -0.391 A  
HETATM   20  C   UNL     1      -7.596  18.902  65.942  1.00  0.00    -0.209 A  
HETATM   21  C   UNL     1      -7.400  17.569  66.294  1.00  0.00    -0.355 A  
HETATM   22  C   UNL     1      -8.414  16.859  66.935  1.00  0.00    -0.243 A  
ENDBRANCH  10  11
ENDBRANCH   8  10
TORSDOF 2
ENDMDL
MODEL       43
REMARK 921   NORMALIZED FREE ENERGY PREDICTED BY IDOCK:   -5.32 KCAL/MOL
REMARK 922        TOTAL FREE ENERGY PREDICTED BY IDOCK:   -6.41 KCAL/MOL
REMARK 923 INTER-LIGAND FREE ENERGY PREDICTED BY IDOCK:   -6.02 KCAL/MOL
REMARK 924 INTRA-LIGAND FREE ENERGY PREDICTED BY IDOCK:   -0.39 KCAL/MOL
REMARK 927      BINDING AFFINITY PREDICTED BY RF-SCORE:    0.00 PKD
ROOT
HETATM    1  C   UNL     1     -10.779  15.212  65.151  1.00  0.00    -0.422 C  
HETATM    2  N   UNL     1     -11.437  14.081  64.513  1.00  0.00    -0.375 NA 
HETATM    3  C   UNL     1     -12.494  13.431  65.286  1.00  0.00    -0.483 C  
HETATM    4  C   UNL     1     -12.865  12.266  64.367  1.00  0.00    -0.294 C  
HETATM    5  C   UNL     1     -11.581  11.961  63.603  1.00  0.00    -0.559 C  
HETATM    6  C   UNL     1     -10.562  12.968  64.140  1.00  0.00    -0.397 C  
HETATM    7  C   UNL     1      -9.793  12.402  65.336  1.00  0.00    -0.200 C  
HETATM    8  C   UNL     1     -10.597  12.318  66.646  1.00  0.00    -0.229 C  
HETATM    9  C   UNL     1     -12.012  12.915  66.653  1.00  0.00    -0.436 C  
ENDROOT
BRANCH   8  10
HETATM   10  O   UNL     1     -10.617  10.930  67.028  1.00  0.00    -0.232 OA 
BRANCH  10  11
HETATM   11  C   UNL     1      -9.944  10.686  68.190  1.00  0.00    -0.158 C  
HETATM   12  C   UNL     1     -10.675   9.620  68.991  1.00  0.00    -0.232 C  
HETATM   13  O   UNL     1      -8.891  11.233  68.489  1.00  0.00    -0.154 OA 
HETATM   14  C   UNL     1     -11.691  10.271  69.930  1.00  0.00    -0.225 C  
HETATM   15  C   UNL     1      -9.713   8.700  69.733  1.00  0.00    -0.176 A  
HETATM   16  C   UNL     1      -9.579   7.357  69.343  1.00  0.00    -0.155 A  
HETATM   17  O   UNL     1     -12.715  10.964  69.217  1.00  0.00    -0.591 OA 
HETATM   18  H   UNL     1     -13.346  11.369  69.801  1.00  0.00     0.000 HD 
HETATM   19  C   UNL     1      -8.721   6.499  70.036  1.00  0.00    -0.140 A  
HETATM   20  C   UNL     1      -7.983   6.972  71.118  1.00  0.00    -0.104 A  
HETATM   21  C   UNL     1      -8.088   8.306  71.501  1.00  0.00    -0.158 A  
HETATM   22  C   UNL     1      -8.943   9.166  70.811  1.00  0.00    -0.296 A  
ENDBRANCH  10  11
ENDBRANCH   8  10
TORSDOF 2
ENDMDL
MODEL       44
REMARK 921   NORMALIZED FREE ENERGY PREDICTED BY IDOCK:   -5.31 KCAL/MOL
REMARK 922        TOTAL FREE ENERGY PREDICTED BY IDOCK:   -6.40 KCAL/MOL
REMARK 923 INTER-LIGAND FREE ENERGY PREDICTED BY IDOCK:   -5.89 KCAL/MOL
REMARK 924 INTRA-LIGAND FREE ENERGY PREDICTED BY IDOCK:   -0.51 KCAL/MOL
REMARK 927      BINDING AFFINITY PREDICTED BY RF-SCORE:    0.00 PKD
ROOT
HETATM    1  C   UNL     1     -10.433   5.541  68.507  1.00  0.00    -0.164 C  
HETATM    2  N   UNL     1      -9.426   6.156  69.359  1.00  0.00    -0.137 NA 
HETATM    3  C   UNL     1      -9.927   6.941  70.487  1.00  0.00    -0.183 C  
HETATM    4  C   UNL     1      -8.626   7.494  71.070  1.00  0.00    -0.132 C  
HETATM    5  C   UNL     1      -7.683   7.585  69.875  1.00  0.00    -0.098 C  
HETATM    6  C   UNL     1      -8.510   7.081  68.690  1.00  0.00    -0.121 C  
HETATM    7  C   UNL     1      -9.243   8.228  67.991  1.00  0.00    -0.142 C  
HETATM    8  C   UNL     1     -10.450   8.793  68.761  1.00  0.00    -0.191 C  
HETATM    9  C   UNL     1     -10.863   8.083  70.059  1.00  0.00    -0.235 C  
ENDROOT
BRANCH   8  10
HETATM   10  O   UNL     1     -10.171  10.186  68.999  1.00  0.00    -0.184 OA 
BRANCH  10  11
HETATM   11  C   UNL     1     -10.973  11.022  68.276  1.00  0.00    -0.235 C  
HETATM   12  C   UNL     1     -10.136  11.778  67.256  1.00  0.00    -0.211 C  
HETATM   13  O   UNL     1     -12.184  11.096  68.429  1.00  0.00    -0.610 OA 
HETATM   14  C   UNL     1      -9.624  13.087  67.861  1.00  0.00    -0.215 C  
HETATM   15  C   UNL     1     -10.890  12.004  65.952  1.00  0.00    -0.329 A  
HETATM   16  C   UNL     1     -10.492  11.335  64.782  1.00  0.00    -0.384 A  
HETATM   17  O   UNL     1      -8.746  12.862  68.963  1.00  0.00    -0.337 OA 
HETATM   18  H   UNL     1      -8.428  13.675  69.339  1.00  0.00     0.000 HD 
HETATM   19  C   UNL     1     -11.158  11.558  63.575  1.00  0.00    -0.434 A  
HETATM   20  C   UNL     1     -12.234  12.442  63.522  1.00  0.00    -0.661 A  
HETATM   21  C   UNL     1     -12.654  13.094  64.678  1.00  0.00    -0.384 A  
HETATM   22  C   UNL     1     -11.991  12.873  65.885  1.00  0.00    -0.504 A  
ENDBRANCH  10  11
ENDBRANCH   8  10
TORSDOF 2
ENDMDL
MODEL       45
REMARK 921   NORMALIZED FREE ENERGY PREDICTED BY IDOCK:   -5.30 KCAL/MOL
REMARK 922        TOTAL FREE ENERGY PREDICTED BY IDOCK:   -6.40 KCAL/MOL
REMARK 923 INTER-LIGAND FREE ENERGY PREDICTED BY IDOCK:   -5.66 KCAL/MOL
REMARK 924 INTRA-LIGAND FREE ENERGY PREDICTED BY IDOCK:   -0.73 KCAL/MOL
REMARK 927      BINDING AFFINITY PREDICTED BY RF-SCORE:    0.00 PKD
ROOT
HETATM    1  C   UNL     1      -7.791   9.143  70.566  1.00  0.00    -0.142 C  
HETATM    2  N   UNL     1      -8.851   8.264  70.093  1.00  0.00    -0.139 NA 
HETATM    3  C   UNL     1      -9.190   8.370  68.674  1.00  0.00    -0.143 C  
HETATM    4  C   UNL     1     -10.371   7.402  68.575  1.00  0.00    -0.221 C  
HETATM    5  C   UNL     1     -11.003   7.433  69.962  1.00  0.00    -0.264 C  
HETATM    6  C   UNL     1     -10.145   8.417  70.759  1.00  0.00    -0.193 C  
HETATM    7  C   UNL     1     -10.690   9.844  70.658  1.00  0.00    -0.372 C  
HETATM    8  C   UNL     1     -10.458  10.534  69.302  1.00  0.00    -0.235 C  
HETATM    9  C   UNL     1      -9.611   9.790  68.259  1.00  0.00    -0.155 C  
ENDROOT
BRANCH   8  10
HETATM   10  O   UNL     1     -11.759  10.860  68.778  1.00  0.00    -0.298 OA 
BRANCH  10  11
HETATM   11  C   UNL     1     -11.764  12.007  68.036  1.00  0.00    -0.331 C  
HETATM   12  C   UNL     1     -11.061  13.115  68.803  1.00  0.00    -0.309 C  
HETATM   13  O   UNL     1     -12.239  12.081  66.912  1.00  0.00    -0.529 OA 
HETATM   14  C   UNL     1     -12.067  13.882  69.663  1.00  0.00    -0.349 C  
HETATM   15  C   UNL     1     -10.272  14.037  67.882  1.00  0.00    -0.240 A  
HETATM   16  C   UNL     1      -8.867  14.040  67.921  1.00  0.00    -0.185 A  
HETATM   17  O   UNL     1     -12.655  13.056  70.667  1.00  0.00    -0.280 OA 
HETATM   18  H   UNL     1     -13.281  13.532  71.201  1.00  0.00     0.000 HD 
HETATM   19  C   UNL     1      -8.136  14.903  67.100  1.00  0.00    -0.239 A  
HETATM   20  C   UNL     1      -8.795  15.765  66.227  1.00  0.00    -0.378 A  
HETATM   21  C   UNL     1     -10.186  15.756  66.162  1.00  0.00    -0.332 A  
HETATM   22  C   UNL     1     -10.919  14.895  66.979  1.00  0.00    -0.327 A  
ENDBRANCH  10  11
ENDBRANCH   8  10
TORSDOF 2
ENDMDL
MODEL       46
REMARK 921   NORMALIZED FREE ENERGY PREDICTED BY IDOCK:   -5.27 KCAL/MOL
REMARK 922        TOTAL FREE ENERGY PREDICTED BY IDOCK:   -6.35 KCAL/MOL
REMARK 923 INTER-LIGAND FREE ENERGY PREDICTED BY IDOCK:   -5.63 KCAL/MOL
REMARK 924 INTRA-LIGAND FREE ENERGY PREDICTED BY IDOCK:   -0.73 KCAL/MOL
REMARK 927      BINDING AFFINITY PREDICTED BY RF-SCORE:    0.00 PKD
ROOT
HETATM    1  C   UNL     1      -9.762   9.562  65.890  1.00  0.00    -0.282 C  
HETATM    2  N   UNL     1      -9.381  10.732  66.667  1.00  0.00    -0.164 NA 
HETATM    3  C   UNL     1      -8.483  10.491  67.797  1.00  0.00    -0.114 C  
HETATM    4  C   UNL     1      -8.393  11.889  68.411  1.00  0.00    -0.157 C  
HETATM    5  C   UNL     1      -9.724  12.545  68.059  1.00  0.00    -0.215 C  
HETATM    6  C   UNL     1     -10.486  11.478  67.271  1.00  0.00    -0.212 C  
HETATM    7  C   UNL     1     -11.344  10.608  68.193  1.00  0.00    -0.354 C  
HETATM    8  C   UNL     1     -10.560   9.601  69.053  1.00  0.00    -0.218 C  
HETATM    9  C   UNL     1      -9.048   9.484  68.812  1.00  0.00    -0.133 C  
ENDROOT
BRANCH   8  10
HETATM   10  O   UNL     1     -10.843   9.926  70.427  1.00  0.00    -0.275 OA 
BRANCH  10  11
HETATM   11  C   UNL     1     -10.726   8.854  71.264  1.00  0.00    -0.287 C  
HETATM   12  C   UNL     1     -11.590   7.711  70.755  1.00  0.00    -0.284 C  
HETATM   13  O   UNL     1      -9.997   8.839  72.246  1.00  0.00    -0.308 OA 
HETATM   14  C   UNL     1     -12.993   7.800  71.359  1.00  0.00    -0.288 C  
HETATM   15  C   UNL     1     -10.945   6.353  70.998  1.00  0.00    -0.328 A  
HETATM   16  C   UNL     1     -10.478   5.589  69.916  1.00  0.00    -0.386 A  
HETATM   17  O   UNL     1     -13.676   8.986  70.957  1.00  0.00    -0.580 OA 
HETATM   18  H   UNL     1     -14.548   9.042  71.333  1.00  0.00     0.000 HD 
HETATM   19  C   UNL     1      -9.911   4.330  70.127  1.00  0.00    -0.271 A  
HETATM   20  C   UNL     1      -9.796   3.822  71.419  1.00  0.00    -0.226 A  
HETATM   21  C   UNL     1     -10.233   4.578  72.503  1.00  0.00    -0.246 A  
HETATM   22  C   UNL     1     -10.799   5.836  72.296  1.00  0.00    -0.298 A  
ENDBRANCH  10  11
ENDBRANCH   8  10
TORSDOF 2
ENDMDL
MODEL       47
REMARK 921   NORMALIZED FREE ENERGY PREDICTED BY IDOCK:   -5.24 KCAL/MOL
REMARK 922        TOTAL FREE ENERGY PREDICTED BY IDOCK:   -6.33 KCAL/MOL
REMARK 923 INTER-LIGAND FREE ENERGY PREDICTED BY IDOCK:   -5.75 KCAL/MOL
REMARK 924 INTRA-LIGAND FREE ENERGY PREDICTED BY IDOCK:   -0.58 KCAL/MOL
REMARK 927      BINDING AFFINITY PREDICTED BY RF-SCORE:    0.00 PKD
ROOT
HETATM    1  C   UNL     1     -10.077  10.790  65.823  1.00  0.00    -0.261 C  
HETATM    2  N   UNL     1     -10.213  11.983  66.646  1.00  0.00    -0.202 NA 
HETATM    3  C   UNL     1      -9.219  12.151  67.706  1.00  0.00    -0.189 C  
HETATM    4  C   UNL     1      -9.729  13.417  68.398  1.00  0.00    -0.201 C  
HETATM    5  C   UNL     1     -11.236  13.397  68.163  1.00  0.00    -0.304 C  
HETATM    6  C   UNL     1     -11.486  12.120  67.356  1.00  0.00    -0.345 C  
HETATM    7  C   UNL     1     -11.777  10.929  68.272  1.00  0.00    -0.259 C  
HETATM    8  C   UNL     1     -10.554  10.372  69.023  1.00  0.00    -0.221 C  
HETATM    9  C   UNL     1      -9.179  10.970  68.689  1.00  0.00    -0.186 C  
ENDROOT
BRANCH   8  10
HETATM   10  O   UNL     1     -10.845  10.492  70.428  1.00  0.00    -0.263 OA 
BRANCH  10  11
HETATM   11  C   UNL     1     -10.473   9.393  71.147  1.00  0.00    -0.322 C  
HETATM   12  C   UNL     1     -11.522   8.303  70.993  1.00  0.00    -0.303 C  
HETATM   13  O   UNL     1      -9.427   9.319  71.776  1.00  0.00    -0.302 OA 
HETATM   14  C   UNL     1     -12.583   8.434  72.087  1.00  0.00    -0.364 C  
HETATM   15  C   UNL     1     -10.901   6.912  70.959  1.00  0.00    -0.272 A  
HETATM   16  C   UNL     1     -10.920   6.160  69.772  1.00  0.00    -0.459 A  
HETATM   17  O   UNL     1     -13.308   9.659  71.988  1.00  0.00    -0.409 OA 
HETATM   18  H   UNL     1     -13.967   9.741  72.668  1.00  0.00     0.000 HD 
HETATM   19  C   UNL     1     -10.379   4.872  69.739  1.00  0.00    -0.203 A  
HETATM   20  C   UNL     1      -9.807   4.323  70.884  1.00  0.00    -0.259 A  
HETATM   21  C   UNL     1      -9.761   5.066  72.061  1.00  0.00    -0.214 A  
HETATM   22  C   UNL     1     -10.299   6.352  72.097  1.00  0.00    -0.213 A  
ENDBRANCH  10  11
ENDBRANCH   8  10
TORSDOF 2
ENDMDL
MODEL       48
REMARK 921   NORMALIZED FREE ENERGY PREDICTED BY IDOCK:   -5.16 KCAL/MOL
REMARK 922        TOTAL FREE ENERGY PREDICTED BY IDOCK:   -6.24 KCAL/MOL
REMARK 923 INTER-LIGAND FREE ENERGY PREDICTED BY IDOCK:   -5.57 KCAL/MOL
REMARK 924 INTRA-LIGAND FREE ENERGY PREDICTED BY IDOCK:   -0.67 KCAL/MOL
REMARK 927      BINDING AFFINITY PREDICTED BY RF-SCORE:    0.00 PKD
ROOT
HETATM    1  C   UNL     1     -10.749  16.496  65.413  1.00  0.00    -0.259 C  
HETATM    2  N   UNL     1     -10.316  16.585  66.800  1.00  0.00    -0.297 NA 
HETATM    3  C   UNL     1      -8.977  16.075  67.091  1.00  0.00    -0.202 C  
HETATM    4  C   UNL     1      -8.917  16.238  68.611  1.00  0.00    -0.232 C  
HETATM    5  C   UNL     1     -10.369  16.116  69.062  1.00  0.00    -0.258 C  
HETATM    6  C   UNL     1     -11.159  15.888  67.772  1.00  0.00    -0.288 C  
HETATM    7  C   UNL     1     -11.300  14.396  67.460  1.00  0.00    -0.345 C  
HETATM    8  C   UNL     1     -10.019  13.713  66.951  1.00  0.00    -0.260 C  
HETATM    9  C   UNL     1      -8.792  14.601  66.692  1.00  0.00    -0.240 C  
ENDROOT
BRANCH   8  10
HETATM   10  O   UNL     1      -9.711  12.665  67.889  1.00  0.00    -0.203 OA 
BRANCH  10  11
HETATM   11  C   UNL     1      -9.211  11.543  67.292  1.00  0.00    -0.167 C  
HETATM   12  C   UNL     1     -10.277  10.917  66.407  1.00  0.00    -0.289 C  
HETATM   13  O   UNL     1      -8.061  11.154  67.441  1.00  0.00    -0.125 OA 
HETATM   14  C   UNL     1     -11.099   9.905  67.207  1.00  0.00     0.007 C  
HETATM   15  C   UNL     1      -9.686  10.307  65.143  1.00  0.00    -0.364 A  
HETATM   16  C   UNL     1      -9.944  10.888  63.890  1.00  0.00    -0.400 A  
HETATM   17  O   UNL     1     -11.821  10.521  68.272  1.00  0.00    -0.751 OA 
HETATM   18  H   UNL     1     -12.331   9.892  68.769  1.00  0.00     0.000 HD 
HETATM   19  C   UNL     1      -9.430  10.318  62.723  1.00  0.00    -0.323 A  
HETATM   20  C   UNL     1      -8.646   9.169  62.792  1.00  0.00    -0.209 A  
HETATM   21  C   UNL     1      -8.362   8.595  64.028  1.00  0.00    -0.125 A  
HETATM   22  C   UNL     1      -8.873   9.162  65.196  1.00  0.00    -0.241 A  
ENDBRANCH  10  11
ENDBRANCH   8  10
TORSDOF 2
ENDMDL
MODEL       49
REMARK 921   NORMALIZED FREE ENERGY PREDICTED BY IDOCK:   -5.16 KCAL/MOL
REMARK 922        TOTAL FREE ENERGY PREDICTED BY IDOCK:   -6.24 KCAL/MOL
REMARK 923 INTER-LIGAND FREE ENERGY PREDICTED BY IDOCK:   -5.62 KCAL/MOL
REMARK 924 INTRA-LIGAND FREE ENERGY PREDICTED BY IDOCK:   -0.61 KCAL/MOL
REMARK 927      BINDING AFFINITY PREDICTED BY RF-SCORE:    0.00 PKD
ROOT
HETATM    1  C   UNL     1     -10.644   8.899  68.221  1.00  0.00    -0.152 C  
HETATM    2  N   UNL     1      -9.639   9.335  67.263  1.00  0.00    -0.149 NA 
HETATM    3  C   UNL     1      -8.451   9.979  67.823  1.00  0.00    -0.114 C  
HETATM    4  C   UNL     1      -7.698  10.376  66.552  1.00  0.00    -0.121 C  
HETATM    5  C   UNL     1      -8.793  10.583  65.511  1.00  0.00    -0.200 C  
HETATM    6  C   UNL     1     -10.097  10.294  66.257  1.00  0.00    -0.236 C  
HETATM    7  C   UNL     1     -10.677  11.565  66.882  1.00  0.00    -0.304 C  
HETATM    8  C   UNL     1      -9.928  12.080  68.123  1.00  0.00    -0.203 C  
HETATM    9  C   UNL     1      -8.781  11.218  68.672  1.00  0.00    -0.136 C  
ENDROOT
BRANCH   8  10
HETATM   10  O   UNL     1      -9.472  13.409  67.807  1.00  0.00    -0.196 OA 
BRANCH  10  11
HETATM   11  C   UNL     1      -9.802  14.328  68.761  1.00  0.00    -0.189 C  
HETATM   12  C   UNL     1     -11.314  14.472  68.832  1.00  0.00    -0.298 C  
HETATM   13  O   UNL     1      -8.978  14.901  69.461  1.00  0.00    -0.107 OA 
HETATM   14  C   UNL     1     -11.785  15.567  67.873  1.00  0.00    -0.138 C  
HETATM   15  C   UNL     1     -11.800  14.707  70.257  1.00  0.00    -0.363 A  
HETATM   16  C   UNL     1     -12.539  13.714  70.922  1.00  0.00    -0.421 A  
HETATM   17  O   UNL     1     -11.509  15.244  66.511  1.00  0.00    -0.242 OA 
HETATM   18  H   UNL     1     -11.801  15.925  65.916  1.00  0.00     0.000 HD 
HETATM   19  C   UNL     1     -13.014  13.932  72.218  1.00  0.00    -0.450 A  
HETATM   20  C   UNL     1     -12.752  15.136  72.867  1.00  0.00    -0.522 A  
HETATM   21  C   UNL     1     -12.001  16.120  72.227  1.00  0.00    -0.637 A  
HETATM   22  C   UNL     1     -11.525  15.905  70.934  1.00  0.00    -0.444 A  
ENDBRANCH  10  11
ENDBRANCH   8  10
TORSDOF 2
ENDMDL
MODEL       50
REMARK 921   NORMALIZED FREE ENERGY PREDICTED BY IDOCK:   -5.15 KCAL/MOL
REMARK 922        TOTAL FREE ENERGY PREDICTED BY IDOCK:   -6.22 KCAL/MOL
REMARK 923 INTER-LIGAND FREE ENERGY PREDICTED BY IDOCK:   -5.49 KCAL/MOL
REMARK 924 INTRA-LIGAND FREE ENERGY PREDICTED BY IDOCK:   -0.73 KCAL/MOL
REMARK 927      BINDING AFFINITY PREDICTED BY RF-SCORE:    0.00 PKD
ROOT
HETATM    1  C   UNL     1      -9.923   7.197  66.849  1.00  0.00    -0.224 C  
HETATM    2  N   UNL     1      -8.697   7.819  66.369  1.00  0.00    -0.143 NA 
HETATM    3  C   UNL     1      -7.961   8.627  67.341  1.00  0.00    -0.102 C  
HETATM    4  C   UNL     1      -6.829   9.181  66.475  1.00  0.00    -0.080 C  
HETATM    5  C   UNL     1      -7.421   9.244  65.072  1.00  0.00    -0.106 C  
HETATM    6  C   UNL     1      -8.852   8.726  65.230  1.00  0.00    -0.162 C  
HETATM    7  C   UNL     1      -9.831   9.867  65.519  1.00  0.00    -0.381 C  
HETATM    8  C   UNL     1      -9.746  10.453  66.939  1.00  0.00    -0.181 C  
HETATM    9  C   UNL     1      -8.801   9.768  67.938  1.00  0.00    -0.122 C  
ENDROOT
BRANCH   8  10
HETATM   10  O   UNL     1      -9.419  11.847  66.789  1.00  0.00    -0.191 OA 
BRANCH  10  11
HETATM   11  C   UNL     1      -9.991  12.636  67.746  1.00  0.00    -0.218 C  
HETATM   12  C   UNL     1     -11.474  12.321  67.849  1.00  0.00    -0.390 C  
HETATM   13  O   UNL     1      -9.363  13.437  68.425  1.00  0.00    -0.206 OA 
HETATM   14  C   UNL     1     -12.270  13.215  66.895  1.00  0.00    -0.222 C  
HETATM   15  C   UNL     1     -11.982  12.415  69.282  1.00  0.00    -0.308 A  
HETATM   16  C   UNL     1     -12.376  11.254  69.969  1.00  0.00    -0.330 A  
HETATM   17  O   UNL     1     -11.937  12.974  65.529  1.00  0.00    -0.374 OA 
HETATM   18  H   UNL     1     -12.431  13.529  64.937  1.00  0.00     0.000 HD 
HETATM   19  C   UNL     1     -12.870  11.334  71.273  1.00  0.00    -0.491 A  
HETATM   20  C   UNL     1     -12.968  12.569  71.910  1.00  0.00    -0.406 A  
HETATM   21  C   UNL     1     -12.559  13.724  71.250  1.00  0.00    -0.444 A  
HETATM   22  C   UNL     1     -12.065  13.649  69.948  1.00  0.00    -0.406 A  
ENDBRANCH  10  11
ENDBRANCH   8  10
TORSDOF 2
ENDMDL
MODEL       51
REMARK 921   NORMALIZED FREE ENERGY PREDICTED BY IDOCK:   -5.14 KCAL/MOL
REMARK 922        TOTAL FREE ENERGY PREDICTED BY IDOCK:   -6.22 KCAL/MOL
REMARK 923 INTER-LIGAND FREE ENERGY PREDICTED BY IDOCK:   -5.66 KCAL/MOL
REMARK 924 INTRA-LIGAND FREE ENERGY PREDICTED BY IDOCK:   -0.56 KCAL/MOL
REMARK 927      BINDING AFFINITY PREDICTED BY RF-SCORE:    0.00 PKD
ROOT
HETATM    1  C   UNL     1     -10.352  13.246  67.386  1.00  0.00    -0.243 C  
HETATM    2  N   UNL     1      -9.668  12.248  66.577  1.00  0.00    -0.228 NA 
HETATM    3  C   UNL     1     -10.302  10.932  66.505  1.00  0.00    -0.247 C  
HETATM    4  C   UNL     1      -9.279  10.150  65.680  1.00  0.00    -0.232 C  
HETATM    5  C   UNL     1      -7.946  10.820  65.996  1.00  0.00    -0.154 C  
HETATM    6  C   UNL     1      -8.297  11.937  66.982  1.00  0.00    -0.178 C  
HETATM    7  C   UNL     1      -8.210  11.450  68.431  1.00  0.00    -0.151 C  
HETATM    8  C   UNL     1      -9.352  10.520  68.874  1.00  0.00    -0.187 C  
HETATM    9  C   UNL     1     -10.503  10.282  67.884  1.00  0.00    -0.253 C  
ENDROOT
BRANCH   8  10
HETATM   10  O   UNL     1      -8.742   9.277  69.267  1.00  0.00    -0.132 OA 
BRANCH  10  11
HETATM   11  C   UNL     1      -9.638   8.374  69.763  1.00  0.00    -0.170 C  
HETATM   12  C   UNL     1     -10.185   8.872  71.091  1.00  0.00    -0.336 C  
HETATM   13  O   UNL     1      -9.958   7.348  69.178  1.00  0.00    -0.166 OA 
HETATM   14  C   UNL     1      -9.314   8.366  72.243  1.00  0.00    -0.286 C  
HETATM   15  C   UNL     1     -11.653   8.511  71.278  1.00  0.00    -0.332 A  
HETATM   16  C   UNL     1     -12.634   9.516  71.266  1.00  0.00    -0.425 A  
HETATM   17  O   UNL     1      -7.984   8.878  72.176  1.00  0.00    -0.364 OA 
HETATM   18  H   UNL     1      -7.443   8.563  72.891  1.00  0.00     0.000 HD 
HETATM   19  C   UNL     1     -13.980   9.197  71.466  1.00  0.00    -0.304 A  
HETATM   20  C   UNL     1     -14.362   7.874  71.672  1.00  0.00    -0.595 A  
HETATM   21  C   UNL     1     -13.403   6.865  71.663  1.00  0.00    -0.296 A  
HETATM   22  C   UNL     1     -12.059   7.179  71.463  1.00  0.00    -0.377 A  
ENDBRANCH  10  11
ENDBRANCH   8  10
TORSDOF 2
ENDMDL
MODEL       52
REMARK 921   NORMALIZED FREE ENERGY PREDICTED BY IDOCK:   -5.12 KCAL/MOL
REMARK 922        TOTAL FREE ENERGY PREDICTED BY IDOCK:   -6.19 KCAL/MOL
REMARK 923 INTER-LIGAND FREE ENERGY PREDICTED BY IDOCK:   -5.98 KCAL/MOL
REMARK 924 INTRA-LIGAND FREE ENERGY PREDICTED BY IDOCK:   -0.22 KCAL/MOL
REMARK 927      BINDING AFFINITY PREDICTED BY RF-SCORE:    0.00 PKD
ROOT
HETATM    1  C   UNL     1     -10.321  19.962  66.743  1.00  0.00    -0.474 C  
HETATM    2  N   UNL     1      -8.984  19.619  67.203  1.00  0.00    -0.304 NA 
HETATM    3  C   UNL     1      -8.234  18.682  66.367  1.00  0.00    -0.277 C  
HETATM    4  C   UNL     1      -6.963  18.490  67.196  1.00  0.00    -0.213 C  
HETATM    5  C   UNL     1      -7.412  18.713  68.636  1.00  0.00    -0.332 C  
HETATM    6  C   UNL     1      -8.909  19.013  68.534  1.00  0.00    -0.362 C  
HETATM    7  C   UNL     1      -9.744  17.734  68.642  1.00  0.00    -0.346 C  
HETATM    8  C   UNL     1      -9.708  16.826  67.401  1.00  0.00    -0.245 C  
HETATM    9  C   UNL     1      -8.960  17.342  66.162  1.00  0.00    -0.174 C  
ENDROOT
BRANCH   8  10
HETATM   10  O   UNL     1      -9.180  15.558  67.834  1.00  0.00    -0.186 OA 
BRANCH  10  11
HETATM   11  C   UNL     1     -10.154  14.648  68.132  1.00  0.00    -0.224 C  
HETATM   12  C   UNL     1      -9.831  13.319  67.469  1.00  0.00    -0.220 C  
HETATM   13  O   UNL     1     -11.106  14.892  68.859  1.00  0.00    -0.235 OA 
HETATM   14  C   UNL     1     -10.457  13.260  66.074  1.00  0.00    -0.286 C  
HETATM   15  C   UNL     1     -10.240  12.133  68.333  1.00  0.00    -0.212 A  
HETATM   16  C   UNL     1      -9.260  11.313  68.916  1.00  0.00    -0.076 A  
HETATM   17  O   UNL     1      -9.916  14.248  65.200  1.00  0.00    -0.519 OA 
HETATM   18  H   UNL     1     -10.305  14.212  64.333  1.00  0.00     0.000 HD 
HETATM   19  C   UNL     1      -9.627  10.206  69.686  1.00  0.00    -0.237 A  
HETATM   20  C   UNL     1     -10.972   9.911  69.892  1.00  0.00    -0.321 A  
HETATM   21  C   UNL     1     -11.954  10.729  69.340  1.00  0.00    -0.353 A  
HETATM   22  C   UNL     1     -11.592  11.835  68.571  1.00  0.00    -0.380 A  
ENDBRANCH  10  11
ENDBRANCH   8  10
TORSDOF 2
ENDMDL
MODEL       53
REMARK 921   NORMALIZED FREE ENERGY PREDICTED BY IDOCK:   -5.12 KCAL/MOL
REMARK 922        TOTAL FREE ENERGY PREDICTED BY IDOCK:   -6.19 KCAL/MOL
REMARK 923 INTER-LIGAND FREE ENERGY PREDICTED BY IDOCK:   -5.46 KCAL/MOL
REMARK 924 INTRA-LIGAND FREE ENERGY PREDICTED BY IDOCK:   -0.73 KCAL/MOL
REMARK 927      BINDING AFFINITY PREDICTED BY RF-SCORE:    0.00 PKD
ROOT
HETATM    1  C   UNL     1      -7.213  10.538  68.340  1.00  0.00    -0.080 C  
HETATM    2  N   UNL     1      -8.288   9.974  67.537  1.00  0.00    -0.118 NA 
HETATM    3  C   UNL     1      -8.770  10.803  66.432  1.00  0.00    -0.158 C  
HETATM    4  C   UNL     1      -9.926   9.953  65.901  1.00  0.00    -0.347 C  
HETATM    5  C   UNL     1     -10.418   9.178  67.119  1.00  0.00    -0.325 C  
HETATM    6  C   UNL     1      -9.514   9.640  68.264  1.00  0.00    -0.136 C  
HETATM    7  C   UNL     1     -10.108  10.848  68.994  1.00  0.00    -0.212 C  
HETATM    8  C   UNL     1     -10.032  12.176  68.222  1.00  0.00    -0.212 C  
HETATM    9  C   UNL     1      -9.271  12.183  66.888  1.00  0.00    -0.203 C  
ENDROOT
BRANCH   8  10
HETATM   10  O   UNL     1     -11.387  12.630  68.049  1.00  0.00    -0.251 OA 
BRANCH  10  11
HETATM   11  C   UNL     1     -11.487  13.989  67.950  1.00  0.00    -0.316 C  
HETATM   12  C   UNL     1     -10.829  14.639  69.156  1.00  0.00    -0.269 C  
HETATM   13  O   UNL     1     -12.002  14.560  66.999  1.00  0.00    -0.404 OA 
HETATM   14  C   UNL     1     -11.853  14.828  70.278  1.00  0.00    -0.302 C  
HETATM   15  C   UNL     1     -10.129  15.942  68.793  1.00  0.00    -0.221 A  
HETATM   16  C   UNL     1      -8.727  16.024  68.831  1.00  0.00    -0.236 A  
HETATM   17  O   UNL     1     -12.357  13.583  70.760  1.00  0.00    -0.347 OA 
HETATM   18  H   UNL     1     -12.993  13.700  71.456  1.00  0.00     0.000 HD 
HETATM   19  C   UNL     1      -8.077  17.223  68.527  1.00  0.00    -0.262 A  
HETATM   20  C   UNL     1      -8.816  18.350  68.175  1.00  0.00    -0.319 A  
HETATM   21  C   UNL     1     -10.204  18.277  68.111  1.00  0.00    -0.406 A  
HETATM   22  C   UNL     1     -10.856  17.082  68.413  1.00  0.00    -0.333 A  
ENDBRANCH  10  11
ENDBRANCH   8  10
TORSDOF 2
ENDMDL
MODEL       54
REMARK 921   NORMALIZED FREE ENERGY PREDICTED BY IDOCK:   -5.12 KCAL/MOL
REMARK 922        TOTAL FREE ENERGY PREDICTED BY IDOCK:   -6.19 KCAL/MOL
REMARK 923 INTER-LIGAND FREE ENERGY PREDICTED BY IDOCK:   -5.73 KCAL/MOL
REMARK 924 INTRA-LIGAND FREE ENERGY PREDICTED BY IDOCK:   -0.46 KCAL/MOL
REMARK 927      BINDING AFFINITY PREDICTED BY RF-SCORE:    0.00 PKD
ROOT
HETATM    1  C   UNL     1      -9.016  15.542  69.302  1.00  0.00    -0.267 C  
HETATM    2  N   UNL     1      -9.463  15.461  67.919  1.00  0.00    -0.197 NA 
HETATM    3  C   UNL     1     -10.876  15.144  67.716  1.00  0.00    -0.292 C  
HETATM    4  C   UNL     1     -10.945  15.049  66.191  1.00  0.00    -0.334 C  
HETATM    5  C   UNL     1      -9.548  14.604  65.774  1.00  0.00    -0.266 C  
HETATM    6  C   UNL     1      -8.775  14.472  67.088  1.00  0.00    -0.219 C  
HETATM    7  C   UNL     1      -8.879  13.055  67.659  1.00  0.00    -0.191 C  
HETATM    8  C   UNL     1     -10.244  12.700  68.273  1.00  0.00    -0.239 C  
HETATM    9  C   UNL     1     -11.296  13.816  68.366  1.00  0.00    -0.326 C  
ENDROOT
BRANCH   8  10
HETATM   10  O   UNL     1     -10.748  11.573  67.533  1.00  0.00    -0.203 OA 
BRANCH  10  11
HETATM   11  C   UNL     1     -11.267  10.596  68.334  1.00  0.00    -0.288 C  
HETATM   12  C   UNL     1     -10.231   9.504  68.546  1.00  0.00    -0.223 C  
HETATM   13  O   UNL     1     -12.388  10.646  68.820  1.00  0.00    -0.349 OA 
HETATM   14  C   UNL     1     -10.364   8.433  67.462  1.00  0.00    -0.265 C  
HETATM   15  C   UNL     1     -10.299   8.914  69.949  1.00  0.00    -0.215 A  
HETATM   16  C   UNL     1      -9.258   9.145  70.863  1.00  0.00    -0.326 A  
HETATM   17  O   UNL     1     -10.093   8.950  66.160  1.00  0.00    -0.372 OA 
HETATM   18  H   UNL     1     -10.176   8.285  65.486  1.00  0.00     0.000 HD 
HETATM   19  C   UNL     1      -9.298   8.584  72.142  1.00  0.00    -0.353 A  
HETATM   20  C   UNL     1     -10.380   7.794  72.526  1.00  0.00    -0.328 A  
HETATM   21  C   UNL     1     -11.429   7.576  71.638  1.00  0.00    -0.292 A  
HETATM   22  C   UNL     1     -11.393   8.135  70.361  1.00  0.00    -0.181 A  
ENDBRANCH  10  11
ENDBRANCH   8  10
TORSDOF 2
ENDMDL
MODEL       55
REMARK 921   NORMALIZED FREE ENERGY PREDICTED BY IDOCK:   -5.10 KCAL/MOL
REMARK 922        TOTAL FREE ENERGY PREDICTED BY IDOCK:   -6.17 KCAL/MOL
REMARK 923 INTER-LIGAND FREE ENERGY PREDICTED BY IDOCK:   -5.56 KCAL/MOL
REMARK 924 INTRA-LIGAND FREE ENERGY PREDICTED BY IDOCK:   -0.61 KCAL/MOL
REMARK 927      BINDING AFFINITY PREDICTED BY RF-SCORE:    0.00 PKD
ROOT
HETATM    1  C   UNL     1     -10.233   7.775  71.369  1.00  0.00    -0.182 C  
HETATM    2  N   UNL     1      -9.440   7.534  70.172  1.00  0.00    -0.161 NA 
HETATM    3  C   UNL     1      -8.264   8.385  69.996  1.00  0.00    -0.121 C  
HETATM    4  C   UNL     1      -7.761   7.923  68.627  1.00  0.00    -0.113 C  
HETATM    5  C   UNL     1      -9.017   7.453  67.901  1.00  0.00    -0.131 C  
HETATM    6  C   UNL     1     -10.152   7.680  68.902  1.00  0.00    -0.197 C  
HETATM    7  C   UNL     1     -10.773   9.070  68.736  1.00  0.00    -0.140 C  
HETATM    8  C   UNL     1      -9.909  10.234  69.251  1.00  0.00    -0.228 C  
HETATM    9  C   UNL     1      -8.601   9.885  69.976  1.00  0.00    -0.196 C  
ENDROOT
BRANCH   8  10
HETATM   10  O   UNL     1      -9.662  11.094  68.122  1.00  0.00    -0.169 OA 
BRANCH  10  11
HETATM   11  C   UNL     1      -9.904  12.411  68.390  1.00  0.00    -0.198 C  
HETATM   12  C   UNL     1     -11.399  12.634  68.548  1.00  0.00    -0.333 C  
HETATM   13  O   UNL     1      -9.021  13.248  68.515  1.00  0.00    -0.155 OA 
HETATM   14  C   UNL     1     -12.026  12.982  67.197  1.00  0.00    -0.329 C  
HETATM   15  C   UNL     1     -11.712  13.678  69.613  1.00  0.00    -0.383 A  
HETATM   16  C   UNL     1     -12.325  13.295  70.818  1.00  0.00    -0.425 A  
HETATM   17  O   UNL     1     -11.911  11.912  66.260  1.00  0.00    -0.554 OA 
HETATM   18  H   UNL     1     -12.301  12.128  65.420  1.00  0.00     0.000 HD 
HETATM   19  C   UNL     1     -12.642  14.250  71.787  1.00  0.00    -0.418 A  
HETATM   20  C   UNL     1     -12.346  15.593  71.571  1.00  0.00    -0.490 A  
HETATM   21  C   UNL     1     -11.718  15.984  70.391  1.00  0.00    -0.326 A  
HETATM   22  C   UNL     1     -11.399  15.033  69.421  1.00  0.00    -0.314 A  
ENDBRANCH  10  11
ENDBRANCH   8  10
TORSDOF 2
ENDMDL
MODEL       56
REMARK 921   NORMALIZED FREE ENERGY PREDICTED BY IDOCK:   -5.10 KCAL/MOL
REMARK 922        TOTAL FREE ENERGY PREDICTED BY IDOCK:   -6.17 KCAL/MOL
REMARK 923 INTER-LIGAND FREE ENERGY PREDICTED BY IDOCK:   -5.86 KCAL/MOL
REMARK 924 INTRA-LIGAND FREE ENERGY PREDICTED BY IDOCK:   -0.31 KCAL/MOL
REMARK 927      BINDING AFFINITY PREDICTED BY RF-SCORE:    0.00 PKD
ROOT
HETATM    1  C   UNL     1     -10.299   6.988  73.503  1.00  0.00    -0.356 C  
HETATM    2  N   UNL     1     -11.608   7.302  72.949  1.00  0.00    -0.179 NA 
HETATM    3  C   UNL     1     -11.991   6.567  71.744  1.00  0.00    -0.344 C  
HETATM    4  C   UNL     1     -13.335   7.216  71.411  1.00  0.00    -0.380 C  
HETATM    5  C   UNL     1     -13.219   8.634  71.962  1.00  0.00    -0.422 C  
HETATM    6  C   UNL     1     -11.816   8.700  72.569  1.00  0.00    -0.272 C  
HETATM    7  C   UNL     1     -10.787   9.188  71.546  1.00  0.00    -0.436 C  
HETATM    8  C   UNL     1     -10.412   8.163  70.461  1.00  0.00    -0.214 C  
HETATM    9  C   UNL     1     -10.996   6.747  70.586  1.00  0.00    -0.313 C  
ENDROOT
BRANCH   8  10
HETATM   10  O   UNL     1     -10.758   8.757  69.196  1.00  0.00    -0.213 OA 
BRANCH  10  11
HETATM   11  C   UNL     1      -9.804   8.569  68.238  1.00  0.00    -0.169 C  
HETATM   12  C   UNL     1     -10.468   8.383  66.884  1.00  0.00    -0.359 C  
HETATM   13  O   UNL     1      -8.602   8.592  68.468  1.00  0.00    -0.136 OA 
HETATM   14  C   UNL     1     -10.752   6.901  66.634  1.00  0.00    -0.090 C  
HETATM   15  C   UNL     1      -9.658   9.011  65.757  1.00  0.00    -0.287 A  
HETATM   16  C   UNL     1     -10.143  10.146  65.086  1.00  0.00    -0.329 A  
HETATM   17  O   UNL     1     -11.680   6.365  67.576  1.00  0.00    -0.553 OA 
HETATM   18  H   UNL     1     -11.856   5.444  67.421  1.00  0.00     0.000 HD 
HETATM   19  C   UNL     1      -9.420  10.711  64.032  1.00  0.00    -0.329 A  
HETATM   20  C   UNL     1      -8.203  10.157  63.642  1.00  0.00    -0.166 A  
HETATM   21  C   UNL     1      -7.699   9.047  64.313  1.00  0.00    -0.123 A  
HETATM   22  C   UNL     1      -8.418   8.480  65.366  1.00  0.00    -0.190 A  
ENDBRANCH  10  11
ENDBRANCH   8  10
TORSDOF 2
ENDMDL
MODEL       57
REMARK 921   NORMALIZED FREE ENERGY PREDICTED BY IDOCK:   -5.09 KCAL/MOL
REMARK 922        TOTAL FREE ENERGY PREDICTED BY IDOCK:   -6.15 KCAL/MOL
REMARK 923 INTER-LIGAND FREE ENERGY PREDICTED BY IDOCK:   -5.73 KCAL/MOL
REMARK 924 INTRA-LIGAND FREE ENERGY PREDICTED BY IDOCK:   -0.42 KCAL/MOL
REMARK 927      BINDING AFFINITY PREDICTED BY RF-SCORE:    0.00 PKD
ROOT
HETATM    1  C   UNL     1      -9.662  14.693  66.004  1.00  0.00    -0.312 C  
HETATM    2  N   UNL     1     -10.677  13.910  65.313  1.00  0.00    -0.325 NA 
HETATM    3  C   UNL     1     -11.877  13.588  66.083  1.00  0.00    -0.389 C  
HETATM    4  C   UNL     1     -12.639  12.703  65.094  1.00  0.00    -0.459 C  
HETATM    5  C   UNL     1     -11.549  12.052  64.250  1.00  0.00    -0.435 C  
HETATM    6  C   UNL     1     -10.239  12.605  64.814  1.00  0.00    -0.283 C  
HETATM    7  C   UNL     1      -9.686  11.710  65.926  1.00  0.00    -0.260 C  
HETATM    8  C   UNL     1     -10.446  11.786  67.261  1.00  0.00    -0.214 C  
HETATM    9  C   UNL     1     -11.575  12.822  67.381  1.00  0.00    -0.415 C  
ENDROOT
BRANCH   8  10
HETATM   10  O   UNL     1     -10.930  10.458  67.536  1.00  0.00    -0.291 OA 
BRANCH  10  11
HETATM   11  C   UNL     1     -10.294   9.865  68.589  1.00  0.00    -0.195 C  
HETATM   12  C   UNL     1     -11.271   8.975  69.340  1.00  0.00     0.102 C  
HETATM   13  O   UNL     1      -9.106  10.019  68.834  1.00  0.00    -0.142 OA 
HETATM   14  C   UNL     1     -11.967   9.771  70.446  1.00  0.00    -0.148 C  
HETATM   15  C   UNL     1     -10.603   7.714  69.874  1.00  0.00    -0.237 A  
HETATM   16  C   UNL     1     -10.925   6.460  69.329  1.00  0.00    -0.418 A  
HETATM   17  O   UNL     1     -12.764  10.833  69.922  1.00  0.00    -0.409 OA 
HETATM   18  H   UNL     1     -13.196  11.328  70.609  1.00  0.00     0.000 HD 
HETATM   19  C   UNL     1     -10.339   5.295  69.832  1.00  0.00    -0.374 A  
HETATM   20  C   UNL     1      -9.420   5.369  70.876  1.00  0.00    -0.214 A  
HETATM   21  C   UNL     1      -9.075   6.607  71.411  1.00  0.00    -0.143 A  
HETATM   22  C   UNL     1      -9.657   7.772  70.910  1.00  0.00    -0.173 A  
ENDBRANCH  10  11
ENDBRANCH   8  10
TORSDOF 2
ENDMDL
MODEL       58
REMARK 921   NORMALIZED FREE ENERGY PREDICTED BY IDOCK:   -5.09 KCAL/MOL
REMARK 922        TOTAL FREE ENERGY PREDICTED BY IDOCK:   -6.15 KCAL/MOL
REMARK 923 INTER-LIGAND FREE ENERGY PREDICTED BY IDOCK:   -5.72 KCAL/MOL
REMARK 924 INTRA-LIGAND FREE ENERGY PREDICTED BY IDOCK:   -0.43 KCAL/MOL
REMARK 927      BINDING AFFINITY PREDICTED BY RF-SCORE:    0.00 PKD
ROOT
HETATM    1  C   UNL     1      -7.707  12.787  67.254  1.00  0.00    -0.127 C  
HETATM    2  N   UNL     1      -8.852  12.250  66.535  1.00  0.00    -0.171 NA 
HETATM    3  C   UNL     1     -10.164  12.502  67.130  1.00  0.00    -0.217 C  
HETATM    4  C   UNL     1     -11.079  11.726  66.181  1.00  0.00    -0.358 C  
HETATM    5  C   UNL     1     -10.204  10.596  65.650  1.00  0.00    -0.319 C  
HETATM    6  C   UNL     1      -8.850  10.800  66.333  1.00  0.00    -0.165 C  
HETATM    7  C   UNL     1      -8.767  10.026  67.651  1.00  0.00    -0.121 C  
HETATM    8  C   UNL     1      -9.588  10.621  68.808  1.00  0.00    -0.186 C  
HETATM    9  C   UNL     1     -10.287  11.968  68.567  1.00  0.00    -0.228 C  
ENDROOT
BRANCH   8  10
HETATM   10  O   UNL     1     -10.533   9.610  69.205  1.00  0.00    -0.200 OA 
BRANCH  10  11
HETATM   11  C   UNL     1     -10.402   9.240  70.513  1.00  0.00    -0.254 C  
HETATM   12  C   UNL     1     -11.565   8.346  70.910  1.00  0.00    -0.288 C  
HETATM   13  O   UNL     1      -9.455   9.566  71.216  1.00  0.00    -0.219 OA 
HETATM   14  C   UNL     1     -12.718   9.191  71.455  1.00  0.00    -0.341 C  
HETATM   15  C   UNL     1     -11.142   7.254  71.886  1.00  0.00    -0.270 A  
HETATM   16  C   UNL     1     -11.126   5.910  71.477  1.00  0.00    -0.314 A  
HETATM   17  O   UNL     1     -13.251  10.072  70.468  1.00  0.00    -0.604 OA 
HETATM   18  H   UNL     1     -13.967  10.598  70.807  1.00  0.00     0.000 HD 
HETATM   19  C   UNL     1     -10.767   4.900  72.373  1.00  0.00    -0.240 A  
HETATM   20  C   UNL     1     -10.412   5.219  73.682  1.00  0.00    -0.294 A  
HETATM   21  C   UNL     1     -10.401   6.549  74.094  1.00  0.00    -0.351 A  
HETATM   22  C   UNL     1     -10.758   7.560  73.202  1.00  0.00    -0.452 A  
ENDBRANCH  10  11
ENDBRANCH   8  10
TORSDOF 2
ENDMDL
MODEL       59
REMARK 921   NORMALIZED FREE ENERGY PREDICTED BY IDOCK:   -5.01 KCAL/MOL
REMARK 922        TOTAL FREE ENERGY PREDICTED BY IDOCK:   -6.07 KCAL/MOL
REMARK 923 INTER-LIGAND FREE ENERGY PREDICTED BY IDOCK:   -5.63 KCAL/MOL
REMARK 924 INTRA-LIGAND FREE ENERGY PREDICTED BY IDOCK:   -0.44 KCAL/MOL
REMARK 927      BINDING AFFINITY PREDICTED BY RF-SCORE:    0.00 PKD
ROOT
HETATM    1  C   UNL     1     -10.097  14.661  65.563  1.00  0.00    -0.377 C  
HETATM    2  N   UNL     1     -10.974  13.820  64.762  1.00  0.00    -0.371 NA 
HETATM    3  C   UNL     1     -12.221  13.398  65.398  1.00  0.00    -0.452 C  
HETATM    4  C   UNL     1     -12.809  12.478  64.326  1.00  0.00    -0.350 C  
HETATM    5  C   UNL     1     -11.592  11.923  63.594  1.00  0.00    -0.559 C  
HETATM    6  C   UNL     1     -10.392  12.560  64.298  1.00  0.00    -0.370 C  
HETATM    7  C   UNL     1      -9.893  11.686  65.452  1.00  0.00    -0.268 C  
HETATM    8  C   UNL     1     -10.791  11.683  66.701  1.00  0.00    -0.283 C  
HETATM    9  C   UNL     1     -11.999  12.632  66.713  1.00  0.00    -0.362 C  
ENDROOT
BRANCH   8  10
HETATM   10  O   UNL     1     -11.201  10.319  66.910  1.00  0.00    -0.116 OA 
BRANCH  10  11
HETATM   11  C   UNL     1     -10.959   9.876  68.178  1.00  0.00    -0.207 C  
HETATM   12  C   UNL     1      -9.889   8.797  68.147  1.00  0.00    -0.194 C  
HETATM   13  O   UNL     1     -11.512  10.331  69.170  1.00  0.00    -0.218 OA 
HETATM   14  C   UNL     1     -10.534   7.419  67.984  1.00  0.00    -0.199 C  
HETATM   15  C   UNL     1      -8.973   8.862  69.363  1.00  0.00    -0.145 A  
HETATM   16  C   UNL     1      -7.632   9.251  69.216  1.00  0.00    -0.080 A  
HETATM   17  O   UNL     1     -11.222   7.292  66.741  1.00  0.00    -0.504 OA 
HETATM   18  H   UNL     1     -11.623   6.436  66.640  1.00  0.00     0.000 HD 
HETATM   19  C   UNL     1      -6.777   9.286  70.321  1.00  0.00    -0.066 A  
HETATM   20  C   UNL     1      -7.252   8.943  71.585  1.00  0.00    -0.057 A  
HETATM   21  C   UNL     1      -8.586   8.578  71.749  1.00  0.00    -0.254 A  
HETATM   22  C   UNL     1      -9.442   8.543  70.648  1.00  0.00    -0.203 A  
ENDBRANCH  10  11
ENDBRANCH   8  10
TORSDOF 2
ENDMDL
MODEL       60
REMARK 921   NORMALIZED FREE ENERGY PREDICTED BY IDOCK:   -5.01 KCAL/MOL
REMARK 922        TOTAL FREE ENERGY PREDICTED BY IDOCK:   -6.06 KCAL/MOL
REMARK 923 INTER-LIGAND FREE ENERGY PREDICTED BY IDOCK:   -5.65 KCAL/MOL
REMARK 924 INTRA-LIGAND FREE ENERGY PREDICTED BY IDOCK:   -0.42 KCAL/MOL
REMARK 927      BINDING AFFINITY PREDICTED BY RF-SCORE:    0.00 PKD
ROOT
HETATM    1  C   UNL     1     -10.426  19.963  65.626  1.00  0.00    -0.341 C  
HETATM    2  N   UNL     1      -9.645  19.909  66.854  1.00  0.00    -0.367 NA 
HETATM    3  C   UNL     1      -8.357  19.222  66.769  1.00  0.00    -0.296 C  
HETATM    4  C   UNL     1      -7.890  19.279  68.224  1.00  0.00    -0.354 C  
HETATM    5  C   UNL     1      -9.181  19.305  69.036  1.00  0.00    -0.325 C  
HETATM    6  C   UNL     1     -10.297  19.258  67.991  1.00  0.00    -0.405 C  
HETATM    7  C   UNL     1     -10.713  17.818  67.681  1.00  0.00    -0.330 C  
HETATM    8  C   UNL     1      -9.708  17.019  66.834  1.00  0.00    -0.262 C  
HETATM    9  C   UNL     1      -8.480  17.766  66.291  1.00  0.00    -0.225 C  
ENDROOT
BRANCH   8  10
HETATM   10  O   UNL     1      -9.314  15.882  67.626  1.00  0.00    -0.214 OA 
BRANCH  10  11
HETATM   11  C   UNL     1      -9.355  14.707  66.933  1.00  0.00    -0.243 C  
HETATM   12  C   UNL     1      -8.722  13.601  67.762  1.00  0.00    -0.184 C  
HETATM   13  O   UNL     1      -9.868  14.592  65.828  1.00  0.00    -0.317 OA 
HETATM   14  C   UNL     1      -7.224  13.512  67.467  1.00  0.00    -0.154 C  
HETATM   15  C   UNL     1      -9.427  12.265  67.568  1.00  0.00    -0.182 A  
HETATM   16  C   UNL     1     -10.173  11.701  68.616  1.00  0.00    -0.215 A  
HETATM   17  O   UNL     1      -6.530  14.700  67.847  1.00  0.00    -0.136 OA 
HETATM   18  H   UNL     1      -5.600  14.645  67.663  1.00  0.00     0.000 HD 
HETATM   19  C   UNL     1     -10.798  10.461  68.456  1.00  0.00    -0.278 A  
HETATM   20  C   UNL     1     -10.694   9.775  67.248  1.00  0.00    -0.296 A  
HETATM   21  C   UNL     1      -9.977  10.333  66.193  1.00  0.00    -0.300 A  
HETATM   22  C   UNL     1      -9.352  11.570  66.349  1.00  0.00    -0.222 A  
ENDBRANCH  10  11
ENDBRANCH   8  10
TORSDOF 2
ENDMDL
MODEL       61
REMARK 921   NORMALIZED FREE ENERGY PREDICTED BY IDOCK:   -5.00 KCAL/MOL
REMARK 922        TOTAL FREE ENERGY PREDICTED BY IDOCK:   -6.06 KCAL/MOL
REMARK 923 INTER-LIGAND FREE ENERGY PREDICTED BY IDOCK:   -5.56 KCAL/MOL
REMARK 924 INTRA-LIGAND FREE ENERGY PREDICTED BY IDOCK:   -0.50 KCAL/MOL
REMARK 927      BINDING AFFINITY PREDICTED BY RF-SCORE:    0.00 PKD
ROOT
HETATM    1  C   UNL     1     -11.042  15.432  70.791  1.00  0.00    -0.336 C  
HETATM    2  N   UNL     1     -10.341  15.998  69.648  1.00  0.00    -0.275 NA 
HETATM    3  C   UNL     1     -11.181  16.514  68.568  1.00  0.00    -0.296 C  
HETATM    4  C   UNL     1     -10.127  16.918  67.535  1.00  0.00    -0.282 C  
HETATM    5  C   UNL     1      -8.960  15.972  67.794  1.00  0.00    -0.188 C  
HETATM    6  C   UNL     1      -9.426  15.090  68.955  1.00  0.00    -0.211 C  
HETATM    7  C   UNL     1     -10.126  13.826  68.449  1.00  0.00    -0.241 C  
HETATM    8  C   UNL     1     -11.538  14.048  67.879  1.00  0.00    -0.343 C  
HETATM    9  C   UNL     1     -12.137  15.459  67.989  1.00  0.00     0.167 C  
ENDROOT
BRANCH   8  10
HETATM   10  O   UNL     1     -11.503  13.605  66.510  1.00  0.00    -0.314 OA 
BRANCH  10  11
HETATM   11  C   UNL     1     -11.312  12.259  66.388  1.00  0.00    -0.354 C  
HETATM   12  C   UNL     1     -10.128  11.991  65.473  1.00  0.00    -0.281 C  
HETATM   13  O   UNL     1     -11.988  11.425  66.974  1.00  0.00    -0.492 OA 
HETATM   14  C   UNL     1     -10.598  11.871  64.022  1.00  0.00    -0.374 C  
HETATM   15  C   UNL     1      -9.323  10.776  65.919  1.00  0.00    -0.220 A  
HETATM   16  C   UNL     1      -8.027  10.939  66.434  1.00  0.00    -0.157 A  
HETATM   17  O   UNL     1     -11.168  13.087  63.541  1.00  0.00    -0.582 OA 
HETATM   18  H   UNL     1     -11.461  13.013  62.640  1.00  0.00     0.000 HD 
HETATM   19  C   UNL     1      -7.271   9.828  66.818  1.00  0.00    -0.090 A  
HETATM   20  C   UNL     1      -7.801   8.546  66.700  1.00  0.00    -0.090 A  
HETATM   21  C   UNL     1      -9.094   8.372  66.213  1.00  0.00    -0.241 A  
HETATM   22  C   UNL     1      -9.851   9.478  65.830  1.00  0.00    -0.363 A  
ENDBRANCH  10  11
ENDBRANCH   8  10
TORSDOF 2
ENDMDL
MODEL       62
REMARK 921   NORMALIZED FREE ENERGY PREDICTED BY IDOCK:   -5.00 KCAL/MOL
REMARK 922        TOTAL FREE ENERGY PREDICTED BY IDOCK:   -6.06 KCAL/MOL
REMARK 923 INTER-LIGAND FREE ENERGY PREDICTED BY IDOCK:   -5.43 KCAL/MOL
REMARK 924 INTRA-LIGAND FREE ENERGY PREDICTED BY IDOCK:   -0.63 KCAL/MOL
REMARK 927      BINDING AFFINITY PREDICTED BY RF-SCORE:    0.00 PKD
ROOT
HETATM    1  C   UNL     1      -8.882  10.679  68.506  1.00  0.00    -0.148 C  
HETATM    2  N   UNL     1      -9.472  10.719  67.176  1.00  0.00    -0.159 NA 
HETATM    3  C   UNL     1      -8.919  11.712  66.256  1.00  0.00    -0.193 C  
HETATM    4  C   UNL     1      -9.826  11.530  65.038  1.00  0.00    -0.294 C  
HETATM    5  C   UNL     1     -11.149  11.044  65.619  1.00  0.00    -0.008 C  
HETATM    6  C   UNL     1     -10.911  10.985  67.130  1.00  0.00    -0.282 C  
HETATM    7  C   UNL     1     -11.285  12.305  67.807  1.00  0.00    -0.331 C  
HETATM    8  C   UNL     1     -10.300  13.462  67.565  1.00  0.00    -0.226 C  
HETATM    9  C   UNL     1      -9.008  13.150  66.794  1.00  0.00    -0.183 C  
ENDROOT
BRANCH   8  10
HETATM   10  O   UNL     1     -11.047  14.511  66.921  1.00  0.00    -0.309 OA 
BRANCH  10  11
HETATM   11  C   UNL     1     -10.505  15.749  67.112  1.00  0.00    -0.309 C  
HETATM   12  C   UNL     1     -10.065  15.897  68.560  1.00  0.00    -0.217 C  
HETATM   13  O   UNL     1     -10.374  16.575  66.219  1.00  0.00    -0.308 OA 
HETATM   14  C   UNL     1     -11.208  16.466  69.403  1.00  0.00    -0.267 C  
HETATM   15  C   UNL     1      -8.790  16.719  68.690  1.00  0.00    -0.255 A  
HETATM   16  C   UNL     1      -7.592  16.106  69.094  1.00  0.00    -0.230 A  
HETATM   17  O   UNL     1     -12.332  15.589  69.447  1.00  0.00    -0.572 OA 
HETATM   18  H   UNL     1     -13.042  15.943  69.970  1.00  0.00     0.000 HD 
HETATM   19  C   UNL     1      -6.425  16.858  69.245  1.00  0.00    -0.228 A  
HETATM   20  C   UNL     1      -6.435  18.226  68.986  1.00  0.00    -0.251 A  
HETATM   21  C   UNL     1      -7.609  18.843  68.563  1.00  0.00    -0.357 A  
HETATM   22  C   UNL     1      -8.777  18.096  68.411  1.00  0.00    -0.302 A  
ENDBRANCH  10  11
ENDBRANCH   8  10
TORSDOF 2
ENDMDL
MODEL       63
REMARK 921   NORMALIZED FREE ENERGY PREDICTED BY IDOCK:   -5.00 KCAL/MOL
REMARK 922        TOTAL FREE ENERGY PREDICTED BY IDOCK:   -6.05 KCAL/MOL
REMARK 923 INTER-LIGAND FREE ENERGY PREDICTED BY IDOCK:   -6.02 KCAL/MOL
REMARK 924 INTRA-LIGAND FREE ENERGY PREDICTED BY IDOCK:   -0.03 KCAL/MOL
REMARK 927      BINDING AFFINITY PREDICTED BY RF-SCORE:    0.00 PKD
ROOT
HETATM    1  C   UNL     1     -10.787  15.833  67.862  1.00  0.00    -0.314 C  
HETATM    2  N   UNL     1     -11.034  14.987  66.704  1.00  0.00    -0.323 NA 
HETATM    3  C   UNL     1     -12.129  14.025  66.829  1.00  0.00    -0.447 C  
HETATM    4  C   UNL     1     -12.022  13.273  65.501  1.00  0.00    -0.445 C  
HETATM    5  C   UNL     1     -10.545  13.363  65.132  1.00  0.00    -0.353 C  
HETATM    6  C   UNL     1      -9.908  14.156  66.275  1.00  0.00    -0.306 C  
HETATM    7  C   UNL     1      -9.406  13.230  67.386  1.00  0.00    -0.217 C  
HETATM    8  C   UNL     1     -10.508  12.606  68.259  1.00  0.00    -0.239 C  
HETATM    9  C   UNL     1     -11.955  13.064  68.016  1.00  0.00    -0.335 C  
ENDROOT
BRANCH   8  10
HETATM   10  O   UNL     1     -10.386  11.179  68.119  1.00  0.00    -0.176 OA 
BRANCH  10  11
HETATM   11  C   UNL     1     -10.761  10.497  69.241  1.00  0.00    -0.234 C  
HETATM   12  C   UNL     1     -10.000   9.184  69.320  1.00  0.00    -0.187 C  
HETATM   13  O   UNL     1     -11.564  10.929  70.057  1.00  0.00    -0.284 OA 
HETATM   14  C   UNL     1     -10.781   8.078  68.608  1.00  0.00    -0.026 C  
HETATM   15  C   UNL     1      -9.652   8.808  70.755  1.00  0.00    -0.256 A  
HETATM   16  C   UNL     1      -8.316   8.832  71.187  1.00  0.00    -0.219 A  
HETATM   17  O   UNL     1     -10.926   8.336  67.212  1.00  0.00    -0.474 OA 
HETATM   18  H   UNL     1     -11.412   7.650  66.770  1.00  0.00     0.000 HD 
HETATM   19  C   UNL     1      -7.985   8.461  72.493  1.00  0.00    -0.166 A  
HETATM   20  C   UNL     1      -8.981   8.072  73.384  1.00  0.00    -0.341 A  
HETATM   21  C   UNL     1     -10.313   8.067  72.977  1.00  0.00    -0.351 A  
HETATM   22  C   UNL     1     -10.647   8.437  71.674  1.00  0.00    -0.327 A  
ENDBRANCH  10  11
ENDBRANCH   8  10
TORSDOF 2
ENDMDL
MODEL       64
REMARK 921   NORMALIZED FREE ENERGY PREDICTED BY IDOCK:   -4.97 KCAL/MOL
REMARK 922        TOTAL FREE ENERGY PREDICTED BY IDOCK:   -6.03 KCAL/MOL
REMARK 923 INTER-LIGAND FREE ENERGY PREDICTED BY IDOCK:   -5.62 KCAL/MOL
REMARK 924 INTRA-LIGAND FREE ENERGY PREDICTED BY IDOCK:   -0.41 KCAL/MOL
REMARK 927      BINDING AFFINITY PREDICTED BY RF-SCORE:    0.00 PKD
ROOT
HETATM    1  C   UNL     1     -12.880   6.640  71.808  1.00  0.00    -0.179 C  
HETATM    2  N   UNL     1     -11.512   6.753  72.291  1.00  0.00    -0.270 NA 
HETATM    3  C   UNL     1     -11.123   8.056  72.829  1.00  0.00    -0.381 C  
HETATM    4  C   UNL     1      -9.641   7.827  73.131  1.00  0.00    -0.337 C  
HETATM    5  C   UNL     1      -9.207   6.772  72.119  1.00  0.00    -0.141 C  
HETATM    6  C   UNL     1     -10.467   6.473  71.305  1.00  0.00    -0.215 C  
HETATM    7  C   UNL     1     -10.566   7.379  70.075  1.00  0.00    -0.241 C  
HETATM    8  C   UNL     1     -10.945   8.840  70.372  1.00  0.00    -0.235 C  
HETATM    9  C   UNL     1     -11.303   9.203  71.821  1.00  0.00    -0.451 C  
ENDROOT
BRANCH   8  10
HETATM   10  O   UNL     1      -9.862   9.654  69.886  1.00  0.00    -0.208 OA 
BRANCH  10  11
HETATM   11  C   UNL     1     -10.246  10.531  68.913  1.00  0.00    -0.208 C  
HETATM   12  C   UNL     1      -9.102  10.744  67.935  1.00  0.00    -0.150 C  
HETATM   13  O   UNL     1     -11.365  11.022  68.850  1.00  0.00    -0.232 OA 
HETATM   14  C   UNL     1      -8.229  11.914  68.391  1.00  0.00    -0.160 C  
HETATM   15  C   UNL     1      -9.597  10.919  66.504  1.00  0.00    -0.224 A  
HETATM   16  C   UNL     1      -9.343   9.927  65.543  1.00  0.00    -0.280 A  
HETATM   17  O   UNL     1      -7.598  11.657  69.644  1.00  0.00    -0.330 OA 
HETATM   18  H   UNL     1      -7.056  12.384  69.928  1.00  0.00     0.000 HD 
HETATM   19  C   UNL     1      -9.767  10.093  64.222  1.00  0.00    -0.326 A  
HETATM   20  C   UNL     1     -10.457  11.243  63.847  1.00  0.00    -0.452 A  
HETATM   21  C   UNL     1     -10.736  12.224  64.795  1.00  0.00    -0.338 A  
HETATM   22  C   UNL     1     -10.314  12.062  66.115  1.00  0.00    -0.257 A  
ENDBRANCH  10  11
ENDBRANCH   8  10
TORSDOF 2
ENDMDL
MODEL       65
REMARK 921   NORMALIZED FREE ENERGY PREDICTED BY IDOCK:   -4.97 KCAL/MOL
REMARK 922        TOTAL FREE ENERGY PREDICTED BY IDOCK:   -6.02 KCAL/MOL
REMARK 923 INTER-LIGAND FREE ENERGY PREDICTED BY IDOCK:   -5.30 KCAL/MOL
REMARK 924 INTRA-LIGAND FREE ENERGY PREDICTED BY IDOCK:   -0.73 KCAL/MOL
REMARK 927      BINDING AFFINITY PREDICTED BY RF-SCORE:    0.00 PKD
ROOT
HETATM    1  C   UNL     1      -8.050  11.187  66.545  1.00  0.00    -0.163 C  
HETATM    2  N   UNL     1      -9.316  11.901  66.610  1.00  0.00    -0.200 NA 
HETATM    3  C   UNL     1      -9.659  12.488  67.905  1.00  0.00    -0.206 C  
HETATM    4  C   UNL     1     -11.054  13.047  67.622  1.00  0.00    -0.296 C  
HETATM    5  C   UNL     1     -11.615  12.135  66.536  1.00  0.00    -0.425 C  
HETATM    6  C   UNL     1     -10.505  11.115  66.274  1.00  0.00    -0.259 C  
HETATM    7  C   UNL     1     -10.660   9.879  67.164  1.00  0.00    -0.295 C  
HETATM    8  C   UNL     1     -10.296  10.093  68.644  1.00  0.00    -0.188 C  
HETATM    9  C   UNL     1      -9.706  11.454  69.043  1.00  0.00    -0.031 C  
ENDROOT
BRANCH   8  10
HETATM   10  O   UNL     1     -11.481   9.798  69.406  1.00  0.00    -0.113 OA 
BRANCH  10  11
HETATM   11  C   UNL     1     -11.208   9.354  70.668  1.00  0.00    -0.284 C  
HETATM   12  C   UNL     1     -10.289   8.145  70.597  1.00  0.00    -0.214 C  
HETATM   13  O   UNL     1     -11.626   9.898  71.681  1.00  0.00    -0.360 OA 
HETATM   14  C   UNL     1     -11.116   6.859  70.520  1.00  0.00    -0.288 C  
HETATM   15  C   UNL     1      -9.289   8.117  71.746  1.00  0.00    -0.241 A  
HETATM   16  C   UNL     1      -7.922   8.325  71.497  1.00  0.00    -0.148 A  
HETATM   17  O   UNL     1     -11.901   6.796  69.331  1.00  0.00    -0.628 OA 
HETATM   18  H   UNL     1     -12.414   5.998  69.283  1.00  0.00     0.000 HD 
HETATM   19  C   UNL     1      -6.994   8.272  72.540  1.00  0.00    -0.110 A  
HETATM   20  C   UNL     1      -7.419   8.020  73.843  1.00  0.00    -0.207 A  
HETATM   21  C   UNL     1      -8.773   7.835  74.107  1.00  0.00    -0.293 A  
HETATM   22  C   UNL     1      -9.702   7.888  73.069  1.00  0.00    -0.349 A  
ENDBRANCH  10  11
ENDBRANCH   8  10
TORSDOF 2
ENDMDL
MODEL       66
REMARK 921   NORMALIZED FREE ENERGY PREDICTED BY IDOCK:   -4.96 KCAL/MOL
REMARK 922        TOTAL FREE ENERGY PREDICTED BY IDOCK:   -6.01 KCAL/MOL
REMARK 923 INTER-LIGAND FREE ENERGY PREDICTED BY IDOCK:   -5.28 KCAL/MOL
REMARK 924 INTRA-LIGAND FREE ENERGY PREDICTED BY IDOCK:   -0.73 KCAL/MOL
REMARK 927      BINDING AFFINITY PREDICTED BY RF-SCORE:    0.00 PKD
ROOT
HETATM    1  C   UNL     1     -11.257  15.094  68.677  1.00  0.00    -0.286 C  
HETATM    2  N   UNL     1     -11.707  14.960  67.299  1.00  0.00    -0.338 NA 
HETATM    3  C   UNL     1     -12.448  13.740  66.979  1.00  0.00    -0.103 C  
HETATM    4  C   UNL     1     -12.658  13.903  65.473  1.00  0.00    -0.560 C  
HETATM    5  C   UNL     1     -11.465  14.735  65.012  1.00  0.00    -0.389 C  
HETATM    6  C   UNL     1     -10.654  14.988  66.284  1.00  0.00    -0.307 C  
HETATM    7  C   UNL     1      -9.601  13.898  66.502  1.00  0.00    -0.299 C  
HETATM    8  C   UNL     1     -10.158  12.541  66.969  1.00  0.00    -0.216 C  
HETATM    9  C   UNL     1     -11.658  12.457  67.285  1.00  0.00    -0.435 C  
ENDROOT
BRANCH   8  10
HETATM   10  O   UNL     1      -9.784  11.576  65.968  1.00  0.00    -0.212 OA 
BRANCH  10  11
HETATM   11  C   UNL     1      -9.581  10.326  66.480  1.00  0.00    -0.181 C  
HETATM   12  C   UNL     1      -8.588  10.398  67.628  1.00  0.00    -0.118 C  
HETATM   13  O   UNL     1     -10.161   9.328  66.074  1.00  0.00    -0.297 OA 
HETATM   14  C   UNL     1      -7.162  10.216  67.105  1.00  0.00    -0.090 C  
HETATM   15  C   UNL     1      -8.924   9.410  68.738  1.00  0.00    -0.132 A  
HETATM   16  C   UNL     1      -9.372   9.874  69.986  1.00  0.00    -0.232 A  
HETATM   17  O   UNL     1      -6.778  11.266  66.219  1.00  0.00    -0.293 OA 
HETATM   18  H   UNL     1      -5.892  11.153  65.893  1.00  0.00     0.000 HD 
HETATM   19  C   UNL     1      -9.654   8.977  71.018  1.00  0.00    -0.348 A  
HETATM   20  C   UNL     1      -9.500   7.607  70.817  1.00  0.00    -0.162 A  
HETATM   21  C   UNL     1      -9.079   7.131  69.578  1.00  0.00    -0.146 A  
HETATM   22  C   UNL     1      -8.797   8.024  68.545  1.00  0.00    -0.134 A  
ENDBRANCH  10  11
ENDBRANCH   8  10
TORSDOF 2
ENDMDL
MODEL       67
REMARK 921   NORMALIZED FREE ENERGY PREDICTED BY IDOCK:   -4.94 KCAL/MOL
REMARK 922        TOTAL FREE ENERGY PREDICTED BY IDOCK:   -5.99 KCAL/MOL
REMARK 923 INTER-LIGAND FREE ENERGY PREDICTED BY IDOCK:   -5.52 KCAL/MOL
REMARK 924 INTRA-LIGAND FREE ENERGY PREDICTED BY IDOCK:   -0.47 KCAL/MOL
REMARK 927      BINDING AFFINITY PREDICTED BY RF-SCORE:    0.00 PKD
ROOT
HETATM    1  C   UNL     1     -10.507   8.599  66.955  1.00  0.00    -0.284 C  
HETATM    2  N   UNL     1     -10.086   8.779  68.337  1.00  0.00    -0.184 NA 
HETATM    3  C   UNL     1     -10.959   9.598  69.176  1.00  0.00    -0.151 C  
HETATM    4  C   UNL     1     -10.165   9.643  70.482  1.00  0.00    -0.351 C  
HETATM    5  C   UNL     1      -8.710   9.504  70.047  1.00  0.00    -0.242 C  
HETATM    6  C   UNL     1      -8.771   9.394  68.522  1.00  0.00    -0.128 C  
HETATM    7  C   UNL     1      -8.669  10.769  67.857  1.00  0.00    -0.129 C  
HETATM    8  C   UNL     1      -9.929  11.643  67.975  1.00  0.00    -0.188 C  
HETATM    9  C   UNL     1     -11.175  11.015  68.619  1.00  0.00    -0.322 C  
ENDROOT
BRANCH   8  10
HETATM   10  O   UNL     1      -9.536  12.842  68.669  1.00  0.00    -0.129 OA 
BRANCH  10  11
HETATM   11  C   UNL     1     -10.083  13.973  68.135  1.00  0.00    -0.244 C  
HETATM   12  C   UNL     1     -10.084  15.081  69.175  1.00  0.00    -0.245 C  
HETATM   13  O   UNL     1     -10.468  14.055  66.977  1.00  0.00    -0.271 OA 
HETATM   14  C   UNL     1     -11.385  15.050  69.979  1.00  0.00    -0.273 C  
HETATM   15  C   UNL     1      -9.824  16.449  68.555  1.00  0.00    -0.231 A  
HETATM   16  C   UNL     1      -8.621  17.125  68.817  1.00  0.00    -0.236 A  
HETATM   17  O   UNL     1     -11.525  13.843  70.726  1.00  0.00    -0.509 OA 
HETATM   18  H   UNL     1     -12.334  13.823  71.225  1.00  0.00     0.000 HD 
HETATM   19  C   UNL     1      -8.386  18.392  68.276  1.00  0.00    -0.321 A  
HETATM   20  C   UNL     1      -9.343  18.994  67.464  1.00  0.00    -0.341 A  
HETATM   21  C   UNL     1     -10.531  18.326  67.177  1.00  0.00    -0.417 A  
HETATM   22  C   UNL     1     -10.768  17.061  67.715  1.00  0.00    -0.318 A  
ENDBRANCH  10  11
ENDBRANCH   8  10
TORSDOF 2
ENDMDL
MODEL       68
REMARK 921   NORMALIZED FREE ENERGY PREDICTED BY IDOCK:   -4.94 KCAL/MOL
REMARK 922        TOTAL FREE ENERGY PREDICTED BY IDOCK:   -5.99 KCAL/MOL
REMARK 923 INTER-LIGAND FREE ENERGY PREDICTED BY IDOCK:   -5.43 KCAL/MOL
REMARK 924 INTRA-LIGAND FREE ENERGY PREDICTED BY IDOCK:   -0.55 KCAL/MOL
REMARK 927      BINDING AFFINITY PREDICTED BY RF-SCORE:    0.00 PKD
ROOT
HETATM    1  C   UNL     1     -10.997  15.257  64.868  1.00  0.00    -0.430 C  
HETATM    2  N   UNL     1     -11.512  14.067  64.208  1.00  0.00    -0.338 NA 
HETATM    3  C   UNL     1     -12.533  13.316  64.938  1.00  0.00    -0.409 C  
HETATM    4  C   UNL     1     -12.748  12.120  64.008  1.00  0.00    -0.452 C  
HETATM    5  C   UNL     1     -11.408  11.942  63.303  1.00  0.00    -0.373 C  
HETATM    6  C   UNL     1     -10.517  13.045  63.879  1.00  0.00    -0.212 C  
HETATM    7  C   UNL     1      -9.750  12.557  65.111  1.00  0.00    -0.042 C  
HETATM    8  C   UNL     1     -10.598  12.396  66.384  1.00  0.00    -0.244 C  
HETATM    9  C   UNL     1     -12.064  12.851  66.326  1.00  0.00    -0.433 C  
ENDROOT
BRANCH   8  10
HETATM   10  O   UNL     1     -10.500  11.013  66.772  1.00  0.00    -0.231 OA 
BRANCH  10  11
HETATM   11  C   UNL     1     -11.176  10.731  67.924  1.00  0.00    -0.318 C  
HETATM   12  C   UNL     1     -10.546  11.486  69.084  1.00  0.00    -0.174 C  
HETATM   13  O   UNL     1     -12.160  10.006  67.970  1.00  0.00     0.599 OA 
HETATM   14  C   UNL     1      -9.452  10.637  69.733  1.00  0.00     0.231 C  
HETATM   15  C   UNL     1     -11.586  11.954  70.094  1.00  0.00    -0.252 A  
HETATM   16  C   UNL     1     -11.866  13.324  70.236  1.00  0.00    -0.307 A  
HETATM   17  O   UNL     1      -8.374  10.373  68.837  1.00  0.00    -0.120 OA 
HETATM   18  H   UNL     1      -7.694   9.846  69.240  1.00  0.00     0.000 HD 
HETATM   19  C   UNL     1     -12.797  13.764  71.180  1.00  0.00    -0.409 A  
HETATM   20  C   UNL     1     -13.464  12.846  71.987  1.00  0.00    -0.568 A  
HETATM   21  C   UNL     1     -13.213  11.484  71.841  1.00  0.00    -0.479 A  
HETATM   22  C   UNL     1     -12.285  11.040  70.899  1.00  0.00    -0.471 A  
ENDBRANCH  10  11
ENDBRANCH   8  10
TORSDOF 2
ENDMDL
MODEL       69
REMARK 921   NORMALIZED FREE ENERGY PREDICTED BY IDOCK:   -4.90 KCAL/MOL
REMARK 922        TOTAL FREE ENERGY PREDICTED BY IDOCK:   -5.95 KCAL/MOL
REMARK 923 INTER-LIGAND FREE ENERGY PREDICTED BY IDOCK:   -5.56 KCAL/MOL
REMARK 924 INTRA-LIGAND FREE ENERGY PREDICTED BY IDOCK:   -0.39 KCAL/MOL
REMARK 927      BINDING AFFINITY PREDICTED BY RF-SCORE:    0.00 PKD
ROOT
HETATM    1  C   UNL     1     -10.376   8.586  66.803  1.00  0.00    -0.276 C  
HETATM    2  N   UNL     1      -9.213   9.032  66.050  1.00  0.00    -0.208 NA 
HETATM    3  C   UNL     1      -8.300   9.936  66.750  1.00  0.00    -0.125 C  
HETATM    4  C   UNL     1      -7.291  10.257  65.646  1.00  0.00    -0.149 C  
HETATM    5  C   UNL     1      -8.089  10.128  64.353  1.00  0.00    -0.163 C  
HETATM    6  C   UNL     1      -9.500   9.745  64.804  1.00  0.00    -0.251 C  
HETATM    7  C   UNL     1     -10.371  10.984  65.027  1.00  0.00    -0.360 C  
HETATM    8  C   UNL     1     -10.042  11.791  66.295  1.00  0.00    -0.217 C  
HETATM    9  C   UNL     1      -8.987  11.217  67.252  1.00  0.00    -0.149 C  
ENDROOT
BRANCH   8  10
HETATM   10  O   UNL     1      -9.681  13.115  65.858  1.00  0.00    -0.256 OA 
BRANCH  10  11
HETATM   11  C   UNL     1      -9.889  14.069  66.812  1.00  0.00    -0.273 C  
HETATM   12  C   UNL     1      -8.911  15.215  66.612  1.00  0.00    -0.321 C  
HETATM   13  O   UNL     1     -10.766  13.994  67.661  1.00  0.00    -0.253 OA 
HETATM   14  C   UNL     1      -7.628  14.959  67.406  1.00  0.00    -0.204 C  
HETATM   15  C   UNL     1      -9.534  16.565  66.945  1.00  0.00    -0.250 A  
HETATM   16  C   UNL     1      -9.791  17.495  65.925  1.00  0.00    -0.113 A  
HETATM   17  O   UNL     1      -6.935  13.800  66.948  1.00  0.00    -0.331 OA 
HETATM   18  H   UNL     1      -6.139  13.641  67.441  1.00  0.00     0.000 HD 
HETATM   19  C   UNL     1     -10.335  18.746  66.225  1.00  0.00    -0.497 A  
HETATM   20  C   UNL     1     -10.637  19.080  67.543  1.00  0.00    -0.546 A  
HETATM   21  C   UNL     1     -10.410  18.159  68.561  1.00  0.00    -0.352 A  
HETATM   22  C   UNL     1      -9.867  16.909  68.265  1.00  0.00    -0.266 A  
ENDBRANCH  10  11
ENDBRANCH   8  10
TORSDOF 2
ENDMDL
MODEL       70
REMARK 921   NORMALIZED FREE ENERGY PREDICTED BY IDOCK:   -4.89 KCAL/MOL
REMARK 922        TOTAL FREE ENERGY PREDICTED BY IDOCK:   -5.94 KCAL/MOL
REMARK 923 INTER-LIGAND FREE ENERGY PREDICTED BY IDOCK:   -5.95 KCAL/MOL
REMARK 924 INTRA-LIGAND FREE ENERGY PREDICTED BY IDOCK:    0.01 KCAL/MOL
REMARK 927      BINDING AFFINITY PREDICTED BY RF-SCORE:    0.00 PKD
ROOT
HETATM    1  C   UNL     1      -8.088   7.122  68.576  1.00  0.00    -0.125 C  
HETATM    2  N   UNL     1      -8.643   7.405  69.891  1.00  0.00    -0.139 NA 
HETATM    3  C   UNL     1     -10.095   7.561  69.958  1.00  0.00    -0.199 C  
HETATM    4  C   UNL     1     -10.289   7.937  71.428  1.00  0.00    -0.234 C  
HETATM    5  C   UNL     1      -8.991   8.639  71.815  1.00  0.00    -0.307 C  
HETATM    6  C   UNL     1      -8.145   8.619  70.540  1.00  0.00    -0.113 C  
HETATM    7  C   UNL     1      -8.381   9.873  69.694  1.00  0.00    -0.181 C  
HETATM    8  C   UNL     1      -9.729   9.916  68.955  1.00  0.00    -0.193 C  
HETATM    9  C   UNL     1     -10.626   8.671  69.036  1.00  0.00    -0.179 C  
ENDROOT
BRANCH   8  10
HETATM   10  O   UNL     1     -10.422  11.085  69.430  1.00  0.00    -0.214 OA 
BRANCH  10  11
HETATM   11  C   UNL     1     -11.284  11.607  68.509  1.00  0.00    -0.256 C  
HETATM   12  C   UNL     1     -11.144  13.121  68.478  1.00  0.00    -0.296 C  
HETATM   13  O   UNL     1     -12.015  10.925  67.805  1.00  0.00    -0.553 OA 
HETATM   14  C   UNL     1     -12.111  13.761  69.476  1.00  0.00    -0.334 C  
HETATM   15  C   UNL     1     -11.314  13.683  67.072  1.00  0.00    -0.344 A  
HETATM   16  C   UNL     1     -10.216  14.242  66.398  1.00  0.00    -0.295 A  
HETATM   17  O   UNL     1     -11.816  13.391  70.822  1.00  0.00    -0.509 OA 
HETATM   18  H   UNL     1     -12.417  13.788  71.442  1.00  0.00     0.000 HD 
HETATM   19  C   UNL     1     -10.368  14.787  65.120  1.00  0.00    -0.439 A  
HETATM   20  C   UNL     1     -11.614  14.772  64.497  1.00  0.00    -0.366 A  
HETATM   21  C   UNL     1     -12.706  14.200  65.144  1.00  0.00    -0.387 A  
HETATM   22  C   UNL     1     -12.557  13.655  66.419  1.00  0.00    -0.289 A  
ENDBRANCH  10  11
ENDBRANCH   8  10
TORSDOF 2
ENDMDL
MODEL       71
REMARK 921   NORMALIZED FREE ENERGY PREDICTED BY IDOCK:   -4.88 KCAL/MOL
REMARK 922        TOTAL FREE ENERGY PREDICTED BY IDOCK:   -5.92 KCAL/MOL
REMARK 923 INTER-LIGAND FREE ENERGY PREDICTED BY IDOCK:   -5.50 KCAL/MOL
REMARK 924 INTRA-LIGAND FREE ENERGY PREDICTED BY IDOCK:   -0.42 KCAL/MOL
REMARK 927      BINDING AFFINITY PREDICTED BY RF-SCORE:    0.00 PKD
ROOT
HETATM    1  C   UNL     1      -7.330   6.308  68.342  1.00  0.00    -0.086 C  
HETATM    2  N   UNL     1      -8.680   5.887  67.994  1.00  0.00    -0.112 NA 
HETATM    3  C   UNL     1      -9.001   5.866  66.568  1.00  0.00    -0.131 C  
HETATM    4  C   UNL     1     -10.483   5.486  66.600  1.00  0.00    -0.355 C  
HETATM    5  C   UNL     1     -10.986   6.033  67.931  1.00  0.00    -0.334 C  
HETATM    6  C   UNL     1      -9.760   6.691  68.569  1.00  0.00    -0.131 C  
HETATM    7  C   UNL     1      -9.657   8.169  68.186  1.00  0.00    -0.162 C  
HETATM    8  C   UNL     1      -9.211   8.437  66.739  1.00  0.00    -0.171 C  
HETATM    9  C   UNL     1      -8.801   7.228  65.884  1.00  0.00    -0.136 C  
ENDROOT
BRANCH   8  10
HETATM   10  O   UNL     1     -10.274   9.179  66.111  1.00  0.00    -0.272 OA 
BRANCH  10  11
HETATM   11  C   UNL     1      -9.953  10.487  65.888  1.00  0.00    -0.254 C  
HETATM   12  C   UNL     1     -10.648  10.976  64.627  1.00  0.00    -0.369 C  
HETATM   13  O   UNL     1      -9.242  11.145  66.634  1.00  0.00    -0.167 OA 
HETATM   14  C   UNL     1      -9.755  10.738  63.407  1.00  0.00    -0.351 C  
HETATM   15  C   UNL     1     -11.088  12.430  64.743  1.00  0.00    -0.345 A  
HETATM   16  C   UNL     1     -12.454  12.751  64.810  1.00  0.00    -0.539 A  
HETATM   17  O   UNL     1      -9.515   9.351  63.181  1.00  0.00    -0.497 OA 
HETATM   18  H   UNL     1      -8.960   9.203  62.423  1.00  0.00     0.000 HD 
HETATM   19  C   UNL     1     -12.867  14.083  64.887  1.00  0.00    -0.210 A  
HETATM   20  C   UNL     1     -11.925  15.109  64.906  1.00  0.00    -0.185 A  
HETATM   21  C   UNL     1     -10.567  14.804  64.863  1.00  0.00    -0.431 A  
HETATM   22  C   UNL     1     -10.151  13.475  64.787  1.00  0.00    -0.267 A  
ENDBRANCH  10  11
ENDBRANCH   8  10
TORSDOF 2
ENDMDL
MODEL       72
REMARK 921   NORMALIZED FREE ENERGY PREDICTED BY IDOCK:   -4.88 KCAL/MOL
REMARK 922        TOTAL FREE ENERGY PREDICTED BY IDOCK:   -5.92 KCAL/MOL
REMARK 923 INTER-LIGAND FREE ENERGY PREDICTED BY IDOCK:   -5.20 KCAL/MOL
REMARK 924 INTRA-LIGAND FREE ENERGY PREDICTED BY IDOCK:   -0.72 KCAL/MOL
REMARK 927      BINDING AFFINITY PREDICTED BY RF-SCORE:    0.00 PKD
ROOT
HETATM    1  C   UNL     1      -8.508  12.236  67.822  1.00  0.00    -0.163 C  
HETATM    2  N   UNL     1      -8.377  11.339  66.684  1.00  0.00    -0.160 NA 
HETATM    3  C   UNL     1      -9.596  10.648  66.264  1.00  0.00    -0.185 C  
HETATM    4  C   UNL     1      -9.062   9.749  65.147  1.00  0.00    -0.270 C  
HETATM    5  C   UNL     1      -7.611   9.486  65.533  1.00  0.00    -0.105 C  
HETATM    6  C   UNL     1      -7.413  10.249  66.845  1.00  0.00    -0.101 C  
HETATM    7  C   UNL     1      -7.725   9.366  68.056  1.00  0.00    -0.084 C  
HETATM    8  C   UNL     1      -9.220   9.087  68.291  1.00  0.00    -0.136 C  
HETATM    9  C   UNL     1     -10.230   9.808  67.385  1.00  0.00    -0.284 C  
ENDROOT
BRANCH   8  10
HETATM   10  O   UNL     1      -9.388   7.659  68.221  1.00  0.00    -0.145 OA 
BRANCH  10  11
HETATM   11  C   UNL     1     -10.483   7.215  68.905  1.00  0.00    -0.207 C  
HETATM   12  C   UNL     1     -10.401   7.673  70.352  1.00  0.00    -0.214 C  
HETATM   13  O   UNL     1     -11.391   6.580  68.388  1.00  0.00    -0.247 OA 
HETATM   14  C   UNL     1      -9.674   6.625  71.197  1.00  0.00    -0.174 C  
HETATM   15  C   UNL     1     -11.771   8.021  70.921  1.00  0.00    -0.265 A  
HETATM   16  C   UNL     1     -12.093   9.354  71.222  1.00  0.00    -0.424 A  
HETATM   17  O   UNL     1      -8.318   6.452  70.789  1.00  0.00    -0.123 OA 
HETATM   18  H   UNL     1      -7.867   5.801  71.313  1.00  0.00     0.000 HD 
HETATM   19  C   UNL     1     -13.336   9.678  71.771  1.00  0.00    -0.505 A  
HETATM   20  C   UNL     1     -14.275   8.679  72.018  1.00  0.00    -0.524 A  
HETATM   21  C   UNL     1     -13.978   7.356  71.703  1.00  0.00    -0.523 A  
HETATM   22  C   UNL     1     -12.738   7.029  71.154  1.00  0.00    -0.361 A  
ENDBRANCH  10  11
ENDBRANCH   8  10
TORSDOF 2
ENDMDL
MODEL       73
REMARK 921   NORMALIZED FREE ENERGY PREDICTED BY IDOCK:   -4.87 KCAL/MOL
REMARK 922        TOTAL FREE ENERGY PREDICTED BY IDOCK:   -5.91 KCAL/MOL
REMARK 923 INTER-LIGAND FREE ENERGY PREDICTED BY IDOCK:   -5.70 KCAL/MOL
REMARK 924 INTRA-LIGAND FREE ENERGY PREDICTED BY IDOCK:   -0.21 KCAL/MOL
REMARK 927      BINDING AFFINITY PREDICTED BY RF-SCORE:    0.00 PKD
ROOT
HETATM    1  C   UNL     1      -7.351   9.950  64.440  1.00  0.00    -0.133 C  
HETATM    2  N   UNL     1      -7.950   9.025  65.391  1.00  0.00    -0.107 NA 
HETATM    3  C   UNL     1      -9.407   8.916  65.355  1.00  0.00    -0.088 C  
HETATM    4  C   UNL     1      -9.666   7.962  66.522  1.00  0.00    -0.279 C  
HETATM    5  C   UNL     1      -8.509   8.216  67.483  1.00  0.00    -0.126 C  
HETATM    6  C   UNL     1      -7.670   9.298  66.801  1.00  0.00    -0.094 C  
HETATM    7  C   UNL     1      -8.114  10.700  67.225  1.00  0.00    -0.116 C  
HETATM    8  C   UNL     1      -9.449  11.170  66.621  1.00  0.00    -0.183 C  
HETATM    9  C   UNL     1     -10.119  10.260  65.579  1.00  0.00    -0.351 C  
ENDROOT
BRANCH   8  10
HETATM   10  O   UNL     1     -10.333  11.430  67.727  1.00  0.00    -0.176 OA 
BRANCH  10  11
HETATM   11  C   UNL     1     -10.286  12.726  68.156  1.00  0.00    -0.241 C  
HETATM   12  C   UNL     1     -11.697  13.236  68.397  1.00  0.00    -0.389 C  
HETATM   13  O   UNL     1      -9.243  13.337  68.343  1.00  0.00    -0.196 OA 
HETATM   14  C   UNL     1     -12.254  13.870  67.121  1.00  0.00    -0.318 C  
HETATM   15  C   UNL     1     -11.768  14.184  69.588  1.00  0.00    -0.372 A  
HETATM   16  C   UNL     1     -12.431  13.794  70.763  1.00  0.00    -0.441 A  
HETATM   17  O   UNL     1     -12.381  12.923  66.062  1.00  0.00    -0.504 OA 
HETATM   18  H   UNL     1     -12.727  13.316  65.269  1.00  0.00     0.000 HD 
HETATM   19  C   UNL     1     -12.526  14.668  71.849  1.00  0.00    -0.412 A  
HETATM   20  C   UNL     1     -11.953  15.935  71.779  1.00  0.00    -0.573 A  
HETATM   21  C   UNL     1     -11.273  16.327  70.629  1.00  0.00    -0.310 A  
HETATM   22  C   UNL     1     -11.176  15.457  69.544  1.00  0.00    -0.289 A  
ENDBRANCH  10  11
ENDBRANCH   8  10
TORSDOF 2
ENDMDL
MODEL       74
REMARK 921   NORMALIZED FREE ENERGY PREDICTED BY IDOCK:   -4.86 KCAL/MOL
REMARK 922        TOTAL FREE ENERGY PREDICTED BY IDOCK:   -5.90 KCAL/MOL
REMARK 923 INTER-LIGAND FREE ENERGY PREDICTED BY IDOCK:   -5.22 KCAL/MOL
REMARK 924 INTRA-LIGAND FREE ENERGY PREDICTED BY IDOCK:   -0.68 KCAL/MOL
REMARK 927      BINDING AFFINITY PREDICTED BY RF-SCORE:    0.00 PKD
ROOT
HETATM    1  C   UNL     1      -8.354   9.769  69.576  1.00  0.00    -0.161 C  
HETATM    2  N   UNL     1      -8.878   9.178  68.353  1.00  0.00    -0.129 NA 
HETATM    3  C   UNL     1      -8.330   9.697  67.100  1.00  0.00    -0.121 C  
HETATM    4  C   UNL     1      -9.165   8.936  66.069  1.00  0.00    -0.287 C  
HETATM    5  C   UNL     1     -10.489   8.670  66.775  1.00  0.00    -0.298 C  
HETATM    6  C   UNL     1     -10.324   9.299  68.160  1.00  0.00    -0.215 C  
HETATM    7  C   UNL     1     -10.796  10.756  68.173  1.00  0.00    -0.284 C  
HETATM    8  C   UNL     1      -9.859  11.749  67.465  1.00  0.00    -0.186 C  
HETATM    9  C   UNL     1      -8.517  11.215  66.942  1.00  0.00    -0.147 C  
ENDROOT
BRANCH   8  10
HETATM   10  O   UNL     1     -10.625  12.353  66.406  1.00  0.00    -0.238 OA 
BRANCH  10  11
HETATM   11  C   UNL     1     -10.140  13.572  66.024  1.00  0.00    -0.310 C  
HETATM   12  C   UNL     1      -9.862  14.420  67.254  1.00  0.00    -0.247 C  
HETATM   13  O   UNL     1      -9.938  13.883  64.858  1.00  0.00    -0.311 OA 
HETATM   14  C   UNL     1     -11.104  15.233  67.626  1.00  0.00    -0.323 C  
HETATM   15  C   UNL     1      -8.631  15.300  67.077  1.00  0.00    -0.256 A  
HETATM   16  C   UNL     1      -7.467  15.043  67.820  1.00  0.00    -0.175 A  
HETATM   17  O   UNL     1     -12.201  14.399  67.994  1.00  0.00    -0.584 OA 
HETATM   18  H   UNL     1     -12.973  14.904  68.224  1.00  0.00     0.000 HD 
HETATM   19  C   UNL     1      -6.343  15.862  67.686  1.00  0.00    -0.189 A  
HETATM   20  C   UNL     1      -6.364  16.939  66.804  1.00  0.00    -0.239 A  
HETATM   21  C   UNL     1      -7.503  17.192  66.043  1.00  0.00    -0.178 A  
HETATM   22  C   UNL     1      -8.626  16.376  66.174  1.00  0.00    -0.343 A  
ENDBRANCH  10  11
ENDBRANCH   8  10
TORSDOF 2
ENDMDL
MODEL       75
REMARK 921   NORMALIZED FREE ENERGY PREDICTED BY IDOCK:   -4.80 KCAL/MOL
REMARK 922        TOTAL FREE ENERGY PREDICTED BY IDOCK:   -5.83 KCAL/MOL
REMARK 923 INTER-LIGAND FREE ENERGY PREDICTED BY IDOCK:   -5.27 KCAL/MOL
REMARK 924 INTRA-LIGAND FREE ENERGY PREDICTED BY IDOCK:   -0.56 KCAL/MOL
REMARK 927      BINDING AFFINITY PREDICTED BY RF-SCORE:    0.00 PKD
ROOT
HETATM    1  C   UNL     1     -13.334   9.421  71.366  1.00  0.00    -0.346 C  
HETATM    2  N   UNL     1     -12.521   8.534  72.185  1.00  0.00    -0.357 NA 
HETATM    3  C   UNL     1     -11.111   8.895  72.325  1.00  0.00    -0.186 C  
HETATM    4  C   UNL     1     -10.578   7.716  73.140  1.00  0.00    -0.438 C  
HETATM    5  C   UNL     1     -11.481   6.549  72.755  1.00  0.00    -0.167 C  
HETATM    6  C   UNL     1     -12.467   7.139  71.744  1.00  0.00    -0.350 C  
HETATM    7  C   UNL     1     -11.948   6.999  70.310  1.00  0.00    -0.197 C  
HETATM    8  C   UNL     1     -10.796   7.949  69.940  1.00  0.00    -0.221 C  
HETATM    9  C   UNL     1     -10.379   9.003  70.977  1.00  0.00    -0.348 C  
ENDROOT
BRANCH   8  10
HETATM   10  O   UNL     1      -9.680   7.118  69.569  1.00  0.00    -0.157 OA 
BRANCH  10  11
HETATM   11  C   UNL     1      -9.114   7.482  68.381  1.00  0.00    -0.133 C  
HETATM   12  C   UNL     1     -10.204   7.771  67.362  1.00  0.00    -0.320 C  
HETATM   13  O   UNL     1      -7.907   7.587  68.212  1.00  0.00    -0.117 OA 
HETATM   14  C   UNL     1     -10.558   6.497  66.593  1.00  0.00    -0.171 C  
HETATM   15  C   UNL     1      -9.829   8.918  66.431  1.00  0.00    -0.353 A  
HETATM   16  C   UNL     1     -10.514  10.142  66.509  1.00  0.00    -0.236 A  
HETATM   17  O   UNL     1     -11.107   5.491  67.444  1.00  0.00    -0.269 OA 
HETATM   18  H   UNL     1     -11.326   4.699  66.966  1.00  0.00     0.000 HD 
HETATM   19  C   UNL     1     -10.196  11.189  65.640  1.00  0.00    -0.310 A  
HETATM   20  C   UNL     1      -9.189  11.031  64.692  1.00  0.00    -0.189 A  
HETATM   21  C   UNL     1      -8.486   9.831  64.619  1.00  0.00    -0.179 A  
HETATM   22  C   UNL     1      -8.800   8.784  65.485  1.00  0.00    -0.229 A  
ENDBRANCH  10  11
ENDBRANCH   8  10
TORSDOF 2
ENDMDL
MODEL       76
REMARK 921   NORMALIZED FREE ENERGY PREDICTED BY IDOCK:   -4.79 KCAL/MOL
REMARK 922        TOTAL FREE ENERGY PREDICTED BY IDOCK:   -5.82 KCAL/MOL
REMARK 923 INTER-LIGAND FREE ENERGY PREDICTED BY IDOCK:   -5.56 KCAL/MOL
REMARK 924 INTRA-LIGAND FREE ENERGY PREDICTED BY IDOCK:   -0.26 KCAL/MOL
REMARK 927      BINDING AFFINITY PREDICTED BY RF-SCORE:    0.00 PKD
ROOT
HETATM    1  C   UNL     1      -9.838  15.551  67.022  1.00  0.00    -0.232 C  
HETATM    2  N   UNL     1     -10.848  15.060  66.095  1.00  0.00    -0.324 NA 
HETATM    3  C   UNL     1     -11.966  14.328  66.689  1.00  0.00    -0.430 C  
HETATM    4  C   UNL     1     -12.740  13.898  65.441  1.00  0.00    -0.525 C  
HETATM    5  C   UNL     1     -11.675  13.781  64.356  1.00  0.00    -0.436 C  
HETATM    6  C   UNL     1     -10.365  14.149  65.057  1.00  0.00    -0.418 C  
HETATM    7  C   UNL     1      -9.676  12.911  65.639  1.00  0.00    -0.116 C  
HETATM    8  C   UNL     1     -10.340  12.330  66.899  1.00  0.00    -0.216 C  
HETATM    9  C   UNL     1     -11.521  13.103  67.504  1.00  0.00    -0.371 C  
ENDROOT
BRANCH   8  10
HETATM   10  O   UNL     1     -10.717  10.977  66.579  1.00  0.00    -0.261 OA 
BRANCH  10  11
HETATM   11  C   UNL     1      -9.858  10.048  67.091  1.00  0.00    -0.185 C  
HETATM   12  C   UNL     1     -10.649   8.927  67.746  1.00  0.00    -0.266 C  
HETATM   13  O   UNL     1      -8.642  10.121  66.986  1.00  0.00    -0.128 OA 
HETATM   14  C   UNL     1     -10.896   9.247  69.222  1.00  0.00    -0.152 C  
HETATM   15  C   UNL     1      -9.984   7.569  67.555  1.00  0.00    -0.228 A  
HETATM   16  C   UNL     1     -10.581   6.600  66.733  1.00  0.00    -0.315 A  
HETATM   17  O   UNL     1     -11.700  10.413  69.391  1.00  0.00    -0.390 OA 
HETATM   18  H   UNL     1     -11.853  10.612  70.307  1.00  0.00     0.000 HD 
HETATM   19  C   UNL     1      -9.994   5.342  66.576  1.00  0.00    -0.222 A  
HETATM   20  C   UNL     1      -8.801   5.040  67.229  1.00  0.00    -0.102 A  
HETATM   21  C   UNL     1      -8.187   5.999  68.029  1.00  0.00    -0.113 A  
HETATM   22  C   UNL     1      -8.770   7.256  68.188  1.00  0.00    -0.128 A  
ENDBRANCH  10  11
ENDBRANCH   8  10
TORSDOF 2
ENDMDL
MODEL       77
REMARK 921   NORMALIZED FREE ENERGY PREDICTED BY IDOCK:   -4.79 KCAL/MOL
REMARK 922        TOTAL FREE ENERGY PREDICTED BY IDOCK:   -5.82 KCAL/MOL
REMARK 923 INTER-LIGAND FREE ENERGY PREDICTED BY IDOCK:   -6.63 KCAL/MOL
REMARK 924 INTRA-LIGAND FREE ENERGY PREDICTED BY IDOCK:    0.82 KCAL/MOL
REMARK 927      BINDING AFFINITY PREDICTED BY RF-SCORE:    0.00 PKD
ROOT
HETATM    1  C   UNL     1      -9.409   8.561  72.663  1.00  0.00    -0.214 C  
HETATM    2  N   UNL     1     -10.743   8.149  72.253  1.00  0.00    -0.287 NA 
HETATM    3  C   UNL     1     -10.809   7.130  71.206  1.00  0.00    -0.233 C  
HETATM    4  C   UNL     1     -12.319   7.032  70.977  1.00  0.00    -0.402 C  
HETATM    5  C   UNL     1     -12.847   8.417  71.333  1.00  0.00    -0.262 C  
HETATM    6  C   UNL     1     -11.604   9.214  71.737  1.00  0.00    -0.387 C  
HETATM    7  C   UNL     1     -10.988   9.936  70.536  1.00  0.00    -0.391 C  
HETATM    8  C   UNL     1     -10.242   9.026  69.544  1.00  0.00    -0.203 C  
HETATM    9  C   UNL     1     -10.087   7.544  69.914  1.00  0.00    -0.193 C  
ENDROOT
BRANCH   8  10
HETATM   10  O   UNL     1     -10.902   9.177  68.273  1.00  0.00    -0.163 OA 
BRANCH  10  11
HETATM   11  C   UNL     1     -11.266  10.466  68.009  1.00  0.00    -0.272 C  
HETATM   12  C   UNL     1     -10.336  11.056  66.961  1.00  0.00    -0.269 C  
HETATM   13  O   UNL     1     -12.227  11.016  68.528  1.00  0.00    -0.582 OA 
HETATM   14  C   UNL     1      -9.137  11.725  67.638  1.00  0.00    -0.177 C  
HETATM   15  C   UNL     1     -11.064  12.002  66.016  1.00  0.00    -0.364 A  
HETATM   16  C   UNL     1     -11.255  11.646  64.670  1.00  0.00    -0.320 A  
HETATM   17  O   UNL     1      -8.336  10.790  68.358  1.00  0.00    -0.118 OA 
HETATM   18  H   UNL     1      -7.592  11.205  68.779  1.00  0.00     0.000 HD 
HETATM   19  C   UNL     1     -11.896  12.521  63.789  1.00  0.00    -0.577 A  
HETATM   20  C   UNL     1     -12.361  13.754  64.240  1.00  0.00    -0.384 A  
HETATM   21  C   UNL     1     -12.199  14.110  65.576  1.00  0.00    -0.443 A  
HETATM   22  C   UNL     1     -11.560  13.239  66.459  1.00  0.00    -0.392 A  
ENDBRANCH  10  11
ENDBRANCH   8  10
TORSDOF 2
ENDMDL
MODEL       78
REMARK 921   NORMALIZED FREE ENERGY PREDICTED BY IDOCK:   -4.75 KCAL/MOL
REMARK 922        TOTAL FREE ENERGY PREDICTED BY IDOCK:   -5.78 KCAL/MOL
REMARK 923 INTER-LIGAND FREE ENERGY PREDICTED BY IDOCK:   -5.38 KCAL/MOL
REMARK 924 INTRA-LIGAND FREE ENERGY PREDICTED BY IDOCK:   -0.40 KCAL/MOL
REMARK 927      BINDING AFFINITY PREDICTED BY RF-SCORE:    0.00 PKD
ROOT
HETATM    1  C   UNL     1      -9.377   7.134  72.411  1.00  0.00    -0.134 C  
HETATM    2  N   UNL     1     -10.778   7.175  72.021  1.00  0.00    -0.212 NA 
HETATM    3  C   UNL     1     -11.075   6.785  70.643  1.00  0.00    -0.291 C  
HETATM    4  C   UNL     1     -12.582   7.043  70.576  1.00  0.00    -0.002 C  
HETATM    5  C   UNL     1     -12.819   8.166  71.579  1.00  0.00    -0.319 C  
HETATM    6  C   UNL     1     -11.433   8.477  72.148  1.00  0.00    -0.376 C  
HETATM    7  C   UNL     1     -10.728   9.569  71.339  1.00  0.00    -0.348 C  
HETATM    8  C   UNL     1     -10.207   9.123  69.962  1.00  0.00    -0.204 C  
HETATM    9  C   UNL     1     -10.329   7.635  69.601  1.00  0.00    -0.213 C  
ENDROOT
BRANCH   8  10
HETATM   10  O   UNL     1     -10.867   9.949  68.985  1.00  0.00    -0.218 OA 
BRANCH  10  11
HETATM   11  C   UNL     1     -10.455  11.251  69.019  1.00  0.00    -0.194 C  
HETATM   12  C   UNL     1     -11.629  12.167  68.714  1.00  0.00    -0.380 C  
HETATM   13  O   UNL     1      -9.313  11.590  69.295  1.00  0.00     0.135 OA 
HETATM   14  C   UNL     1     -11.720  12.425  67.209  1.00  0.00    -0.349 C  
HETATM   15  C   UNL     1     -11.569  13.460  69.517  1.00  0.00    -0.352 A  
HETATM   16  C   UNL     1     -12.510  13.706  70.531  1.00  0.00    -0.394 A  
HETATM   17  O   UNL     1     -11.985  11.231  66.474  1.00  0.00    -0.139 OA 
HETATM   18  H   UNL     1     -12.041  11.392  65.539  1.00  0.00     0.000 HD 
HETATM   19  C   UNL     1     -12.481  14.902  71.252  1.00  0.00    -0.396 A  
HETATM   20  C   UNL     1     -11.509  15.862  70.977  1.00  0.00    -0.461 A  
HETATM   21  C   UNL     1     -10.557  15.622  69.991  1.00  0.00    -0.342 A  
HETATM   22  C   UNL     1     -10.583  14.429  69.269  1.00  0.00    -0.190 A  
ENDBRANCH  10  11
ENDBRANCH   8  10
TORSDOF 2
ENDMDL
MODEL       79
REMARK 921   NORMALIZED FREE ENERGY PREDICTED BY IDOCK:   -4.75 KCAL/MOL
REMARK 922        TOTAL FREE ENERGY PREDICTED BY IDOCK:   -5.77 KCAL/MOL
REMARK 923 INTER-LIGAND FREE ENERGY PREDICTED BY IDOCK:   -5.44 KCAL/MOL
REMARK 924 INTRA-LIGAND FREE ENERGY PREDICTED BY IDOCK:   -0.33 KCAL/MOL
REMARK 927      BINDING AFFINITY PREDICTED BY RF-SCORE:    0.00 PKD
ROOT
HETATM    1  C   UNL     1      -8.233   7.055  68.135  1.00  0.00    -0.120 C  
HETATM    2  N   UNL     1      -7.482   8.288  67.955  1.00  0.00    -0.096 NA 
HETATM    3  C   UNL     1      -7.217   9.065  69.165  1.00  0.00    -0.067 C  
HETATM    4  C   UNL     1      -6.521  10.298  68.585  1.00  0.00    -0.052 C  
HETATM    5  C   UNL     1      -7.097  10.432  67.179  1.00  0.00    -0.090 C  
HETATM    6  C   UNL     1      -8.085   9.270  67.052  1.00  0.00    -0.112 C  
HETATM    7  C   UNL     1      -9.492   9.683  67.492  1.00  0.00    -0.157 C  
HETATM    8  C   UNL     1      -9.677   9.846  69.011  1.00  0.00    -0.193 C  
HETATM    9  C   UNL     1      -8.497   9.465  69.918  1.00  0.00    -0.186 C  
ENDROOT
BRANCH   8  10
HETATM   10  O   UNL     1     -10.080  11.211  69.232  1.00  0.00    -0.159 OA 
BRANCH  10  11
HETATM   11  C   UNL     1     -11.047  11.630  68.363  1.00  0.00    -0.234 C  
HETATM   12  C   UNL     1     -10.488  12.722  67.465  1.00  0.00    -0.223 C  
HETATM   13  O   UNL     1     -12.170  11.147  68.317  1.00  0.00    -0.613 OA 
HETATM   14  C   UNL     1     -10.719  14.096  68.099  1.00  0.00    -0.245 C  
HETATM   15  C   UNL     1     -11.047  12.642  66.050  1.00  0.00    -0.321 A  
HETATM   16  C   UNL     1     -10.212  12.273  64.982  1.00  0.00    -0.312 A  
HETATM   17  O   UNL     1     -10.021  14.241  69.335  1.00  0.00    -0.421 OA 
HETATM   18  H   UNL     1     -10.164  15.093  69.729  1.00  0.00     0.000 HD 
HETATM   19  C   UNL     1     -10.708  12.224  63.677  1.00  0.00    -0.513 A  
HETATM   20  C   UNL     1     -12.042  12.535  63.423  1.00  0.00    -0.621 A  
HETATM   21  C   UNL     1     -12.886  12.880  64.475  1.00  0.00    -0.273 A  
HETATM   22  C   UNL     1     -12.395  12.929  65.779  1.00  0.00    -0.437 A  
ENDBRANCH  10  11
ENDBRANCH   8  10
TORSDOF 2
ENDMDL
MODEL       80
REMARK 921   NORMALIZED FREE ENERGY PREDICTED BY IDOCK:   -4.74 KCAL/MOL
REMARK 922        TOTAL FREE ENERGY PREDICTED BY IDOCK:   -5.77 KCAL/MOL
REMARK 923 INTER-LIGAND FREE ENERGY PREDICTED BY IDOCK:   -5.59 KCAL/MOL
REMARK 924 INTRA-LIGAND FREE ENERGY PREDICTED BY IDOCK:   -0.18 KCAL/MOL
REMARK 927      BINDING AFFINITY PREDICTED BY RF-SCORE:    0.00 PKD
ROOT
HETATM    1  C   UNL     1     -10.618  16.516  65.867  1.00  0.00    -0.270 C  
HETATM    2  N   UNL     1     -10.273  16.467  67.280  1.00  0.00    -0.273 NA 
HETATM    3  C   UNL     1      -9.015  15.801  67.614  1.00  0.00    -0.187 C  
HETATM    4  C   UNL     1      -9.042  15.855  69.142  1.00  0.00    -0.255 C  
HETATM    5  C   UNL     1     -10.526  15.854  69.495  1.00  0.00    -0.281 C  
HETATM    6  C   UNL     1     -11.245  15.797  68.146  1.00  0.00    -0.344 C  
HETATM    7  C   UNL     1     -11.514  14.352  67.716  1.00  0.00    -0.360 C  
HETATM    8  C   UNL     1     -10.275  13.576  67.237  1.00  0.00    -0.242 C  
HETATM    9  C   UNL     1      -8.952  14.346  67.120  1.00  0.00    -0.245 C  
ENDROOT
BRANCH   8  10
HETATM   10  O   UNL     1     -10.138  12.440  68.112  1.00  0.00    -0.211 OA 
BRANCH  10  11
HETATM   11  C   UNL     1     -10.474  11.260  67.513  1.00  0.00    -0.201 C  
HETATM   12  C   UNL     1      -9.377  10.235  67.750  1.00  0.00    -0.156 C  
HETATM   13  O   UNL     1     -11.527  11.081  66.917  1.00  0.00    -0.384 OA 
HETATM   14  C   UNL     1      -8.341  10.301  66.626  1.00  0.00    -0.125 C  
HETATM   15  C   UNL     1      -9.935   8.830  67.936  1.00  0.00    -0.231 A  
HETATM   16  C   UNL     1      -9.863   8.201  69.190  1.00  0.00    -0.182 A  
HETATM   17  O   UNL     1      -7.669  11.559  66.588  1.00  0.00    -0.202 OA 
HETATM   18  H   UNL     1      -7.026  11.600  65.889  1.00  0.00     0.000 HD 
HETATM   19  C   UNL     1     -10.347   6.902  69.362  1.00  0.00    -0.220 A  
HETATM   20  C   UNL     1     -10.914   6.219  68.289  1.00  0.00    -0.408 A  
HETATM   21  C   UNL     1     -11.013   6.838  67.046  1.00  0.00    -0.439 A  
HETATM   22  C   UNL     1     -10.533   8.136  66.871  1.00  0.00    -0.379 A  
ENDBRANCH  10  11
ENDBRANCH   8  10
TORSDOF 2
ENDMDL
MODEL       81
REMARK 921   NORMALIZED FREE ENERGY PREDICTED BY IDOCK:   -4.73 KCAL/MOL
REMARK 922        TOTAL FREE ENERGY PREDICTED BY IDOCK:   -5.76 KCAL/MOL
REMARK 923 INTER-LIGAND FREE ENERGY PREDICTED BY IDOCK:   -5.23 KCAL/MOL
REMARK 924 INTRA-LIGAND FREE ENERGY PREDICTED BY IDOCK:   -0.53 KCAL/MOL
REMARK 927      BINDING AFFINITY PREDICTED BY RF-SCORE:    0.00 PKD
ROOT
HETATM    1  C   UNL     1     -12.818  13.973  65.443  1.00  0.00    -0.410 C  
HETATM    2  N   UNL     1     -12.023  14.582  66.500  1.00  0.00    -0.378 NA 
HETATM    3  C   UNL     1     -10.580  14.643  66.267  1.00  0.00    -0.306 C  
HETATM    4  C   UNL     1     -10.088  15.233  67.590  1.00  0.00    -0.235 C  
HETATM    5  C   UNL     1     -11.116  14.771  68.617  1.00  0.00    -0.274 C  
HETATM    6  C   UNL     1     -12.124  13.946  67.814  1.00  0.00    -0.293 C  
HETATM    7  C   UNL     1     -11.733  12.466  67.780  1.00  0.00    -0.413 C  
HETATM    8  C   UNL     1     -10.537  12.130  66.873  1.00  0.00    -0.229 C  
HETATM    9  C   UNL     1      -9.951  13.263  66.017  1.00  0.00    -0.297 C  
ENDROOT
BRANCH   8  10
HETATM   10  O   UNL     1      -9.529  11.546  67.720  1.00  0.00    -0.161 OA 
BRANCH  10  11
HETATM   11  C   UNL     1      -8.706  10.684  67.055  1.00  0.00    -0.128 C  
HETATM   12  C   UNL     1      -9.505   9.908  66.021  1.00  0.00    -0.258 C  
HETATM   13  O   UNL     1      -7.503  10.604  67.262  1.00  0.00    -0.095 OA 
HETATM   14  C   UNL     1     -10.055   8.620  66.638  1.00  0.00    -0.294 C  
HETATM   15  C   UNL     1      -8.699   9.641  64.756  1.00  0.00    -0.219 A  
HETATM   16  C   UNL     1      -9.040  10.280  63.553  1.00  0.00    -0.288 A  
HETATM   17  O   UNL     1     -10.977   8.882  67.695  1.00  0.00    -0.493 OA 
HETATM   18  H   UNL     1     -11.318   8.082  68.078  1.00  0.00     0.000 HD 
HETATM   19  C   UNL     1      -8.325  10.019  62.382  1.00  0.00    -0.168 A  
HETATM   20  C   UNL     1      -7.257   9.126  62.399  1.00  0.00    -0.096 A  
HETATM   21  C   UNL     1      -6.893   8.502  63.589  1.00  0.00    -0.087 A  
HETATM   22  C   UNL     1      -7.604   8.761  64.760  1.00  0.00    -0.107 A  
ENDBRANCH  10  11
ENDBRANCH   8  10
TORSDOF 2
ENDMDL
MODEL       82
REMARK 921   NORMALIZED FREE ENERGY PREDICTED BY IDOCK:   -4.73 KCAL/MOL
REMARK 922        TOTAL FREE ENERGY PREDICTED BY IDOCK:   -5.75 KCAL/MOL
REMARK 923 INTER-LIGAND FREE ENERGY PREDICTED BY IDOCK:   -5.41 KCAL/MOL
REMARK 924 INTRA-LIGAND FREE ENERGY PREDICTED BY IDOCK:   -0.35 KCAL/MOL
REMARK 927      BINDING AFFINITY PREDICTED BY RF-SCORE:    0.00 PKD
ROOT
HETATM    1  C   UNL     1     -11.004   4.901  72.519  1.00  0.00    -0.137 C  
HETATM    2  N   UNL     1      -9.949   5.731  73.082  1.00  0.00    -0.172 NA 
HETATM    3  C   UNL     1     -10.371   7.005  73.663  1.00  0.00    -0.373 C  
HETATM    4  C   UNL     1      -9.025   7.621  74.046  1.00  0.00    -0.299 C  
HETATM    5  C   UNL     1      -8.039   7.031  73.043  1.00  0.00    -0.118 C  
HETATM    6  C   UNL     1      -8.888   6.122  72.153  1.00  0.00    -0.138 C  
HETATM    7  C   UNL     1      -9.426   6.876  70.934  1.00  0.00    -0.157 C  
HETATM    8  C   UNL     1     -10.564   7.867  71.233  1.00  0.00    -0.211 C  
HETATM    9  C   UNL     1     -11.119   7.904  72.665  1.00  0.00    -0.447 C  
ENDROOT
BRANCH   8  10
HETATM   10  O   UNL     1     -10.097   9.166  70.824  1.00  0.00    -0.224 OA 
BRANCH  10  11
HETATM   11  C   UNL     1     -10.630   9.576  69.636  1.00  0.00    -0.228 C  
HETATM   12  C   UNL     1     -10.952  11.060  69.704  1.00  0.00    -0.286 C  
HETATM   13  O   UNL     1     -10.775   8.839  68.670  1.00  0.00    -0.175 OA 
HETATM   14  C   UNL     1     -12.381  11.268  70.208  1.00  0.00    -0.307 C  
HETATM   15  C   UNL     1     -10.703  11.762  68.375  1.00  0.00    -0.249 A  
HETATM   16  C   UNL     1      -9.651  12.684  68.249  1.00  0.00    -0.208 A  
HETATM   17  O   UNL     1     -12.555  10.791  71.542  1.00  0.00    -0.388 OA 
HETATM   18  H   UNL     1     -13.443  10.919  71.854  1.00  0.00     0.000 HD 
HETATM   19  C   UNL     1      -9.434  13.354  67.042  1.00  0.00    -0.247 A  
HETATM   20  C   UNL     1     -10.257  13.106  65.947  1.00  0.00    -0.294 A  
HETATM   21  C   UNL     1     -11.290  12.178  66.050  1.00  0.00    -0.410 A  
HETATM   22  C   UNL     1     -11.509  11.507  67.253  1.00  0.00    -0.338 A  
ENDBRANCH  10  11
ENDBRANCH   8  10
TORSDOF 2
ENDMDL
MODEL       83
REMARK 921   NORMALIZED FREE ENERGY PREDICTED BY IDOCK:   -4.72 KCAL/MOL
REMARK 922        TOTAL FREE ENERGY PREDICTED BY IDOCK:   -5.75 KCAL/MOL
REMARK 923 INTER-LIGAND FREE ENERGY PREDICTED BY IDOCK:   -5.43 KCAL/MOL
REMARK 924 INTRA-LIGAND FREE ENERGY PREDICTED BY IDOCK:   -0.32 KCAL/MOL
REMARK 927      BINDING AFFINITY PREDICTED BY RF-SCORE:    0.00 PKD
ROOT
HETATM    1  C   UNL     1      -9.035   6.626  72.225  1.00  0.00    -0.133 C  
HETATM    2  N   UNL     1     -10.447   6.974  72.271  1.00  0.00    -0.204 NA 
HETATM    3  C   UNL     1     -11.273   6.466  71.175  1.00  0.00    -0.302 C  
HETATM    4  C   UNL     1     -12.626   7.100  71.502  1.00  0.00    -0.427 C  
HETATM    5  C   UNL     1     -12.275   8.389  72.237  1.00  0.00    -0.449 C  
HETATM    6  C   UNL     1     -10.746   8.407  72.278  1.00  0.00    -0.347 C  
HETATM    7  C   UNL     1     -10.162   9.133  71.063  1.00  0.00    -0.372 C  
HETATM    8  C   UNL     1     -10.248   8.355  69.738  1.00  0.00    -0.207 C  
HETATM    9  C   UNL     1     -10.779   6.915  69.790  1.00  0.00    -0.276 C  
ENDROOT
BRANCH   8  10
HETATM   10  O   UNL     1     -11.027   9.163  68.837  1.00  0.00    -0.124 OA 
BRANCH  10  11
HETATM   11  C   UNL     1     -10.551   9.146  67.557  1.00  0.00    -0.249 C  
HETATM   12  C   UNL     1      -9.946  10.499  67.218  1.00  0.00    -0.224 C  
HETATM   13  O   UNL     1     -10.589   8.159  66.835  1.00  0.00    -0.329 OA 
HETATM   14  C   UNL     1     -11.011  11.417  66.616  1.00  0.00    -0.285 C  
HETATM   15  C   UNL     1      -8.723  10.370  66.318  1.00  0.00    -0.163 A  
HETATM   16  C   UNL     1      -7.446  10.678  66.815  1.00  0.00    -0.120 A  
HETATM   17  O   UNL     1     -12.058  11.704  67.542  1.00  0.00    -0.611 OA 
HETATM   18  H   UNL     1     -12.720  12.274  67.168  1.00  0.00     0.000 HD 
HETATM   19  C   UNL     1      -6.323  10.591  65.988  1.00  0.00    -0.124 A  
HETATM   20  C   UNL     1      -6.459  10.189  64.662  1.00  0.00    -0.125 A  
HETATM   21  C   UNL     1      -7.716   9.858  64.163  1.00  0.00    -0.138 A  
HETATM   22  C   UNL     1      -8.839   9.943  64.985  1.00  0.00    -0.220 A  
ENDBRANCH  10  11
ENDBRANCH   8  10
TORSDOF 2
ENDMDL
MODEL       84
REMARK 921   NORMALIZED FREE ENERGY PREDICTED BY IDOCK:   -4.71 KCAL/MOL
REMARK 922        TOTAL FREE ENERGY PREDICTED BY IDOCK:   -5.73 KCAL/MOL
REMARK 923 INTER-LIGAND FREE ENERGY PREDICTED BY IDOCK:   -5.49 KCAL/MOL
REMARK 924 INTRA-LIGAND FREE ENERGY PREDICTED BY IDOCK:   -0.24 KCAL/MOL
REMARK 927      BINDING AFFINITY PREDICTED BY RF-SCORE:    0.00 PKD
ROOT
HETATM    1  C   UNL     1      -9.602   7.074  73.970  1.00  0.00    -0.272 C  
HETATM    2  N   UNL     1     -10.877   7.269  73.296  1.00  0.00    -0.371 NA 
HETATM    3  C   UNL     1     -11.304   6.194  72.401  1.00  0.00    -0.296 C  
HETATM    4  C   UNL     1     -12.590   6.781  71.818  1.00  0.00    -0.370 C  
HETATM    5  C   UNL     1     -12.370   8.289  71.856  1.00  0.00    -0.379 C  
HETATM    6  C   UNL     1     -10.972   8.462  72.454  1.00  0.00    -0.355 C  
HETATM    7  C   UNL     1      -9.898   8.496  71.363  1.00  0.00    -0.296 C  
HETATM    8  C   UNL     1      -9.593   7.138  70.708  1.00  0.00    -0.168 C  
HETATM    9  C   UNL     1     -10.286   5.895  71.287  1.00  0.00    -0.276 C  
ENDROOT
BRANCH   8  10
HETATM   10  O   UNL     1      -9.879   7.284  69.305  1.00  0.00    -0.163 OA 
BRANCH  10  11
HETATM   11  C   UNL     1      -9.404   8.452  68.781  1.00  0.00    -0.143 C  
HETATM   12  C   UNL     1     -10.496   9.131  67.971  1.00  0.00    -0.276 C  
HETATM   13  O   UNL     1      -8.275   8.875  68.988  1.00  0.00    -0.112 OA 
HETATM   14  C   UNL     1     -10.438   8.667  66.514  1.00  0.00    -0.057 C  
HETATM   15  C   UNL     1     -10.441  10.649  68.092  1.00  0.00    -0.215 A  
HETATM   16  C   UNL     1     -11.454  11.340  68.777  1.00  0.00    -0.359 A  
HETATM   17  O   UNL     1     -10.698   7.270  66.385  1.00  0.00    -0.427 OA 
HETATM   18  H   UNL     1     -10.661   6.981  65.481  1.00  0.00     0.000 HD 
HETATM   19  C   UNL     1     -11.427  12.733  68.869  1.00  0.00    -0.352 A  
HETATM   20  C   UNL     1     -10.386  13.453  68.287  1.00  0.00    -0.251 A  
HETATM   21  C   UNL     1      -9.362  12.780  67.625  1.00  0.00    -0.191 A  
HETATM   22  C   UNL     1      -9.386  11.388  67.533  1.00  0.00    -0.166 A  
ENDBRANCH  10  11
ENDBRANCH   8  10
TORSDOF 2
ENDMDL
MODEL       85
REMARK 921   NORMALIZED FREE ENERGY PREDICTED BY IDOCK:   -4.71 KCAL/MOL
REMARK 922        TOTAL FREE ENERGY PREDICTED BY IDOCK:   -5.73 KCAL/MOL
REMARK 923 INTER-LIGAND FREE ENERGY PREDICTED BY IDOCK:   -5.11 KCAL/MOL
REMARK 924 INTRA-LIGAND FREE ENERGY PREDICTED BY IDOCK:   -0.63 KCAL/MOL
REMARK 927      BINDING AFFINITY PREDICTED BY RF-SCORE:    0.00 PKD
ROOT
HETATM    1  C   UNL     1     -10.352   7.447  73.255  1.00  0.00    -0.355 C  
HETATM    2  N   UNL     1     -11.477   8.133  72.639  1.00  0.00    -0.403 NA 
HETATM    3  C   UNL     1     -12.330   7.322  71.771  1.00  0.00    -0.341 C  
HETATM    4  C   UNL     1     -13.309   8.372  71.244  1.00  0.00    -0.149 C  
HETATM    5  C   UNL     1     -12.514   9.674  71.262  1.00  0.00    -0.445 C  
HETATM    6  C   UNL     1     -11.135   9.279  71.795  1.00  0.00    -0.327 C  
HETATM    7  C   UNL     1     -10.183   8.904  70.656  1.00  0.00    -0.267 C  
HETATM    8  C   UNL     1     -10.463   7.542  69.996  1.00  0.00    -0.228 C  
HETATM    9  C   UNL     1     -11.560   6.663  70.614  1.00  0.00    -0.439 C  
ENDROOT
BRANCH   8  10
HETATM   10  O   UNL     1     -10.731   7.806  68.606  1.00  0.00    -0.159 OA 
BRANCH  10  11
HETATM   11  C   UNL     1     -10.475   6.734  67.800  1.00  0.00    -0.222 C  
HETATM   12  C   UNL     1      -9.172   6.076  68.222  1.00  0.00    -0.117 C  
HETATM   13  O   UNL     1     -11.227   6.366  66.908  1.00  0.00    -0.368 OA 
HETATM   14  C   UNL     1      -7.998   6.697  67.461  1.00  0.00    -0.115 C  
HETATM   15  C   UNL     1      -9.219   4.561  68.068  1.00  0.00    -0.166 A  
HETATM   16  C   UNL     1      -9.220   3.736  69.205  1.00  0.00    -0.228 A  
HETATM   17  O   UNL     1      -7.829   8.080  67.770  1.00  0.00    -0.121 OA 
HETATM   18  H   UNL     1      -7.100   8.465  67.297  1.00  0.00     0.000 HD 
HETATM   19  C   UNL     1      -9.234   2.346  69.074  1.00  0.00    -0.205 A  
HETATM   20  C   UNL     1      -9.255   1.762  67.809  1.00  0.00    -0.194 A  
HETATM   21  C   UNL     1      -9.278   2.568  66.674  1.00  0.00    -0.072 A  
HETATM   22  C   UNL     1      -9.265   3.956  66.801  1.00  0.00    -0.186 A  
ENDBRANCH  10  11
ENDBRANCH   8  10
TORSDOF 2
ENDMDL
MODEL       86
REMARK 921   NORMALIZED FREE ENERGY PREDICTED BY IDOCK:   -4.66 KCAL/MOL
REMARK 922        TOTAL FREE ENERGY PREDICTED BY IDOCK:   -5.67 KCAL/MOL
REMARK 923 INTER-LIGAND FREE ENERGY PREDICTED BY IDOCK:   -5.62 KCAL/MOL
REMARK 924 INTRA-LIGAND FREE ENERGY PREDICTED BY IDOCK:   -0.05 KCAL/MOL
REMARK 927      BINDING AFFINITY PREDICTED BY RF-SCORE:    0.00 PKD
ROOT
HETATM    1  C   UNL     1      -7.206  18.078  68.609  1.00  0.00    -0.273 C  
HETATM    2  N   UNL     1      -8.520  18.082  67.982  1.00  0.00    -0.254 NA 
HETATM    3  C   UNL     1      -9.511  17.173  68.557  1.00  0.00    -0.282 C  
HETATM    4  C   UNL     1     -10.691  17.375  67.605  1.00  0.00    -0.310 C  
HETATM    5  C   UNL     1     -10.046  17.756  66.277  1.00  0.00    -0.345 C  
HETATM    6  C   UNL     1      -8.542  17.743  66.558  1.00  0.00    -0.257 C  
HETATM    7  C   UNL     1      -7.933  16.368  66.274  1.00  0.00    -0.264 C  
HETATM    8  C   UNL     1      -8.269  15.281  67.309  1.00  0.00    -0.204 C  
HETATM    9  C   UNL     1      -9.055  15.705  68.559  1.00  0.00    -0.196 C  
ENDROOT
BRANCH   8  10
HETATM   10  O   UNL     1      -8.952  14.232  66.598  1.00  0.00    -0.245 OA 
BRANCH  10  11
HETATM   11  C   UNL     1      -9.252  13.158  67.386  1.00  0.00    -0.213 C  
HETATM   12  C   UNL     1     -10.394  12.370  66.765  1.00  0.00    -0.239 C  
HETATM   13  O   UNL     1      -8.645  12.883  68.412  1.00  0.00    -0.174 OA 
HETATM   14  C   UNL     1     -11.737  12.893  67.279  1.00  0.00    -0.373 C  
HETATM   15  C   UNL     1     -10.240  10.870  66.982  1.00  0.00    -0.256 A  
HETATM   16  C   UNL     1      -9.959  10.025  65.895  1.00  0.00    -0.339 A  
HETATM   17  O   UNL     1     -11.970  14.246  66.893  1.00  0.00    -0.416 OA 
HETATM   18  H   UNL     1     -12.804  14.571  67.212  1.00  0.00     0.000 HD 
HETATM   19  C   UNL     1      -9.844   8.645  66.080  1.00  0.00    -0.269 A  
HETATM   20  C   UNL     1     -10.000   8.094  67.350  1.00  0.00    -0.271 A  
HETATM   21  C   UNL     1     -10.255   8.922  68.440  1.00  0.00    -0.231 A  
HETATM   22  C   UNL     1     -10.369  10.300  68.259  1.00  0.00    -0.209 A  
ENDBRANCH  10  11
ENDBRANCH   8  10
TORSDOF 2
ENDMDL
MODEL       87
REMARK 921   NORMALIZED FREE ENERGY PREDICTED BY IDOCK:   -4.64 KCAL/MOL
REMARK 922        TOTAL FREE ENERGY PREDICTED BY IDOCK:   -5.65 KCAL/MOL
REMARK 923 INTER-LIGAND FREE ENERGY PREDICTED BY IDOCK:   -5.35 KCAL/MOL
REMARK 924 INTRA-LIGAND FREE ENERGY PREDICTED BY IDOCK:   -0.30 KCAL/MOL
REMARK 927      BINDING AFFINITY PREDICTED BY RF-SCORE:    0.00 PKD
ROOT
HETATM    1  C   UNL     1     -10.907  13.958  68.950  1.00  0.00    -0.255 C  
HETATM    2  N   UNL     1     -10.579  13.240  67.727  1.00  0.00    -0.238 NA 
HETATM    3  C   UNL     1     -11.552  12.244  67.283  1.00  0.00    -0.357 C  
HETATM    4  C   UNL     1     -10.839  11.648  66.068  1.00  0.00    -0.339 C  
HETATM    5  C   UNL     1      -9.356  11.816  66.378  1.00  0.00    -0.229 C  
HETATM    6  C   UNL     1      -9.321  12.492  67.750  1.00  0.00    -0.198 C  
HETATM    7  C   UNL     1      -9.274  11.461  68.881  1.00  0.00    -0.035 C  
HETATM    8  C   UNL     1     -10.596  10.715  69.136  1.00  0.00    -0.226 C  
HETATM    9  C   UNL     1     -11.831  11.160  68.338  1.00  0.00    -0.302 C  
ENDROOT
BRANCH   8  10
HETATM   10  O   UNL     1     -10.324   9.316  68.934  1.00  0.00    -0.204 OA 
BRANCH  10  11
HETATM   11  C   UNL     1     -10.865   8.521  69.903  1.00  0.00    -0.205 C  
HETATM   12  C   UNL     1     -10.342   7.101  69.751  1.00  0.00    -0.224 C  
HETATM   13  O   UNL     1     -11.623   8.934  70.771  1.00  0.00    -0.280 OA 
HETATM   14  C   UNL     1     -11.263   6.296  68.832  1.00  0.00    -0.309 C  
HETATM   15  C   UNL     1     -10.135   6.420  71.098  1.00  0.00    -0.213 A  
HETATM   16  C   UNL     1      -8.837   6.130  71.550  1.00  0.00    -0.135 A  
HETATM   17  O   UNL     1     -11.292   6.822  67.506  1.00  0.00    -0.633 OA 
HETATM   18  H   UNL     1     -11.864   6.322  66.936  1.00  0.00     0.000 HD 
HETATM   19  C   UNL     1      -8.639   5.480  72.771  1.00  0.00    -0.120 A  
HETATM   20  C   UNL     1      -9.731   5.118  73.557  1.00  0.00    -0.159 A  
HETATM   21  C   UNL     1     -11.022   5.420  73.132  1.00  0.00    -0.353 A  
HETATM   22  C   UNL     1     -11.223   6.070  71.914  1.00  0.00    -0.338 A  
ENDBRANCH  10  11
ENDBRANCH   8  10
TORSDOF 2
ENDMDL
MODEL       88
REMARK 921   NORMALIZED FREE ENERGY PREDICTED BY IDOCK:   -4.63 KCAL/MOL
REMARK 922        TOTAL FREE ENERGY PREDICTED BY IDOCK:   -5.64 KCAL/MOL
REMARK 923 INTER-LIGAND FREE ENERGY PREDICTED BY IDOCK:   -6.53 KCAL/MOL
REMARK 924 INTRA-LIGAND FREE ENERGY PREDICTED BY IDOCK:    0.89 KCAL/MOL
REMARK 927      BINDING AFFINITY PREDICTED BY RF-SCORE:    0.00 PKD
ROOT
HETATM    1  C   UNL     1     -11.380  10.672  68.271  1.00  0.00    -0.289 C  
HETATM    2  N   UNL     1     -11.435  11.092  66.879  1.00  0.00    -0.399 NA 
HETATM    3  C   UNL     1     -10.163  11.104  66.158  1.00  0.00    -0.244 C  
HETATM    4  C   UNL     1     -10.590  11.677  64.805  1.00  0.00    -0.358 C  
HETATM    5  C   UNL     1     -11.789  12.562  65.130  1.00  0.00    -0.450 C  
HETATM    6  C   UNL     1     -11.964  12.437  66.645  1.00  0.00    -0.229 C  
HETATM    7  C   UNL     1     -11.174  13.515  67.390  1.00  0.00    -0.317 C  
HETATM    8  C   UNL     1      -9.650  13.303  67.417  1.00  0.00    -0.223 C  
HETATM    9  C   UNL     1      -9.102  11.998  66.820  1.00  0.00    -0.197 C  
ENDROOT
BRANCH   8  10
HETATM   10  O   UNL     1      -9.063  14.452  66.778  1.00  0.00    -0.248 OA 
BRANCH  10  11
HETATM   11  C   UNL     1      -9.749  15.607  67.020  1.00  0.00    -0.227 C  
HETATM   12  C   UNL     1      -8.986  16.453  68.027  1.00  0.00    -0.185 C  
HETATM   13  O   UNL     1     -10.797  15.900  66.462  1.00  0.00    -0.291 OA 
HETATM   14  C   UNL     1      -9.429  16.106  69.450  1.00  0.00    -0.198 C  
HETATM   15  C   UNL     1      -9.110  17.943  67.734  1.00  0.00    -0.258 A  
HETATM   16  C   UNL     1      -7.993  18.670  67.291  1.00  0.00    -0.245 A  
HETATM   17  O   UNL     1      -9.120  14.756  69.794  1.00  0.00    -0.418 OA 
HETATM   18  H   UNL     1      -9.395  14.541  70.678  1.00  0.00     0.000 HD 
HETATM   19  C   UNL     1      -8.090  20.043  67.048  1.00  0.00    -0.357 A  
HETATM   20  C   UNL     1      -9.302  20.703  67.235  1.00  0.00    -0.480 A  
HETATM   21  C   UNL     1     -10.423  19.990  67.651  1.00  0.00    -0.476 A  
HETATM   22  C   UNL     1     -10.330  18.620  67.895  1.00  0.00    -0.442 A  
ENDBRANCH  10  11
ENDBRANCH   8  10
TORSDOF 2
ENDMDL
MODEL       89
REMARK 921   NORMALIZED FREE ENERGY PREDICTED BY IDOCK:   -4.61 KCAL/MOL
REMARK 922        TOTAL FREE ENERGY PREDICTED BY IDOCK:   -5.63 KCAL/MOL
REMARK 923 INTER-LIGAND FREE ENERGY PREDICTED BY IDOCK:   -5.14 KCAL/MOL
REMARK 924 INTRA-LIGAND FREE ENERGY PREDICTED BY IDOCK:   -0.49 KCAL/MOL
REMARK 927      BINDING AFFINITY PREDICTED BY RF-SCORE:    0.00 PKD
ROOT
HETATM    1  C   UNL     1     -13.737  12.633  72.198  1.00  0.00    -0.312 C  
HETATM    2  N   UNL     1     -13.468  13.917  72.830  1.00  0.00    -0.669 NA 
HETATM    3  C   UNL     1     -14.222  15.059  72.315  1.00  0.00    -0.497 C  
HETATM    4  C   UNL     1     -13.617  16.208  73.125  1.00  0.00    -0.389 C  
HETATM    5  C   UNL     1     -12.193  15.751  73.425  1.00  0.00    -0.625 C  
HETATM    6  C   UNL     1     -12.080  14.376  72.764  1.00  0.00     0.096 C  
HETATM    7  C   UNL     1     -11.567  14.487  71.326  1.00  0.00    -0.174 C  
HETATM    8  C   UNL     1     -12.587  15.034  70.313  1.00  0.00    -0.317 C  
HETATM    9  C   UNL     1     -14.019  15.287  70.808  1.00  0.00    -0.090 C  
ENDROOT
BRANCH   8  10
HETATM   10  O   UNL     1     -12.012  16.231  69.756  1.00  0.00    -0.145 OA 
BRANCH  10  11
HETATM   11  C   UNL     1     -11.056  15.978  68.815  1.00  0.00    -0.338 C  
HETATM   12  C   UNL     1      -9.719  16.530  69.284  1.00  0.00    -0.193 C  
HETATM   13  O   UNL     1     -11.272  15.362  67.781  1.00  0.00    -0.316 OA 
HETATM   14  C   UNL     1      -9.547  17.973  68.806  1.00  0.00    -0.301 C  
HETATM   15  C   UNL     1      -8.554  15.643  68.862  1.00  0.00    -0.211 A  
HETATM   16  C   UNL     1      -7.831  14.922  69.827  1.00  0.00     0.045 A  
HETATM   17  O   UNL     1     -10.524  18.845  69.372  1.00  0.00    -0.391 OA 
HETATM   18  H   UNL     1     -10.418  19.742  69.075  1.00  0.00     0.000 HD 
HETATM   19  C   UNL     1      -6.743  14.129  69.453  1.00  0.00    -0.116 A  
HETATM   20  C   UNL     1      -6.370  14.039  68.114  1.00  0.00    -0.128 A  
HETATM   21  C   UNL     1      -7.092  14.730  67.145  1.00  0.00     0.113 A  
HETATM   22  C   UNL     1      -8.179  15.522  67.514  1.00  0.00    -0.182 A  
ENDBRANCH  10  11
ENDBRANCH   8  10
TORSDOF 2
ENDMDL
MODEL       90
REMARK 921   NORMALIZED FREE ENERGY PREDICTED BY IDOCK:   -4.59 KCAL/MOL
REMARK 922        TOTAL FREE ENERGY PREDICTED BY IDOCK:   -5.60 KCAL/MOL
REMARK 923 INTER-LIGAND FREE ENERGY PREDICTED BY IDOCK:   -5.31 KCAL/MOL
REMARK 924 INTRA-LIGAND FREE ENERGY PREDICTED BY IDOCK:   -0.29 KCAL/MOL
REMARK 927      BINDING AFFINITY PREDICTED BY RF-SCORE:    0.00 PKD
ROOT
HETATM    1  C   UNL     1      -9.311   5.488  66.205  1.00  0.00    -0.157 C  
HETATM    2  N   UNL     1      -8.464   6.643  66.464  1.00  0.00    -0.116 NA 
HETATM    3  C   UNL     1      -8.028   6.825  67.848  1.00  0.00    -0.114 C  
HETATM    4  C   UNL     1      -7.268   8.149  67.751  1.00  0.00    -0.091 C  
HETATM    5  C   UNL     1      -7.943   8.891  66.602  1.00  0.00    -0.103 C  
HETATM    6  C   UNL     1      -9.044   7.943  66.122  1.00  0.00    -0.163 C  
HETATM    7  C   UNL     1     -10.364   8.205  66.851  1.00  0.00    -0.401 C  
HETATM    8  C   UNL     1     -10.406   7.725  68.312  1.00  0.00    -0.198 C  
HETATM    9  C   UNL     1      -9.197   6.938  68.839  1.00  0.00    -0.132 C  
ENDROOT
BRANCH   8  10
HETATM   10  O   UNL     1     -10.658   8.890  69.121  1.00  0.00    -0.227 OA 
BRANCH  10  11
HETATM   11  C   UNL     1     -10.361   8.700  70.440  1.00  0.00    -0.200 C  
HETATM   12  C   UNL     1     -11.541   8.048  71.141  1.00  0.00    -0.307 C  
HETATM   13  O   UNL     1      -9.281   8.988  70.937  1.00  0.00    -0.216 OA 
HETATM   14  C   UNL     1     -12.482   9.120  71.696  1.00  0.00    -0.359 C  
HETATM   15  C   UNL     1     -11.096   7.063  72.215  1.00  0.00    -0.287 A  
HETATM   16  C   UNL     1     -11.305   5.685  72.038  1.00  0.00    -0.241 A  
HETATM   17  O   UNL     1     -13.061   9.913  70.661  1.00  0.00    -0.567 OA 
HETATM   18  H   UNL     1     -13.646  10.579  71.006  1.00  0.00     0.000 HD 
HETATM   19  C   UNL     1     -10.927   4.777  73.030  1.00  0.00    -0.346 A  
HETATM   20  C   UNL     1     -10.329   5.230  74.204  1.00  0.00    -0.308 A  
HETATM   21  C   UNL     1     -10.095   6.591  74.382  1.00  0.00    -0.371 A  
HETATM   22  C   UNL     1     -10.471   7.500  73.394  1.00  0.00    -0.404 A  
ENDBRANCH  10  11
ENDBRANCH   8  10
TORSDOF 2
ENDMDL
MODEL       91
REMARK 921   NORMALIZED FREE ENERGY PREDICTED BY IDOCK:   -4.58 KCAL/MOL
REMARK 922        TOTAL FREE ENERGY PREDICTED BY IDOCK:   -5.59 KCAL/MOL
REMARK 923 INTER-LIGAND FREE ENERGY PREDICTED BY IDOCK:   -4.95 KCAL/MOL
REMARK 924 INTRA-LIGAND FREE ENERGY PREDICTED BY IDOCK:   -0.64 KCAL/MOL
REMARK 927      BINDING AFFINITY PREDICTED BY RF-SCORE:    0.00 PKD
ROOT
HETATM    1  C   UNL     1     -11.089   6.583  68.843  1.00  0.00    -0.301 C  
HETATM    2  N   UNL     1      -9.642   6.461  68.732  1.00  0.00    -0.126 NA 
HETATM    3  C   UNL     1      -8.869   7.669  69.020  1.00  0.00    -0.135 C  
HETATM    4  C   UNL     1      -7.448   7.196  68.711  1.00  0.00    -0.102 C  
HETATM    5  C   UNL     1      -7.630   6.117  67.649  1.00  0.00    -0.097 C  
HETATM    6  C   UNL     1      -9.141   6.048  67.421  1.00  0.00    -0.106 C  
HETATM    7  C   UNL     1      -9.581   6.995  66.301  1.00  0.00    -0.094 C  
HETATM    8  C   UNL     1      -9.573   8.488  66.671  1.00  0.00    -0.227 C  
HETATM    9  C   UNL     1      -9.255   8.860  68.128  1.00  0.00    -0.145 C  
ENDROOT
BRANCH   8  10
HETATM   10  O   UNL     1      -8.661   9.133  65.762  1.00  0.00    -0.145 OA 
BRANCH  10  11
HETATM   11  C   UNL     1      -8.721  10.496  65.821  1.00  0.00    -0.177 C  
HETATM   12  C   UNL     1     -10.112  10.964  65.425  1.00  0.00    -0.336 C  
HETATM   13  O   UNL     1      -7.787  11.198  66.181  1.00  0.00    -0.149 OA 
HETATM   14  C   UNL     1     -10.176  11.208  63.916  1.00  0.00    -0.362 C  
HETATM   15  C   UNL     1     -10.555  12.183  66.224  1.00  0.00    -0.285 A  
HETATM   16  C   UNL     1     -11.594  12.072  67.163  1.00  0.00    -0.387 A  
HETATM   17  O   UNL     1      -9.964  10.011  63.168  1.00  0.00    -0.496 OA 
HETATM   18  H   UNL     1     -10.003  10.163  62.231  1.00  0.00     0.000 HD 
HETATM   19  C   UNL     1     -12.027  13.191  67.879  1.00  0.00    -0.347 A  
HETATM   20  C   UNL     1     -11.424  14.430  67.673  1.00  0.00    -0.369 A  
HETATM   21  C   UNL     1     -10.377  14.549  66.763  1.00  0.00    -0.269 A  
HETATM   22  C   UNL     1      -9.943  13.434  66.047  1.00  0.00    -0.300 A  
ENDBRANCH  10  11
ENDBRANCH   8  10
TORSDOF 2
ENDMDL
MODEL       92
REMARK 921   NORMALIZED FREE ENERGY PREDICTED BY IDOCK:   -4.58 KCAL/MOL
REMARK 922        TOTAL FREE ENERGY PREDICTED BY IDOCK:   -5.58 KCAL/MOL
REMARK 923 INTER-LIGAND FREE ENERGY PREDICTED BY IDOCK:   -4.90 KCAL/MOL
REMARK 924 INTRA-LIGAND FREE ENERGY PREDICTED BY IDOCK:   -0.68 KCAL/MOL
REMARK 927      BINDING AFFINITY PREDICTED BY RF-SCORE:    0.00 PKD
ROOT
HETATM    1  C   UNL     1      -7.879   9.185  66.493  1.00  0.00    -0.100 C  
HETATM    2  N   UNL     1      -8.183   7.781  66.258  1.00  0.00    -0.116 NA 
HETATM    3  C   UNL     1      -9.568   7.374  66.491  1.00  0.00    -0.164 C  
HETATM    4  C   UNL     1      -9.482   5.866  66.249  1.00  0.00    -0.161 C  
HETATM    5  C   UNL     1      -8.049   5.503  66.624  1.00  0.00    -0.105 C  
HETATM    6  C   UNL     1      -7.414   6.826  67.058  1.00  0.00    -0.087 C  
HETATM    7  C   UNL     1      -7.577   7.057  68.562  1.00  0.00    -0.115 C  
HETATM    8  C   UNL     1      -8.997   7.440  69.012  1.00  0.00    -0.131 C  
HETATM    9  C   UNL     1     -10.053   7.671  67.920  1.00  0.00    -0.231 C  
ENDROOT
BRANCH   8  10
HETATM   10  O   UNL     1      -9.424   6.423  69.938  1.00  0.00    -0.153 OA 
BRANCH  10  11
HETATM   11  C   UNL     1     -10.508   6.797  70.680  1.00  0.00    -0.215 C  
HETATM   12  C   UNL     1     -10.198   8.086  71.423  1.00  0.00    -0.239 C  
HETATM   13  O   UNL     1     -11.565   6.181  70.689  1.00  0.00    -0.321 OA 
HETATM   14  C   UNL     1      -9.596   7.773  72.794  1.00  0.00    -0.221 C  
HETATM   15  C   UNL     1     -11.417   8.995  71.525  1.00  0.00    -0.407 A  
HETATM   16  C   UNL     1     -11.456  10.206  70.814  1.00  0.00    -0.442 A  
HETATM   17  O   UNL     1      -8.342   7.099  72.689  1.00  0.00    -0.107 OA 
HETATM   18  H   UNL     1      -7.968   6.904  73.540  1.00  0.00     0.000 HD 
HETATM   19  C   UNL     1     -12.556  11.059  70.924  1.00  0.00    -0.488 A  
HETATM   20  C   UNL     1     -13.633  10.712  71.737  1.00  0.00    -0.182 A  
HETATM   21  C   UNL     1     -13.618   9.504  72.429  1.00  0.00    -0.459 A  
HETATM   22  C   UNL     1     -12.521   8.649  72.321  1.00  0.00    -0.460 A  
ENDBRANCH  10  11
ENDBRANCH   8  10
TORSDOF 2
ENDMDL
MODEL       93
REMARK 921   NORMALIZED FREE ENERGY PREDICTED BY IDOCK:   -4.51 KCAL/MOL
REMARK 922        TOTAL FREE ENERGY PREDICTED BY IDOCK:   -5.51 KCAL/MOL
REMARK 923 INTER-LIGAND FREE ENERGY PREDICTED BY IDOCK:   -5.12 KCAL/MOL
REMARK 924 INTRA-LIGAND FREE ENERGY PREDICTED BY IDOCK:   -0.39 KCAL/MOL
REMARK 927      BINDING AFFINITY PREDICTED BY RF-SCORE:    0.00 PKD
ROOT
HETATM    1  C   UNL     1     -10.640  10.968  64.414  1.00  0.00    -0.325 C  
HETATM    2  N   UNL     1      -9.585  11.365  65.335  1.00  0.00    -0.225 NA 
HETATM    3  C   UNL     1      -8.667  10.307  65.756  1.00  0.00    -0.156 C  
HETATM    4  C   UNL     1      -7.790  11.055  66.763  1.00  0.00    -0.149 C  
HETATM    5  C   UNL     1      -8.700  12.143  67.324  1.00  0.00    -0.182 C  
HETATM    6  C   UNL     1     -10.035  11.942  66.603  1.00  0.00    -0.199 C  
HETATM    7  C   UNL     1     -10.955  10.998  67.382  1.00  0.00    -0.349 C  
HETATM    8  C   UNL     1     -10.555   9.513  67.333  1.00  0.00    -0.271 C  
HETATM    9  C   UNL     1      -9.379   9.121  66.427  1.00  0.00    -0.261 C  
ENDROOT
BRANCH   8  10
HETATM   10  O   UNL     1     -10.319   9.106  68.694  1.00  0.00    -0.200 OA 
BRANCH  10  11
HETATM   11  C   UNL     1      -9.744   7.871  68.790  1.00  0.00    -0.158 C  
HETATM   12  C   UNL     1     -10.794   6.798  68.554  1.00  0.00    -0.280 C  
HETATM   13  O   UNL     1      -8.551   7.696  68.998  1.00  0.00    -0.134 OA 
HETATM   14  C   UNL     1     -11.446   6.397  69.879  1.00  0.00    -0.415 C  
HETATM   15  C   UNL     1     -10.229   5.598  67.805  1.00  0.00    -0.238 A  
HETATM   16  C   UNL     1     -10.634   5.333  66.487  1.00  0.00    -0.348 A  
HETATM   17  O   UNL     1     -12.155   7.481  70.478  1.00  0.00    -0.506 OA 
HETATM   18  H   UNL     1     -12.559   7.232  71.301  1.00  0.00     0.000 HD 
HETATM   19  C   UNL     1     -10.142   4.218  65.803  1.00  0.00    -0.229 A  
HETATM   20  C   UNL     1      -9.236   3.360  66.422  1.00  0.00    -0.174 A  
HETATM   21  C   UNL     1      -8.808   3.623  67.721  1.00  0.00    -0.141 A  
HETATM   22  C   UNL     1      -9.296   4.736  68.406  1.00  0.00    -0.177 A  
ENDBRANCH  10  11
ENDBRANCH   8  10
TORSDOF 2
ENDMDL
MODEL       94
REMARK 921   NORMALIZED FREE ENERGY PREDICTED BY IDOCK:   -4.51 KCAL/MOL
REMARK 922        TOTAL FREE ENERGY PREDICTED BY IDOCK:   -5.51 KCAL/MOL
REMARK 923 INTER-LIGAND FREE ENERGY PREDICTED BY IDOCK:   -4.98 KCAL/MOL
REMARK 924 INTRA-LIGAND FREE ENERGY PREDICTED BY IDOCK:   -0.53 KCAL/MOL
REMARK 927      BINDING AFFINITY PREDICTED BY RF-SCORE:    0.00 PKD
ROOT
HETATM    1  C   UNL     1     -11.255  16.026  70.263  1.00  0.00    -0.389 C  
HETATM    2  N   UNL     1     -10.513  16.576  69.138  1.00  0.00    -0.296 NA 
HETATM    3  C   UNL     1     -11.081  16.336  67.812  1.00  0.00    -0.227 C  
HETATM    4  C   UNL     1     -10.010  16.951  66.911  1.00  0.00    -0.279 C  
HETATM    5  C   UNL     1      -8.715  16.800  67.703  1.00  0.00    -0.207 C  
HETATM    6  C   UNL     1      -9.134  16.106  69.001  1.00  0.00    -0.250 C  
HETATM    7  C   UNL     1      -9.043  14.583  68.875  1.00  0.00    -0.111 C  
HETATM    8  C   UNL     1     -10.145  13.935  68.019  1.00  0.00    -0.244 C  
HETATM    9  C   UNL     1     -11.269  14.843  67.497  1.00  0.00    -0.334 C  
ENDROOT
BRANCH   8  10
HETATM   10  O   UNL     1      -9.481  13.258  66.936  1.00  0.00    -0.233 OA 
BRANCH  10  11
HETATM   11  C   UNL     1      -9.776  11.926  66.877  1.00  0.00    -0.200 C  
HETATM   12  C   UNL     1      -8.800  11.147  67.743  1.00  0.00    -0.135 C  
HETATM   13  O   UNL     1     -10.717  11.471  66.242  1.00  0.00    -0.255 OA 
HETATM   14  C   UNL     1      -7.581  10.728  66.919  1.00  0.00    -0.123 C  
HETATM   15  C   UNL     1      -9.465   9.961  68.430  1.00  0.00    -0.142 A  
HETATM   16  C   UNL     1      -9.652   9.965  69.822  1.00  0.00    -0.261 A  
HETATM   17  O   UNL     1      -6.839  11.851  66.448  1.00  0.00    -0.368 OA 
HETATM   18  H   UNL     1      -6.082  11.591  65.935  1.00  0.00     0.000 HD 
HETATM   19  C   UNL     1     -10.234   8.869  70.464  1.00  0.00    -0.247 A  
HETATM   20  C   UNL     1     -10.644   7.762  69.726  1.00  0.00    -0.241 A  
HETATM   21  C   UNL     1     -10.486   7.754  68.342  1.00  0.00    -0.207 A  
HETATM   22  C   UNL     1      -9.906   8.846  67.698  1.00  0.00    -0.229 A  
ENDBRANCH  10  11
ENDBRANCH   8  10
TORSDOF 2
ENDMDL
MODEL       95
REMARK 921   NORMALIZED FREE ENERGY PREDICTED BY IDOCK:   -4.49 KCAL/MOL
REMARK 922        TOTAL FREE ENERGY PREDICTED BY IDOCK:   -5.48 KCAL/MOL
REMARK 923 INTER-LIGAND FREE ENERGY PREDICTED BY IDOCK:   -5.26 KCAL/MOL
REMARK 924 INTRA-LIGAND FREE ENERGY PREDICTED BY IDOCK:   -0.23 KCAL/MOL
REMARK 927      BINDING AFFINITY PREDICTED BY RF-SCORE:    0.00 PKD
ROOT
HETATM    1  C   UNL     1     -10.407   5.438  66.656  1.00  0.00    -0.275 C  
HETATM    2  N   UNL     1      -9.169   5.977  67.200  1.00  0.00    -0.116 NA 
HETATM    3  C   UNL     1      -9.299   6.807  68.397  1.00  0.00    -0.124 C  
HETATM    4  C   UNL     1      -7.853   7.259  68.607  1.00  0.00    -0.122 C  
HETATM    5  C   UNL     1      -7.251   7.266  67.206  1.00  0.00    -0.093 C  
HETATM    6  C   UNL     1      -8.393   6.821  66.290  1.00  0.00    -0.126 C  
HETATM    7  C   UNL     1      -9.195   8.019  65.775  1.00  0.00    -0.068 C  
HETATM    8  C   UNL     1     -10.113   8.683  66.816  1.00  0.00    -0.296 C  
HETATM    9  C   UNL     1     -10.226   8.017  68.195  1.00  0.00    -0.251 C  
ENDROOT
BRANCH   8  10
HETATM   10  O   UNL     1      -9.678  10.050  66.934  1.00  0.00    -0.174 OA 
BRANCH  10  11
HETATM   11  C   UNL     1     -10.441  10.919  66.207  1.00  0.00    -0.245 C  
HETATM   12  C   UNL     1     -10.832  12.105  67.074  1.00  0.00    -0.289 C  
HETATM   13  O   UNL     1     -10.714  10.752  65.027  1.00  0.00    -0.229 OA 
HETATM   14  C   UNL     1     -12.157  11.824  67.786  1.00  0.00     0.138 C  
HETATM   15  C   UNL     1     -10.870  13.406  66.281  1.00  0.00    -0.294 A  
HETATM   16  C   UNL     1      -9.914  14.407  66.521  1.00  0.00    -0.291 A  
HETATM   17  O   UNL     1     -12.057  10.724  68.690  1.00  0.00    -0.763 OA 
HETATM   18  H   UNL     1     -12.880  10.549  69.132  1.00  0.00     0.000 HD 
HETATM   19  C   UNL     1      -9.960  15.614  65.819  1.00  0.00    -0.390 A  
HETATM   20  C   UNL     1     -10.951  15.833  64.866  1.00  0.00    -0.443 A  
HETATM   21  C   UNL     1     -11.892  14.841  64.602  1.00  0.00    -0.442 A  
HETATM   22  C   UNL     1     -11.849  13.634  65.300  1.00  0.00    -0.365 A  
ENDBRANCH  10  11
ENDBRANCH   8  10
TORSDOF 2
ENDMDL
MODEL       96
REMARK 921   NORMALIZED FREE ENERGY PREDICTED BY IDOCK:   -4.48 KCAL/MOL
REMARK 922        TOTAL FREE ENERGY PREDICTED BY IDOCK:   -5.48 KCAL/MOL
REMARK 923 INTER-LIGAND FREE ENERGY PREDICTED BY IDOCK:   -5.32 KCAL/MOL
REMARK 924 INTRA-LIGAND FREE ENERGY PREDICTED BY IDOCK:   -0.16 KCAL/MOL
REMARK 927      BINDING AFFINITY PREDICTED BY RF-SCORE:    0.00 PKD
ROOT
HETATM    1  C   UNL     1     -10.592  10.884  64.299  1.00  0.00    -0.266 C  
HETATM    2  N   UNL     1      -9.439  11.211  65.125  1.00  0.00    -0.222 NA 
HETATM    3  C   UNL     1      -8.341  10.245  65.111  1.00  0.00    -0.161 C  
HETATM    4  C   UNL     1      -7.388  10.859  66.138  1.00  0.00    -0.103 C  
HETATM    5  C   UNL     1      -8.300  11.619  67.095  1.00  0.00    -0.164 C  
HETATM    6  C   UNL     1      -9.712  11.386  66.552  1.00  0.00    -0.200 C  
HETATM    7  C   UNL     1     -10.355  10.147  67.181  1.00  0.00    -0.295 C  
HETATM    8  C   UNL     1      -9.800   8.802  66.683  1.00  0.00    -0.265 C  
HETATM    9  C   UNL     1      -8.773   8.834  65.541  1.00  0.00    -0.217 C  
ENDROOT
BRANCH   8  10
HETATM   10  O   UNL     1      -9.271   8.122  67.836  1.00  0.00    -0.132 OA 
BRANCH  10  11
HETATM   11  C   UNL     1     -10.182   7.995  68.846  1.00  0.00    -0.209 C  
HETATM   12  C   UNL     1      -9.860   8.986  69.953  1.00  0.00    -0.194 C  
HETATM   13  O   UNL     1     -11.125   7.216  68.811  1.00  0.00    -0.101 OA 
HETATM   14  C   UNL     1      -8.913   8.349  70.972  1.00  0.00    -0.165 C  
HETATM   15  C   UNL     1     -11.119   9.542  70.607  1.00  0.00    -0.364 A  
HETATM   16  C   UNL     1     -11.472  10.890  70.425  1.00  0.00    -0.367 A  
HETATM   17  O   UNL     1      -7.651   8.016  70.397  1.00  0.00    -0.077 OA 
HETATM   18  H   UNL     1      -7.063   7.620  71.030  1.00  0.00     0.000 HD 
HETATM   19  C   UNL     1     -12.608  11.416  71.045  1.00  0.00    -0.487 A  
HETATM   20  C   UNL     1     -13.409  10.604  71.844  1.00  0.00    -0.454 A  
HETATM   21  C   UNL     1     -13.084   9.261  72.014  1.00  0.00    -0.512 A  
HETATM   22  C   UNL     1     -11.951   8.732  71.397  1.00  0.00    -0.367 A  
ENDBRANCH  10  11
ENDBRANCH   8  10
TORSDOF 2
ENDMDL
MODEL       97
REMARK 921   NORMALIZED FREE ENERGY PREDICTED BY IDOCK:   -4.47 KCAL/MOL
REMARK 922        TOTAL FREE ENERGY PREDICTED BY IDOCK:   -5.47 KCAL/MOL
REMARK 923 INTER-LIGAND FREE ENERGY PREDICTED BY IDOCK:   -5.04 KCAL/MOL
REMARK 924 INTRA-LIGAND FREE ENERGY PREDICTED BY IDOCK:   -0.43 KCAL/MOL
REMARK 927      BINDING AFFINITY PREDICTED BY RF-SCORE:    0.00 PKD
ROOT
HETATM    1  C   UNL     1      -7.948   6.569  66.977  1.00  0.00    -0.112 C  
HETATM    2  N   UNL     1      -8.917   6.289  68.027  1.00  0.00    -0.115 NA 
HETATM    3  C   UNL     1     -10.326   6.405  67.652  1.00  0.00    -0.197 C  
HETATM    4  C   UNL     1     -11.016   6.147  68.992  1.00  0.00    -0.436 C  
HETATM    5  C   UNL     1     -10.012   6.629  70.034  1.00  0.00    -0.189 C  
HETATM    6  C   UNL     1      -8.819   7.132  69.220  1.00  0.00    -0.136 C  
HETATM    7  C   UNL     1      -8.951   8.622  68.896  1.00  0.00    -0.142 C  
HETATM    8  C   UNL     1      -9.997   8.964  67.820  1.00  0.00    -0.192 C  
HETATM    9  C   UNL     1     -10.693   7.795  67.107  1.00  0.00    -0.337 C  
ENDROOT
BRANCH   8  10
HETATM   10  O   UNL     1     -10.958   9.837  68.443  1.00  0.00    -0.217 OA 
BRANCH  10  11
HETATM   11  C   UNL     1     -11.134  11.008  67.764  1.00  0.00    -0.295 C  
HETATM   12  C   UNL     1     -10.725  12.177  68.645  1.00  0.00    -0.261 C  
HETATM   13  O   UNL     1     -11.528  11.066  66.607  1.00  0.00    -0.291 OA 
HETATM   14  C   UNL     1     -11.926  12.675  69.452  1.00  0.00    -0.260 C  
HETATM   15  C   UNL     1     -10.066  13.294  67.846  1.00  0.00    -0.235 A  
HETATM   16  C   UNL     1      -8.698  13.566  68.008  1.00  0.00    -0.181 A  
HETATM   17  O   UNL     1     -12.413  11.685  70.356  1.00  0.00    -0.283 OA 
HETATM   18  H   UNL     1     -13.159  11.994  70.857  1.00  0.00     0.000 HD 
HETATM   19  C   UNL     1      -8.092  14.608  67.301  1.00  0.00    -0.230 A  
HETATM   20  C   UNL     1      -8.840  15.383  66.419  1.00  0.00    -0.340 A  
HETATM   21  C   UNL     1     -10.192  15.110  66.231  1.00  0.00    -0.300 A  
HETATM   22  C   UNL     1     -10.800  14.071  66.935  1.00  0.00    -0.290 A  
ENDBRANCH  10  11
ENDBRANCH   8  10
TORSDOF 2
ENDMDL
MODEL       98
REMARK 921   NORMALIZED FREE ENERGY PREDICTED BY IDOCK:   -4.46 KCAL/MOL
REMARK 922        TOTAL FREE ENERGY PREDICTED BY IDOCK:   -5.45 KCAL/MOL
REMARK 923 INTER-LIGAND FREE ENERGY PREDICTED BY IDOCK:   -4.95 KCAL/MOL
REMARK 924 INTRA-LIGAND FREE ENERGY PREDICTED BY IDOCK:   -0.51 KCAL/MOL
REMARK 927      BINDING AFFINITY PREDICTED BY RF-SCORE:    0.00 PKD
ROOT
HETATM    1  C   UNL     1      -7.806   9.759  64.600  1.00  0.00    -0.136 C  
HETATM    2  N   UNL     1      -8.305   9.233  65.862  1.00  0.00    -0.115 NA 
HETATM    3  C   UNL     1      -9.759   9.134  65.989  1.00  0.00    -0.287 C  
HETATM    4  C   UNL     1      -9.902   8.654  67.435  1.00  0.00    -0.249 C  
HETATM    5  C   UNL     1      -8.674   9.217  68.144  1.00  0.00    -0.129 C  
HETATM    6  C   UNL     1      -7.915   9.982  67.058  1.00  0.00    -0.106 C  
HETATM    7  C   UNL     1      -8.351  11.448  66.999  1.00  0.00    -0.161 C  
HETATM    8  C   UNL     1      -9.740  11.689  66.382  1.00  0.00    -0.214 C  
HETATM    9  C   UNL     1     -10.476  10.479  65.787  1.00  0.00    -0.214 C  
ENDROOT
BRANCH   8  10
HETATM   10  O   UNL     1     -10.535  12.331  67.396  1.00  0.00    -0.208 OA 
BRANCH  10  11
HETATM   11  C   UNL     1     -10.769  13.651  67.137  1.00  0.00    -0.277 C  
HETATM   12  C   UNL     1     -10.031  14.510  68.152  1.00  0.00    -0.220 C  
HETATM   13  O   UNL     1     -11.444  14.046  66.196  1.00  0.00    -0.327 OA 
HETATM   14  C   UNL     1     -10.924  14.778  69.365  1.00  0.00    -0.265 C  
HETATM   15  C   UNL     1      -9.499  15.797  67.534  1.00  0.00    -0.218 A  
HETATM   16  C   UNL     1      -8.116  15.985  67.375  1.00  0.00    -0.188 A  
HETATM   17  O   UNL     1     -11.252  13.579  70.065  1.00  0.00    -0.484 OA 
HETATM   18  H   UNL     1     -11.807  13.746  70.819  1.00  0.00     0.000 HD 
HETATM   19  C   UNL     1      -7.618  17.174  66.837  1.00  0.00    -0.240 A  
HETATM   20  C   UNL     1      -8.493  18.184  66.443  1.00  0.00    -0.263 A  
HETATM   21  C   UNL     1      -9.867  18.002  66.573  1.00  0.00    -0.353 A  
HETATM   22  C   UNL     1     -10.367  16.816  67.109  1.00  0.00    -0.297 A  
ENDBRANCH  10  11
ENDBRANCH   8  10
TORSDOF 2
ENDMDL
MODEL       99
REMARK 921   NORMALIZED FREE ENERGY PREDICTED BY IDOCK:   -4.44 KCAL/MOL
REMARK 922        TOTAL FREE ENERGY PREDICTED BY IDOCK:   -5.43 KCAL/MOL
REMARK 923 INTER-LIGAND FREE ENERGY PREDICTED BY IDOCK:   -4.78 KCAL/MOL
REMARK 924 INTRA-LIGAND FREE ENERGY PREDICTED BY IDOCK:   -0.66 KCAL/MOL
REMARK 927      BINDING AFFINITY PREDICTED BY RF-SCORE:    0.00 PKD
ROOT
HETATM    1  C   UNL     1      -7.527   7.456  69.161  1.00  0.00    -0.099 C  
HETATM    2  N   UNL     1      -8.118   6.782  68.015  1.00  0.00    -0.113 NA 
HETATM    3  C   UNL     1      -7.808   7.349  66.703  1.00  0.00    -0.109 C  
HETATM    4  C   UNL     1      -8.657   6.467  65.786  1.00  0.00    -0.152 C  
HETATM    5  C   UNL     1      -9.834   6.038  66.656  1.00  0.00    -0.202 C  
HETATM    6  C   UNL     1      -9.580   6.706  68.009  1.00  0.00    -0.123 C  
HETATM    7  C   UNL     1     -10.238   8.086  68.084  1.00  0.00    -0.251 C  
HETATM    8  C   UNL     1      -9.540   9.184  67.262  1.00  0.00    -0.154 C  
HETATM    9  C   UNL     1      -8.215   8.825  66.572  1.00  0.00    -0.111 C  
ENDROOT
BRANCH   8  10
HETATM   10  O   UNL     1     -10.507   9.664  66.310  1.00  0.00    -0.191 OA 
BRANCH  10  11
HETATM   11  C   UNL     1     -10.440  11.013  66.112  1.00  0.00    -0.244 C  
HETATM   12  C   UNL     1     -10.228  11.715  67.444  1.00  0.00    -0.226 C  
HETATM   13  O   UNL     1     -10.505  11.538  65.009  1.00  0.00    -0.266 OA 
HETATM   14  C   UNL     1     -11.576  12.059  68.079  1.00  0.00    -0.342 C  
HETATM   15  C   UNL     1      -9.327  12.937  67.310  1.00  0.00    -0.212 A  
HETATM   16  C   UNL     1      -8.041  12.930  67.876  1.00  0.00    -0.161 A  
HETATM   17  O   UNL     1     -12.335  10.893  68.394  1.00  0.00    -0.803 OA 
HETATM   18  H   UNL     1     -13.173  11.106  68.789  1.00  0.00     0.000 HD 
HETATM   19  C   UNL     1      -7.219  14.056  67.783  1.00  0.00    -0.175 A  
HETATM   20  C   UNL     1      -7.666  15.197  67.120  1.00  0.00    -0.223 A  
HETATM   21  C   UNL     1      -8.929  15.209  66.535  1.00  0.00    -0.326 A  
HETATM   22  C   UNL     1      -9.752  14.086  66.625  1.00  0.00    -0.296 A  
ENDBRANCH  10  11
ENDBRANCH   8  10
TORSDOF 2
ENDMDL
MODEL      100
REMARK 921   NORMALIZED FREE ENERGY PREDICTED BY IDOCK:   -4.44 KCAL/MOL
REMARK 922        TOTAL FREE ENERGY PREDICTED BY IDOCK:   -5.43 KCAL/MOL
REMARK 923 INTER-LIGAND FREE ENERGY PREDICTED BY IDOCK:   -5.55 KCAL/MOL
REMARK 924 INTRA-LIGAND FREE ENERGY PREDICTED BY IDOCK:    0.12 KCAL/MOL
REMARK 927      BINDING AFFINITY PREDICTED BY RF-SCORE:    0.00 PKD
ROOT
HETATM    1  C   UNL     1     -11.528  15.463  68.639  1.00  0.00    -0.346 C  
HETATM    2  N   UNL     1     -11.227  14.894  67.334  1.00  0.00    -0.329 NA 
HETATM    3  C   UNL     1     -12.000  13.713  66.952  1.00  0.00    -0.410 C  
HETATM    4  C   UNL     1     -11.356  13.353  65.612  1.00  0.00    -0.316 C  
HETATM    5  C   UNL     1      -9.922  13.856  65.733  1.00  0.00    -0.304 C  
HETATM    6  C   UNL     1      -9.842  14.466  67.134  1.00  0.00    -0.254 C  
HETATM    7  C   UNL     1      -9.394  13.432  68.170  1.00  0.00    -0.217 C  
HETATM    8  C   UNL     1     -10.456  12.384  68.544  1.00  0.00    -0.228 C  
HETATM    9  C   UNL     1     -11.864  12.553  67.952  1.00  0.00    -0.383 C  
ENDROOT
BRANCH   8  10
HETATM   10  O   UNL     1      -9.903  11.098  68.205  1.00  0.00    -0.175 OA 
BRANCH  10  11
HETATM   11  C   UNL     1     -10.585  10.058  68.769  1.00  0.00    -0.217 C  
HETATM   12  C   UNL     1      -9.919   8.745  68.389  1.00  0.00    -0.200 C  
HETATM   13  O   UNL     1     -11.558  10.202  69.496  1.00  0.00    -0.206 OA 
HETATM   14  C   UNL     1     -10.524   8.201  67.093  1.00  0.00    -0.326 C  
HETATM   15  C   UNL     1      -9.975   7.726  69.521  1.00  0.00    -0.187 A  
HETATM   16  C   UNL     1      -8.799   7.351  70.192  1.00  0.00    -0.147 A  
HETATM   17  O   UNL     1     -10.287   9.068  65.985  1.00  0.00    -0.318 OA 
HETATM   18  H   UNL     1     -10.663   8.731  65.180  1.00  0.00     0.000 HD 
HETATM   19  C   UNL     1      -8.836   6.397  71.211  1.00  0.00    -0.138 A  
HETATM   20  C   UNL     1     -10.046   5.812  71.579  1.00  0.00    -0.246 A  
HETATM   21  C   UNL     1     -11.222   6.191  70.938  1.00  0.00    -0.365 A  
HETATM   22  C   UNL     1     -11.189   7.144  69.920  1.00  0.00    -0.241 A  
ENDBRANCH  10  11
ENDBRANCH   8  10
TORSDOF 2
ENDMDL
MODEL      101
REMARK 921   NORMALIZED FREE ENERGY PREDICTED BY IDOCK:   -4.41 KCAL/MOL
REMARK 922        TOTAL FREE ENERGY PREDICTED BY IDOCK:   -5.40 KCAL/MOL
REMARK 923 INTER-LIGAND FREE ENERGY PREDICTED BY IDOCK:   -5.26 KCAL/MOL
REMARK 924 INTRA-LIGAND FREE ENERGY PREDICTED BY IDOCK:   -0.14 KCAL/MOL
REMARK 927      BINDING AFFINITY PREDICTED BY RF-SCORE:    0.00 PKD
ROOT
HETATM    1  C   UNL     1      -8.092   7.203  71.071  1.00  0.00    -0.104 C  
HETATM    2  N   UNL     1      -9.178   6.487  70.418  1.00  0.00    -0.155 NA 
HETATM    3  C   UNL     1      -8.971   6.148  69.010  1.00  0.00    -0.125 C  
HETATM    4  C   UNL     1     -10.318   5.516  68.653  1.00  0.00    -0.255 C  
HETATM    5  C   UNL     1     -11.315   6.195  69.586  1.00  0.00    -0.442 C  
HETATM    6  C   UNL     1     -10.472   7.170  70.411  1.00  0.00    -0.218 C  
HETATM    7  C   UNL     1     -10.403   8.548  69.747  1.00  0.00    -0.212 C  
HETATM    8  C   UNL     1      -9.507   8.625  68.498  1.00  0.00    -0.142 C  
HETATM    9  C   UNL     1      -8.693   7.376  68.128  1.00  0.00    -0.122 C  
ENDROOT
BRANCH   8  10
HETATM   10  O   UNL     1     -10.354   9.033  67.408  1.00  0.00    -0.232 OA 
BRANCH  10  11
HETATM   11  C   UNL     1     -10.252  10.364  67.121  1.00  0.00    -0.222 C  
HETATM   12  C   UNL     1      -9.966  10.547  65.639  1.00  0.00    -0.332 C  
HETATM   13  O   UNL     1     -10.411  11.249  67.951  1.00  0.00    -0.174 OA 
HETATM   14  C   UNL     1      -8.456  10.563  65.391  1.00  0.00    -0.170 C  
HETATM   15  C   UNL     1     -10.655  11.781  65.071  1.00  0.00    -0.338 A  
HETATM   16  C   UNL     1     -11.716  11.642  64.161  1.00  0.00    -0.305 A  
HETATM   17  O   UNL     1      -7.843   9.322  65.734  1.00  0.00    -0.097 OA 
HETATM   18  H   UNL     1      -6.905   9.332  65.580  1.00  0.00     0.000 HD 
HETATM   19  C   UNL     1     -12.334  12.768  63.612  1.00  0.00    -0.553 A  
HETATM   20  C   UNL     1     -11.909  14.045  63.972  1.00  0.00    -0.339 A  
HETATM   21  C   UNL     1     -10.874  14.198  64.891  1.00  0.00    -0.423 A  
HETATM   22  C   UNL     1     -10.255  13.076  65.440  1.00  0.00    -0.301 A  
ENDBRANCH  10  11
ENDBRANCH   8  10
TORSDOF 2
ENDMDL
MODEL      102
REMARK 921   NORMALIZED FREE ENERGY PREDICTED BY IDOCK:   -4.41 KCAL/MOL
REMARK 922        TOTAL FREE ENERGY PREDICTED BY IDOCK:   -5.39 KCAL/MOL
REMARK 923 INTER-LIGAND FREE ENERGY PREDICTED BY IDOCK:   -5.06 KCAL/MOL
REMARK 924 INTRA-LIGAND FREE ENERGY PREDICTED BY IDOCK:   -0.34 KCAL/MOL
REMARK 927      BINDING AFFINITY PREDICTED BY RF-SCORE:    0.00 PKD
ROOT
HETATM    1  C   UNL     1     -12.990   9.544  71.497  1.00  0.00    -0.386 C  
HETATM    2  N   UNL     1     -11.730   9.097  72.071  1.00  0.00    -0.349 NA 
HETATM    3  C   UNL     1     -10.571   9.120  71.180  1.00  0.00    -0.309 C  
HETATM    4  C   UNL     1      -9.492   8.508  72.075  1.00  0.00    -0.364 C  
HETATM    5  C   UNL     1     -10.258   7.585  73.016  1.00  0.00    -0.360 C  
HETATM    6  C   UNL     1     -11.722   7.730  72.595  1.00  0.00    -0.309 C  
HETATM    7  C   UNL     1     -12.103   6.695  71.533  1.00  0.00    -0.406 C  
HETATM    8  C   UNL     1     -11.535   6.964  70.129  1.00  0.00    -0.303 C  
HETATM    9  C   UNL     1     -10.770   8.278  69.909  1.00  0.00    -0.234 C  
ENDROOT
BRANCH   8  10
HETATM   10  O   UNL     1     -10.721   5.827  69.790  1.00  0.00    -0.295 OA 
BRANCH  10  11
HETATM   11  C   UNL     1     -10.469   5.729  68.451  1.00  0.00    -0.222 C  
HETATM   12  C   UNL     1      -9.127   5.049  68.231  1.00  0.00    -0.135 C  
HETATM   13  O   UNL     1     -11.249   6.108  67.588  1.00  0.00    -0.294 OA 
HETATM   14  C   UNL     1      -8.010   6.093  68.180  1.00  0.00    -0.107 C  
HETATM   15  C   UNL     1      -9.134   4.154  66.998  1.00  0.00    -0.155 A  
HETATM   16  C   UNL     1      -9.057   2.758  67.139  1.00  0.00    -0.192 A  
HETATM   17  O   UNL     1      -7.870   6.791  69.416  1.00  0.00    -0.109 OA 
HETATM   18  H   UNL     1      -7.176   7.440  69.384  1.00  0.00     0.000 HD 
HETATM   19  C   UNL     1      -9.034   1.931  66.014  1.00  0.00    -0.097 A  
HETATM   20  C   UNL     1      -9.095   2.484  64.737  1.00  0.00    -0.132 A  
HETATM   21  C   UNL     1      -9.195   3.864  64.583  1.00  0.00    -0.148 A  
HETATM   22  C   UNL     1      -9.220   4.693  65.704  1.00  0.00    -0.151 A  
ENDBRANCH  10  11
ENDBRANCH   8  10
TORSDOF 2
ENDMDL
MODEL      103
REMARK 921   NORMALIZED FREE ENERGY PREDICTED BY IDOCK:   -4.37 KCAL/MOL
REMARK 922        TOTAL FREE ENERGY PREDICTED BY IDOCK:   -5.35 KCAL/MOL
REMARK 923 INTER-LIGAND FREE ENERGY PREDICTED BY IDOCK:   -4.63 KCAL/MOL
REMARK 924 INTRA-LIGAND FREE ENERGY PREDICTED BY IDOCK:   -0.72 KCAL/MOL
REMARK 927      BINDING AFFINITY PREDICTED BY RF-SCORE:    0.00 PKD
ROOT
HETATM    1  C   UNL     1      -9.969   6.289  73.105  1.00  0.00    -0.174 C  
HETATM    2  N   UNL     1     -11.200   6.997  72.785  1.00  0.00    -0.273 NA 
HETATM    3  C   UNL     1     -12.030   6.405  71.737  1.00  0.00    -0.316 C  
HETATM    4  C   UNL     1     -13.145   7.445  71.612  1.00  0.00    -0.412 C  
HETATM    5  C   UNL     1     -12.484   8.759  72.016  1.00  0.00    -0.452 C  
HETATM    6  C   UNL     1     -11.037   8.382  72.340  1.00  0.00    -0.361 C  
HETATM    7  C   UNL     1     -10.139   8.497  71.105  1.00  0.00    -0.263 C  
HETATM    8  C   UNL     1     -10.331   7.389  70.055  1.00  0.00    -0.219 C  
HETATM    9  C   UNL     1     -11.288   6.238  70.401  1.00  0.00    -0.440 C  
ENDROOT
BRANCH   8  10
HETATM   10  O   UNL     1     -10.727   8.042  68.834  1.00  0.00    -0.175 OA 
BRANCH  10  11
HETATM   11  C   UNL     1     -10.405   7.327  67.717  1.00  0.00    -0.209 C  
HETATM   12  C   UNL     1      -8.912   7.040  67.705  1.00  0.00    -0.121 C  
HETATM   13  O   UNL     1     -11.228   6.958  66.891  1.00  0.00    -0.353 OA 
HETATM   14  C   UNL     1      -8.165   8.162  66.981  1.00  0.00    -0.115 C  
HETATM   15  C   UNL     1      -8.597   5.669  67.121  1.00  0.00    -0.109 A  
HETATM   16  C   UNL     1      -8.104   4.646  67.947  1.00  0.00    -0.092 A  
HETATM   17  O   UNL     1      -8.294   9.414  67.653  1.00  0.00    -0.117 OA 
HETATM   18  H   UNL     1      -7.830  10.111  67.203  1.00  0.00     0.000 HD 
HETATM   19  C   UNL     1      -7.784   3.394  67.414  1.00  0.00    -0.078 A  
HETATM   20  C   UNL     1      -7.961   3.147  66.055  1.00  0.00    -0.085 A  
HETATM   21  C   UNL     1      -8.471   4.144  65.229  1.00  0.00    -0.114 A  
HETATM   22  C   UNL     1      -8.792   5.394  65.757  1.00  0.00    -0.151 A  
ENDBRANCH  10  11
ENDBRANCH   8  10
TORSDOF 2
ENDMDL
MODEL      104
REMARK 921   NORMALIZED FREE ENERGY PREDICTED BY IDOCK:   -4.37 KCAL/MOL
REMARK 922        TOTAL FREE ENERGY PREDICTED BY IDOCK:   -5.35 KCAL/MOL
REMARK 923 INTER-LIGAND FREE ENERGY PREDICTED BY IDOCK:   -4.95 KCAL/MOL
REMARK 924 INTRA-LIGAND FREE ENERGY PREDICTED BY IDOCK:   -0.40 KCAL/MOL
REMARK 927      BINDING AFFINITY PREDICTED BY RF-SCORE:    0.00 PKD
ROOT
HETATM    1  C   UNL     1     -12.158  13.971  68.549  1.00  0.00    -0.294 C  
HETATM    2  N   UNL     1     -11.659  14.692  67.388  1.00  0.00    -0.378 NA 
HETATM    3  C   UNL     1     -12.045  14.157  66.082  1.00  0.00    -0.435 C  
HETATM    4  C   UNL     1     -11.277  15.084  65.139  1.00  0.00    -0.391 C  
HETATM    5  C   UNL     1     -10.053  15.512  65.941  1.00  0.00    -0.374 C  
HETATM    6  C   UNL     1     -10.203  14.799  67.287  1.00  0.00    -0.241 C  
HETATM    7  C   UNL     1      -9.514  13.432  67.275  1.00  0.00    -0.234 C  
HETATM    8  C   UNL     1     -10.244  12.343  66.469  1.00  0.00    -0.227 C  
HETATM    9  C   UNL     1     -11.619  12.694  65.879  1.00  0.00    -0.443 C  
ENDROOT
BRANCH   8  10
HETATM   10  O   UNL     1      -9.333  11.913  65.440  1.00  0.00    -0.164 OA 
BRANCH  10  11
HETATM   11  C   UNL     1      -9.326  10.559  65.265  1.00  0.00    -0.213 C  
HETATM   12  C   UNL     1      -8.534  10.210  64.015  1.00  0.00    -0.185 C  
HETATM   13  O   UNL     1      -9.855   9.775  66.040  1.00  0.00    -0.236 OA 
HETATM   14  C   UNL     1      -9.458  10.180  62.796  1.00  0.00    -0.253 C  
HETATM   15  C   UNL     1      -7.753   8.912  64.176  1.00  0.00    -0.127 A  
HETATM   16  C   UNL     1      -6.350   8.935  64.242  1.00  0.00    -0.071 A  
HETATM   17  O   UNL     1     -10.030  11.458  62.524  1.00  0.00    -0.574 OA 
HETATM   18  H   UNL     1     -10.605  11.439  61.767  1.00  0.00     0.000 HD 
HETATM   19  C   UNL     1      -5.624   7.747  64.360  1.00  0.00    -0.037 A  
HETATM   20  C   UNL     1      -6.288   6.525  64.423  1.00  0.00    -0.037 A  
HETATM   21  C   UNL     1      -7.680   6.488  64.382  1.00  0.00    -0.109 A  
HETATM   22  C   UNL     1      -8.407   7.672  64.265  1.00  0.00     0.074 A  
ENDBRANCH  10  11
ENDBRANCH   8  10
TORSDOF 2
ENDMDL
MODEL      105
REMARK 921   NORMALIZED FREE ENERGY PREDICTED BY IDOCK:   -4.33 KCAL/MOL
REMARK 922        TOTAL FREE ENERGY PREDICTED BY IDOCK:   -5.31 KCAL/MOL
REMARK 923 INTER-LIGAND FREE ENERGY PREDICTED BY IDOCK:   -4.95 KCAL/MOL
REMARK 924 INTRA-LIGAND FREE ENERGY PREDICTED BY IDOCK:   -0.36 KCAL/MOL
REMARK 927      BINDING AFFINITY PREDICTED BY RF-SCORE:    0.00 PKD
ROOT
HETATM    1  C   UNL     1      -8.174   6.019  69.084  1.00  0.00    -0.111 C  
HETATM    2  N   UNL     1      -8.981   6.635  70.127  1.00  0.00    -0.151 NA 
HETATM    3  C   UNL     1     -10.247   7.229  69.696  1.00  0.00    -0.211 C  
HETATM    4  C   UNL     1     -10.749   7.846  71.003  1.00  0.00    -0.239 C  
HETATM    5  C   UNL     1      -9.479   8.171  71.782  1.00  0.00    -0.249 C  
HETATM    6  C   UNL     1      -8.337   7.722  70.867  1.00  0.00    -0.111 C  
HETATM    7  C   UNL     1      -7.873   8.858  69.953  1.00  0.00    -0.092 C  
HETATM    8  C   UNL     1      -8.835   9.201  68.802  1.00  0.00    -0.132 C  
HETATM    9  C   UNL     1     -10.070   8.308  68.615  1.00  0.00    -0.212 C  
ENDROOT
BRANCH   8  10
HETATM   10  O   UNL     1      -9.214  10.579  68.980  1.00  0.00    -0.174 OA 
BRANCH  10  11
HETATM   11  C   UNL     1      -9.509  11.208  67.804  1.00  0.00    -0.168 C  
HETATM   12  C   UNL     1     -10.585  12.256  68.041  1.00  0.00    -0.235 C  
HETATM   13  O   UNL     1      -8.943  10.965  66.747  1.00  0.00    -0.146 OA 
HETATM   14  C   UNL     1     -11.972  11.639  67.849  1.00  0.00    -0.089 C  
HETATM   15  C   UNL     1     -10.381  13.492  67.175  1.00  0.00    -0.250 A  
HETATM   16  C   UNL     1     -10.012  14.713  67.764  1.00  0.00    -0.224 A  
HETATM   17  O   UNL     1     -12.241  10.613  68.803  1.00  0.00    -0.790 OA 
HETATM   18  H   UNL     1     -13.102  10.230  68.684  1.00  0.00     0.000 HD 
HETATM   19  C   UNL     1      -9.851  15.859  66.981  1.00  0.00    -0.236 A  
HETATM   20  C   UNL     1     -10.047  15.800  65.604  1.00  0.00    -0.401 A  
HETATM   21  C   UNL     1     -10.391  14.591  65.004  1.00  0.00    -0.442 A  
HETATM   22  C   UNL     1     -10.551  13.445  65.782  1.00  0.00    -0.286 A  
ENDBRANCH  10  11
ENDBRANCH   8  10
TORSDOF 2
ENDMDL
MODEL      106
REMARK 921   NORMALIZED FREE ENERGY PREDICTED BY IDOCK:   -4.32 KCAL/MOL
REMARK 922        TOTAL FREE ENERGY PREDICTED BY IDOCK:   -5.30 KCAL/MOL
REMARK 923 INTER-LIGAND FREE ENERGY PREDICTED BY IDOCK:   -4.97 KCAL/MOL
REMARK 924 INTRA-LIGAND FREE ENERGY PREDICTED BY IDOCK:   -0.33 KCAL/MOL
REMARK 927      BINDING AFFINITY PREDICTED BY RF-SCORE:    0.00 PKD
ROOT
HETATM    1  C   UNL     1     -12.569  14.021  65.575  1.00  0.00    -0.516 C  
HETATM    2  N   UNL     1     -11.851  14.631  66.684  1.00  0.00    -0.352 NA 
HETATM    3  C   UNL     1     -10.397  14.708  66.545  1.00  0.00    -0.282 C  
HETATM    4  C   UNL     1      -9.997  15.295  67.901  1.00  0.00    -0.228 C  
HETATM    5  C   UNL     1     -11.084  14.815  68.857  1.00  0.00    -0.264 C  
HETATM    6  C   UNL     1     -12.029  13.985  67.985  1.00  0.00    -0.350 C  
HETATM    7  C   UNL     1     -11.621  12.509  67.967  1.00  0.00    -0.395 C  
HETATM    8  C   UNL     1     -10.365  12.192  67.137  1.00  0.00    -0.214 C  
HETATM    9  C   UNL     1      -9.737  13.337  66.328  1.00  0.00    -0.274 C  
ENDROOT
BRANCH   8  10
HETATM   10  O   UNL     1      -9.408  11.613  68.044  1.00  0.00    -0.165 OA 
BRANCH  10  11
HETATM   11  C   UNL     1      -8.876  10.442  67.585  1.00  0.00    -0.124 C  
HETATM   12  C   UNL     1      -8.833   9.423  68.712  1.00  0.00    -0.132 C  
HETATM   13  O   UNL     1      -8.534  10.266  66.424  1.00  0.00    -0.126 OA 
HETATM   14  C   UNL     1      -7.503   9.522  69.461  1.00  0.00    -0.092 C  
HETATM   15  C   UNL     1      -9.110   8.009  68.217  1.00  0.00    -0.135 A  
HETATM   16  C   UNL     1     -10.300   7.356  68.577  1.00  0.00    -0.221 A  
HETATM   17  O   UNL     1      -7.340  10.787  70.102  1.00  0.00    -0.413 OA 
HETATM   18  H   UNL     1      -6.513  10.848  70.567  1.00  0.00     0.000 HD 
HETATM   19  C   UNL     1     -10.549   6.049  68.152  1.00  0.00    -0.328 A  
HETATM   20  C   UNL     1      -9.620   5.382  67.356  1.00  0.00    -0.139 A  
HETATM   21  C   UNL     1      -8.447   6.026  66.972  1.00  0.00    -0.108 A  
HETATM   22  C   UNL     1      -8.196   7.331  67.394  1.00  0.00    -0.116 A  
ENDBRANCH  10  11
ENDBRANCH   8  10
TORSDOF 2
ENDMDL
MODEL      107
REMARK 921   NORMALIZED FREE ENERGY PREDICTED BY IDOCK:   -4.30 KCAL/MOL
REMARK 922        TOTAL FREE ENERGY PREDICTED BY IDOCK:   -5.28 KCAL/MOL
REMARK 923 INTER-LIGAND FREE ENERGY PREDICTED BY IDOCK:   -4.80 KCAL/MOL
REMARK 924 INTRA-LIGAND FREE ENERGY PREDICTED BY IDOCK:   -0.48 KCAL/MOL
REMARK 927      BINDING AFFINITY PREDICTED BY RF-SCORE:    0.00 PKD
ROOT
HETATM    1  C   UNL     1      -9.114   2.696  66.467  1.00  0.00    -0.117 C  
HETATM    2  N   UNL     1      -8.010   3.641  66.535  1.00  0.00    -0.088 NA 
HETATM    3  C   UNL     1      -7.523   3.968  67.875  1.00  0.00    -0.067 C  
HETATM    4  C   UNL     1      -6.468   5.030  67.561  1.00  0.00    -0.045 C  
HETATM    5  C   UNL     1      -6.960   5.684  66.274  1.00  0.00    -0.060 C  
HETATM    6  C   UNL     1      -8.264   4.955  65.942  1.00  0.00    -0.113 C  
HETATM    7  C   UNL     1      -9.472   5.657  66.568  1.00  0.00    -0.165 C  
HETATM    8  C   UNL     1      -9.608   5.482  68.091  1.00  0.00    -0.119 C  
HETATM    9  C   UNL     1      -8.617   4.540  68.792  1.00  0.00    -0.100 C  
ENDROOT
BRANCH   8  10
HETATM   10  O   UNL     1      -9.561   6.802  68.663  1.00  0.00    -0.133 OA 
BRANCH  10  11
HETATM   11  C   UNL     1     -10.526   7.012  69.606  1.00  0.00    -0.223 C  
HETATM   12  C   UNL     1     -10.093   8.129  70.541  1.00  0.00    -0.201 C  
HETATM   13  O   UNL     1     -11.584   6.399  69.637  1.00  0.00    -0.417 OA 
HETATM   14  C   UNL     1      -9.316   7.553  71.727  1.00  0.00    -0.144 C  
HETATM   15  C   UNL     1     -11.268   8.989  70.988  1.00  0.00    -0.361 A  
HETATM   16  C   UNL     1     -11.379  10.318  70.544  1.00  0.00    -0.422 A  
HETATM   17  O   UNL     1      -8.103   6.923  71.319  1.00  0.00    -0.108 OA 
HETATM   18  H   UNL     1      -7.620   6.565  72.055  1.00  0.00     0.000 HD 
HETATM   19  C   UNL     1     -12.438  11.123  70.972  1.00  0.00    -0.506 A  
HETATM   20  C   UNL     1     -13.401  10.612  71.839  1.00  0.00    -0.454 A  
HETATM   21  C   UNL     1     -13.316   9.290  72.268  1.00  0.00    -0.547 A  
HETATM   22  C   UNL     1     -12.261   8.483  71.842  1.00  0.00    -0.411 A  
ENDBRANCH  10  11
ENDBRANCH   8  10
TORSDOF 2
ENDMDL
MODEL      108
REMARK 921   NORMALIZED FREE ENERGY PREDICTED BY IDOCK:   -4.30 KCAL/MOL
REMARK 922        TOTAL FREE ENERGY PREDICTED BY IDOCK:   -5.28 KCAL/MOL
REMARK 923 INTER-LIGAND FREE ENERGY PREDICTED BY IDOCK:   -5.07 KCAL/MOL
REMARK 924 INTRA-LIGAND FREE ENERGY PREDICTED BY IDOCK:   -0.20 KCAL/MOL
REMARK 927      BINDING AFFINITY PREDICTED BY RF-SCORE:    0.00 PKD
ROOT
HETATM    1  C   UNL     1     -10.135  10.662  64.808  1.00  0.00    -0.344 C  
HETATM    2  N   UNL     1      -9.780   9.975  66.041  1.00  0.00    -0.222 NA 
HETATM    3  C   UNL     1     -10.837   9.864  67.045  1.00  0.00    -0.116 C  
HETATM    4  C   UNL     1     -10.086   9.197  68.199  1.00  0.00    -0.225 C  
HETATM    5  C   UNL     1      -8.643   9.658  68.029  1.00  0.00    -0.119 C  
HETATM    6  C   UNL     1      -8.666  10.558  66.792  1.00  0.00    -0.132 C  
HETATM    7  C   UNL     1      -8.917  12.020  67.170  1.00  0.00    -0.185 C  
HETATM    8  C   UNL     1     -10.360  12.344  67.595  1.00  0.00    -0.216 C  
HETATM    9  C   UNL     1     -11.406  11.225  67.477  1.00  0.00    -0.360 C  
ENDROOT
BRANCH   8  10
HETATM   10  O   UNL     1     -10.289  12.848  68.942  1.00  0.00    -0.163 OA 
BRANCH  10  11
HETATM   11  C   UNL     1     -10.434  14.203  69.014  1.00  0.00    -0.183 C  
HETATM   12  C   UNL     1      -9.325  14.880  68.225  1.00  0.00    -0.195 C  
HETATM   13  O   UNL     1     -11.355  14.754  69.603  1.00  0.00    -0.259 OA 
HETATM   14  C   UNL     1      -8.120  15.143  69.130  1.00  0.00    -0.214 C  
HETATM   15  C   UNL     1      -9.807  16.145  67.527  1.00  0.00    -0.237 A  
HETATM   16  C   UNL     1      -9.907  16.184  66.127  1.00  0.00    -0.358 A  
HETATM   17  O   UNL     1      -7.540  13.935  69.619  1.00  0.00    -0.316 OA 
HETATM   18  H   UNL     1      -6.792  14.098  70.181  1.00  0.00     0.000 HD 
HETATM   19  C   UNL     1     -10.321  17.350  65.477  1.00  0.00    -0.075 A  
HETATM   20  C   UNL     1     -10.648  18.485  66.215  1.00  0.00    -0.370 A  
HETATM   21  C   UNL     1     -10.575  18.453  67.605  1.00  0.00    -0.437 A  
HETATM   22  C   UNL     1     -10.164  17.291  68.257  1.00  0.00    -0.348 A  
ENDBRANCH  10  11
ENDBRANCH   8  10
TORSDOF 2
ENDMDL
MODEL      109
REMARK 921   NORMALIZED FREE ENERGY PREDICTED BY IDOCK:   -4.29 KCAL/MOL
REMARK 922        TOTAL FREE ENERGY PREDICTED BY IDOCK:   -5.26 KCAL/MOL
REMARK 923 INTER-LIGAND FREE ENERGY PREDICTED BY IDOCK:   -5.32 KCAL/MOL
REMARK 924 INTRA-LIGAND FREE ENERGY PREDICTED BY IDOCK:    0.06 KCAL/MOL
REMARK 927      BINDING AFFINITY PREDICTED BY RF-SCORE:    0.00 PKD
ROOT
HETATM    1  C   UNL     1     -10.505  19.969  69.501  1.00  0.00     0.327 C  
HETATM    2  N   UNL     1      -9.870  20.091  68.197  1.00  0.00    -0.385 NA 
HETATM    3  C   UNL     1     -10.252  19.093  67.198  1.00  0.00    -0.401 C  
HETATM    4  C   UNL     1      -9.337  19.470  66.031  1.00  0.00    -0.280 C  
HETATM    5  C   UNL     1      -8.112  20.090  66.695  1.00  0.00    -0.351 C  
HETATM    6  C   UNL     1      -8.408  20.023  68.195  1.00  0.00    -0.175 C  
HETATM    7  C   UNL     1      -7.882  18.724  68.811  1.00  0.00    -0.344 C  
HETATM    8  C   UNL     1      -8.692  17.463  68.461  1.00  0.00    -0.277 C  
HETATM    9  C   UNL     1      -9.987  17.649  67.655  1.00  0.00    -0.323 C  
ENDROOT
BRANCH   8  10
HETATM   10  O   UNL     1      -7.788  16.566  67.789  1.00  0.00    -0.148 OA 
BRANCH  10  11
HETATM   11  C   UNL     1      -8.344  15.968  66.695  1.00  0.00    -0.296 C  
HETATM   12  C   UNL     1      -8.957  14.636  67.097  1.00  0.00    -0.240 C  
HETATM   13  O   UNL     1      -8.361  16.476  65.582  1.00  0.00    -0.220 OA 
HETATM   14  C   UNL     1      -7.923  13.516  66.958  1.00  0.00     0.051 C  
HETATM   15  C   UNL     1     -10.235  14.337  66.323  1.00  0.00    -0.307 A  
HETATM   16  C   UNL     1     -11.475  14.340  66.982  1.00  0.00    -0.377 A  
HETATM   17  O   UNL     1      -6.817  13.694  67.841  1.00  0.00    -0.117 OA 
HETATM   18  H   UNL     1      -6.174  12.999  67.755  1.00  0.00     0.000 HD 
HETATM   19  C   UNL     1     -12.649  14.038  66.287  1.00  0.00    -0.352 A  
HETATM   20  C   UNL     1     -12.601  13.739  64.927  1.00  0.00    -0.380 A  
HETATM   21  C   UNL     1     -11.381  13.755  64.257  1.00  0.00    -0.344 A  
HETATM   22  C   UNL     1     -10.207  14.056  64.947  1.00  0.00    -0.377 A  
ENDBRANCH  10  11
ENDBRANCH   8  10
TORSDOF 2
ENDMDL
MODEL      110
REMARK 921   NORMALIZED FREE ENERGY PREDICTED BY IDOCK:   -4.27 KCAL/MOL
REMARK 922        TOTAL FREE ENERGY PREDICTED BY IDOCK:   -5.25 KCAL/MOL
REMARK 923 INTER-LIGAND FREE ENERGY PREDICTED BY IDOCK:   -4.54 KCAL/MOL
REMARK 924 INTRA-LIGAND FREE ENERGY PREDICTED BY IDOCK:   -0.71 KCAL/MOL
REMARK 927      BINDING AFFINITY PREDICTED BY RF-SCORE:    0.00 PKD
ROOT
HETATM    1  C   UNL     1     -10.129   4.260  72.316  1.00  0.00    -0.182 C  
HETATM    2  N   UNL     1      -8.701   4.541  72.288  1.00  0.00    -0.117 NA 
HETATM    3  C   UNL     1      -8.292   5.852  72.792  1.00  0.00    -0.118 C  
HETATM    4  C   UNL     1      -6.787   5.823  72.518  1.00  0.00    -0.078 C  
HETATM    5  C   UNL     1      -6.639   4.907  71.308  1.00  0.00    -0.034 C  
HETATM    6  C   UNL     1      -8.068   4.477  70.970  1.00  0.00    -0.081 C  
HETATM    7  C   UNL     1      -8.715   5.433  69.963  1.00  0.00    -0.130 C  
HETATM    8  C   UNL     1      -9.122   6.802  70.535  1.00  0.00    -0.156 C  
HETATM    9  C   UNL     1      -8.959   7.020  72.047  1.00  0.00    -0.138 C  
ENDROOT
BRANCH   8  10
HETATM   10  O   UNL     1      -8.393   7.793  69.787  1.00  0.00    -0.127 OA 
BRANCH  10  11
HETATM   11  C   UNL     1      -9.005   9.014  69.779  1.00  0.00    -0.154 C  
HETATM   12  C   UNL     1     -10.470   8.849  69.409  1.00  0.00    -0.228 C  
HETATM   13  O   UNL     1      -8.435  10.056  70.070  1.00  0.00    -0.187 OA 
HETATM   14  C   UNL     1     -10.646   8.954  67.893  1.00  0.00    -0.183 C  
HETATM   15  C   UNL     1     -11.364   9.828  70.161  1.00  0.00    -0.305 A  
HETATM   16  C   UNL     1     -12.255   9.360  71.140  1.00  0.00    -0.402 A  
HETATM   17  O   UNL     1      -9.971   7.905  67.200  1.00  0.00    -0.183 OA 
HETATM   18  H   UNL     1     -10.080   7.970  66.259  1.00  0.00     0.000 HD 
HETATM   19  C   UNL     1     -13.099  10.246  71.814  1.00  0.00    -0.570 A  
HETATM   20  C   UNL     1     -13.058  11.608  71.525  1.00  0.00    -0.405 A  
HETATM   21  C   UNL     1     -12.163  12.089  70.572  1.00  0.00    -0.414 A  
HETATM   22  C   UNL     1     -11.319  11.207  69.899  1.00  0.00    -0.348 A  
ENDBRANCH  10  11
ENDBRANCH   8  10
TORSDOF 2
ENDMDL
MODEL      111
REMARK 921   NORMALIZED FREE ENERGY PREDICTED BY IDOCK:   -4.27 KCAL/MOL
REMARK 922        TOTAL FREE ENERGY PREDICTED BY IDOCK:   -5.25 KCAL/MOL
REMARK 923 INTER-LIGAND FREE ENERGY PREDICTED BY IDOCK:   -6.04 KCAL/MOL
REMARK 924 INTRA-LIGAND FREE ENERGY PREDICTED BY IDOCK:    0.79 KCAL/MOL
REMARK 927      BINDING AFFINITY PREDICTED BY RF-SCORE:    0.00 PKD
ROOT
HETATM    1  C   UNL     1     -10.655  16.602  65.621  1.00  0.00    -0.270 C  
HETATM    2  N   UNL     1     -10.163  16.822  66.973  1.00  0.00    -0.287 NA 
HETATM    3  C   UNL     1      -8.828  16.303  67.266  1.00  0.00    -0.188 C  
HETATM    4  C   UNL     1      -8.702  16.623  68.757  1.00  0.00    -0.260 C  
HETATM    5  C   UNL     1     -10.136  16.595  69.274  1.00  0.00    -0.257 C  
HETATM    6  C   UNL     1     -10.984  16.258  68.046  1.00  0.00    -0.328 C  
HETATM    7  C   UNL     1     -11.180  14.746  67.899  1.00  0.00    -0.318 C  
HETATM    8  C   UNL     1      -9.939  13.974  67.418  1.00  0.00    -0.243 C  
HETATM    9  C   UNL     1      -8.701  14.791  67.020  1.00  0.00    -0.258 C  
ENDROOT
BRANCH   8  10
HETATM   10  O   UNL     1      -9.622  13.021  68.449  1.00  0.00    -0.221 OA 
BRANCH  10  11
HETATM   11  C   UNL     1     -10.730  12.468  69.025  1.00  0.00    -0.097 C  
HETATM   12  C   UNL     1     -10.699  10.958  68.848  1.00  0.00    -0.252 C  
HETATM   13  O   UNL     1     -11.578  13.118  69.620  1.00  0.00    -0.283 OA 
HETATM   14  C   UNL     1     -11.403  10.566  67.547  1.00  0.00    -0.101 C  
HETATM   15  C   UNL     1     -11.273  10.228  70.055  1.00  0.00    -0.376 A  
HETATM   16  C   UNL     1     -10.432   9.471  70.888  1.00  0.00    -0.382 A  
HETATM   17  O   UNL     1     -10.737  11.086  66.398  1.00  0.00    -0.262 OA 
HETATM   18  H   UNL     1     -11.174  10.842  65.590  1.00  0.00     0.000 HD 
HETATM   19  C   UNL     1     -10.954   8.774  71.980  1.00  0.00    -0.438 A  
HETATM   20  C   UNL     1     -12.317   8.831  72.260  1.00  0.00    -0.448 A  
HETATM   21  C   UNL     1     -13.159   9.596  71.457  1.00  0.00    -0.488 A  
HETATM   22  C   UNL     1     -12.641  10.294  70.366  1.00  0.00    -0.277 A  
ENDBRANCH  10  11
ENDBRANCH   8  10
TORSDOF 2
ENDMDL
MODEL      112
REMARK 921   NORMALIZED FREE ENERGY PREDICTED BY IDOCK:   -4.26 KCAL/MOL
REMARK 922        TOTAL FREE ENERGY PREDICTED BY IDOCK:   -5.23 KCAL/MOL
REMARK 923 INTER-LIGAND FREE ENERGY PREDICTED BY IDOCK:   -4.62 KCAL/MOL
REMARK 924 INTRA-LIGAND FREE ENERGY PREDICTED BY IDOCK:   -0.61 KCAL/MOL
REMARK 927      BINDING AFFINITY PREDICTED BY RF-SCORE:    0.00 PKD
ROOT
HETATM    1  C   UNL     1     -10.529   5.798  72.583  1.00  0.00    -0.208 C  
HETATM    2  N   UNL     1     -11.687   6.665  72.423  1.00  0.00    -0.258 NA 
HETATM    3  C   UNL     1     -12.266   6.728  71.082  1.00  0.00    -0.360 C  
HETATM    4  C   UNL     1     -13.359   7.780  71.276  1.00  0.00    -0.237 C  
HETATM    5  C   UNL     1     -12.833   8.672  72.395  1.00  0.00    -0.413 C  
HETATM    6  C   UNL     1     -11.474   8.073  72.762  1.00  0.00    -0.356 C  
HETATM    7  C   UNL     1     -10.344   8.707  71.947  1.00  0.00    -0.405 C  
HETATM    8  C   UNL     1     -10.284   8.273  70.472  1.00  0.00    -0.198 C  
HETATM    9  C   UNL     1     -11.259   7.179  70.011  1.00  0.00    -0.271 C  
ENDROOT
BRANCH   8  10
HETATM   10  O   UNL     1     -10.438   9.469  69.684  1.00  0.00    -0.201 OA 
BRANCH  10  11
HETATM   11  C   UNL     1     -10.096   9.293  68.374  1.00  0.00    -0.191 C  
HETATM   12  C   UNL     1      -8.595   9.081  68.260  1.00  0.00    -0.130 C  
HETATM   13  O   UNL     1     -10.910   9.276  67.460  1.00  0.00    -0.259 OA 
HETATM   14  C   UNL     1      -7.885  10.424  68.076  1.00  0.00    -0.104 C  
HETATM   15  C   UNL     1      -8.239   8.087  67.162  1.00  0.00    -0.117 A  
HETATM   16  C   UNL     1      -7.711   6.828  67.494  1.00  0.00    -0.110 A  
HETATM   17  O   UNL     1      -8.052  11.278  69.206  1.00  0.00    -0.362 OA 
HETATM   18  H   UNL     1      -7.612  12.113  69.092  1.00  0.00     0.000 HD 
HETATM   19  C   UNL     1      -7.354   5.921  66.492  1.00  0.00    -0.078 A  
HETATM   20  C   UNL     1      -7.527   6.256  65.151  1.00  0.00    -0.082 A  
HETATM   21  C   UNL     1      -8.070   7.491  64.809  1.00  0.00    -0.112 A  
HETATM   22  C   UNL     1      -8.428   8.398  65.806  1.00  0.00    -0.169 A  
ENDBRANCH  10  11
ENDBRANCH   8  10
TORSDOF 2
ENDMDL
MODEL      113
REMARK 921   NORMALIZED FREE ENERGY PREDICTED BY IDOCK:   -4.25 KCAL/MOL
REMARK 922        TOTAL FREE ENERGY PREDICTED BY IDOCK:   -5.22 KCAL/MOL
REMARK 923 INTER-LIGAND FREE ENERGY PREDICTED BY IDOCK:   -4.83 KCAL/MOL
REMARK 924 INTRA-LIGAND FREE ENERGY PREDICTED BY IDOCK:   -0.39 KCAL/MOL
REMARK 927      BINDING AFFINITY PREDICTED BY RF-SCORE:    0.00 PKD
ROOT
HETATM    1  C   UNL     1      -7.819  16.743  68.883  1.00  0.00    -0.244 C  
HETATM    2  N   UNL     1      -8.838  16.674  67.847  1.00  0.00    -0.202 NA 
HETATM    3  C   UNL     1     -10.147  16.169  68.262  1.00  0.00    -0.232 C  
HETATM    4  C   UNL     1     -10.896  16.146  66.928  1.00  0.00    -0.175 C  
HETATM    5  C   UNL     1      -9.807  15.930  65.884  1.00  0.00    -0.383 C  
HETATM    6  C   UNL     1      -8.509  15.840  66.690  1.00  0.00    -0.288 C  
HETATM    7  C   UNL     1      -8.194  14.394  67.082  1.00  0.00    -0.202 C  
HETATM    8  C   UNL     1      -9.081  13.814  68.197  1.00  0.00    -0.194 C  
HETATM    9  C   UNL     1     -10.083  14.761  68.876  1.00  0.00    -0.237 C  
ENDROOT
BRANCH   8  10
HETATM   10  O   UNL     1      -9.749  12.668  67.638  1.00  0.00    -0.189 OA 
BRANCH  10  11
HETATM   11  C   UNL     1      -9.544  11.525  68.357  1.00  0.00    -0.195 C  
HETATM   12  C   UNL     1     -10.792  10.659  68.308  1.00  0.00    -0.287 C  
HETATM   13  O   UNL     1      -8.487  11.257  68.912  1.00  0.00    -0.139 OA 
HETATM   14  C   UNL     1     -11.722  11.008  69.472  1.00  0.00    -0.329 C  
HETATM   15  C   UNL     1     -10.456   9.173  68.266  1.00  0.00    -0.254 A  
HETATM   16  C   UNL     1     -10.709   8.425  67.104  1.00  0.00    -0.222 A  
HETATM   17  O   UNL     1     -12.202  12.349  69.392  1.00  0.00    -0.202 OA 
HETATM   18  H   UNL     1     -12.780  12.566  70.115  1.00  0.00     0.000 HD 
HETATM   19  C   UNL     1     -10.432   7.057  67.066  1.00  0.00    -0.386 A  
HETATM   20  C   UNL     1      -9.892   6.421  68.182  1.00  0.00    -0.127 A  
HETATM   21  C   UNL     1      -9.615   7.154  69.332  1.00  0.00    -0.153 A  
HETATM   22  C   UNL     1      -9.890   8.521  69.373  1.00  0.00    -0.185 A  
ENDBRANCH  10  11
ENDBRANCH   8  10
TORSDOF 2
ENDMDL
MODEL      114
REMARK 921   NORMALIZED FREE ENERGY PREDICTED BY IDOCK:   -4.21 KCAL/MOL
REMARK 922        TOTAL FREE ENERGY PREDICTED BY IDOCK:   -5.17 KCAL/MOL
REMARK 923 INTER-LIGAND FREE ENERGY PREDICTED BY IDOCK:   -4.46 KCAL/MOL
REMARK 924 INTRA-LIGAND FREE ENERGY PREDICTED BY IDOCK:   -0.71 KCAL/MOL
REMARK 927      BINDING AFFINITY PREDICTED BY RF-SCORE:    0.00 PKD
ROOT
HETATM    1  C   UNL     1     -12.029   6.902  71.115  1.00  0.00    -0.366 C  
HETATM    2  N   UNL     1     -10.752   6.823  71.809  1.00  0.00    -0.221 NA 
HETATM    3  C   UNL     1     -10.115   8.099  72.133  1.00  0.00    -0.253 C  
HETATM    4  C   UNL     1      -8.793   7.628  72.744  1.00  0.00    -0.203 C  
HETATM    5  C   UNL     1      -8.517   6.291  72.064  1.00  0.00    -0.123 C  
HETATM    6  C   UNL     1      -9.696   6.090  71.109  1.00  0.00    -0.177 C  
HETATM    7  C   UNL     1      -9.399   6.671  69.724  1.00  0.00    -0.145 C  
HETATM    8  C   UNL     1      -9.426   8.207  69.644  1.00  0.00    -0.159 C  
HETATM    9  C   UNL     1      -9.863   8.979  70.898  1.00  0.00    -0.330 C  
ENDROOT
BRANCH   8  10
HETATM   10  O   UNL     1      -8.117   8.619  69.211  1.00  0.00    -0.107 OA 
BRANCH  10  11
HETATM   11  C   UNL     1      -8.141   9.729  68.416  1.00  0.00    -0.104 C  
HETATM   12  C   UNL     1      -9.247   9.592  67.381  1.00  0.00    -0.148 C  
HETATM   13  O   UNL     1      -7.395  10.686  68.568  1.00  0.00    -0.082 OA 
HETATM   14  C   UNL     1      -8.706   8.921  66.117  1.00  0.00    -0.153 C  
HETATM   15  C   UNL     1      -9.919  10.926  67.082  1.00  0.00    -0.221 A  
HETATM   16  C   UNL     1     -11.245  11.155  67.483  1.00  0.00    -0.369 A  
HETATM   17  O   UNL     1      -8.266   7.587  66.364  1.00  0.00    -0.112 OA 
HETATM   18  H   UNL     1      -7.930   7.170  65.579  1.00  0.00     0.000 HD 
HETATM   19  C   UNL     1     -11.879  12.364  67.186  1.00  0.00    -0.361 A  
HETATM   20  C   UNL     1     -11.195  13.361  66.495  1.00  0.00    -0.327 A  
HETATM   21  C   UNL     1      -9.872  13.158  66.112  1.00  0.00    -0.284 A  
HETATM   22  C   UNL     1      -9.237  11.952  66.407  1.00  0.00    -0.218 A  
ENDBRANCH  10  11
ENDBRANCH   8  10
TORSDOF 2
ENDMDL
MODEL      115
REMARK 921   NORMALIZED FREE ENERGY PREDICTED BY IDOCK:   -4.19 KCAL/MOL
REMARK 922        TOTAL FREE ENERGY PREDICTED BY IDOCK:   -5.15 KCAL/MOL
REMARK 923 INTER-LIGAND FREE ENERGY PREDICTED BY IDOCK:   -4.75 KCAL/MOL
REMARK 924 INTRA-LIGAND FREE ENERGY PREDICTED BY IDOCK:   -0.39 KCAL/MOL
REMARK 927      BINDING AFFINITY PREDICTED BY RF-SCORE:    0.00 PKD
ROOT
HETATM    1  C   UNL     1      -7.736   7.210  63.676  1.00  0.00    -0.119 C  
HETATM    2  N   UNL     1      -6.978   8.290  64.290  1.00  0.00    -0.072 NA 
HETATM    3  C   UNL     1      -6.633   8.114  65.700  1.00  0.00    -0.049 C  
HETATM    4  C   UNL     1      -5.953   9.449  66.010  1.00  0.00    -0.062 C  
HETATM    5  C   UNL     1      -6.607  10.440  65.053  1.00  0.00    -0.075 C  
HETATM    6  C   UNL     1      -7.618   9.606  64.263  1.00  0.00    -0.128 C  
HETATM    7  C   UNL     1      -8.991   9.603  64.941  1.00  0.00    -0.260 C  
HETATM    8  C   UNL     1      -9.085   8.748  66.216  1.00  0.00    -0.193 C  
HETATM    9  C   UNL     1      -7.861   7.904  66.601  1.00  0.00    -0.102 C  
ENDROOT
BRANCH   8  10
HETATM   10  O   UNL     1      -9.454   9.641  67.284  1.00  0.00    -0.139 OA 
BRANCH  10  11
HETATM   11  C   UNL     1     -10.077   9.007  68.320  1.00  0.00    -0.192 C  
HETATM   12  C   UNL     1      -9.884   9.806  69.599  1.00  0.00    -0.241 C  
HETATM   13  O   UNL     1     -10.718   7.973  68.192  1.00  0.00    -0.149 OA 
HETATM   14  C   UNL     1      -8.615   9.347  70.320  1.00  0.00    -0.221 C  
HETATM   15  C   UNL     1     -11.110   9.748  70.501  1.00  0.00    -0.384 A  
HETATM   16  C   UNL     1     -11.894  10.897  70.701  1.00  0.00    -0.453 A  
HETATM   17  O   UNL     1      -7.440   9.596  69.550  1.00  0.00    -0.078 OA 
HETATM   18  H   UNL     1      -6.652   9.311  69.998  1.00  0.00     0.000 HD 
HETATM   19  C   UNL     1     -13.004  10.861  71.549  1.00  0.00    -0.556 A  
HETATM   20  C   UNL     1     -13.348   9.679  72.201  1.00  0.00    -0.545 A  
HETATM   21  C   UNL     1     -12.594   8.527  71.994  1.00  0.00    -0.414 A  
HETATM   22  C   UNL     1     -11.486   8.559  71.147  1.00  0.00    -0.322 A  
ENDBRANCH  10  11
ENDBRANCH   8  10
TORSDOF 2
ENDMDL
MODEL      116
REMARK 921   NORMALIZED FREE ENERGY PREDICTED BY IDOCK:   -4.17 KCAL/MOL
REMARK 922        TOTAL FREE ENERGY PREDICTED BY IDOCK:   -5.13 KCAL/MOL
REMARK 923 INTER-LIGAND FREE ENERGY PREDICTED BY IDOCK:   -4.70 KCAL/MOL
REMARK 924 INTRA-LIGAND FREE ENERGY PREDICTED BY IDOCK:   -0.43 KCAL/MOL
REMARK 927      BINDING AFFINITY PREDICTED BY RF-SCORE:    0.00 PKD
ROOT
HETATM    1  C   UNL     1     -13.565   7.385  71.605  1.00  0.00    -0.366 C  
HETATM    2  N   UNL     1     -12.217   7.336  72.151  1.00  0.00    -0.260 NA 
HETATM    3  C   UNL     1     -11.461   8.587  72.116  1.00  0.00    -0.376 C  
HETATM    4  C   UNL     1     -10.105   8.135  72.661  1.00  0.00    -0.379 C  
HETATM    5  C   UNL     1     -10.007   6.666  72.263  1.00  0.00    -0.179 C  
HETATM    6  C   UNL     1     -11.310   6.380  71.514  1.00  0.00    -0.294 C  
HETATM    7  C   UNL     1     -11.158   6.629  70.011  1.00  0.00    -0.394 C  
HETATM    8  C   UNL     1     -11.095   8.111  69.601  1.00  0.00    -0.007 C  
HETATM    9  C   UNL     1     -11.314   9.164  70.698  1.00  0.00    -0.323 C  
ENDROOT
BRANCH   8  10
HETATM   10  O   UNL     1      -9.828   8.303  68.945  1.00  0.00    -0.171 OA 
BRANCH  10  11
HETATM   11  C   UNL     1      -9.954   8.690  67.641  1.00  0.00    -0.194 C  
HETATM   12  C   UNL     1      -8.812   9.623  67.272  1.00  0.00    -0.139 C  
HETATM   13  O   UNL     1     -10.845   8.294  66.902  1.00  0.00    -0.228 OA 
HETATM   14  C   UNL     1      -9.205  11.075  67.551  1.00  0.00    -0.145 C  
HETATM   15  C   UNL     1      -8.348   9.419  65.835  1.00  0.00    -0.125 A  
HETATM   16  C   UNL     1      -7.085   8.863  65.573  1.00  0.00    -0.080 A  
HETATM   17  O   UNL     1      -9.439  11.310  68.939  1.00  0.00    -0.314 OA 
HETATM   18  H   UNL     1      -9.683  12.212  69.113  1.00  0.00     0.000 HD 
HETATM   19  C   UNL     1      -6.640   8.700  64.258  1.00  0.00    -0.071 A  
HETATM   20  C   UNL     1      -7.451   9.081  63.192  1.00  0.00    -0.098 A  
HETATM   21  C   UNL     1      -8.715   9.612  63.437  1.00  0.00    -0.237 A  
HETATM   22  C   UNL     1      -9.163   9.776  64.748  1.00  0.00    -0.319 A  
ENDBRANCH  10  11
ENDBRANCH   8  10
TORSDOF 2
ENDMDL
MODEL      117
REMARK 921   NORMALIZED FREE ENERGY PREDICTED BY IDOCK:   -4.15 KCAL/MOL
REMARK 922        TOTAL FREE ENERGY PREDICTED BY IDOCK:   -5.11 KCAL/MOL
REMARK 923 INTER-LIGAND FREE ENERGY PREDICTED BY IDOCK:   -4.58 KCAL/MOL
REMARK 924 INTRA-LIGAND FREE ENERGY PREDICTED BY IDOCK:   -0.53 KCAL/MOL
REMARK 927      BINDING AFFINITY PREDICTED BY RF-SCORE:    0.00 PKD
ROOT
HETATM    1  C   UNL     1     -10.688   5.809  68.737  1.00  0.00    -0.247 C  
HETATM    2  N   UNL     1      -9.490   5.971  67.927  1.00  0.00    -0.112 NA 
HETATM    3  C   UNL     1      -8.285   6.399  68.637  1.00  0.00    -0.121 C  
HETATM    4  C   UNL     1      -7.294   6.553  67.482  1.00  0.00    -0.095 C  
HETATM    5  C   UNL     1      -8.165   6.908  66.281  1.00  0.00    -0.117 C  
HETATM    6  C   UNL     1      -9.592   6.936  66.831  1.00  0.00    -0.162 C  
HETATM    7  C   UNL     1      -9.977   8.335  67.317  1.00  0.00    -0.289 C  
HETATM    8  C   UNL     1      -9.319   8.769  68.639  1.00  0.00    -0.141 C  
HETATM    9  C   UNL     1      -8.465   7.731  69.383  1.00  0.00    -0.134 C  
ENDROOT
BRANCH   8  10
HETATM   10  O   UNL     1      -8.556   9.955  68.349  1.00  0.00    -0.113 OA 
BRANCH  10  11
HETATM   11  C   UNL     1      -9.321  11.086  68.311  1.00  0.00    -0.172 C  
HETATM   12  C   UNL     1      -9.127  11.789  66.977  1.00  0.00    -0.187 C  
HETATM   13  O   UNL     1     -10.068  11.428  69.217  1.00  0.00    -0.090 OA 
HETATM   14  C   UNL     1      -7.975  12.791  67.072  1.00  0.00    -0.038 C  
HETATM   15  C   UNL     1     -10.413  12.437  66.479  1.00  0.00    -0.254 A  
HETATM   16  C   UNL     1     -11.070  11.925  65.348  1.00  0.00    -0.360 A  
HETATM   17  O   UNL     1      -6.727  12.151  67.335  1.00  0.00    -0.115 OA 
HETATM   18  H   UNL     1      -6.012  12.773  67.394  1.00  0.00     0.000 HD 
HETATM   19  C   UNL     1     -12.233  12.531  64.867  1.00  0.00    -0.534 A  
HETATM   20  C   UNL     1     -12.759  13.648  65.513  1.00  0.00    -0.514 A  
HETATM   21  C   UNL     1     -12.132  14.152  66.649  1.00  0.00    -0.480 A  
HETATM   22  C   UNL     1     -10.970  13.549  67.132  1.00  0.00    -0.302 A  
ENDBRANCH  10  11
ENDBRANCH   8  10
TORSDOF 2
ENDMDL
MODEL      118
REMARK 921   NORMALIZED FREE ENERGY PREDICTED BY IDOCK:   -4.14 KCAL/MOL
REMARK 922        TOTAL FREE ENERGY PREDICTED BY IDOCK:   -5.10 KCAL/MOL
REMARK 923 INTER-LIGAND FREE ENERGY PREDICTED BY IDOCK:   -4.56 KCAL/MOL
REMARK 924 INTRA-LIGAND FREE ENERGY PREDICTED BY IDOCK:   -0.54 KCAL/MOL
REMARK 927      BINDING AFFINITY PREDICTED BY RF-SCORE:    0.00 PKD
ROOT
HETATM    1  C   UNL     1      -7.497   8.261  72.503  1.00  0.00    -0.113 C  
HETATM    2  N   UNL     1      -8.483   7.432  71.826  1.00  0.00    -0.107 NA 
HETATM    3  C   UNL     1      -7.995   6.647  70.692  1.00  0.00    -0.111 C  
HETATM    4  C   UNL     1      -9.291   6.007  70.191  1.00  0.00    -0.172 C  
HETATM    5  C   UNL     1     -10.380   7.001  70.577  1.00  0.00    -0.218 C  
HETATM    6  C   UNL     1      -9.634   8.144  71.269  1.00  0.00    -0.162 C  
HETATM    7  C   UNL     1      -9.224   9.230  70.271  1.00  0.00    -0.273 C  
HETATM    8  C   UNL     1      -8.055   8.853  69.344  1.00  0.00    -0.105 C  
HETATM    9  C   UNL     1      -7.352   7.510  69.593  1.00  0.00    -0.090 C  
ENDROOT
BRANCH   8  10
HETATM   10  O   UNL     1      -8.556   8.933  67.996  1.00  0.00    -0.128 OA 
BRANCH  10  11
HETATM   11  C   UNL     1      -8.617  10.213  67.524  1.00  0.00    -0.118 C  
HETATM   12  C   UNL     1      -9.987  10.469  66.917  1.00  0.00    -0.246 C  
HETATM   13  O   UNL     1      -7.700  11.016  67.628  1.00  0.00    -0.107 OA 
HETATM   14  C   UNL     1      -9.978  10.114  65.428  1.00  0.00    -0.307 C  
HETATM   15  C   UNL     1     -10.466  11.894  67.165  1.00  0.00    -0.249 A  
HETATM   16  C   UNL     1     -11.549  12.134  68.027  1.00  0.00    -0.411 A  
HETATM   17  O   UNL     1      -9.731   8.726  65.209  1.00  0.00    -0.399 OA 
HETATM   18  H   UNL     1      -9.726   8.506  64.285  1.00  0.00     0.000 HD 
HETATM   19  C   UNL     1     -12.014  13.435  68.237  1.00  0.00    -0.352 A  
HETATM   20  C   UNL     1     -11.400  14.510  67.599  1.00  0.00    -0.354 A  
HETATM   21  C   UNL     1     -10.311  14.288  66.760  1.00  0.00    -0.274 A  
HETATM   22  C   UNL     1      -9.844  12.992  66.548  1.00  0.00    -0.263 A  
ENDBRANCH  10  11
ENDBRANCH   8  10
TORSDOF 2
ENDMDL
MODEL      119
REMARK 921   NORMALIZED FREE ENERGY PREDICTED BY IDOCK:   -4.08 KCAL/MOL
REMARK 922        TOTAL FREE ENERGY PREDICTED BY IDOCK:   -5.02 KCAL/MOL
REMARK 923 INTER-LIGAND FREE ENERGY PREDICTED BY IDOCK:   -5.00 KCAL/MOL
REMARK 924 INTRA-LIGAND FREE ENERGY PREDICTED BY IDOCK:   -0.02 KCAL/MOL
REMARK 927      BINDING AFFINITY PREDICTED BY RF-SCORE:    0.00 PKD
ROOT
HETATM    1  C   UNL     1     -11.507  14.904  69.692  1.00  0.00    -0.294 C  
HETATM    2  N   UNL     1     -10.967  15.235  68.381  1.00  0.00    -0.259 NA 
HETATM    3  C   UNL     1     -11.638  14.624  67.235  1.00  0.00    -0.387 C  
HETATM    4  C   UNL     1     -10.759  15.107  66.080  1.00  0.00    -0.333 C  
HETATM    5  C   UNL     1      -9.378  15.284  66.703  1.00  0.00    -0.285 C  
HETATM    6  C   UNL     1      -9.561  14.888  68.170  1.00  0.00    -0.210 C  
HETATM    7  C   UNL     1      -9.287  13.398  68.385  1.00  0.00    -0.165 C  
HETATM    8  C   UNL     1     -10.381  12.453  67.857  1.00  0.00    -0.210 C  
HETATM    9  C   UNL     1     -11.663  13.088  67.297  1.00  0.00    -0.429 C  
ENDROOT
BRANCH   8  10
HETATM   10  O   UNL     1      -9.754  11.604  66.878  1.00  0.00    -0.191 OA 
BRANCH  10  11
HETATM   11  C   UNL     1     -10.318  10.362  66.807  1.00  0.00    -0.235 C  
HETATM   12  C   UNL     1      -9.237   9.324  66.549  1.00  0.00    -0.206 C  
HETATM   13  O   UNL     1     -11.511  10.152  66.971  1.00  0.00    -0.033 OA 
HETATM   14  C   UNL     1      -9.047   9.123  65.045  1.00  0.00    -0.156 C  
HETATM   15  C   UNL     1      -9.519   8.013  67.273  1.00  0.00    -0.196 A  
HETATM   16  C   UNL     1      -8.706   7.609  68.345  1.00  0.00    -0.127 A  
HETATM   17  O   UNL     1      -8.581  10.308  64.400  1.00  0.00    -0.171 OA 
HETATM   18  H   UNL     1      -8.463  10.183  63.465  1.00  0.00     0.000 HD 
HETATM   19  C   UNL     1      -8.939   6.395  68.995  1.00  0.00    -0.128 A  
HETATM   20  C   UNL     1      -9.989   5.574  68.590  1.00  0.00    -0.222 A  
HETATM   21  C   UNL     1     -10.817   5.972  67.544  1.00  0.00    -0.393 A  
HETATM   22  C   UNL     1     -10.588   7.184  66.893  1.00  0.00    -0.371 A  
ENDBRANCH  10  11
ENDBRANCH   8  10
TORSDOF 2
ENDMDL
MODEL      120
REMARK 921   NORMALIZED FREE ENERGY PREDICTED BY IDOCK:   -4.04 KCAL/MOL
REMARK 922        TOTAL FREE ENERGY PREDICTED BY IDOCK:   -4.99 KCAL/MOL
REMARK 923 INTER-LIGAND FREE ENERGY PREDICTED BY IDOCK:   -4.56 KCAL/MOL
REMARK 924 INTRA-LIGAND FREE ENERGY PREDICTED BY IDOCK:   -0.43 KCAL/MOL
REMARK 927      BINDING AFFINITY PREDICTED BY RF-SCORE:    0.00 PKD
ROOT
HETATM    1  C   UNL     1      -7.886  10.440  69.065  1.00  0.00    -0.120 C  
HETATM    2  N   UNL     1      -7.794   9.864  67.731  1.00  0.00    -0.094 NA 
HETATM    3  C   UNL     1      -7.308  10.755  66.677  1.00  0.00    -0.134 C  
HETATM    4  C   UNL     1      -7.440   9.860  65.444  1.00  0.00    -0.132 C  
HETATM    5  C   UNL     1      -8.594   8.920  65.779  1.00  0.00    -0.181 C  
HETATM    6  C   UNL     1      -9.045   9.343  67.178  1.00  0.00    -0.130 C  
HETATM    7  C   UNL     1     -10.144  10.407  67.114  1.00  0.00    -0.254 C  
HETATM    8  C   UNL     1      -9.668  11.810  66.700  1.00  0.00    -0.202 C  
HETATM    9  C   UNL     1      -8.158  12.027  66.523  1.00  0.00     0.054 C  
ENDROOT
BRANCH   8  10
HETATM   10  O   UNL     1     -10.385  12.150  65.499  1.00  0.00    -0.248 OA 
BRANCH  10  11
HETATM   11  C   UNL     1     -10.389  13.491  65.240  1.00  0.00    -0.331 C  
HETATM   12  C   UNL     1     -11.500  14.161  66.032  1.00  0.00    -0.343 C  
HETATM   13  O   UNL     1      -9.579  14.040  64.506  1.00  0.00     0.227 OA 
HETATM   14  C   UNL     1     -12.792  14.184  65.212  1.00  0.00    -0.344 C  
HETATM   15  C   UNL     1     -11.102  15.550  66.515  1.00  0.00    -0.182 A  
HETATM   16  C   UNL     1     -10.900  15.790  67.885  1.00  0.00    -0.314 A  
HETATM   17  O   UNL     1     -13.277  12.870  64.937  1.00  0.00    -0.782 OA 
HETATM   18  H   UNL     1     -14.079  12.884  64.428  1.00  0.00     0.000 HD 
HETATM   19  C   UNL     1     -10.563  17.067  68.340  1.00  0.00    -0.375 A  
HETATM   20  C   UNL     1     -10.415  18.116  67.436  1.00  0.00    -0.414 A  
HETATM   21  C   UNL     1     -10.590  17.887  66.073  1.00  0.00    -0.235 A  
HETATM   22  C   UNL     1     -10.925  16.613  65.615  1.00  0.00    -0.028 A  
ENDBRANCH  10  11
ENDBRANCH   8  10
TORSDOF 2
ENDMDL
MODEL      121
REMARK 921   NORMALIZED FREE ENERGY PREDICTED BY IDOCK:   -4.04 KCAL/MOL
REMARK 922        TOTAL FREE ENERGY PREDICTED BY IDOCK:   -4.99 KCAL/MOL
REMARK 923 INTER-LIGAND FREE ENERGY PREDICTED BY IDOCK:   -4.34 KCAL/MOL
REMARK 924 INTRA-LIGAND FREE ENERGY PREDICTED BY IDOCK:   -0.64 KCAL/MOL
REMARK 927      BINDING AFFINITY PREDICTED BY RF-SCORE:    0.00 PKD
ROOT
HETATM    1  C   UNL     1      -7.098  10.843  66.638  1.00  0.00    -0.135 C  
HETATM    2  N   UNL     1      -8.309  11.637  66.787  1.00  0.00    -0.172 NA 
HETATM    3  C   UNL     1      -8.739  11.904  68.159  1.00  0.00    -0.173 C  
HETATM    4  C   UNL     1     -10.053  12.651  67.922  1.00  0.00    -0.222 C  
HETATM    5  C   UNL     1     -10.564  12.105  66.592  1.00  0.00    -0.266 C  
HETATM    6  C   UNL     1      -9.511  11.083  66.162  1.00  0.00    -0.203 C  
HETATM    7  C   UNL     1      -9.847   9.682  66.680  1.00  0.00    -0.285 C  
HETATM    8  C   UNL     1      -9.622   9.475  68.188  1.00  0.00    -0.137 C  
HETATM    9  C   UNL     1      -8.978  10.624  68.977  1.00  0.00    -0.165 C  
ENDROOT
BRANCH   8  10
HETATM   10  O   UNL     1     -10.898   9.112  68.748  1.00  0.00    -0.171 OA 
BRANCH  10  11
HETATM   11  C   UNL     1     -10.825   8.042  69.594  1.00  0.00    -0.169 C  
HETATM   12  C   UNL     1     -10.003   6.937  68.951  1.00  0.00    -0.158 C  
HETATM   13  O   UNL     1     -11.327   8.028  70.709  1.00  0.00    -0.272 OA 
HETATM   14  C   UNL     1     -10.910   6.006  68.144  1.00  0.00    -0.281 C  
HETATM   15  C   UNL     1      -9.165   6.178  69.972  1.00  0.00    -0.158 A  
HETATM   16  C   UNL     1      -7.765   6.299  69.966  1.00  0.00    -0.101 A  
HETATM   17  O   UNL     1     -11.538   6.680  67.054  1.00  0.00    -0.727 OA 
HETATM   18  H   UNL     1     -12.101   6.102  66.553  1.00  0.00     0.000 HD 
HETATM   19  C   UNL     1      -6.987   5.585  70.880  1.00  0.00    -0.064 A  
HETATM   20  C   UNL     1      -7.594   4.750  71.815  1.00  0.00    -0.095 A  
HETATM   21  C   UNL     1      -8.981   4.639  71.848  1.00  0.00    -0.150 A  
HETATM   22  C   UNL     1      -9.762   5.351  70.937  1.00  0.00    -0.237 A  
ENDBRANCH  10  11
ENDBRANCH   8  10
TORSDOF 2
ENDMDL
MODEL      122
REMARK 921   NORMALIZED FREE ENERGY PREDICTED BY IDOCK:   -4.01 KCAL/MOL
REMARK 922        TOTAL FREE ENERGY PREDICTED BY IDOCK:   -4.95 KCAL/MOL
REMARK 923 INTER-LIGAND FREE ENERGY PREDICTED BY IDOCK:   -4.54 KCAL/MOL
REMARK 924 INTRA-LIGAND FREE ENERGY PREDICTED BY IDOCK:   -0.41 KCAL/MOL
REMARK 927      BINDING AFFINITY PREDICTED BY RF-SCORE:    0.00 PKD
ROOT
HETATM    1  C   UNL     1     -12.828  12.505  63.634  1.00  0.00    -0.160 C  
HETATM    2  N   UNL     1     -12.314  13.536  64.523  1.00  0.00    -0.560 NA 
HETATM    3  C   UNL     1     -10.936  13.964  64.286  1.00  0.00    -0.200 C  
HETATM    4  C   UNL     1     -10.725  14.948  65.439  1.00  0.00    -0.391 C  
HETATM    5  C   UNL     1     -11.648  14.443  66.543  1.00  0.00    -0.388 C  
HETATM    6  C   UNL     1     -12.321  13.204  65.949  1.00  0.00    -0.398 C  
HETATM    7  C   UNL     1     -11.525  11.933  66.257  1.00  0.00    -0.367 C  
HETATM    8  C   UNL     1     -10.222  11.771  65.455  1.00  0.00    -0.261 C  
HETATM    9  C   UNL     1      -9.924  12.809  64.362  1.00  0.00    -0.177 C  
ENDROOT
BRANCH   8  10
HETATM   10  O   UNL     1      -9.152  11.709  66.416  1.00  0.00    -0.198 OA 
BRANCH  10  11
HETATM   11  C   UNL     1      -8.561  10.480  66.479  1.00  0.00    -0.137 C  
HETATM   12  C   UNL     1      -7.537  10.462  67.603  1.00  0.00    -0.089 C  
HETATM   13  O   UNL     1      -8.865   9.546  65.750  1.00  0.00    -0.145 OA 
HETATM   14  C   UNL     1      -6.167  10.891  67.074  1.00  0.00    -0.076 C  
HETATM   15  C   UNL     1      -7.483   9.113  68.308  1.00  0.00    -0.083 A  
HETATM   16  C   UNL     1      -7.939   8.989  69.631  1.00  0.00    -0.093 A  
HETATM   17  O   UNL     1      -6.171  12.237  66.601  1.00  0.00    -0.485 OA 
HETATM   18  H   UNL     1      -5.321  12.504  66.272  1.00  0.00     0.000 HD 
HETATM   19  C   UNL     1      -7.867   7.762  70.295  1.00  0.00    -0.091 A  
HETATM   20  C   UNL     1      -7.348   6.644  69.647  1.00  0.00    -0.083 A  
HETATM   21  C   UNL     1      -6.914   6.747  68.328  1.00  0.00    -0.080 A  
HETATM   22  C   UNL     1      -6.985   7.970  67.661  1.00  0.00    -0.075 A  
ENDBRANCH  10  11
ENDBRANCH   8  10
TORSDOF 2
ENDMDL
MODEL      123
REMARK 921   NORMALIZED FREE ENERGY PREDICTED BY IDOCK:   -4.01 KCAL/MOL
REMARK 922        TOTAL FREE ENERGY PREDICTED BY IDOCK:   -4.95 KCAL/MOL
REMARK 923 INTER-LIGAND FREE ENERGY PREDICTED BY IDOCK:   -4.55 KCAL/MOL
REMARK 924 INTRA-LIGAND FREE ENERGY PREDICTED BY IDOCK:   -0.40 KCAL/MOL
REMARK 927      BINDING AFFINITY PREDICTED BY RF-SCORE:    0.00 PKD
ROOT
HETATM    1  C   UNL     1     -10.015  14.726  65.542  1.00  0.00    -0.356 C  
HETATM    2  N   UNL     1     -10.735  13.751  64.737  1.00  0.00    -0.396 NA 
HETATM    3  C   UNL     1     -11.909  13.142  65.360  1.00  0.00    -0.372 C  
HETATM    4  C   UNL     1     -12.328  12.132  64.290  1.00  0.00    -0.466 C  
HETATM    5  C   UNL     1     -11.027  11.771  63.580  1.00  0.00    -0.513 C  
HETATM    6  C   UNL     1      -9.954  12.594  64.294  1.00  0.00    -0.176 C  
HETATM    7  C   UNL     1      -9.341  11.820  65.464  1.00  0.00    -0.131 C  
HETATM    8  C   UNL     1     -10.246  11.685  66.700  1.00  0.00    -0.216 C  
HETATM    9  C   UNL     1     -11.589  12.431  66.685  1.00  0.00    -0.447 C  
ENDROOT
BRANCH   8  10
HETATM   10  O   UNL     1     -10.439  10.275  66.917  1.00  0.00    -0.231 OA 
BRANCH  10  11
HETATM   11  C   UNL     1      -9.698   9.787  67.955  1.00  0.00    -0.144 C  
HETATM   12  C   UNL     1      -8.346   9.317  67.441  1.00  0.00    -0.122 C  
HETATM   13  O   UNL     1     -10.082   9.781  69.116  1.00  0.00    -0.173 OA 
HETATM   14  C   UNL     1      -8.419   7.842  67.038  1.00  0.00    -0.124 C  
HETATM   15  C   UNL     1      -7.229   9.585  68.441  1.00  0.00    -0.075 A  
HETATM   16  C   UNL     1      -6.246  10.548  68.159  1.00  0.00    -0.050 A  
HETATM   17  O   UNL     1      -9.321   7.626  65.954  1.00  0.00    -0.378 OA 
HETATM   18  H   UNL     1      -9.366   6.710  65.704  1.00  0.00     0.000 HD 
HETATM   19  C   UNL     1      -5.200  10.780  69.056  1.00  0.00    -0.041 A  
HETATM   20  C   UNL     1      -5.129  10.062  70.248  1.00  0.00    -0.038 A  
HETATM   21  C   UNL     1      -6.109   9.121  70.551  1.00  0.00    -0.043 A  
HETATM   22  C   UNL     1      -7.154   8.887  69.657  1.00  0.00    -0.054 A  
ENDBRANCH  10  11
ENDBRANCH   8  10
TORSDOF 2
ENDMDL
MODEL      124
REMARK 921   NORMALIZED FREE ENERGY PREDICTED BY IDOCK:   -4.00 KCAL/MOL
REMARK 922        TOTAL FREE ENERGY PREDICTED BY IDOCK:   -4.94 KCAL/MOL
REMARK 923 INTER-LIGAND FREE ENERGY PREDICTED BY IDOCK:   -4.30 KCAL/MOL
REMARK 924 INTRA-LIGAND FREE ENERGY PREDICTED BY IDOCK:   -0.64 KCAL/MOL
REMARK 927      BINDING AFFINITY PREDICTED BY RF-SCORE:    0.00 PKD
ROOT
HETATM    1  C   UNL     1      -8.874   2.879  70.478  1.00  0.00    -0.082 C  
HETATM    2  N   UNL     1      -7.554   3.475  70.329  1.00  0.00    -0.044 NA 
HETATM    3  C   UNL     1      -7.106   4.331  71.428  1.00  0.00    -0.042 C  
HETATM    4  C   UNL     1      -5.769   4.840  70.885  1.00  0.00    -0.016 C  
HETATM    5  C   UNL     1      -5.947   4.832  69.371  1.00  0.00    -0.018 C  
HETATM    6  C   UNL     1      -7.373   4.323  69.150  1.00  0.00    -0.055 C  
HETATM    7  C   UNL     1      -8.377   5.478  69.098  1.00  0.00    -0.098 C  
HETATM    8  C   UNL     1      -8.681   6.135  70.455  1.00  0.00    -0.142 C  
HETATM    9  C   UNL     1      -8.062   5.501  71.710  1.00  0.00    -0.118 C  
ENDROOT
BRANCH   8  10
HETATM   10  O   UNL     1      -8.306   7.520  70.335  1.00  0.00    -0.125 OA 
BRANCH  10  11
HETATM   11  C   UNL     1      -9.241   8.374  70.845  1.00  0.00    -0.160 C  
HETATM   12  C   UNL     1     -10.498   8.324  69.991  1.00  0.00    -0.231 C  
HETATM   13  O   UNL     1      -9.071   9.035  71.860  1.00  0.00    -0.365 OA 
HETATM   14  C   UNL     1     -10.419   9.367  68.874  1.00  0.00    -0.216 C  
HETATM   15  C   UNL     1     -11.764   8.472  70.826  1.00  0.00    -0.228 A  
HETATM   16  C   UNL     1     -12.638   7.383  70.980  1.00  0.00    -0.264 A  
HETATM   17  O   UNL     1      -9.348   9.104  67.969  1.00  0.00    -0.137 OA 
HETATM   18  H   UNL     1      -9.298   9.752  67.275  1.00  0.00     0.000 HD 
HETATM   19  C   UNL     1     -13.815   7.517  71.720  1.00  0.00    -0.438 A  
HETATM   20  C   UNL     1     -14.130   8.734  72.320  1.00  0.00    -0.511 A  
HETATM   21  C   UNL     1     -13.262   9.815  72.195  1.00  0.00    -0.530 A  
HETATM   22  C   UNL     1     -12.085   9.684  71.458  1.00  0.00    -0.482 A  
ENDBRANCH  10  11
ENDBRANCH   8  10
TORSDOF 2
ENDMDL
MODEL      125
REMARK 921   NORMALIZED FREE ENERGY PREDICTED BY IDOCK:   -4.00 KCAL/MOL
REMARK 922        TOTAL FREE ENERGY PREDICTED BY IDOCK:   -4.94 KCAL/MOL
REMARK 923 INTER-LIGAND FREE ENERGY PREDICTED BY IDOCK:   -4.24 KCAL/MOL
REMARK 924 INTRA-LIGAND FREE ENERGY PREDICTED BY IDOCK:   -0.70 KCAL/MOL
REMARK 927      BINDING AFFINITY PREDICTED BY RF-SCORE:    0.00 PKD
ROOT
HETATM    1  C   UNL     1     -12.827   9.902  71.417  1.00  0.00    -0.405 C  
HETATM    2  N   UNL     1     -12.242   8.728  72.048  1.00  0.00    -0.353 NA 
HETATM    3  C   UNL     1     -10.824   8.821  72.392  1.00  0.00    -0.155 C  
HETATM    4  C   UNL     1     -10.551   7.413  72.924  1.00  0.00    -0.370 C  
HETATM    5  C   UNL     1     -11.546   6.528  72.181  1.00  0.00    -0.349 C  
HETATM    6  C   UNL     1     -12.318   7.489  71.274  1.00  0.00    -0.327 C  
HETATM    7  C   UNL     1     -11.654   7.615  69.900  1.00  0.00     0.158 C  
HETATM    8  C   UNL     1     -10.351   8.434  69.880  1.00  0.00    -0.210 C  
HETATM    9  C   UNL     1      -9.928   9.131  71.182  1.00  0.00    -0.377 C  
ENDROOT
BRANCH   8  10
HETATM   10  O   UNL     1      -9.318   7.552  69.405  1.00  0.00    -0.153 OA 
BRANCH  10  11
HETATM   11  C   UNL     1      -8.320   8.206  68.740  1.00  0.00    -0.126 C  
HETATM   12  C   UNL     1      -8.925   9.200  67.761  1.00  0.00    -0.132 C  
HETATM   13  O   UNL     1      -7.131   8.020  68.954  1.00  0.00    -0.064 OA 
HETATM   14  C   UNL     1      -9.147   8.533  66.402  1.00  0.00    -0.184 C  
HETATM   15  C   UNL     1      -8.093  10.471  67.649  1.00  0.00    -0.107 A  
HETATM   16  C   UNL     1      -8.591  11.686  68.148  1.00  0.00    -0.158 A  
HETATM   17  O   UNL     1     -10.092   7.467  66.475  1.00  0.00    -0.407 OA 
HETATM   18  H   UNL     1     -10.229   7.053  65.630  1.00  0.00     0.000 HD 
HETATM   19  C   UNL     1      -7.848  12.863  68.024  1.00  0.00    -0.149 A  
HETATM   20  C   UNL     1      -6.598  12.840  67.409  1.00  0.00    -0.140 A  
HETATM   21  C   UNL     1      -6.082  11.638  66.931  1.00  0.00    -0.148 A  
HETATM   22  C   UNL     1      -6.821  10.462  67.054  1.00  0.00    -0.085 A  
ENDBRANCH  10  11
ENDBRANCH   8  10
TORSDOF 2
ENDMDL
MODEL      126
REMARK 921   NORMALIZED FREE ENERGY PREDICTED BY IDOCK:   -3.99 KCAL/MOL
REMARK 922        TOTAL FREE ENERGY PREDICTED BY IDOCK:   -4.93 KCAL/MOL
REMARK 923 INTER-LIGAND FREE ENERGY PREDICTED BY IDOCK:   -4.80 KCAL/MOL
REMARK 924 INTRA-LIGAND FREE ENERGY PREDICTED BY IDOCK:   -0.13 KCAL/MOL
REMARK 927      BINDING AFFINITY PREDICTED BY RF-SCORE:    0.00 PKD
ROOT
HETATM    1  C   UNL     1      -7.389  17.289  68.493  1.00  0.00    -0.235 C  
HETATM    2  N   UNL     1      -8.833  17.234  68.319  1.00  0.00    -0.250 NA 
HETATM    3  C   UNL     1      -9.526  16.154  69.022  1.00  0.00    -0.246 C  
HETATM    4  C   UNL     1     -10.963  16.353  68.534  1.00  0.00    -0.350 C  
HETATM    5  C   UNL     1     -10.811  16.975  67.150  1.00  0.00    -0.082 C  
HETATM    6  C   UNL     1      -9.300  17.088  66.939  1.00  0.00    -0.251 C  
HETATM    7  C   UNL     1      -8.735  15.837  66.260  1.00  0.00    -0.358 C  
HETATM    8  C   UNL     1      -8.649  14.592  67.158  1.00  0.00    -0.222 C  
HETATM    9  C   UNL     1      -9.009  14.757  68.643  1.00  0.00    -0.185 C  
ENDROOT
BRANCH   8  10
HETATM   10  O   UNL     1      -9.464  13.579  66.538  1.00  0.00    -0.268 OA 
BRANCH  10  11
HETATM   11  C   UNL     1      -9.038  12.311  66.807  1.00  0.00    -0.211 C  
HETATM   12  C   UNL     1      -9.900  11.311  66.054  1.00  0.00    -0.267 C  
HETATM   13  O   UNL     1      -8.078  12.058  67.522  1.00  0.00    -0.141 OA 
HETATM   14  C   UNL     1     -11.097  10.895  66.911  1.00  0.00    -0.167 C  
HETATM   15  C   UNL     1      -9.095  10.111  65.570  1.00  0.00    -0.216 A  
HETATM   16  C   UNL     1      -8.863   9.923  64.198  1.00  0.00    -0.251 A  
HETATM   17  O   UNL     1     -11.965  11.993  67.189  1.00  0.00    -0.601 OA 
HETATM   18  H   UNL     1     -12.708  11.735  67.722  1.00  0.00     0.000 HD 
HETATM   19  C   UNL     1      -8.151   8.810  63.743  1.00  0.00    -0.165 A  
HETATM   20  C   UNL     1      -7.657   7.877  64.651  1.00  0.00    -0.109 A  
HETATM   21  C   UNL     1      -7.860   8.062  66.016  1.00  0.00    -0.094 A  
HETATM   22  C   UNL     1      -8.569   9.172  66.473  1.00  0.00    -0.136 A  
ENDBRANCH  10  11
ENDBRANCH   8  10
TORSDOF 2
ENDMDL
MODEL      127
REMARK 921   NORMALIZED FREE ENERGY PREDICTED BY IDOCK:   -3.99 KCAL/MOL
REMARK 922        TOTAL FREE ENERGY PREDICTED BY IDOCK:   -4.93 KCAL/MOL
REMARK 923 INTER-LIGAND FREE ENERGY PREDICTED BY IDOCK:   -4.22 KCAL/MOL
REMARK 924 INTRA-LIGAND FREE ENERGY PREDICTED BY IDOCK:   -0.70 KCAL/MOL
REMARK 927      BINDING AFFINITY PREDICTED BY RF-SCORE:    0.00 PKD
ROOT
HETATM    1  C   UNL     1      -7.928  10.747  68.679  1.00  0.00    -0.133 C  
HETATM    2  N   UNL     1      -9.285  10.911  68.177  1.00  0.00    -0.153 NA 
HETATM    3  C   UNL     1     -10.359  10.715  69.150  1.00  0.00    -0.221 C  
HETATM    4  C   UNL     1     -11.597  10.863  68.263  1.00  0.00    -0.335 C  
HETATM    5  C   UNL     1     -11.133  10.405  66.885  1.00  0.00    -0.083 C  
HETATM    6  C   UNL     1      -9.664  10.023  67.077  1.00  0.00    -0.181 C  
HETATM    7  C   UNL     1      -9.514   8.543  67.440  1.00  0.00    -0.188 C  
HETATM    8  C   UNL     1      -9.933   8.180  68.875  1.00  0.00    -0.192 C  
HETATM    9  C   UNL     1     -10.327   9.329  69.815  1.00  0.00    -0.232 C  
ENDROOT
BRANCH   8  10
HETATM   10  O   UNL     1     -10.995   7.215  68.762  1.00  0.00    -0.156 OA 
BRANCH  10  11
HETATM   11  C   UNL     1     -11.170   6.477  69.898  1.00  0.00    -0.395 C  
HETATM   12  C   UNL     1      -9.884   5.739  70.231  1.00  0.00    -0.244 C  
HETATM   13  O   UNL     1     -12.209   6.469  70.544  1.00  0.00    -0.325 OA 
HETATM   14  C   UNL     1      -9.876   4.365  69.558  1.00  0.00    -0.188 C  
HETATM   15  C   UNL     1      -9.651   5.644  71.733  1.00  0.00    -0.184 A  
HETATM   16  C   UNL     1      -8.601   6.360  72.331  1.00  0.00    -0.120 A  
HETATM   17  O   UNL     1      -9.885   4.464  68.134  1.00  0.00    -0.139 OA 
HETATM   18  H   UNL     1      -9.880   3.611  67.716  1.00  0.00     0.000 HD 
HETATM   19  C   UNL     1      -8.361   6.256  73.704  1.00  0.00    -0.120 A  
HETATM   20  C   UNL     1      -9.170   5.445  74.496  1.00  0.00    -0.124 A  
HETATM   21  C   UNL     1     -10.229   4.748  73.921  1.00  0.00    -0.248 A  
HETATM   22  C   UNL     1     -10.472   4.850  72.551  1.00  0.00    -0.262 A  
ENDBRANCH  10  11
ENDBRANCH   8  10
TORSDOF 2
ENDMDL
MODEL      128
REMARK 921   NORMALIZED FREE ENERGY PREDICTED BY IDOCK:   -3.95 KCAL/MOL
REMARK 922        TOTAL FREE ENERGY PREDICTED BY IDOCK:   -4.88 KCAL/MOL
REMARK 923 INTER-LIGAND FREE ENERGY PREDICTED BY IDOCK:   -4.45 KCAL/MOL
REMARK 924 INTRA-LIGAND FREE ENERGY PREDICTED BY IDOCK:   -0.44 KCAL/MOL
REMARK 927      BINDING AFFINITY PREDICTED BY RF-SCORE:    0.00 PKD
ROOT
HETATM    1  C   UNL     1     -11.143  15.716  67.080  1.00  0.00    -0.200 C  
HETATM    2  N   UNL     1     -11.610  14.788  66.061  1.00  0.00    -0.326 NA 
HETATM    3  C   UNL     1     -12.262  13.572  66.547  1.00  0.00    -0.380 C  
HETATM    4  C   UNL     1     -12.514  12.823  65.237  1.00  0.00    -0.528 C  
HETATM    5  C   UNL     1     -11.398  13.293  64.310  1.00  0.00    -0.428 C  
HETATM    6  C   UNL     1     -10.582  14.275  65.153  1.00  0.00    -0.406 C  
HETATM    7  C   UNL     1      -9.446  13.566  65.894  1.00  0.00    -0.048 C  
HETATM    8  C   UNL     1      -9.888  12.705  67.090  1.00  0.00    -0.212 C  
HETATM    9  C   UNL     1     -11.371  12.744  67.487  1.00  0.00    -0.361 C  
ENDROOT
BRANCH   8  10
HETATM   10  O   UNL     1      -9.462  11.359  66.807  1.00  0.00    -0.176 OA 
BRANCH  10  11
HETATM   11  C   UNL     1      -8.699  10.819  67.802  1.00  0.00    -0.130 C  
HETATM   12  C   UNL     1      -8.914   9.315  67.852  1.00  0.00    -0.130 C  
HETATM   13  O   UNL     1      -7.939  11.474  68.501  1.00  0.00    -0.132 OA 
HETATM   14  C   UNL     1     -10.066   8.978  68.802  1.00  0.00    -0.199 C  
HETATM   15  C   UNL     1      -7.637   8.565  68.209  1.00  0.00    -0.097 A  
HETATM   16  C   UNL     1      -6.998   7.763  67.250  1.00  0.00    -0.078 A  
HETATM   17  O   UNL     1     -11.308   9.513  68.350  1.00  0.00    -0.496 OA 
HETATM   18  H   UNL     1     -12.024   9.305  68.940  1.00  0.00     0.000 HD 
HETATM   19  C   UNL     1      -5.842   7.048  67.577  1.00  0.00    -0.024 A  
HETATM   20  C   UNL     1      -5.307   7.133  68.860  1.00  0.00    -0.018 A  
HETATM   21  C   UNL     1      -5.917   7.943  69.814  1.00  0.00    -0.023 A  
HETATM   22  C   UNL     1      -7.070   8.658  69.491  1.00  0.00    -0.055 A  
ENDBRANCH  10  11
ENDBRANCH   8  10
TORSDOF 2
ENDMDL
MODEL      129
REMARK 921   NORMALIZED FREE ENERGY PREDICTED BY IDOCK:   -3.90 KCAL/MOL
REMARK 922        TOTAL FREE ENERGY PREDICTED BY IDOCK:   -4.82 KCAL/MOL
REMARK 923 INTER-LIGAND FREE ENERGY PREDICTED BY IDOCK:   -4.14 KCAL/MOL
REMARK 924 INTRA-LIGAND FREE ENERGY PREDICTED BY IDOCK:   -0.69 KCAL/MOL
REMARK 927      BINDING AFFINITY PREDICTED BY RF-SCORE:    0.00 PKD
ROOT
HETATM    1  C   UNL     1      -9.548   4.869  66.977  1.00  0.00    -0.159 C  
HETATM    2  N   UNL     1      -8.113   4.985  66.764  1.00  0.00    -0.107 NA 
HETATM    3  C   UNL     1      -7.442   6.074  67.474  1.00  0.00    -0.082 C  
HETATM    4  C   UNL     1      -6.014   5.944  66.941  1.00  0.00    -0.018 C  
HETATM    5  C   UNL     1      -6.181   5.349  65.547  1.00  0.00    -0.034 C  
HETATM    6  C   UNL     1      -7.693   5.182  65.376  1.00  0.00    -0.087 C  
HETATM    7  C   UNL     1      -8.324   6.425  64.744  1.00  0.00    -0.035 C  
HETATM    8  C   UNL     1      -8.433   7.645  65.675  1.00  0.00    -0.142 C  
HETATM    9  C   UNL     1      -8.024   7.458  67.144  1.00  0.00    -0.114 C  
ENDROOT
BRANCH   8  10
HETATM   10  O   UNL     1      -7.676   8.703  65.057  1.00  0.00    -0.094 OA 
BRANCH  10  11
HETATM   11  C   UNL     1      -8.079   9.947  65.450  1.00  0.00    -0.137 C  
HETATM   12  C   UNL     1      -9.594  10.042  65.375  1.00  0.00    -0.342 C  
HETATM   13  O   UNL     1      -7.309  10.816  65.834  1.00  0.00    -0.146 OA 
HETATM   14  C   UNL     1     -10.024  10.537  63.992  1.00  0.00    -0.297 C  
HETATM   15  C   UNL     1     -10.171  10.896  66.497  1.00  0.00    -0.282 A  
HETATM   16  C   UNL     1     -10.932  10.301  67.517  1.00  0.00    -0.344 A  
HETATM   17  O   UNL     1      -9.660   9.625  62.958  1.00  0.00    -0.541 OA 
HETATM   18  H   UNL     1      -9.927   9.933  62.099  1.00  0.00     0.000 HD 
HETATM   19  C   UNL     1     -11.489  11.081  68.533  1.00  0.00    -0.379 A  
HETATM   20  C   UNL     1     -11.287  12.459  68.550  1.00  0.00    -0.336 A  
HETATM   21  C   UNL     1     -10.515  13.058  67.558  1.00  0.00    -0.229 A  
HETATM   22  C   UNL     1      -9.957  12.283  66.542  1.00  0.00    -0.234 A  
ENDBRANCH  10  11
ENDBRANCH   8  10
TORSDOF 2
ENDMDL
MODEL      130
REMARK 921   NORMALIZED FREE ENERGY PREDICTED BY IDOCK:   -3.86 KCAL/MOL
REMARK 922        TOTAL FREE ENERGY PREDICTED BY IDOCK:   -4.78 KCAL/MOL
REMARK 923 INTER-LIGAND FREE ENERGY PREDICTED BY IDOCK:   -4.07 KCAL/MOL
REMARK 924 INTRA-LIGAND FREE ENERGY PREDICTED BY IDOCK:   -0.71 KCAL/MOL
REMARK 927      BINDING AFFINITY PREDICTED BY RF-SCORE:    0.00 PKD
ROOT
HETATM    1  C   UNL     1      -8.050   6.952  63.788  1.00  0.00     0.007 C  
HETATM    2  N   UNL     1      -7.266   8.163  63.595  1.00  0.00    -0.085 NA 
HETATM    3  C   UNL     1      -6.509   8.633  64.755  1.00  0.00    -0.065 C  
HETATM    4  C   UNL     1      -5.913   9.935  64.217  1.00  0.00    -0.119 C  
HETATM    5  C   UNL     1      -6.918  10.409  63.172  1.00  0.00    -0.065 C  
HETATM    6  C   UNL     1      -8.021   9.348  63.186  1.00  0.00    -0.143 C  
HETATM    7  C   UNL     1      -9.130   9.707  64.179  1.00  0.00    -0.256 C  
HETATM    8  C   UNL     1      -8.758   9.528  65.661  1.00  0.00    -0.149 C  
HETATM    9  C   UNL     1      -7.393   8.903  65.983  1.00  0.00    -0.090 C  
ENDROOT
BRANCH   8  10
HETATM   10  O   UNL     1      -8.894  10.822  66.278  1.00  0.00    -0.161 OA 
BRANCH  10  11
HETATM   11  C   UNL     1      -9.135  10.751  67.620  1.00  0.00    -0.147 C  
HETATM   12  C   UNL     1     -10.431   9.997  67.869  1.00  0.00    -0.276 C  
HETATM   13  O   UNL     1      -8.377  11.205  68.467  1.00  0.00    -0.141 OA 
HETATM   14  C   UNL     1     -11.611  10.971  67.893  1.00  0.00    -0.226 C  
HETATM   15  C   UNL     1     -10.365   9.144  69.129  1.00  0.00    -0.223 A  
HETATM   16  C   UNL     1     -10.356   7.742  69.032  1.00  0.00    -0.219 A  
HETATM   17  O   UNL     1     -11.798  11.620  66.636  1.00  0.00    -0.533 OA 
HETATM   18  H   UNL     1     -12.530  12.225  66.651  1.00  0.00     0.000 HD 
HETATM   19  C   UNL     1     -10.325   6.951  70.183  1.00  0.00    -0.218 A  
HETATM   20  C   UNL     1     -10.293   7.547  71.441  1.00  0.00    -0.209 A  
HETATM   21  C   UNL     1     -10.278   8.935  71.551  1.00  0.00    -0.398 A  
HETATM   22  C   UNL     1     -10.309   9.728  70.404  1.00  0.00    -0.354 A  
ENDBRANCH  10  11
ENDBRANCH   8  10
TORSDOF 2
ENDMDL
MODEL      131
REMARK 921   NORMALIZED FREE ENERGY PREDICTED BY IDOCK:   -3.85 KCAL/MOL
REMARK 922        TOTAL FREE ENERGY PREDICTED BY IDOCK:   -4.77 KCAL/MOL
REMARK 923 INTER-LIGAND FREE ENERGY PREDICTED BY IDOCK:   -4.11 KCAL/MOL
REMARK 924 INTRA-LIGAND FREE ENERGY PREDICTED BY IDOCK:   -0.66 KCAL/MOL
REMARK 927      BINDING AFFINITY PREDICTED BY RF-SCORE:    0.00 PKD
ROOT
HETATM    1  C   UNL     1     -11.003   7.292  72.764  1.00  0.00    -0.323 C  
HETATM    2  N   UNL     1     -10.152   6.112  72.792  1.00  0.00    -0.177 NA 
HETATM    3  C   UNL     1      -8.767   6.305  72.364  1.00  0.00    -0.121 C  
HETATM    4  C   UNL     1      -8.230   4.874  72.429  1.00  0.00    -0.119 C  
HETATM    5  C   UNL     1      -9.451   3.999  72.168  1.00  0.00    -0.192 C  
HETATM    6  C   UNL     1     -10.602   4.988  71.969  1.00  0.00    -0.174 C  
HETATM    7  C   UNL     1     -10.763   5.369  70.495  1.00  0.00    -0.266 C  
HETATM    8  C   UNL     1      -9.681   6.315  69.946  1.00  0.00    -0.166 C  
HETATM    9  C   UNL     1      -8.648   6.869  70.939  1.00  0.00    -0.136 C  
ENDROOT
BRANCH   8  10
HETATM   10  O   UNL     1      -9.037   5.618  68.863  1.00  0.00    -0.114 OA 
BRANCH  10  11
HETATM   11  C   UNL     1      -8.776   6.422  67.790  1.00  0.00    -0.114 C  
HETATM   12  C   UNL     1     -10.084   6.885  67.169  1.00  0.00    -0.272 C  
HETATM   13  O   UNL     1      -7.647   6.733  67.437  1.00  0.00    -0.100 OA 
HETATM   14  C   UNL     1     -10.533   5.897  66.089  1.00  0.00     0.098 C  
HETATM   15  C   UNL     1      -9.995   8.311  66.642  1.00  0.00    -0.348 A  
HETATM   16  C   UNL     1     -10.711   9.343  67.272  1.00  0.00    -0.258 A  
HETATM   17  O   UNL     1     -10.817   4.607  66.626  1.00  0.00    -0.322 OA 
HETATM   18  H   UNL     1     -11.095   3.993  65.956  1.00  0.00     0.000 HD 
HETATM   19  C   UNL     1     -10.658  10.648  66.778  1.00  0.00    -0.297 A  
HETATM   20  C   UNL     1      -9.886  10.942  65.657  1.00  0.00    -0.292 A  
HETATM   21  C   UNL     1      -9.153   9.934  65.036  1.00  0.00    -0.264 A  
HETATM   22  C   UNL     1      -9.203   8.630  65.527  1.00  0.00    -0.158 A  
ENDBRANCH  10  11
ENDBRANCH   8  10
TORSDOF 2
ENDMDL
MODEL      132
REMARK 921   NORMALIZED FREE ENERGY PREDICTED BY IDOCK:   -3.85 KCAL/MOL
REMARK 922        TOTAL FREE ENERGY PREDICTED BY IDOCK:   -4.77 KCAL/MOL
REMARK 923 INTER-LIGAND FREE ENERGY PREDICTED BY IDOCK:   -4.64 KCAL/MOL
REMARK 924 INTRA-LIGAND FREE ENERGY PREDICTED BY IDOCK:   -0.13 KCAL/MOL
REMARK 927      BINDING AFFINITY PREDICTED BY RF-SCORE:    0.00 PKD
ROOT
HETATM    1  C   UNL     1      -9.018  12.586  67.965  1.00  0.00    -0.192 C  
HETATM    2  N   UNL     1     -10.072  11.973  68.759  1.00  0.00    -0.153 NA 
HETATM    3  C   UNL     1      -9.744  10.694  69.389  1.00  0.00    -0.116 C  
HETATM    4  C   UNL     1     -11.082  10.323  70.030  1.00  0.00    -0.373 C  
HETATM    5  C   UNL     1     -12.127  10.983  69.137  1.00  0.00    -0.333 C  
HETATM    6  C   UNL     1     -11.316  11.684  68.044  1.00  0.00    -0.296 C  
HETATM    7  C   UNL     1     -11.098  10.769  66.837  1.00  0.00    -0.204 C  
HETATM    8  C   UNL     1     -10.077   9.638  67.053  1.00  0.00    -0.214 C  
HETATM    9  C   UNL     1      -9.305   9.620  68.381  1.00  0.00    -0.136 C  
ENDROOT
BRANCH   8  10
HETATM   10  O   UNL     1     -10.783   8.401  66.847  1.00  0.00    -0.279 OA 
BRANCH  10  11
HETATM   11  C   UNL     1      -9.951   7.325  66.723  1.00  0.00    -0.217 C  
HETATM   12  C   UNL     1     -10.745   6.041  66.907  1.00  0.00    -0.407 C  
HETATM   13  O   UNL     1      -8.759   7.419  66.464  1.00  0.00    -0.127 OA 
HETATM   14  C   UNL     1     -10.754   5.634  68.382  1.00  0.00    -0.156 C  
HETATM   15  C   UNL     1     -10.240   4.922  66.005  1.00  0.00    -0.287 A  
HETATM   16  C   UNL     1     -11.032   4.463  64.939  1.00  0.00    -0.040 A  
HETATM   17  O   UNL     1     -11.416   6.597  69.200  1.00  0.00    -0.577 OA 
HETATM   18  H   UNL     1     -11.422   6.344  70.116  1.00  0.00     0.000 HD 
HETATM   19  C   UNL     1     -10.590   3.418  64.125  1.00  0.00    -0.161 A  
HETATM   20  C   UNL     1      -9.352   2.824  64.358  1.00  0.00    -0.134 A  
HETATM   21  C   UNL     1      -8.546   3.284  65.396  1.00  0.00    -0.112 A  
HETATM   22  C   UNL     1      -8.984   4.328  66.211  1.00  0.00    -0.120 A  
ENDBRANCH  10  11
ENDBRANCH   8  10
TORSDOF 2
ENDMDL
MODEL      133
REMARK 921   NORMALIZED FREE ENERGY PREDICTED BY IDOCK:   -3.84 KCAL/MOL
REMARK 922        TOTAL FREE ENERGY PREDICTED BY IDOCK:   -4.76 KCAL/MOL
REMARK 923 INTER-LIGAND FREE ENERGY PREDICTED BY IDOCK:   -4.04 KCAL/MOL
REMARK 924 INTRA-LIGAND FREE ENERGY PREDICTED BY IDOCK:   -0.72 KCAL/MOL
REMARK 927      BINDING AFFINITY PREDICTED BY RF-SCORE:    0.00 PKD
ROOT
HETATM    1  C   UNL     1      -7.206   8.078  63.643  1.00  0.00    -0.093 C  
HETATM    2  N   UNL     1      -7.304   7.395  64.925  1.00  0.00    -0.075 NA 
HETATM    3  C   UNL     1      -8.628   7.373  65.544  1.00  0.00    -0.077 C  
HETATM    4  C   UNL     1      -8.326   6.682  66.875  1.00  0.00    -0.114 C  
HETATM    5  C   UNL     1      -6.874   7.043  67.168  1.00  0.00    -0.065 C  
HETATM    6  C   UNL     1      -6.445   7.918  65.988  1.00  0.00    -0.046 C  
HETATM    7  C   UNL     1      -6.701   9.401  66.271  1.00  0.00    -0.075 C  
HETATM    8  C   UNL     1      -8.178   9.827  66.220  1.00  0.00    -0.116 C  
HETATM    9  C   UNL     1      -9.209   8.778  65.778  1.00  0.00    -0.269 C  
ENDROOT
BRANCH   8  10
HETATM   10  O   UNL     1      -8.499  10.352  67.522  1.00  0.00    -0.115 OA 
BRANCH  10  11
HETATM   11  C   UNL     1      -9.557  11.216  67.504  1.00  0.00    -0.168 C  
HETATM   12  C   UNL     1      -9.297  12.321  66.493  1.00  0.00    -0.230 C  
HETATM   13  O   UNL     1     -10.562  11.067  68.185  1.00  0.00    -0.173 OA 
HETATM   14  C   UNL     1      -8.584  13.495  67.167  1.00  0.00    -0.195 C  
HETATM   15  C   UNL     1     -10.571  12.756  65.780  1.00  0.00    -0.295 A  
HETATM   16  C   UNL     1     -10.748  12.473  64.415  1.00  0.00    -0.379 A  
HETATM   17  O   UNL     1      -7.293  13.131  67.655  1.00  0.00    -0.126 OA 
HETATM   18  H   UNL     1      -6.850  13.860  68.073  1.00  0.00     0.000 HD 
HETATM   19  C   UNL     1     -11.900  12.893  63.746  1.00  0.00    -0.571 A  
HETATM   20  C   UNL     1     -12.892  13.592  64.431  1.00  0.00     0.033 A  
HETATM   21  C   UNL     1     -12.740  13.859  65.789  1.00  0.00    -0.503 A  
HETATM   22  C   UNL     1     -11.592  13.440  66.460  1.00  0.00    -0.394 A  
ENDBRANCH  10  11
ENDBRANCH   8  10
TORSDOF 2
ENDMDL
MODEL      134
REMARK 921   NORMALIZED FREE ENERGY PREDICTED BY IDOCK:   -3.78 KCAL/MOL
REMARK 922        TOTAL FREE ENERGY PREDICTED BY IDOCK:   -4.70 KCAL/MOL
REMARK 923 INTER-LIGAND FREE ENERGY PREDICTED BY IDOCK:   -4.33 KCAL/MOL
REMARK 924 INTRA-LIGAND FREE ENERGY PREDICTED BY IDOCK:   -0.37 KCAL/MOL
REMARK 927      BINDING AFFINITY PREDICTED BY RF-SCORE:    0.00 PKD
ROOT
HETATM    1  C   UNL     1      -9.836  12.359  66.052  1.00  0.00    -0.257 C  
HETATM    2  N   UNL     1      -9.142  11.217  65.477  1.00  0.00    -0.208 NA 
HETATM    3  C   UNL     1      -9.920   9.984  65.358  1.00  0.00    -0.294 C  
HETATM    4  C   UNL     1      -8.864   9.013  64.826  1.00  0.00    -0.165 C  
HETATM    5  C   UNL     1      -7.546   9.548  65.375  1.00  0.00    -0.106 C  
HETATM    6  C   UNL     1      -7.937  10.785  66.186  1.00  0.00    -0.157 C  
HETATM    7  C   UNL     1      -8.215  10.429  67.649  1.00  0.00    -0.110 C  
HETATM    8  C   UNL     1      -9.539   9.686  67.898  1.00  0.00    -0.139 C  
HETATM    9  C   UNL     1     -10.484   9.494  66.702  1.00  0.00    -0.241 C  
ENDROOT
BRANCH   8  10
HETATM   10  O   UNL     1      -9.195   8.422  68.495  1.00  0.00    -0.136 OA 
BRANCH  10  11
HETATM   11  C   UNL     1      -9.915   8.149  69.622  1.00  0.00    -0.193 C  
HETATM   12  C   UNL     1     -10.174   6.654  69.715  1.00  0.00    -0.214 C  
HETATM   13  O   UNL     1     -10.250   9.002  70.433  1.00  0.00    -0.187 OA 
HETATM   14  C   UNL     1     -11.486   6.301  69.011  1.00  0.00    -0.083 C  
HETATM   15  C   UNL     1     -10.142   6.155  71.154  1.00  0.00    -0.231 A  
HETATM   16  C   UNL     1      -9.100   5.319  71.588  1.00  0.00    -0.156 A  
HETATM   17  O   UNL     1     -11.437   6.581  67.612  1.00  0.00    -0.694 OA 
HETATM   18  H   UNL     1     -12.252   6.362  67.175  1.00  0.00     0.000 HD 
HETATM   19  C   UNL     1      -9.079   4.833  72.898  1.00  0.00    -0.127 A  
HETATM   20  C   UNL     1     -10.089   5.182  73.791  1.00  0.00    -0.223 A  
HETATM   21  C   UNL     1     -11.115   6.029  73.381  1.00  0.00    -0.116 A  
HETATM   22  C   UNL     1     -11.140   6.516  72.074  1.00  0.00    -0.296 A  
ENDBRANCH  10  11
ENDBRANCH   8  10
TORSDOF 2
ENDMDL
MODEL      135
REMARK 921   NORMALIZED FREE ENERGY PREDICTED BY IDOCK:   -3.78 KCAL/MOL
REMARK 922        TOTAL FREE ENERGY PREDICTED BY IDOCK:   -4.69 KCAL/MOL
REMARK 923 INTER-LIGAND FREE ENERGY PREDICTED BY IDOCK:   -4.26 KCAL/MOL
REMARK 924 INTRA-LIGAND FREE ENERGY PREDICTED BY IDOCK:   -0.43 KCAL/MOL
REMARK 927      BINDING AFFINITY PREDICTED BY RF-SCORE:    0.00 PKD
ROOT
HETATM    1  C   UNL     1      -7.863   4.203  67.004  1.00  0.00    -0.096 C  
HETATM    2  N   UNL     1      -6.768   4.956  66.411  1.00  0.00    -0.049 NA 
HETATM    3  C   UNL     1      -6.431   6.223  67.060  1.00  0.00    -0.050 C  
HETATM    4  C   UNL     1      -5.341   6.757  66.128  1.00  0.00    -0.018 C  
HETATM    5  C   UNL     1      -5.684   6.164  64.765  1.00  0.00    -0.022 C  
HETATM    6  C   UNL     1      -6.947   5.336  65.009  1.00  0.00    -0.057 C  
HETATM    7  C   UNL     1      -8.213   6.167  64.785  1.00  0.00    -0.112 C  
HETATM    8  C   UNL     1      -8.518   7.197  65.886  1.00  0.00    -0.147 C  
HETATM    9  C   UNL     1      -7.616   7.200  67.129  1.00  0.00    -0.103 C  
ENDROOT
BRANCH   8  10
HETATM   10  O   UNL     1      -8.527   8.489  65.249  1.00  0.00    -0.160 OA 
BRANCH  10  11
HETATM   11  C   UNL     1      -9.397   9.366  65.832  1.00  0.00    -0.230 C  
HETATM   12  C   UNL     1      -8.997  10.790  65.483  1.00  0.00    -0.210 C  
HETATM   13  O   UNL     1     -10.364   9.018  66.496  1.00  0.00    -0.264 OA 
HETATM   14  C   UNL     1      -8.027  11.337  66.533  1.00  0.00    -0.145 C  
HETATM   15  C   UNL     1     -10.208  11.695  65.293  1.00  0.00    -0.316 A  
HETATM   16  C   UNL     1     -10.526  12.189  64.017  1.00  0.00    -0.418 A  
HETATM   17  O   UNL     1      -6.801  10.608  66.563  1.00  0.00    -0.107 OA 
HETATM   18  H   UNL     1      -6.199  10.947  67.215  1.00  0.00     0.000 HD 
HETATM   19  C   UNL     1     -11.618  13.042  63.838  1.00  0.00    -0.508 A  
HETATM   20  C   UNL     1     -12.408  13.406  64.926  1.00  0.00    -0.457 A  
HETATM   21  C   UNL     1     -12.117  12.905  66.192  1.00  0.00    -0.458 A  
HETATM   22  C   UNL     1     -11.029  12.052  66.375  1.00  0.00    -0.337 A  
ENDBRANCH  10  11
ENDBRANCH   8  10
TORSDOF 2
ENDMDL
MODEL      136
REMARK 921   NORMALIZED FREE ENERGY PREDICTED BY IDOCK:   -3.77 KCAL/MOL
REMARK 922        TOTAL FREE ENERGY PREDICTED BY IDOCK:   -4.68 KCAL/MOL
REMARK 923 INTER-LIGAND FREE ENERGY PREDICTED BY IDOCK:   -4.24 KCAL/MOL
REMARK 924 INTRA-LIGAND FREE ENERGY PREDICTED BY IDOCK:   -0.45 KCAL/MOL
REMARK 927      BINDING AFFINITY PREDICTED BY RF-SCORE:    0.00 PKD
ROOT
HETATM    1  C   UNL     1      -9.101   4.379  65.075  1.00  0.00    -0.150 C  
HETATM    2  N   UNL     1      -9.064   4.435  66.529  1.00  0.00    -0.117 NA 
HETATM    3  C   UNL     1     -10.192   5.103  67.177  1.00  0.00    -0.208 C  
HETATM    4  C   UNL     1      -9.766   5.056  68.645  1.00  0.00    -0.221 C  
HETATM    5  C   UNL     1      -8.242   5.058  68.597  1.00  0.00    -0.085 C  
HETATM    6  C   UNL     1      -7.900   5.109  67.107  1.00  0.00    -0.096 C  
HETATM    7  C   UNL     1      -7.755   6.551  66.615  1.00  0.00    -0.099 C  
HETATM    8  C   UNL     1      -9.077   7.326  66.473  1.00  0.00    -0.155 C  
HETATM    9  C   UNL     1     -10.384   6.555  66.709  1.00  0.00    -0.279 C  
ENDROOT
BRANCH   8  10
HETATM   10  O   UNL     1      -8.982   8.466  67.348  1.00  0.00    -0.132 OA 
BRANCH  10  11
HETATM   11  C   UNL     1      -9.543   9.593  66.821  1.00  0.00    -0.173 C  
HETATM   12  C   UNL     1      -9.820  10.594  67.931  1.00  0.00    -0.181 C  
HETATM   13  O   UNL     1      -9.740   9.753  65.624  1.00  0.00    -0.251 OA 
HETATM   14  C   UNL     1     -11.226  10.379  68.495  1.00  0.00    -0.251 C  
HETATM   15  C   UNL     1      -9.597  12.031  67.476  1.00  0.00    -0.177 A  
HETATM   16  C   UNL     1      -8.524  12.776  67.991  1.00  0.00    -0.177 A  
HETATM   17  O   UNL     1     -11.367   9.099  69.109  1.00  0.00    -0.435 OA 
HETATM   18  H   UNL     1     -12.241   8.965  69.460  1.00  0.00     0.000 HD 
HETATM   19  C   UNL     1      -8.330  14.104  67.602  1.00  0.00    -0.187 A  
HETATM   20  C   UNL     1      -9.196  14.700  66.688  1.00  0.00    -0.291 A  
HETATM   21  C   UNL     1     -10.250  13.965  66.151  1.00  0.00    -0.307 A  
HETATM   22  C   UNL     1     -10.447  12.640  66.538  1.00  0.00    -0.264 A  
ENDBRANCH  10  11
ENDBRANCH   8  10
TORSDOF 2
ENDMDL
MODEL      137
REMARK 921   NORMALIZED FREE ENERGY PREDICTED BY IDOCK:   -3.74 KCAL/MOL
REMARK 922        TOTAL FREE ENERGY PREDICTED BY IDOCK:   -4.65 KCAL/MOL
REMARK 923 INTER-LIGAND FREE ENERGY PREDICTED BY IDOCK:   -4.20 KCAL/MOL
REMARK 924 INTRA-LIGAND FREE ENERGY PREDICTED BY IDOCK:   -0.45 KCAL/MOL
REMARK 927      BINDING AFFINITY PREDICTED BY RF-SCORE:    0.00 PKD
ROOT
HETATM    1  C   UNL     1      -9.985   7.274  73.159  1.00  0.00    -0.249 C  
HETATM    2  N   UNL     1     -11.369   7.336  72.713  1.00  0.00    -0.295 NA 
HETATM    3  C   UNL     1     -11.664   6.687  71.436  1.00  0.00    -0.324 C  
HETATM    4  C   UNL     1     -13.143   7.036  71.256  1.00  0.00    -0.329 C  
HETATM    5  C   UNL     1     -13.312   8.361  71.992  1.00  0.00    -0.367 C  
HETATM    6  C   UNL     1     -11.919   8.681  72.540  1.00  0.00    -0.288 C  
HETATM    7  C   UNL     1     -11.109   9.522  71.549  1.00  0.00    -0.406 C  
HETATM    8  C   UNL     1     -10.593   8.757  70.318  1.00  0.00    -0.216 C  
HETATM    9  C   UNL     1     -10.827   7.240  70.271  1.00  0.00    -0.264 C  
ENDROOT
BRANCH   8  10
HETATM   10  O   UNL     1     -11.160   9.405  69.164  1.00  0.00    -0.146 OA 
BRANCH  10  11
HETATM   11  C   UNL     1     -10.219   9.969  68.350  1.00  0.00    -0.172 C  
HETATM   12  C   UNL     1      -9.419  10.998  69.131  1.00  0.00    -0.064 C  
HETATM   13  O   UNL     1     -10.051   9.640  67.184  1.00  0.00    -0.191 OA 
HETATM   14  C   UNL     1     -10.077  12.375  69.018  1.00  0.00     0.158 C  
HETATM   15  C   UNL     1      -7.955  11.025  68.710  1.00  0.00    -0.144 A  
HETATM   16  C   UNL     1      -6.958  10.573  69.590  1.00  0.00    -0.135 A  
HETATM   17  O   UNL     1     -11.378  12.397  69.605  1.00  0.00    -0.431 OA 
HETATM   18  H   UNL     1     -11.787  13.252  69.534  1.00  0.00     0.000 HD 
HETATM   19  C   UNL     1      -5.611  10.622  69.223  1.00  0.00    -0.037 A  
HETATM   20  C   UNL     1      -5.243  11.112  67.973  1.00  0.00    -0.043 A  
HETATM   21  C   UNL     1      -6.222  11.541  67.081  1.00  0.00    -0.121 A  
HETATM   22  C   UNL     1      -7.568  11.494  67.443  1.00  0.00    -0.135 A  
ENDBRANCH  10  11
ENDBRANCH   8  10
TORSDOF 2
ENDMDL
MODEL      138
REMARK 921   NORMALIZED FREE ENERGY PREDICTED BY IDOCK:   -3.74 KCAL/MOL
REMARK 922        TOTAL FREE ENERGY PREDICTED BY IDOCK:   -4.65 KCAL/MOL
REMARK 923 INTER-LIGAND FREE ENERGY PREDICTED BY IDOCK:   -4.20 KCAL/MOL
REMARK 924 INTRA-LIGAND FREE ENERGY PREDICTED BY IDOCK:   -0.44 KCAL/MOL
REMARK 927      BINDING AFFINITY PREDICTED BY RF-SCORE:    0.00 PKD
ROOT
HETATM    1  C   UNL     1     -10.598   4.666  73.491  1.00  0.00    -0.240 C  
HETATM    2  N   UNL     1      -9.558   4.465  72.493  1.00  0.00    -0.139 NA 
HETATM    3  C   UNL     1      -8.520   5.493  72.427  1.00  0.00    -0.118 C  
HETATM    4  C   UNL     1      -7.692   5.008  71.236  1.00  0.00    -0.092 C  
HETATM    5  C   UNL     1      -8.691   4.259  70.360  1.00  0.00    -0.118 C  
HETATM    6  C   UNL     1     -10.022   4.369  71.107  1.00  0.00    -0.173 C  
HETATM    7  C   UNL     1     -10.810   5.606  70.667  1.00  0.00    -0.304 C  
HETATM    8  C   UNL     1     -10.258   6.946  71.182  1.00  0.00    -0.195 C  
HETATM    9  C   UNL     1      -9.080   6.901  72.166  1.00  0.00    -0.139 C  
ENDROOT
BRANCH   8  10
HETATM   10  O   UNL     1      -9.934   7.732  70.021  1.00  0.00    -0.184 OA 
BRANCH  10  11
HETATM   11  C   UNL     1     -10.293   9.044  70.144  1.00  0.00    -0.210 C  
HETATM   12  C   UNL     1      -9.583   9.871  69.085  1.00  0.00    -0.204 C  
HETATM   13  O   UNL     1     -11.099   9.448  70.971  1.00  0.00    -0.284 OA 
HETATM   14  C   UNL     1      -8.242  10.377  69.622  1.00  0.00    -0.084 C  
HETATM   15  C   UNL     1     -10.457  11.004  68.562  1.00  0.00    -0.210 A  
HETATM   16  C   UNL     1     -10.943  10.969  67.245  1.00  0.00    -0.356 A  
HETATM   17  O   UNL     1      -7.345   9.308  69.918  1.00  0.00    -0.059 OA 
HETATM   18  H   UNL     1      -6.513   9.622  70.252  1.00  0.00     0.000 HD 
HETATM   19  C   UNL     1     -11.721  12.018  66.747  1.00  0.00    -0.339 A  
HETATM   20  C   UNL     1     -12.029  13.107  67.559  1.00  0.00    -0.367 A  
HETATM   21  C   UNL     1     -11.573  13.144  68.874  1.00  0.00    -0.354 A  
HETATM   22  C   UNL     1     -10.797  12.098  69.374  1.00  0.00    -0.032 A  
ENDBRANCH  10  11
ENDBRANCH   8  10
TORSDOF 2
ENDMDL
MODEL      139
REMARK 921   NORMALIZED FREE ENERGY PREDICTED BY IDOCK:   -3.73 KCAL/MOL
REMARK 922        TOTAL FREE ENERGY PREDICTED BY IDOCK:   -4.64 KCAL/MOL
REMARK 923 INTER-LIGAND FREE ENERGY PREDICTED BY IDOCK:   -3.91 KCAL/MOL
REMARK 924 INTRA-LIGAND FREE ENERGY PREDICTED BY IDOCK:   -0.73 KCAL/MOL
REMARK 927      BINDING AFFINITY PREDICTED BY RF-SCORE:    0.00 PKD
ROOT
HETATM    1  C   UNL     1     -11.402  11.643  67.228  1.00  0.00    -0.305 C  
HETATM    2  N   UNL     1     -10.467  11.097  66.255  1.00  0.00    -0.253 NA 
HETATM    3  C   UNL     1     -10.374   9.639  66.198  1.00  0.00    -0.132 C  
HETATM    4  C   UNL     1      -9.258   9.449  65.169  1.00  0.00    -0.287 C  
HETATM    5  C   UNL     1      -8.395  10.699  65.311  1.00  0.00    -0.127 C  
HETATM    6  C   UNL     1      -9.073  11.516  66.412  1.00  0.00    -0.200 C  
HETATM    7  C   UNL     1      -8.510  11.169  67.793  1.00  0.00    -0.124 C  
HETATM    8  C   UNL     1      -8.952   9.805  68.351  1.00  0.00    -0.123 C  
HETATM    9  C   UNL     1      -9.988   9.006  67.545  1.00  0.00    -0.262 C  
ENDROOT
BRANCH   8  10
HETATM   10  O   UNL     1      -7.752   9.037  68.558  1.00  0.00    -0.095 OA 
BRANCH  10  11
HETATM   11  C   UNL     1      -7.848   8.167  69.606  1.00  0.00    -0.103 C  
HETATM   12  C   UNL     1      -8.236   8.925  70.865  1.00  0.00    -0.207 C  
HETATM   13  O   UNL     1      -7.678   6.960  69.500  1.00  0.00    -0.099 OA 
HETATM   14  C   UNL     1      -6.982   9.394  71.606  1.00  0.00     0.267 C  
HETATM   15  C   UNL     1      -9.162   8.111  71.761  1.00  0.00    -0.232 A  
HETATM   16  C   UNL     1     -10.502   8.496  71.926  1.00  0.00    -0.387 A  
HETATM   17  O   UNL     1      -6.221  10.324  70.837  1.00  0.00    -0.245 OA 
HETATM   18  H   UNL     1      -5.442  10.616  71.297  1.00  0.00     0.000 HD 
HETATM   19  C   UNL     1     -11.350   7.773  72.769  1.00  0.00    -0.446 A  
HETATM   20  C   UNL     1     -10.875   6.654  73.448  1.00  0.00    -0.264 A  
HETATM   21  C   UNL     1      -9.554   6.247  73.275  1.00  0.00    -0.153 A  
HETATM   22  C   UNL     1      -8.705   6.966  72.435  1.00  0.00    -0.134 A  
ENDBRANCH  10  11
ENDBRANCH   8  10
TORSDOF 2
ENDMDL
MODEL      140
REMARK 921   NORMALIZED FREE ENERGY PREDICTED BY IDOCK:   -3.67 KCAL/MOL
REMARK 922        TOTAL FREE ENERGY PREDICTED BY IDOCK:   -4.58 KCAL/MOL
REMARK 923 INTER-LIGAND FREE ENERGY PREDICTED BY IDOCK:   -4.08 KCAL/MOL
REMARK 924 INTRA-LIGAND FREE ENERGY PREDICTED BY IDOCK:   -0.50 KCAL/MOL
REMARK 927      BINDING AFFINITY PREDICTED BY RF-SCORE:    0.00 PKD
ROOT
HETATM    1  C   UNL     1      -9.642  12.505  66.621  1.00  0.00    -0.239 C  
HETATM    2  N   UNL     1      -8.992  11.696  65.602  1.00  0.00    -0.086 NA 
HETATM    3  C   UNL     1      -9.813  10.655  64.983  1.00  0.00    -0.293 C  
HETATM    4  C   UNL     1      -8.794   9.972  64.069  1.00  0.00    -0.246 C  
HETATM    5  C   UNL     1      -7.456  10.181  64.770  1.00  0.00    -0.136 C  
HETATM    6  C   UNL     1      -7.800  10.966  66.038  1.00  0.00    -0.121 C  
HETATM    7  C   UNL     1      -8.085  10.029  67.215  1.00  0.00    -0.114 C  
HETATM    8  C   UNL     1      -9.434   9.292  67.147  1.00  0.00    -0.149 C  
HETATM    9  C   UNL     1     -10.389   9.657  66.001  1.00  0.00    -0.160 C  
ENDROOT
BRANCH   8  10
HETATM   10  O   UNL     1      -9.133   7.884  67.142  1.00  0.00    -0.131 OA 
BRANCH  10  11
HETATM   11  C   UNL     1      -9.846   7.182  68.072  1.00  0.00    -0.138 C  
HETATM   12  C   UNL     1      -9.001   6.982  69.320  1.00  0.00    -0.138 C  
HETATM   13  O   UNL     1     -11.002   6.820  67.905  1.00  0.00    -0.252 OA 
HETATM   14  C   UNL     1      -8.204   5.680  69.214  1.00  0.00    -0.096 C  
HETATM   15  C   UNL     1      -9.835   7.043  70.593  1.00  0.00    -0.187 A  
HETATM   16  C   UNL     1      -9.687   8.119  71.483  1.00  0.00    -0.230 A  
HETATM   17  O   UNL     1      -7.269   5.709  68.136  1.00  0.00    -0.069 OA 
HETATM   18  H   UNL     1      -6.775   4.900  68.070  1.00  0.00     0.000 HD 
HETATM   19  C   UNL     1     -10.427   8.169  72.667  1.00  0.00    -0.401 A  
HETATM   20  C   UNL     1     -11.328   7.152  72.972  1.00  0.00    -0.208 A  
HETATM   21  C   UNL     1     -11.503   6.091  72.088  1.00  0.00    -0.356 A  
HETATM   22  C   UNL     1     -10.766   6.038  70.905  1.00  0.00    -0.329 A  
ENDBRANCH  10  11
ENDBRANCH   8  10
TORSDOF 2
ENDMDL
MODEL      141
REMARK 921   NORMALIZED FREE ENERGY PREDICTED BY IDOCK:   -3.63 KCAL/MOL
REMARK 922        TOTAL FREE ENERGY PREDICTED BY IDOCK:   -4.53 KCAL/MOL
REMARK 923 INTER-LIGAND FREE ENERGY PREDICTED BY IDOCK:   -4.18 KCAL/MOL
REMARK 924 INTRA-LIGAND FREE ENERGY PREDICTED BY IDOCK:   -0.35 KCAL/MOL
REMARK 927      BINDING AFFINITY PREDICTED BY RF-SCORE:    0.00 PKD
ROOT
HETATM    1  C   UNL     1      -9.276  13.758  67.305  1.00  0.00    -0.239 C  
HETATM    2  N   UNL     1     -10.066  13.031  66.322  1.00  0.00    -0.277 NA 
HETATM    3  C   UNL     1     -11.368  12.543  66.775  1.00  0.00    -0.334 C  
HETATM    4  C   UNL     1     -11.843  11.770  65.544  1.00  0.00     0.007 C  
HETATM    5  C   UNL     1     -10.558  11.301  64.871  1.00  0.00    -0.364 C  
HETATM    6  C   UNL     1      -9.436  11.834  65.764  1.00  0.00    -0.216 C  
HETATM    7  C   UNL     1      -9.049  10.819  66.843  1.00  0.00    -0.160 C  
HETATM    8  C   UNL     1     -10.066  10.667  67.987  1.00  0.00    -0.157 C  
HETATM    9  C   UNL     1     -11.273  11.617  67.999  1.00  0.00    -0.327 C  
ENDROOT
BRANCH   8  10
HETATM   10  O   UNL     1     -10.490   9.291  67.982  1.00  0.00    -0.211 OA 
BRANCH  10  11
HETATM   11  C   UNL     1      -9.457   8.414  67.811  1.00  0.00    -0.149 C  
HETATM   12  C   UNL     1      -9.652   7.641  66.517  1.00  0.00    -0.254 C  
HETATM   13  O   UNL     1      -8.514   8.322  68.585  1.00  0.00    -0.124 OA 
HETATM   14  C   UNL     1     -10.452   6.364  66.781  1.00  0.00    -0.234 C  
HETATM   15  C   UNL     1      -8.330   7.355  65.815  1.00  0.00    -0.141 A  
HETATM   16  C   UNL     1      -8.024   7.991  64.600  1.00  0.00    -0.151 A  
HETATM   17  O   UNL     1     -11.772   6.644  67.245  1.00  0.00    -0.638 OA 
HETATM   18  H   UNL     1     -12.269   5.851  67.410  1.00  0.00     0.000 HD 
HETATM   19  C   UNL     1      -6.827   7.713  63.936  1.00  0.00    -0.058 A  
HETATM   20  C   UNL     1      -5.919   6.807  64.478  1.00  0.00    -0.035 A  
HETATM   21  C   UNL     1      -6.199   6.187  65.693  1.00  0.00    -0.037 A  
HETATM   22  C   UNL     1      -7.392   6.463  66.360  1.00  0.00    -0.081 A  
ENDBRANCH  10  11
ENDBRANCH   8  10
TORSDOF 2
ENDMDL
MODEL      142
REMARK 921   NORMALIZED FREE ENERGY PREDICTED BY IDOCK:   -3.61 KCAL/MOL
REMARK 922        TOTAL FREE ENERGY PREDICTED BY IDOCK:   -4.51 KCAL/MOL
REMARK 923 INTER-LIGAND FREE ENERGY PREDICTED BY IDOCK:   -3.84 KCAL/MOL
REMARK 924 INTRA-LIGAND FREE ENERGY PREDICTED BY IDOCK:   -0.67 KCAL/MOL
REMARK 927      BINDING AFFINITY PREDICTED BY RF-SCORE:    0.00 PKD
ROOT
HETATM    1  C   UNL     1     -12.779  12.888  64.769  1.00  0.00    -0.370 C  
HETATM    2  N   UNL     1     -12.335  14.140  65.363  1.00  0.00    -0.450 NA 
HETATM    3  C   UNL     1     -10.982  14.574  65.015  1.00  0.00    -0.398 C  
HETATM    4  C   UNL     1     -10.838  15.830  65.877  1.00  0.00    -0.272 C  
HETATM    5  C   UNL     1     -11.739  15.569  67.080  1.00  0.00     0.177 C  
HETATM    6  C   UNL     1     -12.334  14.182  66.826  1.00  0.00    -0.298 C  
HETATM    7  C   UNL     1     -11.467  13.081  67.442  1.00  0.00    -0.380 C  
HETATM    8  C   UNL     1     -10.150  12.797  66.699  1.00  0.00    -0.243 C  
HETATM    9  C   UNL     1      -9.905  13.538  65.376  1.00  0.00    -0.141 C  
ENDROOT
BRANCH   8  10
HETATM   10  O   UNL     1      -9.086  13.045  67.637  1.00  0.00    -0.179 OA 
BRANCH  10  11
HETATM   11  C   UNL     1      -7.916  12.433  67.292  1.00  0.00    -0.178 C  
HETATM   12  C   UNL     1      -8.095  10.924  67.339  1.00  0.00    -0.114 C  
HETATM   13  O   UNL     1      -6.907  13.041  66.962  1.00  0.00    -0.058 OA 
HETATM   14  C   UNL     1      -7.749  10.395  68.732  1.00  0.00    -0.104 C  
HETATM   15  C   UNL     1      -7.304  10.219  66.244  1.00  0.00    -0.118 A  
HETATM   16  C   UNL     1      -7.975   9.589  65.183  1.00  0.00    -0.117 A  
HETATM   17  O   UNL     1      -8.630  10.902  69.733  1.00  0.00    -0.326 OA 
HETATM   18  H   UNL     1      -8.415  10.574  70.599  1.00  0.00     0.000 HD 
HETATM   19  C   UNL     1      -7.259   8.915  64.190  1.00  0.00    -0.095 A  
HETATM   20  C   UNL     1      -5.868   8.869  64.239  1.00  0.00    -0.069 A  
HETATM   21  C   UNL     1      -5.189   9.509  65.272  1.00  0.00    -0.040 A  
HETATM   22  C   UNL     1      -5.900  10.183  66.265  1.00  0.00    -0.065 A  
ENDBRANCH  10  11
ENDBRANCH   8  10
TORSDOF 2
ENDMDL
MODEL      143
REMARK 921   NORMALIZED FREE ENERGY PREDICTED BY IDOCK:   -3.60 KCAL/MOL
REMARK 922        TOTAL FREE ENERGY PREDICTED BY IDOCK:   -4.49 KCAL/MOL
REMARK 923 INTER-LIGAND FREE ENERGY PREDICTED BY IDOCK:   -4.40 KCAL/MOL
REMARK 924 INTRA-LIGAND FREE ENERGY PREDICTED BY IDOCK:   -0.10 KCAL/MOL
REMARK 927      BINDING AFFINITY PREDICTED BY RF-SCORE:    0.00 PKD
ROOT
HETATM    1  C   UNL     1     -12.164  16.811  73.146  1.00  0.00    -0.067 C  
HETATM    2  N   UNL     1     -12.830  15.518  73.102  1.00  0.00    -0.443 NA 
HETATM    3  C   UNL     1     -12.015  14.388  72.657  1.00  0.00     0.194 C  
HETATM    4  C   UNL     1     -13.048  13.259  72.643  1.00  0.00    -0.257 C  
HETATM    5  C   UNL     1     -14.373  13.962  72.365  1.00  0.00    -0.396 C  
HETATM    6  C   UNL     1     -14.008  15.442  72.236  1.00  0.00    -0.562 C  
HETATM    7  C   UNL     1     -13.692  15.815  70.785  1.00  0.00     0.479 C  
HETATM    8  C   UNL     1     -12.340  15.300  70.260  1.00  0.00    -0.366 C  
HETATM    9  C   UNL     1     -11.411  14.592  71.258  1.00  0.00    -0.163 C  
ENDROOT
BRANCH   8  10
HETATM   10  O   UNL     1     -12.632  14.453  69.133  1.00  0.00    -0.094 OA 
BRANCH  10  11
HETATM   11  C   UNL     1     -11.550  13.737  68.708  1.00  0.00    -0.328 C  
HETATM   12  C   UNL     1     -10.877  14.464  67.554  1.00  0.00    -0.285 C  
HETATM   13  O   UNL     1     -11.184  12.692  69.228  1.00  0.00    -0.243 OA 
HETATM   14  C   UNL     1     -11.475  14.005  66.222  1.00  0.00    -0.351 C  
HETATM   15  C   UNL     1      -9.362  14.312  67.586  1.00  0.00    -0.201 A  
HETATM   16  C   UNL     1      -8.547  15.419  67.874  1.00  0.00    -0.156 A  
HETATM   17  O   UNL     1     -12.858  14.338  66.111  1.00  0.00    -0.489 OA 
HETATM   18  H   UNL     1     -13.229  14.053  65.284  1.00  0.00     0.000 HD 
HETATM   19  C   UNL     1      -7.156  15.296  67.877  1.00  0.00    -0.157 A  
HETATM   20  C   UNL     1      -6.561  14.066  67.603  1.00  0.00    -0.175 A  
HETATM   21  C   UNL     1      -7.357  12.955  67.339  1.00  0.00    -0.132 A  
HETATM   22  C   UNL     1      -8.747  13.074  67.336  1.00  0.00    -0.205 A  
ENDBRANCH  10  11
ENDBRANCH   8  10
TORSDOF 2
ENDMDL
MODEL      144
REMARK 921   NORMALIZED FREE ENERGY PREDICTED BY IDOCK:   -3.60 KCAL/MOL
REMARK 922        TOTAL FREE ENERGY PREDICTED BY IDOCK:   -4.49 KCAL/MOL
REMARK 923 INTER-LIGAND FREE ENERGY PREDICTED BY IDOCK:   -3.98 KCAL/MOL
REMARK 924 INTRA-LIGAND FREE ENERGY PREDICTED BY IDOCK:   -0.51 KCAL/MOL
REMARK 927      BINDING AFFINITY PREDICTED BY RF-SCORE:    0.00 PKD
ROOT
HETATM    1  C   UNL     1      -6.751  12.739  69.132  1.00  0.00    -0.080 C  
HETATM    2  N   UNL     1      -6.263  11.729  68.203  1.00  0.00    -0.049 NA 
HETATM    3  C   UNL     1      -7.021  11.577  66.961  1.00  0.00    -0.145 C  
HETATM    4  C   UNL     1      -6.296  10.398  66.310  1.00  0.00    -0.097 C  
HETATM    5  C   UNL     1      -5.751   9.593  67.485  1.00  0.00    -0.040 C  
HETATM    6  C   UNL     1      -6.203  10.364  68.727  1.00  0.00    -0.047 C  
HETATM    7  C   UNL     1      -7.561   9.868  69.229  1.00  0.00    -0.101 C  
HETATM    8  C   UNL     1      -8.765  10.289  68.368  1.00  0.00    -0.129 C  
HETATM    9  C   UNL     1      -8.504  11.245  67.195  1.00  0.00    -0.149 C  
ENDROOT
BRANCH   8  10
HETATM   10  O   UNL     1      -9.393   9.074  67.916  1.00  0.00    -0.140 OA 
BRANCH  10  11
HETATM   11  C   UNL     1     -10.294   8.573  68.811  1.00  0.00    -0.213 C  
HETATM   12  C   UNL     1     -10.174   7.058  68.864  1.00  0.00    -0.183 C  
HETATM   13  O   UNL     1     -11.041   9.272  69.481  1.00  0.00    -0.192 OA 
HETATM   14  C   UNL     1     -11.112   6.419  67.838  1.00  0.00    -0.270 C  
HETATM   15  C   UNL     1     -10.401   6.514  70.269  1.00  0.00    -0.241 A  
HETATM   16  C   UNL     1      -9.335   5.949  70.988  1.00  0.00    -0.178 A  
HETATM   17  O   UNL     1     -10.764   6.770  66.500  1.00  0.00    -0.510 OA 
HETATM   18  H   UNL     1     -11.347   6.374  65.863  1.00  0.00     0.000 HD 
HETATM   19  C   UNL     1      -9.541   5.421  72.265  1.00  0.00    -0.179 A  
HETATM   20  C   UNL     1     -10.808   5.458  72.842  1.00  0.00    -0.318 A  
HETATM   21  C   UNL     1     -11.869   6.036  72.150  1.00  0.00    -0.304 A  
HETATM   22  C   UNL     1     -11.667   6.565  70.875  1.00  0.00    -0.416 A  
ENDBRANCH  10  11
ENDBRANCH   8  10
TORSDOF 2
ENDMDL
MODEL      145
REMARK 921   NORMALIZED FREE ENERGY PREDICTED BY IDOCK:   -3.58 KCAL/MOL
REMARK 922        TOTAL FREE ENERGY PREDICTED BY IDOCK:   -4.47 KCAL/MOL
REMARK 923 INTER-LIGAND FREE ENERGY PREDICTED BY IDOCK:   -3.78 KCAL/MOL
REMARK 924 INTRA-LIGAND FREE ENERGY PREDICTED BY IDOCK:   -0.70 KCAL/MOL
REMARK 927      BINDING AFFINITY PREDICTED BY RF-SCORE:    0.00 PKD
ROOT
HETATM    1  C   UNL     1     -11.092   6.098  67.135  1.00  0.00    -0.242 C  
HETATM    2  N   UNL     1     -10.547   6.039  68.483  1.00  0.00    -0.238 NA 
HETATM    3  C   UNL     1     -10.764   7.220  69.319  1.00  0.00    -0.198 C  
HETATM    4  C   UNL     1      -9.989   6.840  70.582  1.00  0.00    -0.201 C  
HETATM    5  C   UNL     1      -8.885   5.912  70.085  1.00  0.00    -0.144 C  
HETATM    6  C   UNL     1      -9.102   5.827  68.573  1.00  0.00    -0.114 C  
HETATM    7  C   UNL     1      -8.305   6.904  67.832  1.00  0.00    -0.121 C  
HETATM    8  C   UNL     1      -8.863   8.331  67.964  1.00  0.00    -0.135 C  
HETATM    9  C   UNL     1     -10.200   8.509  68.699  1.00  0.00    -0.217 C  
ENDROOT
BRANCH   8  10
HETATM   10  O   UNL     1      -7.827   9.124  68.573  1.00  0.00    -0.098 OA 
BRANCH  10  11
HETATM   11  C   UNL     1      -8.002  10.466  68.389  1.00  0.00    -0.110 C  
HETATM   12  C   UNL     1      -8.074  10.772  66.902  1.00  0.00    -0.132 C  
HETATM   13  O   UNL     1      -8.119  11.264  69.308  1.00  0.00    -0.039 OA 
HETATM   14  C   UNL     1      -6.675  11.064  66.356  1.00  0.00    -0.123 C  
HETATM   15  C   UNL     1      -9.057  11.896  66.596  1.00  0.00    -0.203 A  
HETATM   16  C   UNL     1     -10.251  11.621  65.910  1.00  0.00    -0.277 A  
HETATM   17  O   UNL     1      -5.812   9.933  66.457  1.00  0.00    -0.052 OA 
HETATM   18  H   UNL     1      -4.943  10.114  66.118  1.00  0.00     0.000 HD 
HETATM   19  C   UNL     1     -11.144  12.649  65.599  1.00  0.00    -0.327 A  
HETATM   20  C   UNL     1     -10.861  13.960  65.975  1.00  0.00    -0.290 A  
HETATM   21  C   UNL     1      -9.692  14.243  66.675  1.00  0.00    -0.297 A  
HETATM   22  C   UNL     1      -8.798  13.219  66.988  1.00  0.00    -0.216 A  
ENDBRANCH  10  11
ENDBRANCH   8  10
TORSDOF 2
ENDMDL
MODEL      146
REMARK 921   NORMALIZED FREE ENERGY PREDICTED BY IDOCK:   -3.56 KCAL/MOL
REMARK 922        TOTAL FREE ENERGY PREDICTED BY IDOCK:   -4.44 KCAL/MOL
REMARK 923 INTER-LIGAND FREE ENERGY PREDICTED BY IDOCK:   -3.93 KCAL/MOL
REMARK 924 INTRA-LIGAND FREE ENERGY PREDICTED BY IDOCK:   -0.51 KCAL/MOL
REMARK 927      BINDING AFFINITY PREDICTED BY RF-SCORE:    0.00 PKD
ROOT
HETATM    1  C   UNL     1      -9.200   7.820  73.619  1.00  0.00    -0.284 C  
HETATM    2  N   UNL     1     -10.447   8.065  72.911  1.00  0.00    -0.349 NA 
HETATM    3  C   UNL     1     -11.225   6.881  72.546  1.00  0.00    -0.267 C  
HETATM    4  C   UNL     1     -12.374   7.509  71.755  1.00  0.00    -0.357 C  
HETATM    5  C   UNL     1     -11.775   8.778  71.157  1.00  0.00    -0.344 C  
HETATM    6  C   UNL     1     -10.324   8.788  71.644  1.00  0.00    -0.321 C  
HETATM    7  C   UNL     1      -9.398   8.078  70.653  1.00  0.00    -0.162 C  
HETATM    8  C   UNL     1      -9.519   6.545  70.633  1.00  0.00    -0.166 C  
HETATM    9  C   UNL     1     -10.440   5.889  71.673  1.00  0.00    -0.285 C  
ENDROOT
BRANCH   8  10
HETATM   10  O   UNL     1      -9.905   6.179  69.295  1.00  0.00    -0.143 OA 
BRANCH  10  11
HETATM   11  C   UNL     1      -8.840   6.039  68.451  1.00  0.00    -0.112 C  
HETATM   12  C   UNL     1      -9.174   6.653  67.101  1.00  0.00    -0.134 C  
HETATM   13  O   UNL     1      -7.780   5.526  68.780  1.00  0.00    -0.088 OA 
HETATM   14  C   UNL     1      -9.806   5.602  66.185  1.00  0.00    -0.079 C  
HETATM   15  C   UNL     1      -7.964   7.321  66.460  1.00  0.00    -0.115 A  
HETATM   16  C   UNL     1      -7.916   8.718  66.328  1.00  0.00    -0.106 A  
HETATM   17  O   UNL     1     -11.052   5.128  66.692  1.00  0.00    -0.400 OA 
HETATM   18  H   UNL     1     -11.444   4.475  66.124  1.00  0.00     0.000 HD 
HETATM   19  C   UNL     1      -6.823   9.337  65.715  1.00  0.00    -0.084 A  
HETATM   20  C   UNL     1      -5.763   8.571  65.236  1.00  0.00    -0.044 A  
HETATM   21  C   UNL     1      -5.786   7.186  65.382  1.00  0.00    -0.037 A  
HETATM   22  C   UNL     1      -6.875   6.565  65.993  1.00  0.00    -0.057 A  
ENDBRANCH  10  11
ENDBRANCH   8  10
TORSDOF 2
ENDMDL
MODEL      147
REMARK 921   NORMALIZED FREE ENERGY PREDICTED BY IDOCK:   -3.53 KCAL/MOL
REMARK 922        TOTAL FREE ENERGY PREDICTED BY IDOCK:   -4.41 KCAL/MOL
REMARK 923 INTER-LIGAND FREE ENERGY PREDICTED BY IDOCK:   -3.69 KCAL/MOL
REMARK 924 INTRA-LIGAND FREE ENERGY PREDICTED BY IDOCK:   -0.72 KCAL/MOL
REMARK 927      BINDING AFFINITY PREDICTED BY RF-SCORE:    0.00 PKD
ROOT
HETATM    1  C   UNL     1      -7.826   2.499  70.436  1.00  0.00    -0.042 C  
HETATM    2  N   UNL     1      -6.825   2.612  69.386  1.00  0.00    -0.033 NA 
HETATM    3  C   UNL     1      -6.061   3.858  69.355  1.00  0.00    -0.027 C  
HETATM    4  C   UNL     1      -5.209   3.658  68.100  1.00  0.00    -0.012 C  
HETATM    5  C   UNL     1      -6.052   2.749  67.212  1.00  0.00    -0.028 C  
HETATM    6  C   UNL     1      -7.328   2.494  68.016  1.00  0.00    -0.048 C  
HETATM    7  C   UNL     1      -8.407   3.533  67.698  1.00  0.00    -0.096 C  
HETATM    8  C   UNL     1      -8.157   4.932  68.288  1.00  0.00    -0.085 C  
HETATM    9  C   UNL     1      -6.948   5.107  69.220  1.00  0.00    -0.055 C  
ENDROOT
BRANCH   8  10
HETATM   10  O   UNL     1      -8.089   5.842  67.175  1.00  0.00    -0.102 OA 
BRANCH  10  11
HETATM   11  C   UNL     1      -8.691   7.041  67.427  1.00  0.00    -0.120 C  
HETATM   12  C   UNL     1     -10.057   6.806  68.053  1.00  0.00    -0.183 C  
HETATM   13  O   UNL     1      -8.163   8.122  67.206  1.00  0.00    -0.118 OA 
HETATM   14  C   UNL     1     -11.126   6.705  66.963  1.00  0.00    -0.325 C  
HETATM   15  C   UNL     1     -10.398   7.862  69.097  1.00  0.00    -0.225 A  
HETATM   16  C   UNL     1     -10.463   7.515  70.457  1.00  0.00    -0.224 A  
HETATM   17  O   UNL     1     -10.915   5.584  66.107  1.00  0.00    -0.698 OA 
HETATM   18  H   UNL     1     -11.579   5.522  65.430  1.00  0.00     0.000 HD 
HETATM   19  C   UNL     1     -10.803   8.470  71.418  1.00  0.00    -0.327 A  
HETATM   20  C   UNL     1     -11.074   9.782  71.036  1.00  0.00    -0.431 A  
HETATM   21  C   UNL     1     -10.991  10.145  69.694  1.00  0.00    -0.305 A  
HETATM   22  C   UNL     1     -10.651   9.195  68.732  1.00  0.00    -0.208 A  
ENDBRANCH  10  11
ENDBRANCH   8  10
TORSDOF 2
ENDMDL
MODEL      148
REMARK 921   NORMALIZED FREE ENERGY PREDICTED BY IDOCK:   -3.52 KCAL/MOL
REMARK 922        TOTAL FREE ENERGY PREDICTED BY IDOCK:   -4.40 KCAL/MOL
REMARK 923 INTER-LIGAND FREE ENERGY PREDICTED BY IDOCK:   -4.10 KCAL/MOL
REMARK 924 INTRA-LIGAND FREE ENERGY PREDICTED BY IDOCK:   -0.30 KCAL/MOL
REMARK 927      BINDING AFFINITY PREDICTED BY RF-SCORE:    0.00 PKD
ROOT
HETATM    1  C   UNL     1      -5.703   6.126  67.755  1.00  0.00    -0.009 C  
HETATM    2  N   UNL     1      -7.006   5.801  68.317  1.00  0.00    -0.067 NA 
HETATM    3  C   UNL     1      -8.136   5.848  67.391  1.00  0.00    -0.102 C  
HETATM    4  C   UNL     1      -9.307   5.559  68.332  1.00  0.00    -0.130 C  
HETATM    5  C   UNL     1      -8.846   6.090  69.685  1.00  0.00    -0.133 C  
HETATM    6  C   UNL     1      -7.446   6.650  69.426  1.00  0.00    -0.094 C  
HETATM    7  C   UNL     1      -7.497   8.131  69.044  1.00  0.00    -0.088 C  
HETATM    8  C   UNL     1      -8.019   8.420  67.626  1.00  0.00    -0.110 C  
HETATM    9  C   UNL     1      -8.306   7.218  66.713  1.00  0.00    -0.119 C  
ENDROOT
BRANCH   8  10
HETATM   10  O   UNL     1      -9.188   9.247  67.777  1.00  0.00    -0.129 OA 
BRANCH  10  11
HETATM   11  C   UNL     1      -8.966  10.552  67.445  1.00  0.00    -0.135 C  
HETATM   12  C   UNL     1     -10.125  11.071  66.609  1.00  0.00    -0.262 C  
HETATM   13  O   UNL     1      -7.989  11.187  67.816  1.00  0.00    -0.111 OA 
HETATM   14  C   UNL     1      -9.849  10.836  65.122  1.00  0.00    -0.277 C  
HETATM   15  C   UNL     1     -10.441  12.531  66.910  1.00  0.00    -0.244 A  
HETATM   16  C   UNL     1     -11.638  12.874  67.561  1.00  0.00    -0.409 A  
HETATM   17  O   UNL     1      -9.759   9.447  64.806  1.00  0.00    -0.428 OA 
HETATM   18  H   UNL     1      -9.587   9.301  63.883  1.00  0.00     0.000 HD 
HETATM   19  C   UNL     1     -11.949  14.212  67.815  1.00  0.00    -0.389 A  
HETATM   20  C   UNL     1     -11.068  15.221  67.433  1.00  0.00    -0.326 A  
HETATM   21  C   UNL     1      -9.868  14.893  66.808  1.00  0.00    -0.254 A  
HETATM   22  C   UNL     1      -9.553  13.559  66.553  1.00  0.00    -0.284 A  
ENDBRANCH  10  11
ENDBRANCH   8  10
TORSDOF 2
ENDMDL
MODEL      149
REMARK 921   NORMALIZED FREE ENERGY PREDICTED BY IDOCK:   -3.51 KCAL/MOL
REMARK 922        TOTAL FREE ENERGY PREDICTED BY IDOCK:   -4.40 KCAL/MOL
REMARK 923 INTER-LIGAND FREE ENERGY PREDICTED BY IDOCK:   -4.42 KCAL/MOL
REMARK 924 INTRA-LIGAND FREE ENERGY PREDICTED BY IDOCK:    0.03 KCAL/MOL
REMARK 927      BINDING AFFINITY PREDICTED BY RF-SCORE:    0.00 PKD
ROOT
HETATM    1  C   UNL     1     -11.084  16.426  64.479  1.00  0.00    -0.093 C  
HETATM    2  N   UNL     1      -9.968  16.527  65.408  1.00  0.00    -0.545 NA 
HETATM    3  C   UNL     1      -9.404  15.262  65.878  1.00  0.00    -0.273 C  
HETATM    4  C   UNL     1      -8.357  15.753  66.879  1.00  0.00    -0.283 C  
HETATM    5  C   UNL     1      -8.913  17.079  67.389  1.00  0.00    -0.216 C  
HETATM    6  C   UNL     1     -10.240  17.253  66.649  1.00  0.00    -0.319 C  
HETATM    7  C   UNL     1     -11.404  16.648  67.438  1.00  0.00     0.253 C  
HETATM    8  C   UNL     1     -11.458  15.111  67.441  1.00  0.00    -0.277 C  
HETATM    9  C   UNL     1     -10.440  14.360  66.569  1.00  0.00    -0.289 C  
ENDROOT
BRANCH   8  10
HETATM   10  O   UNL     1     -11.365  14.698  68.817  1.00  0.00    -0.254 OA 
BRANCH  10  11
HETATM   11  C   UNL     1     -10.543  13.623  69.000  1.00  0.00    -0.121 C  
HETATM   12  C   UNL     1     -11.355  12.340  68.919  1.00  0.00    -0.337 C  
HETATM   13  O   UNL     1      -9.335  13.717  69.161  1.00  0.00     0.197 OA 
HETATM   14  C   UNL     1     -11.868  11.953  70.307  1.00  0.00    -0.281 C  
HETATM   15  C   UNL     1     -10.575  11.210  68.258  1.00  0.00    -0.221 A  
HETATM   16  C   UNL     1     -10.957  10.735  66.993  1.00  0.00    -0.292 A  
HETATM   17  O   UNL     1     -12.768  12.925  70.838  1.00  0.00    -0.296 OA 
HETATM   18  H   UNL     1     -13.086  12.684  71.700  1.00  0.00     0.000 HD 
HETATM   19  C   UNL     1     -10.265   9.680  66.392  1.00  0.00    -0.288 A  
HETATM   20  C   UNL     1      -9.183   9.093  67.042  1.00  0.00    -0.167 A  
HETATM   21  C   UNL     1      -8.779   9.569  68.287  1.00  0.00    -0.120 A  
HETATM   22  C   UNL     1      -9.466  10.622  68.889  1.00  0.00    -0.199 A  
ENDBRANCH  10  11
ENDBRANCH   8  10
TORSDOF 2
ENDMDL
MODEL      150
REMARK 921   NORMALIZED FREE ENERGY PREDICTED BY IDOCK:   -3.50 KCAL/MOL
REMARK 922        TOTAL FREE ENERGY PREDICTED BY IDOCK:   -4.38 KCAL/MOL
REMARK 923 INTER-LIGAND FREE ENERGY PREDICTED BY IDOCK:   -4.10 KCAL/MOL
REMARK 924 INTRA-LIGAND FREE ENERGY PREDICTED BY IDOCK:   -0.29 KCAL/MOL
REMARK 927      BINDING AFFINITY PREDICTED BY RF-SCORE:    0.00 PKD
ROOT
HETATM    1  C   UNL     1     -13.032  12.875  64.876  1.00  0.00    -0.135 C  
HETATM    2  N   UNL     1     -12.042  13.758  65.475  1.00  0.00    -0.385 NA 
HETATM    3  C   UNL     1     -10.818  13.970  64.705  1.00  0.00    -0.403 C  
HETATM    4  C   UNL     1     -10.006  14.841  65.666  1.00  0.00    -0.390 C  
HETATM    5  C   UNL     1     -10.491  14.430  67.052  1.00  0.00    -0.268 C  
HETATM    6  C   UNL     1     -11.544  13.351  66.790  1.00  0.00    -0.365 C  
HETATM    7  C   UNL     1     -10.921  11.953  66.772  1.00  0.00    -0.337 C  
HETATM    8  C   UNL     1     -10.087  11.629  65.521  1.00  0.00    -0.246 C  
HETATM    9  C   UNL     1     -10.071  12.665  64.387  1.00  0.00    -0.281 C  
ENDROOT
BRANCH   8  10
HETATM   10  O   UNL     1      -8.753  11.340  65.978  1.00  0.00    -0.188 OA 
BRANCH  10  11
HETATM   11  C   UNL     1      -8.217  10.226  65.398  1.00  0.00    -0.156 C  
HETATM   12  C   UNL     1      -7.652   9.311  66.472  1.00  0.00    -0.093 C  
HETATM   13  O   UNL     1      -8.243  10.014  64.193  1.00  0.00    -0.145 OA 
HETATM   14  C   UNL     1      -6.185   9.654  66.739  1.00  0.00    -0.065 C  
HETATM   15  C   UNL     1      -7.845   7.839  66.129  1.00  0.00    -0.095 A  
HETATM   16  C   UNL     1      -8.735   7.051  66.877  1.00  0.00    -0.122 A  
HETATM   17  O   UNL     1      -6.029  10.974  67.259  1.00  0.00    -0.049 OA 
HETATM   18  H   UNL     1      -5.118  11.187  67.425  1.00  0.00     0.000 HD 
HETATM   19  C   UNL     1      -8.896   5.693  66.589  1.00  0.00    -0.119 A  
HETATM   20  C   UNL     1      -8.179   5.109  65.548  1.00  0.00    -0.121 A  
HETATM   21  C   UNL     1      -7.310   5.883  64.784  1.00  0.00    -0.069 A  
HETATM   22  C   UNL     1      -7.147   7.239  65.068  1.00  0.00    -0.064 A  
ENDBRANCH  10  11
ENDBRANCH   8  10
TORSDOF 2
ENDMDL
MODEL      151
REMARK 921   NORMALIZED FREE ENERGY PREDICTED BY IDOCK:   -3.47 KCAL/MOL
REMARK 922        TOTAL FREE ENERGY PREDICTED BY IDOCK:   -4.35 KCAL/MOL
REMARK 923 INTER-LIGAND FREE ENERGY PREDICTED BY IDOCK:   -3.93 KCAL/MOL
REMARK 924 INTRA-LIGAND FREE ENERGY PREDICTED BY IDOCK:   -0.41 KCAL/MOL
REMARK 927      BINDING AFFINITY PREDICTED BY RF-SCORE:    0.00 PKD
ROOT
HETATM    1  C   UNL     1      -9.791   6.778  67.993  1.00  0.00    -0.136 C  
HETATM    2  N   UNL     1      -8.661   7.209  67.183  1.00  0.00    -0.120 NA 
HETATM    3  C   UNL     1      -7.756   8.176  67.802  1.00  0.00    -0.110 C  
HETATM    4  C   UNL     1      -6.786   8.458  66.652  1.00  0.00    -0.068 C  
HETATM    5  C   UNL     1      -7.616   8.232  65.393  1.00  0.00    -0.096 C  
HETATM    6  C   UNL     1      -9.002   7.840  65.906  1.00  0.00    -0.113 C  
HETATM    7  C   UNL     1      -9.901   9.067  66.081  1.00  0.00    -0.349 C  
HETATM    8  C   UNL     1      -9.560   9.955  67.290  1.00  0.00    -0.160 C  
HETATM    9  C   UNL     1      -8.463   9.466  68.248  1.00  0.00    -0.120 C  
ENDROOT
BRANCH   8  10
HETATM   10  O   UNL     1      -9.248  11.260  66.767  1.00  0.00    -0.168 OA 
BRANCH  10  11
HETATM   11  C   UNL     1      -9.579  12.272  67.621  1.00  0.00    -0.191 C  
HETATM   12  C   UNL     1      -8.653  13.456  67.394  1.00  0.00    -0.204 C  
HETATM   13  O   UNL     1     -10.512  12.213  68.409  1.00  0.00    -0.219 OA 
HETATM   14  C   UNL     1      -7.421  13.343  68.295  1.00  0.00    -0.129 C  
HETATM   15  C   UNL     1      -9.372  14.788  67.568  1.00  0.00    -0.194 A  
HETATM   16  C   UNL     1      -9.602  15.617  66.458  1.00  0.00    -0.293 A  
HETATM   17  O   UNL     1      -6.633  12.194  67.986  1.00  0.00    -0.059 OA 
HETATM   18  H   UNL     1      -5.869  12.124  68.546  1.00  0.00     0.000 HD 
HETATM   19  C   UNL     1     -10.235  16.852  66.613  1.00  0.00    -0.312 A  
HETATM   20  C   UNL     1     -10.653  17.271  67.874  1.00  0.00    -0.384 A  
HETATM   21  C   UNL     1     -10.453  16.450  68.980  1.00  0.00    -0.288 A  
HETATM   22  C   UNL     1      -9.822  15.215  68.828  1.00  0.00    -0.223 A  
ENDBRANCH  10  11
ENDBRANCH   8  10
TORSDOF 2
ENDMDL
MODEL      152
REMARK 921   NORMALIZED FREE ENERGY PREDICTED BY IDOCK:   -3.45 KCAL/MOL
REMARK 922        TOTAL FREE ENERGY PREDICTED BY IDOCK:   -4.33 KCAL/MOL
REMARK 923 INTER-LIGAND FREE ENERGY PREDICTED BY IDOCK:   -3.86 KCAL/MOL
REMARK 924 INTRA-LIGAND FREE ENERGY PREDICTED BY IDOCK:   -0.47 KCAL/MOL
REMARK 927      BINDING AFFINITY PREDICTED BY RF-SCORE:    0.00 PKD
ROOT
HETATM    1  C   UNL     1     -11.387  15.514  73.011  1.00  0.00     0.174 C  
HETATM    2  N   UNL     1     -12.701  15.183  72.482  1.00  0.00    -0.331 NA 
HETATM    3  C   UNL     1     -12.976  13.760  72.282  1.00  0.00    -0.336 C  
HETATM    4  C   UNL     1     -14.364  13.809  71.641  1.00  0.00    -0.002 C  
HETATM    5  C   UNL     1     -14.397  15.148  70.911  1.00  0.00    -0.078 C  
HETATM    6  C   UNL     1     -13.026  15.771  71.181  1.00  0.00    -0.361 C  
HETATM    7  C   UNL     1     -12.015  15.390  70.097  1.00  0.00    -0.378 C  
HETATM    8  C   UNL     1     -11.513  13.937  70.159  1.00  0.00    -0.099 C  
HETATM    9  C   UNL     1     -11.966  13.075  71.347  1.00  0.00     0.628 C  
ENDROOT
BRANCH   8  10
HETATM   10  O   UNL     1     -11.873  13.323  68.907  1.00  0.00    -0.301 OA 
BRANCH  10  11
HETATM   11  C   UNL     1     -10.867  12.570  68.372  1.00  0.00    -0.243 C  
HETATM   12  C   UNL     1     -11.456  11.501  67.465  1.00  0.00    -0.355 C  
HETATM   13  O   UNL     1      -9.681  12.779  68.583  1.00  0.00    -0.162 OA 
HETATM   14  C   UNL     1     -11.739  10.228  68.266  1.00  0.00     0.254 C  
HETATM   15  C   UNL     1     -10.578  11.233  66.250  1.00  0.00    -0.315 A  
HETATM   16  C   UNL     1     -11.014  11.606  64.968  1.00  0.00    -0.334 A  
HETATM   17  O   UNL     1     -12.723  10.437  69.277  1.00  0.00    -0.610 OA 
HETATM   18  H   UNL     1     -12.898   9.646  69.774  1.00  0.00     0.000 HD 
HETATM   19  C   UNL     1     -10.227  11.337  63.844  1.00  0.00    -0.420 A  
HETATM   20  C   UNL     1      -8.996  10.703  63.987  1.00  0.00    -0.210 A  
HETATM   21  C   UNL     1      -8.540  10.349  65.255  1.00  0.00    -0.184 A  
HETATM   22  C   UNL     1      -9.322  10.616  66.378  1.00  0.00    -0.195 A  
ENDBRANCH  10  11
ENDBRANCH   8  10
TORSDOF 2
ENDMDL
MODEL      153
REMARK 921   NORMALIZED FREE ENERGY PREDICTED BY IDOCK:   -3.42 KCAL/MOL
REMARK 922        TOTAL FREE ENERGY PREDICTED BY IDOCK:   -4.30 KCAL/MOL
REMARK 923 INTER-LIGAND FREE ENERGY PREDICTED BY IDOCK:   -3.94 KCAL/MOL
REMARK 924 INTRA-LIGAND FREE ENERGY PREDICTED BY IDOCK:   -0.35 KCAL/MOL
REMARK 927      BINDING AFFINITY PREDICTED BY RF-SCORE:    0.00 PKD
ROOT
HETATM    1  C   UNL     1      -7.791   6.099  63.359  1.00  0.00    -0.107 C  
HETATM    2  N   UNL     1      -6.819   7.174  63.230  1.00  0.00    -0.051 NA 
HETATM    3  C   UNL     1      -6.409   7.824  64.475  1.00  0.00    -0.048 C  
HETATM    4  C   UNL     1      -5.491   8.930  63.948  1.00  0.00    -0.061 C  
HETATM    5  C   UNL     1      -6.034   9.242  62.558  1.00  0.00    -0.093 C  
HETATM    6  C   UNL     1      -7.226   8.298  62.385  1.00  0.00    -0.095 C  
HETATM    7  C   UNL     1      -8.527   8.947  62.861  1.00  0.00    -0.178 C  
HETATM    8  C   UNL     1      -8.674   9.066  64.388  1.00  0.00    -0.118 C  
HETATM    9  C   UNL     1      -7.587   8.421  65.261  1.00  0.00    -0.090 C  
ENDROOT
BRANCH   8  10
HETATM   10  O   UNL     1      -8.810  10.469  64.681  1.00  0.00    -0.185 OA 
BRANCH  10  11
HETATM   11  C   UNL     1      -9.370  10.708  65.903  1.00  0.00    -0.190 C  
HETATM   12  C   UNL     1      -8.956  12.086  66.394  1.00  0.00    -0.161 C  
HETATM   13  O   UNL     1     -10.119   9.924  66.468  1.00  0.00    -0.214 OA 
HETATM   14  C   UNL     1      -7.664  11.990  67.208  1.00  0.00    -0.168 C  
HETATM   15  C   UNL     1     -10.072  12.778  67.167  1.00  0.00    -0.234 A  
HETATM   16  C   UNL     1     -10.712  13.905  66.625  1.00  0.00    -0.281 A  
HETATM   17  O   UNL     1      -6.566  11.534  66.419  1.00  0.00    -0.327 OA 
HETATM   18  H   UNL     1      -5.763  11.474  66.925  1.00  0.00     0.000 HD 
HETATM   19  C   UNL     1     -11.717  14.563  67.340  1.00  0.00    -0.425 A  
HETATM   20  C   UNL     1     -12.099  14.101  68.597  1.00  0.00    -0.320 A  
HETATM   21  C   UNL     1     -11.488  12.971  69.136  1.00  0.00    -0.353 A  
HETATM   22  C   UNL     1     -10.486  12.312  68.425  1.00  0.00    -0.244 A  
ENDBRANCH  10  11
ENDBRANCH   8  10
TORSDOF 2
ENDMDL
MODEL      154
REMARK 921   NORMALIZED FREE ENERGY PREDICTED BY IDOCK:   -3.36 KCAL/MOL
REMARK 922        TOTAL FREE ENERGY PREDICTED BY IDOCK:   -4.22 KCAL/MOL
REMARK 923 INTER-LIGAND FREE ENERGY PREDICTED BY IDOCK:   -3.94 KCAL/MOL
REMARK 924 INTRA-LIGAND FREE ENERGY PREDICTED BY IDOCK:   -0.29 KCAL/MOL
REMARK 927      BINDING AFFINITY PREDICTED BY RF-SCORE:    0.00 PKD
ROOT
HETATM    1  C   UNL     1     -11.546  14.753  73.709  1.00  0.00     0.361 C  
HETATM    2  N   UNL     1     -12.791  14.783  72.955  1.00  0.00    -0.463 NA 
HETATM    3  C   UNL     1     -13.060  13.621  72.109  1.00  0.00    -0.396 C  
HETATM    4  C   UNL     1     -14.359  14.045  71.421  1.00  0.00    -0.011 C  
HETATM    5  C   UNL     1     -14.283  15.568  71.374  1.00  0.00    -0.399 C  
HETATM    6  C   UNL     1     -12.946  15.910  72.035  1.00  0.00    -0.378 C  
HETATM    7  C   UNL     1     -11.816  15.984  71.004  1.00  0.00    -0.435 C  
HETATM    8  C   UNL     1     -11.347  14.626  70.455  1.00  0.00    -0.181 C  
HETATM    9  C   UNL     1     -11.954  13.358  71.074  1.00  0.00    -0.025 C  
ENDROOT
BRANCH   8  10
HETATM   10  O   UNL     1     -11.561  14.661  69.032  1.00  0.00    -0.268 OA 
BRANCH  10  11
HETATM   11  C   UNL     1     -11.555  13.422  68.459  1.00  0.00    -0.333 C  
HETATM   12  C   UNL     1     -10.124  13.001  68.165  1.00  0.00    -0.237 C  
HETATM   13  O   UNL     1     -12.567  12.763  68.264  1.00  0.00     0.271 OA 
HETATM   14  C   UNL     1      -9.720  13.452  66.760  1.00  0.00    -0.262 C  
HETATM   15  C   UNL     1      -9.913  11.506  68.372  1.00  0.00    -0.206 A  
HETATM   16  C   UNL     1      -9.117  11.046  69.434  1.00  0.00     0.196 A  
HETATM   17  O   UNL     1      -9.719  14.872  66.632  1.00  0.00    -0.239 OA 
HETATM   18  H   UNL     1      -9.468  15.152  65.759  1.00  0.00     0.000 HD 
HETATM   19  C   UNL     1      -8.894   9.679  69.615  1.00  0.00    -0.212 A  
HETATM   20  C   UNL     1      -9.468   8.755  68.744  1.00  0.00    -0.142 A  
HETATM   21  C   UNL     1     -10.278   9.196  67.701  1.00  0.00    -0.293 A  
HETATM   22  C   UNL     1     -10.504  10.560  67.519  1.00  0.00    -0.284 A  
ENDBRANCH  10  11
ENDBRANCH   8  10
TORSDOF 2
ENDMDL
MODEL      155
REMARK 921   NORMALIZED FREE ENERGY PREDICTED BY IDOCK:   -3.34 KCAL/MOL
REMARK 922        TOTAL FREE ENERGY PREDICTED BY IDOCK:   -4.20 KCAL/MOL
REMARK 923 INTER-LIGAND FREE ENERGY PREDICTED BY IDOCK:   -3.87 KCAL/MOL
REMARK 924 INTRA-LIGAND FREE ENERGY PREDICTED BY IDOCK:   -0.33 KCAL/MOL
REMARK 927      BINDING AFFINITY PREDICTED BY RF-SCORE:    0.00 PKD
ROOT
HETATM    1  C   UNL     1      -6.362   8.997  71.670  1.00  0.00    -0.067 C  
HETATM    2  N   UNL     1      -6.534   8.147  70.501  1.00  0.00    -0.036 NA 
HETATM    3  C   UNL     1      -6.211   8.754  69.210  1.00  0.00    -0.042 C  
HETATM    4  C   UNL     1      -6.600   7.632  68.245  1.00  0.00    -0.054 C  
HETATM    5  C   UNL     1      -7.711   6.878  68.968  1.00  0.00    -0.110 C  
HETATM    6  C   UNL     1      -7.884   7.621  70.294  1.00  0.00    -0.092 C  
HETATM    7  C   UNL     1      -8.934   8.730  70.180  1.00  0.00    -0.173 C  
HETATM    8  C   UNL     1      -8.483   9.973  69.392  1.00  0.00    -0.170 C  
HETATM    9  C   UNL     1      -7.022  10.027  68.921  1.00  0.00    -0.062 C  
ENDROOT
BRANCH   8  10
HETATM   10  O   UNL     1      -9.391  10.107  68.282  1.00  0.00    -0.131 OA 
BRANCH  10  11
HETATM   11  C   UNL     1      -9.387  11.359  67.737  1.00  0.00    -0.162 C  
HETATM   12  C   UNL     1      -9.689  11.269  66.249  1.00  0.00    -0.246 C  
HETATM   13  O   UNL     1      -9.202  12.378  68.387  1.00  0.00    -0.197 OA 
HETATM   14  C   UNL     1      -8.390  11.117  65.456  1.00  0.00     0.052 C  
HETATM   15  C   UNL     1     -10.524  12.447  65.763  1.00  0.00    -0.288 A  
HETATM   16  C   UNL     1     -11.855  12.248  65.359  1.00  0.00    -0.418 A  
HETATM   17  O   UNL     1      -7.710   9.902  65.767  1.00  0.00    -0.104 OA 
HETATM   18  H   UNL     1      -6.903   9.807  65.274  1.00  0.00     0.000 HD 
HETATM   19  C   UNL     1     -12.620  13.317  64.884  1.00  0.00    -0.444 A  
HETATM   20  C   UNL     1     -12.070  14.595  64.814  1.00  0.00    -0.428 A  
HETATM   21  C   UNL     1     -10.760  14.810  65.234  1.00  0.00    -0.406 A  
HETATM   22  C   UNL     1      -9.994  13.746  65.709  1.00  0.00    -0.293 A  
ENDBRANCH  10  11
ENDBRANCH   8  10
TORSDOF 2
ENDMDL
MODEL      156
REMARK 921   NORMALIZED FREE ENERGY PREDICTED BY IDOCK:   -3.29 KCAL/MOL
REMARK 922        TOTAL FREE ENERGY PREDICTED BY IDOCK:   -4.15 KCAL/MOL
REMARK 923 INTER-LIGAND FREE ENERGY PREDICTED BY IDOCK:   -3.71 KCAL/MOL
REMARK 924 INTRA-LIGAND FREE ENERGY PREDICTED BY IDOCK:   -0.44 KCAL/MOL
REMARK 927      BINDING AFFINITY PREDICTED BY RF-SCORE:    0.00 PKD
ROOT
HETATM    1  C   UNL     1     -11.260  13.893  64.366  1.00  0.00    -0.329 C  
HETATM    2  N   UNL     1     -11.506  14.477  65.676  1.00  0.00    -0.338 NA 
HETATM    3  C   UNL     1     -10.331  14.975  66.390  1.00  0.00    -0.287 C  
HETATM    4  C   UNL     1     -10.950  15.407  67.721  1.00  0.00    -0.311 C  
HETATM    5  C   UNL     1     -12.155  14.488  67.895  1.00  0.00    -0.261 C  
HETATM    6  C   UNL     1     -12.142  13.593  66.654  1.00  0.00    -0.411 C  
HETATM    7  C   UNL     1     -11.337  12.313  66.896  1.00  0.00    -0.392 C  
HETATM    8  C   UNL     1      -9.811  12.503  66.937  1.00  0.00    -0.227 C  
HETATM    9  C   UNL     1      -9.257  13.898  66.611  1.00  0.00    -0.253 C  
ENDROOT
BRANCH   8  10
HETATM   10  O   UNL     1      -9.375  12.064  68.237  1.00  0.00    -0.194 OA 
BRANCH  10  11
HETATM   11  C   UNL     1      -8.261  11.276  68.190  1.00  0.00    -0.140 C  
HETATM   12  C   UNL     1      -7.468  11.434  69.477  1.00  0.00     0.133 C  
HETATM   13  O   UNL     1      -7.996  10.537  67.252  1.00  0.00    -0.112 OA 
HETATM   14  C   UNL     1      -6.450  12.568  69.333  1.00  0.00    -0.102 C  
HETATM   15  C   UNL     1      -6.816  10.128  69.913  1.00  0.00    -0.124 A  
HETATM   16  C   UNL     1      -7.267   9.464  71.066  1.00  0.00    -0.054 A  
HETATM   17  O   UNL     1      -7.080  13.832  69.130  1.00  0.00    -0.157 OA 
HETATM   18  H   UNL     1      -6.447  14.536  69.040  1.00  0.00     0.000 HD 
HETATM   19  C   UNL     1      -6.655   8.282  71.489  1.00  0.00    -0.058 A  
HETATM   20  C   UNL     1      -5.595   7.743  70.764  1.00  0.00    -0.030 A  
HETATM   21  C   UNL     1      -5.153   8.378  69.606  1.00  0.00    -0.030 A  
HETATM   22  C   UNL     1      -5.761   9.559  69.181  1.00  0.00    -0.035 A  
ENDBRANCH  10  11
ENDBRANCH   8  10
TORSDOF 2
ENDMDL
MODEL      157
REMARK 921   NORMALIZED FREE ENERGY PREDICTED BY IDOCK:   -3.28 KCAL/MOL
REMARK 922        TOTAL FREE ENERGY PREDICTED BY IDOCK:   -4.13 KCAL/MOL
REMARK 923 INTER-LIGAND FREE ENERGY PREDICTED BY IDOCK:   -3.69 KCAL/MOL
REMARK 924 INTRA-LIGAND FREE ENERGY PREDICTED BY IDOCK:   -0.44 KCAL/MOL
REMARK 927      BINDING AFFINITY PREDICTED BY RF-SCORE:    0.00 PKD
ROOT
HETATM    1  C   UNL     1      -9.946  13.552  67.755  1.00  0.00    -0.232 C  
HETATM    2  N   UNL     1      -9.953  12.456  66.798  1.00  0.00    -0.221 NA 
HETATM    3  C   UNL     1     -10.931  11.395  67.038  1.00  0.00    -0.292 C  
HETATM    4  C   UNL     1     -10.580  10.406  65.926  1.00  0.00    -0.114 C  
HETATM    5  C   UNL     1      -9.092  10.627  65.677  1.00  0.00    -0.206 C  
HETATM    6  C   UNL     1      -8.692  11.724  66.666  1.00  0.00    -0.186 C  
HETATM    7  C   UNL     1      -8.216  11.133  67.995  1.00  0.00    -0.125 C  
HETATM    8  C   UNL     1      -9.329  10.554  68.885  1.00  0.00    -0.187 C  
HETATM    9  C   UNL     1     -10.782  10.739  68.420  1.00  0.00    -0.255 C  
ENDROOT
BRANCH   8  10
HETATM   10  O   UNL     1      -9.020   9.161  69.078  1.00  0.00    -0.139 OA 
BRANCH  10  11
HETATM   11  C   UNL     1      -9.298   8.722  70.341  1.00  0.00    -0.180 C  
HETATM   12  C   UNL     1      -9.606   7.233  70.308  1.00  0.00    -0.165 C  
HETATM   13  O   UNL     1      -9.258   9.440  71.330  1.00  0.00    -0.277 OA 
HETATM   14  C   UNL     1     -11.105   7.009  70.095  1.00  0.00    -0.285 C  
HETATM   15  C   UNL     1      -9.087   6.514  71.546  1.00  0.00    -0.144 A  
HETATM   16  C   UNL     1      -8.018   5.609  71.441  1.00  0.00    -0.113 A  
HETATM   17  O   UNL     1     -11.548   7.505  68.833  1.00  0.00    -0.075 OA 
HETATM   18  H   UNL     1     -12.479   7.366  68.701  1.00  0.00     0.000 HD 
HETATM   19  C   UNL     1      -7.555   4.923  72.566  1.00  0.00    -0.091 A  
HETATM   20  C   UNL     1      -8.146   5.137  73.809  1.00  0.00    -0.109 A  
HETATM   21  C   UNL     1      -9.191   6.048  73.932  1.00  0.00    -0.129 A  
HETATM   22  C   UNL     1      -9.656   6.735  72.811  1.00  0.00    -0.161 A  
ENDBRANCH  10  11
ENDBRANCH   8  10
TORSDOF 2
ENDMDL
MODEL      158
REMARK 921   NORMALIZED FREE ENERGY PREDICTED BY IDOCK:   -3.27 KCAL/MOL
REMARK 922        TOTAL FREE ENERGY PREDICTED BY IDOCK:   -4.12 KCAL/MOL
REMARK 923 INTER-LIGAND FREE ENERGY PREDICTED BY IDOCK:   -3.90 KCAL/MOL
REMARK 924 INTRA-LIGAND FREE ENERGY PREDICTED BY IDOCK:   -0.22 KCAL/MOL
REMARK 927      BINDING AFFINITY PREDICTED BY RF-SCORE:    0.00 PKD
ROOT
HETATM    1  C   UNL     1      -8.061  12.617  67.796  1.00  0.00    -0.166 C  
HETATM    2  N   UNL     1      -8.894  11.688  67.048  1.00  0.00    -0.171 NA 
HETATM    3  C   UNL     1     -10.327  11.732  67.334  1.00  0.00    -0.204 C  
HETATM    4  C   UNL     1     -10.843  10.585  66.463  1.00  0.00    -0.128 C  
HETATM    5  C   UNL     1      -9.669   9.615  66.380  1.00  0.00    -0.285 C  
HETATM    6  C   UNL     1      -8.564  10.271  67.210  1.00  0.00    -0.125 C  
HETATM    7  C   UNL     1      -8.622   9.820  68.672  1.00  0.00    -0.121 C  
HETATM    8  C   UNL     1      -9.776  10.422  69.493  1.00  0.00    -0.170 C  
HETATM    9  C   UNL     1     -10.655  11.483  68.815  1.00  0.00    -0.241 C  
ENDROOT
BRANCH   8  10
HETATM   10  O   UNL     1     -10.569   9.314  69.960  1.00  0.00    -0.207 OA 
BRANCH  10  11
HETATM   11  C   UNL     1      -9.845   8.167  70.118  1.00  0.00    -0.184 C  
HETATM   12  C   UNL     1     -10.393   7.086  69.200  1.00  0.00    -0.209 C  
HETATM   13  O   UNL     1      -8.882   8.074  70.866  1.00  0.00    -0.134 OA 
HETATM   14  C   UNL     1     -11.479   6.284  69.920  1.00  0.00    -0.389 C  
HETATM   15  C   UNL     1      -9.290   6.193  68.645  1.00  0.00    -0.121 A  
HETATM   16  C   UNL     1      -8.963   6.242  67.280  1.00  0.00    -0.113 A  
HETATM   17  O   UNL     1     -12.607   7.089  70.256  1.00  0.00    -0.603 OA 
HETATM   18  H   UNL     1     -13.282   6.591  70.703  1.00  0.00     0.000 HD 
HETATM   19  C   UNL     1      -7.973   5.405  66.757  1.00  0.00    -0.101 A  
HETATM   20  C   UNL     1      -7.295   4.518  67.589  1.00  0.00    -0.069 A  
HETATM   21  C   UNL     1      -7.593   4.476  68.949  1.00  0.00    -0.060 A  
HETATM   22  C   UNL     1      -8.580   5.310  69.474  1.00  0.00    -0.100 A  
ENDBRANCH  10  11
ENDBRANCH   8  10
TORSDOF 2
ENDMDL
MODEL      159
REMARK 921   NORMALIZED FREE ENERGY PREDICTED BY IDOCK:   -3.25 KCAL/MOL
REMARK 922        TOTAL FREE ENERGY PREDICTED BY IDOCK:   -4.10 KCAL/MOL
REMARK 923 INTER-LIGAND FREE ENERGY PREDICTED BY IDOCK:   -3.67 KCAL/MOL
REMARK 924 INTRA-LIGAND FREE ENERGY PREDICTED BY IDOCK:   -0.44 KCAL/MOL
REMARK 927      BINDING AFFINITY PREDICTED BY RF-SCORE:    0.00 PKD
ROOT
HETATM    1  C   UNL     1     -12.773   9.740  71.516  1.00  0.00    -0.406 C  
HETATM    2  N   UNL     1     -12.162   8.616  72.209  1.00  0.00    -0.379 NA 
HETATM    3  C   UNL     1     -10.721   8.710  72.445  1.00  0.00    -0.240 C  
HETATM    4  C   UNL     1     -10.432   7.349  73.081  1.00  0.00    -0.406 C  
HETATM    5  C   UNL     1     -11.489   6.422  72.492  1.00  0.00    -0.283 C  
HETATM    6  C   UNL     1     -12.309   7.314  71.557  1.00  0.00    -0.362 C  
HETATM    7  C   UNL     1     -11.742   7.304  70.135  1.00  0.00    -0.095 C  
HETATM    8  C   UNL     1     -10.433   8.091  69.951  1.00  0.00    -0.233 C  
HETATM    9  C   UNL     1      -9.909   8.892  71.152  1.00  0.00    -0.345 C  
ENDROOT
BRANCH   8  10
HETATM   10  O   UNL     1      -9.448   7.149  69.488  1.00  0.00    -0.152 OA 
BRANCH  10  11
HETATM   11  C   UNL     1      -8.933   7.472  68.265  1.00  0.00    -0.130 C  
HETATM   12  C   UNL     1      -7.482   7.025  68.187  1.00  0.00    -0.099 C  
HETATM   13  O   UNL     1      -9.584   8.005  67.377  1.00  0.00    -0.141 OA 
HETATM   14  C   UNL     1      -6.559   8.146  68.669  1.00  0.00    -0.058 C  
HETATM   15  C   UNL     1      -7.108   6.532  66.795  1.00  0.00    -0.069 A  
HETATM   16  C   UNL     1      -6.835   5.172  66.578  1.00  0.00    -0.062 A  
HETATM   17  O   UNL     1      -6.773   8.464  70.043  1.00  0.00    -0.041 OA 
HETATM   18  H   UNL     1      -6.200   9.161  70.343  1.00  0.00     0.000 HD 
HETATM   19  C   UNL     1      -6.463   4.715  65.311  1.00  0.00    -0.036 A  
HETATM   20  C   UNL     1      -6.368   5.607  64.245  1.00  0.00    -0.029 A  
HETATM   21  C   UNL     1      -6.659   6.955  64.441  1.00  0.00    -0.042 A  
HETATM   22  C   UNL     1      -7.031   7.414  65.704  1.00  0.00    -0.060 A  
ENDBRANCH  10  11
ENDBRANCH   8  10
TORSDOF 2
ENDMDL
MODEL      160
REMARK 921   NORMALIZED FREE ENERGY PREDICTED BY IDOCK:   -3.25 KCAL/MOL
REMARK 922        TOTAL FREE ENERGY PREDICTED BY IDOCK:   -4.10 KCAL/MOL
REMARK 923 INTER-LIGAND FREE ENERGY PREDICTED BY IDOCK:   -4.57 KCAL/MOL
REMARK 924 INTRA-LIGAND FREE ENERGY PREDICTED BY IDOCK:    0.46 KCAL/MOL
REMARK 927      BINDING AFFINITY PREDICTED BY RF-SCORE:    0.00 PKD
ROOT
HETATM    1  C   UNL     1     -11.771  12.135  65.461  1.00  0.00    -0.324 C  
HETATM    2  N   UNL     1     -12.191  12.439  66.821  1.00  0.00    -0.481 NA 
HETATM    3  C   UNL     1     -11.887  13.786  67.304  1.00  0.00    -0.401 C  
HETATM    4  C   UNL     1     -12.370  13.701  68.753  1.00  0.00    -0.012 C  
HETATM    5  C   UNL     1     -12.203  12.232  69.124  1.00  0.00    -0.075 C  
HETATM    6  C   UNL     1     -11.633  11.576  67.864  1.00  0.00    -0.282 C  
HETATM    7  C   UNL     1     -10.102  11.585  67.873  1.00  0.00    -0.202 C  
HETATM    8  C   UNL     1      -9.458  12.957  67.610  1.00  0.00    -0.197 C  
HETATM    9  C   UNL     1     -10.388  14.124  67.247  1.00  0.00    -0.267 C  
ENDROOT
BRANCH   8  10
HETATM   10  O   UNL     1      -8.664  13.268  68.770  1.00  0.00    -0.023 OA 
BRANCH  10  11
HETATM   11  C   UNL     1      -8.583  14.609  69.018  1.00  0.00    -0.097 C  
HETATM   12  C   UNL     1      -7.141  15.068  68.879  1.00  0.00    -0.119 C  
HETATM   13  O   UNL     1      -9.554  15.308  69.273  1.00  0.00    -0.227 OA 
HETATM   14  C   UNL     1      -6.421  14.960  70.224  1.00  0.00    -0.124 C  
HETATM   15  C   UNL     1      -7.041  16.467  68.284  1.00  0.00    -0.151 A  
HETATM   16  C   UNL     1      -6.516  16.650  66.994  1.00  0.00    -0.231 A  
HETATM   17  O   UNL     1      -6.335  13.611  70.680  1.00  0.00    -0.400 OA 
HETATM   18  H   UNL     1      -5.887  13.544  71.516  1.00  0.00     0.000 HD 
HETATM   19  C   UNL     1      -6.394  17.932  66.452  1.00  0.00    -0.249 A  
HETATM   20  C   UNL     1      -6.800  19.044  67.185  1.00  0.00    -0.205 A  
HETATM   21  C   UNL     1      -7.344  18.876  68.456  1.00  0.00    -0.330 A  
HETATM   22  C   UNL     1      -7.468  17.598  69.000  1.00  0.00    -0.168 A  
ENDBRANCH  10  11
ENDBRANCH   8  10
TORSDOF 2
ENDMDL
MODEL      161
REMARK 921   NORMALIZED FREE ENERGY PREDICTED BY IDOCK:   -3.23 KCAL/MOL
REMARK 922        TOTAL FREE ENERGY PREDICTED BY IDOCK:   -4.08 KCAL/MOL
REMARK 923 INTER-LIGAND FREE ENERGY PREDICTED BY IDOCK:   -3.60 KCAL/MOL
REMARK 924 INTRA-LIGAND FREE ENERGY PREDICTED BY IDOCK:   -0.48 KCAL/MOL
REMARK 927      BINDING AFFINITY PREDICTED BY RF-SCORE:    0.00 PKD
ROOT
HETATM    1  C   UNL     1     -12.426  16.329  72.910  1.00  0.00    -0.408 C  
HETATM    2  N   UNL     1     -12.833  15.045  72.358  1.00  0.00    -0.326 NA 
HETATM    3  C   UNL     1     -11.757  14.103  72.056  1.00  0.00     0.721 C  
HETATM    4  C   UNL     1     -12.537  12.950  71.420  1.00  0.00    -0.319 C  
HETATM    5  C   UNL     1     -13.754  13.618  70.790  1.00  0.00     0.479 C  
HETATM    6  C   UNL     1     -13.586  15.106  71.104  1.00  0.00    -0.456 C  
HETATM    7  C   UNL     1     -12.818  15.829  69.995  1.00  0.00     0.188 C  
HETATM    8  C   UNL     1     -11.309  15.534  69.950  1.00  0.00    -0.314 C  
HETATM    9  C   UNL     1     -10.718  14.667  71.073  1.00  0.00     0.580 C  
ENDROOT
BRANCH   8  10
HETATM   10  O   UNL     1     -11.039  14.961  68.657  1.00  0.00    -0.242 OA 
BRANCH  10  11
HETATM   11  C   UNL     1     -10.019  15.585  67.998  1.00  0.00    -0.214 C  
HETATM   12  C   UNL     1     -10.589  16.509  66.933  1.00  0.00    -0.238 C  
HETATM   13  O   UNL     1      -8.839  15.429  68.277  1.00  0.00    -0.169 OA 
HETATM   14  C   UNL     1     -10.741  15.757  65.609  1.00  0.00    -0.348 C  
HETATM   15  C   UNL     1      -9.765  17.782  66.779  1.00  0.00    -0.309 A  
HETATM   16  C   UNL     1     -10.297  19.019  67.178  1.00  0.00    -0.496 A  
HETATM   17  O   UNL     1     -11.678  14.685  65.706  1.00  0.00    -0.352 OA 
HETATM   18  H   UNL     1     -11.772  14.218  64.883  1.00  0.00     0.000 HD 
HETATM   19  C   UNL     1      -9.560  20.195  67.014  1.00  0.00    -0.558 A  
HETATM   20  C   UNL     1      -8.284  20.149  66.459  1.00  0.00    -0.315 A  
HETATM   21  C   UNL     1      -7.735  18.927  66.081  1.00  0.00    -0.281 A  
HETATM   22  C   UNL     1      -8.467  17.751  66.244  1.00  0.00    -0.225 A  
ENDBRANCH  10  11
ENDBRANCH   8  10
TORSDOF 2
ENDMDL
MODEL      162
REMARK 921   NORMALIZED FREE ENERGY PREDICTED BY IDOCK:   -3.20 KCAL/MOL
REMARK 922        TOTAL FREE ENERGY PREDICTED BY IDOCK:   -4.05 KCAL/MOL
REMARK 923 INTER-LIGAND FREE ENERGY PREDICTED BY IDOCK:   -3.60 KCAL/MOL
REMARK 924 INTRA-LIGAND FREE ENERGY PREDICTED BY IDOCK:   -0.45 KCAL/MOL
REMARK 927      BINDING AFFINITY PREDICTED BY RF-SCORE:    0.00 PKD
ROOT
HETATM    1  C   UNL     1      -9.741  12.516  66.559  1.00  0.00    -0.246 C  
HETATM    2  N   UNL     1      -9.222  11.631  65.527  1.00  0.00    -0.155 NA 
HETATM    3  C   UNL     1     -10.070  10.495  65.165  1.00  0.00    -0.314 C  
HETATM    4  C   UNL     1      -9.179   9.763  64.160  1.00  0.00    -0.277 C  
HETATM    5  C   UNL     1      -7.758  10.104  64.596  1.00  0.00    -0.141 C  
HETATM    6  C   UNL     1      -7.932  11.004  65.821  1.00  0.00    -0.013 C  
HETATM    7  C   UNL     1      -7.959  10.188  67.115  1.00  0.00    -0.109 C  
HETATM    8  C   UNL     1      -9.253   9.390  67.354  1.00  0.00    -0.126 C  
HETATM    9  C   UNL     1     -10.407   9.588  66.360  1.00  0.00    -0.243 C  
ENDROOT
BRANCH   8  10
HETATM   10  O   UNL     1      -8.872   8.003  67.436  1.00  0.00    -0.129 OA 
BRANCH  10  11
HETATM   11  C   UNL     1      -9.169   7.438  68.643  1.00  0.00    -0.143 C  
HETATM   12  C   UNL     1      -9.484   5.963  68.453  1.00  0.00    -0.130 C  
HETATM   13  O   UNL     1      -9.137   8.050  69.702  1.00  0.00    -0.151 OA 
HETATM   14  C   UNL     1     -10.982   5.772  68.201  1.00  0.00    -0.057 C  
HETATM   15  C   UNL     1      -8.985   5.116  69.617  1.00  0.00    -0.137 A  
HETATM   16  C   UNL     1      -7.920   4.220  69.431  1.00  0.00    -0.060 A  
HETATM   17  O   UNL     1     -11.406   6.399  66.991  1.00  0.00    -0.667 OA 
HETATM   18  H   UNL     1     -12.336   6.280  66.835  1.00  0.00     0.000 HD 
HETATM   19  C   UNL     1      -7.474   3.418  70.485  1.00  0.00    -0.040 A  
HETATM   20  C   UNL     1      -8.080   3.506  71.736  1.00  0.00    -0.062 A  
HETATM   21  C   UNL     1      -9.122   4.407  71.940  1.00  0.00    -0.163 A  
HETATM   22  C   UNL     1      -9.568   5.209  70.891  1.00  0.00    -0.235 A  
ENDBRANCH  10  11
ENDBRANCH   8  10
TORSDOF 2
ENDMDL
MODEL      163
REMARK 921   NORMALIZED FREE ENERGY PREDICTED BY IDOCK:   -3.19 KCAL/MOL
REMARK 922        TOTAL FREE ENERGY PREDICTED BY IDOCK:   -4.03 KCAL/MOL
REMARK 923 INTER-LIGAND FREE ENERGY PREDICTED BY IDOCK:   -3.58 KCAL/MOL
REMARK 924 INTRA-LIGAND FREE ENERGY PREDICTED BY IDOCK:   -0.46 KCAL/MOL
REMARK 927      BINDING AFFINITY PREDICTED BY RF-SCORE:    0.00 PKD
ROOT
HETATM    1  C   UNL     1      -8.705   4.259  72.505  1.00  0.00    -0.105 C  
HETATM    2  N   UNL     1      -9.504   5.367  73.009  1.00  0.00    -0.143 NA 
HETATM    3  C   UNL     1     -10.800   5.573  72.365  1.00  0.00    -0.248 C  
HETATM    4  C   UNL     1     -11.287   6.841  73.068  1.00  0.00    -0.116 C  
HETATM    5  C   UNL     1     -10.008   7.580  73.444  1.00  0.00    -0.378 C  
HETATM    6  C   UNL     1      -8.877   6.687  72.929  1.00  0.00    -0.125 C  
HETATM    7  C   UNL     1      -8.478   7.060  71.499  1.00  0.00    -0.116 C  
HETATM    8  C   UNL     1      -9.483   6.639  70.413  1.00  0.00    -0.166 C  
HETATM    9  C   UNL     1     -10.692   5.796  70.848  1.00  0.00    -0.333 C  
ENDROOT
BRANCH   8  10
HETATM   10  O   UNL     1      -9.904   7.846  69.751  1.00  0.00    -0.176 OA 
BRANCH  10  11
HETATM   11  C   UNL     1      -9.244   8.071  68.577  1.00  0.00    -0.135 C  
HETATM   12  C   UNL     1      -9.209   9.563  68.287  1.00  0.00    -0.132 C  
HETATM   13  O   UNL     1      -8.737   7.182  67.907  1.00  0.00    -0.126 OA 
HETATM   14  C   UNL     1     -10.434   9.969  67.466  1.00  0.00    -0.254 C  
HETATM   15  C   UNL     1      -7.905   9.987  67.623  1.00  0.00    -0.095 A  
HETATM   16  C   UNL     1      -6.984  10.785  68.321  1.00  0.00    -0.069 A  
HETATM   17  O   UNL     1     -11.652   9.761  68.179  1.00  0.00    -0.527 OA 
HETATM   18  H   UNL     1     -12.413  10.013  67.669  1.00  0.00     0.000 HD 
HETATM   19  C   UNL     1      -5.800  11.203  67.710  1.00  0.00    -0.047 A  
HETATM   20  C   UNL     1      -5.516  10.823  66.401  1.00  0.00    -0.091 A  
HETATM   21  C   UNL     1      -6.409  10.012  65.704  1.00  0.00    -0.094 A  
HETATM   22  C   UNL     1      -7.592   9.593  66.312  1.00  0.00    -0.101 A  
ENDBRANCH  10  11
ENDBRANCH   8  10
TORSDOF 2
ENDMDL
MODEL      164
REMARK 921   NORMALIZED FREE ENERGY PREDICTED BY IDOCK:   -3.16 KCAL/MOL
REMARK 922        TOTAL FREE ENERGY PREDICTED BY IDOCK:   -4.01 KCAL/MOL
REMARK 923 INTER-LIGAND FREE ENERGY PREDICTED BY IDOCK:   -3.36 KCAL/MOL
REMARK 924 INTRA-LIGAND FREE ENERGY PREDICTED BY IDOCK:   -0.65 KCAL/MOL
REMARK 927      BINDING AFFINITY PREDICTED BY RF-SCORE:    0.00 PKD
ROOT
HETATM    1  C   UNL     1      -6.955   8.712  72.076  1.00  0.00    -0.061 C  
HETATM    2  N   UNL     1      -7.311   7.601  71.206  1.00  0.00    -0.072 NA 
HETATM    3  C   UNL     1      -6.947   7.745  69.796  1.00  0.00    -0.047 C  
HETATM    4  C   UNL     1      -7.551   6.472  69.200  1.00  0.00    -0.100 C  
HETATM    5  C   UNL     1      -8.739   6.157  70.102  1.00  0.00    -0.141 C  
HETATM    6  C   UNL     1      -8.736   7.271  71.151  1.00  0.00    -0.135 C  
HETATM    7  C   UNL     1      -9.595   8.458  70.709  1.00  0.00    -0.203 C  
HETATM    8  C   UNL     1      -8.983   9.325  69.595  1.00  0.00    -0.160 C  
HETATM    9  C   UNL     1      -7.553   8.997  69.141  1.00  0.00    -0.073 C  
ENDROOT
BRANCH   8  10
HETATM   10  O   UNL     1      -9.901   9.281  68.487  1.00  0.00    -0.151 OA 
BRANCH  10  11
HETATM   11  C   UNL     1      -9.827  10.385  67.687  1.00  0.00    -0.170 C  
HETATM   12  C   UNL     1     -10.327  11.603  68.448  1.00  0.00    -0.215 C  
HETATM   13  O   UNL     1      -9.383  10.365  66.548  1.00  0.00    -0.158 OA 
HETATM   14  C   UNL     1     -11.833  11.775  68.236  1.00  0.00    -0.271 C  
HETATM   15  C   UNL     1      -9.549  12.862  68.089  1.00  0.00    -0.223 A  
HETATM   16  C   UNL     1      -8.698  13.460  69.034  1.00  0.00     0.404 A  
HETATM   17  O   UNL     1     -12.578  10.679  68.764  1.00  0.00    -0.733 OA 
HETATM   18  H   UNL     1     -13.513  10.785  68.633  1.00  0.00     0.000 HD 
HETATM   19  C   UNL     1      -8.003  14.631  68.723  1.00  0.00    -0.151 A  
HETATM   20  C   UNL     1      -8.141  15.214  67.466  1.00  0.00    -0.196 A  
HETATM   21  C   UNL     1      -8.963  14.620  66.512  1.00  0.00    -0.236 A  
HETATM   22  C   UNL     1      -9.658  13.450  66.818  1.00  0.00    -0.262 A  
ENDBRANCH  10  11
ENDBRANCH   8  10
TORSDOF 2
ENDMDL
MODEL      165
REMARK 921   NORMALIZED FREE ENERGY PREDICTED BY IDOCK:   -3.16 KCAL/MOL
REMARK 922        TOTAL FREE ENERGY PREDICTED BY IDOCK:   -4.00 KCAL/MOL
REMARK 923 INTER-LIGAND FREE ENERGY PREDICTED BY IDOCK:   -3.27 KCAL/MOL
REMARK 924 INTRA-LIGAND FREE ENERGY PREDICTED BY IDOCK:   -0.73 KCAL/MOL
REMARK 927      BINDING AFFINITY PREDICTED BY RF-SCORE:    0.00 PKD
ROOT
HETATM    1  C   UNL     1     -11.692   6.460  72.483  1.00  0.00    -0.184 C  
HETATM    2  N   UNL     1     -10.328   6.084  72.143  1.00  0.00    -0.193 NA 
HETATM    3  C   UNL     1      -9.284   7.040  72.511  1.00  0.00    -0.138 C  
HETATM    4  C   UNL     1      -8.041   6.370  71.923  1.00  0.00    -0.109 C  
HETATM    5  C   UNL     1      -8.567   5.572  70.734  1.00  0.00    -0.128 C  
HETATM    6  C   UNL     1     -10.073   5.842  70.721  1.00  0.00    -0.199 C  
HETATM    7  C   UNL     1     -10.416   7.054  69.851  1.00  0.00    -0.234 C  
HETATM    8  C   UNL     1     -10.044   8.418  70.460  1.00  0.00    -0.190 C  
HETATM    9  C   UNL     1      -9.497   8.433  71.895  1.00  0.00    -0.323 C  
ENDROOT
BRANCH   8  10
HETATM   10  O   UNL     1      -9.119   9.037  69.546  1.00  0.00    -0.144 OA 
BRANCH  10  11
HETATM   11  C   UNL     1      -9.292  10.388  69.444  1.00  0.00    -0.167 C  
HETATM   12  C   UNL     1     -10.761  10.698  69.206  1.00  0.00    -0.275 C  
HETATM   13  O   UNL     1      -8.383  11.196  69.569  1.00  0.00     0.118 OA 
HETATM   14  C   UNL     1     -11.058  10.729  67.705  1.00  0.00    -0.318 C  
HETATM   15  C   UNL     1     -11.196  11.980  69.905  1.00  0.00    -0.020 A  
HETATM   16  C   UNL     1     -12.079  11.926  70.996  1.00  0.00    -0.119 A  
HETATM   17  O   UNL     1     -10.845   9.460  67.090  1.00  0.00    -0.262 OA 
HETATM   18  H   UNL     1     -11.029   9.480  66.157  1.00  0.00     0.000 HD 
HETATM   19  C   UNL     1     -12.505  13.098  71.624  1.00  0.00    -0.119 A  
HETATM   20  C   UNL     1     -12.051  14.337  71.177  1.00  0.00    -0.409 A  
HETATM   21  C   UNL     1     -11.157  14.405  70.112  1.00  0.00    -0.073 A  
HETATM   22  C   UNL     1     -10.728  13.236  69.483  1.00  0.00     0.211 A  
ENDBRANCH  10  11
ENDBRANCH   8  10
TORSDOF 2
ENDMDL
MODEL      166
REMARK 921   NORMALIZED FREE ENERGY PREDICTED BY IDOCK:   -3.16 KCAL/MOL
REMARK 922        TOTAL FREE ENERGY PREDICTED BY IDOCK:   -4.00 KCAL/MOL
REMARK 923 INTER-LIGAND FREE ENERGY PREDICTED BY IDOCK:   -4.03 KCAL/MOL
REMARK 924 INTRA-LIGAND FREE ENERGY PREDICTED BY IDOCK:    0.03 KCAL/MOL
REMARK 927      BINDING AFFINITY PREDICTED BY RF-SCORE:    0.00 PKD
ROOT
HETATM    1  C   UNL     1      -7.544  19.877  69.815  1.00  0.00     0.302 C  
HETATM    2  N   UNL     1      -6.823  19.501  68.608  1.00  0.00    -0.294 NA 
HETATM    3  C   UNL     1      -7.538  18.630  67.675  1.00  0.00    -0.230 C  
HETATM    4  C   UNL     1      -6.464  18.377  66.617  1.00  0.00    -0.216 C  
HETATM    5  C   UNL     1      -5.147  18.489  67.378  1.00  0.00    -0.144 C  
HETATM    6  C   UNL     1      -5.558  18.796  68.820  1.00  0.00    -0.195 C  
HETATM    7  C   UNL     1      -5.733  17.512  69.636  1.00  0.00    -0.231 C  
HETATM    8  C   UNL     1      -6.998  16.701  69.309  1.00  0.00    -0.225 C  
HETATM    9  C   UNL     1      -7.998  17.309  68.314  1.00  0.00    -0.244 C  
ENDROOT
BRANCH   8  10
HETATM   10  O   UNL     1      -6.554  15.404  68.869  1.00  0.00    -0.104 OA 
BRANCH  10  11
HETATM   11  C   UNL     1      -7.333  14.879  67.879  1.00  0.00    -0.147 C  
HETATM   12  C   UNL     1      -8.309  13.876  68.474  1.00  0.00    -0.132 C  
HETATM   13  O   UNL     1      -7.255  15.218  66.706  1.00  0.00    -0.099 OA 
HETATM   14  C   UNL     1      -7.690  12.477  68.478  1.00  0.00    -0.113 C  
HETATM   15  C   UNL     1      -9.660  13.905  67.769  1.00  0.00    -0.222 A  
HETATM   16  C   UNL     1     -10.795  14.390  68.440  1.00  0.00    -0.256 A  
HETATM   17  O   UNL     1      -6.534  12.404  69.311  1.00  0.00    -0.098 OA 
HETATM   18  H   UNL     1      -6.150  11.535  69.314  1.00  0.00     0.000 HD 
HETATM   19  C   UNL     1     -12.043  14.393  67.812  1.00  0.00    -0.304 A  
HETATM   20  C   UNL     1     -12.172  13.921  66.508  1.00  0.00    -0.482 A  
HETATM   21  C   UNL     1     -11.051  13.460  65.823  1.00  0.00    -0.295 A  
HETATM   22  C   UNL     1      -9.803  13.456  66.446  1.00  0.00    -0.299 A  
ENDBRANCH  10  11
ENDBRANCH   8  10
TORSDOF 2
ENDMDL
MODEL      167
REMARK 921   NORMALIZED FREE ENERGY PREDICTED BY IDOCK:   -3.15 KCAL/MOL
REMARK 922        TOTAL FREE ENERGY PREDICTED BY IDOCK:   -3.99 KCAL/MOL
REMARK 923 INTER-LIGAND FREE ENERGY PREDICTED BY IDOCK:   -3.51 KCAL/MOL
REMARK 924 INTRA-LIGAND FREE ENERGY PREDICTED BY IDOCK:   -0.47 KCAL/MOL
REMARK 927      BINDING AFFINITY PREDICTED BY RF-SCORE:    0.00 PKD
ROOT
HETATM    1  C   UNL     1      -8.325   7.936  72.945  1.00  0.00    -0.152 C  
HETATM    2  N   UNL     1      -8.508   8.973  71.940  1.00  0.00    -0.346 NA 
HETATM    3  C   UNL     1      -9.739   8.900  71.154  1.00  0.00    -0.274 C  
HETATM    4  C   UNL     1      -9.537  10.052  70.169  1.00  0.00    -0.151 C  
HETATM    5  C   UNL     1      -8.023  10.157  70.014  1.00  0.00    -0.108 C  
HETATM    6  C   UNL     1      -7.464   9.056  70.918  1.00  0.00    -0.116 C  
HETATM    7  C   UNL     1      -7.288   7.741  70.153  1.00  0.00    -0.071 C  
HETATM    8  C   UNL     1      -8.595   6.996  69.832  1.00  0.00    -0.141 C  
HETATM    9  C   UNL     1      -9.900   7.565  70.408  1.00  0.00    -0.183 C  
ENDROOT
BRANCH   8  10
HETATM   10  O   UNL     1      -8.664   6.886  68.399  1.00  0.00    -0.125 OA 
BRANCH  10  11
HETATM   11  C   UNL     1      -8.856   5.604  67.969  1.00  0.00    -0.105 C  
HETATM   12  C   UNL     1      -9.437   5.617  66.564  1.00  0.00    -0.165 C  
HETATM   13  O   UNL     1      -8.556   4.619  68.629  1.00  0.00    -0.088 OA 
HETATM   14  C   UNL     1     -10.966   5.632  66.625  1.00  0.00    -0.091 C  
HETATM   15  C   UNL     1      -8.907   4.469  65.714  1.00  0.00    -0.124 A  
HETATM   16  C   UNL     1      -8.047   4.729  64.634  1.00  0.00    -0.107 A  
HETATM   17  O   UNL     1     -11.467   6.817  67.242  1.00  0.00    -0.752 OA 
HETATM   18  H   UNL     1     -12.416   6.826  67.281  1.00  0.00     0.000 HD 
HETATM   19  C   UNL     1      -7.579   3.685  63.832  1.00  0.00    -0.074 A  
HETATM   20  C   UNL     1      -7.956   2.371  64.102  1.00  0.00    -0.077 A  
HETATM   21  C   UNL     1      -8.790   2.097  65.183  1.00  0.00    -0.122 A  
HETATM   22  C   UNL     1      -9.258   3.137  65.987  1.00  0.00    -0.138 A  
ENDBRANCH  10  11
ENDBRANCH   8  10
TORSDOF 2
ENDMDL
MODEL      168
REMARK 921   NORMALIZED FREE ENERGY PREDICTED BY IDOCK:   -3.13 KCAL/MOL
REMARK 922        TOTAL FREE ENERGY PREDICTED BY IDOCK:   -3.97 KCAL/MOL
REMARK 923 INTER-LIGAND FREE ENERGY PREDICTED BY IDOCK:   -3.43 KCAL/MOL
REMARK 924 INTRA-LIGAND FREE ENERGY PREDICTED BY IDOCK:   -0.54 KCAL/MOL
REMARK 927      BINDING AFFINITY PREDICTED BY RF-SCORE:    0.00 PKD
ROOT
HETATM    1  C   UNL     1      -9.481   7.340  73.419  1.00  0.00    -0.208 C  
HETATM    2  N   UNL     1     -10.620   7.258  72.516  1.00  0.00    -0.230 NA 
HETATM    3  C   UNL     1     -10.733   6.031  71.730  1.00  0.00    -0.244 C  
HETATM    4  C   UNL     1     -11.950   6.344  70.857  1.00  0.00    -0.258 C  
HETATM    5  C   UNL     1     -11.929   7.862  70.709  1.00  0.00    -0.146 C  
HETATM    6  C   UNL     1     -10.702   8.313  71.504  1.00  0.00    -0.235 C  
HETATM    7  C   UNL     1      -9.454   8.373  70.619  1.00  0.00    -0.191 C  
HETATM    8  C   UNL     1      -8.865   7.006  70.233  1.00  0.00    -0.148 C  
HETATM    9  C   UNL     1      -9.495   5.754  70.862  1.00  0.00    -0.196 C  
ENDROOT
BRANCH   8  10
HETATM   10  O   UNL     1      -8.897   6.935  68.795  1.00  0.00    -0.132 OA 
BRANCH  10  11
HETATM   11  C   UNL     1      -7.825   7.542  68.206  1.00  0.00    -0.122 C  
HETATM   12  C   UNL     1      -8.309   8.545  67.171  1.00  0.00    -0.111 C  
HETATM   13  O   UNL     1      -6.664   7.314  68.518  1.00  0.00    -0.053 OA 
HETATM   14  C   UNL     1      -8.446   7.869  65.805  1.00  0.00    -0.140 C  
HETATM   15  C   UNL     1      -7.421   9.782  67.114  1.00  0.00    -0.088 A  
HETATM   16  C   UNL     1      -7.910  11.022  67.558  1.00  0.00    -0.116 A  
HETATM   17  O   UNL     1      -9.435   6.841  65.812  1.00  0.00    -0.389 OA 
HETATM   18  H   UNL     1      -9.520   6.421  64.964  1.00  0.00     0.000 HD 
HETATM   19  C   UNL     1      -7.113  12.167  67.482  1.00  0.00    -0.135 A  
HETATM   20  C   UNL     1      -5.820  12.088  66.971  1.00  0.00    -0.131 A  
HETATM   21  C   UNL     1      -5.315  10.861  66.549  1.00  0.00    -0.089 A  
HETATM   22  C   UNL     1      -6.107   9.716  66.624  1.00  0.00    -0.063 A  
ENDBRANCH  10  11
ENDBRANCH   8  10
TORSDOF 2
ENDMDL
MODEL      169
REMARK 921   NORMALIZED FREE ENERGY PREDICTED BY IDOCK:   -3.12 KCAL/MOL
REMARK 922        TOTAL FREE ENERGY PREDICTED BY IDOCK:   -3.96 KCAL/MOL
REMARK 923 INTER-LIGAND FREE ENERGY PREDICTED BY IDOCK:   -4.52 KCAL/MOL
REMARK 924 INTRA-LIGAND FREE ENERGY PREDICTED BY IDOCK:    0.56 KCAL/MOL
REMARK 927      BINDING AFFINITY PREDICTED BY RF-SCORE:    0.00 PKD
ROOT
HETATM    1  C   UNL     1     -12.431  14.042  65.840  1.00  0.00    -0.481 C  
HETATM    2  N   UNL     1     -11.258  14.861  66.107  1.00  0.00    -0.336 NA 
HETATM    3  C   UNL     1      -9.978  14.321  65.650  1.00  0.00    -0.320 C  
HETATM    4  C   UNL     1      -9.003  15.374  66.181  1.00  0.00    -0.294 C  
HETATM    5  C   UNL     1      -9.689  15.937  67.420  1.00  0.00    -0.227 C  
HETATM    6  C   UNL     1     -11.008  15.167  67.516  1.00  0.00    -0.310 C  
HETATM    7  C   UNL     1     -10.858  13.906  68.372  1.00  0.00    -0.269 C  
HETATM    8  C   UNL     1     -10.084  12.756  67.705  1.00  0.00    -0.220 C  
HETATM    9  C   UNL     1      -9.661  12.937  66.239  1.00  0.00    -0.268 C  
ENDROOT
BRANCH   8  10
HETATM   10  O   UNL     1      -8.945  12.486  68.543  1.00  0.00    -0.153 OA 
BRANCH  10  11
HETATM   11  C   UNL     1      -8.186  11.443  68.095  1.00  0.00    -0.143 C  
HETATM   12  C   UNL     1      -7.813  10.544  69.263  1.00  0.00    -0.144 C  
HETATM   13  O   UNL     1      -7.904  11.269  66.918  1.00  0.00    -0.142 OA 
HETATM   14  C   UNL     1      -6.490  11.003  69.880  1.00  0.00    -0.144 C  
HETATM   15  C   UNL     1      -7.783   9.073  68.867  1.00  0.00    -0.094 A  
HETATM   16  C   UNL     1      -8.750   8.187  69.369  1.00  0.00    -0.143 A  
HETATM   17  O   UNL     1      -6.584  12.313  70.438  1.00  0.00    -0.459 OA 
HETATM   18  H   UNL     1      -5.763  12.598  70.821  1.00  0.00     0.000 HD 
HETATM   19  C   UNL     1      -8.713   6.831  69.034  1.00  0.00    -0.130 A  
HETATM   20  C   UNL     1      -7.717   6.345  68.190  1.00  0.00    -0.104 A  
HETATM   21  C   UNL     1      -6.765   7.217  67.667  1.00  0.00    -0.064 A  
HETATM   22  C   UNL     1      -6.800   8.571  67.999  1.00  0.00    -0.070 A  
ENDBRANCH  10  11
ENDBRANCH   8  10
TORSDOF 2
ENDMDL
MODEL      170
REMARK 921   NORMALIZED FREE ENERGY PREDICTED BY IDOCK:   -3.08 KCAL/MOL
REMARK 922        TOTAL FREE ENERGY PREDICTED BY IDOCK:   -3.92 KCAL/MOL
REMARK 923 INTER-LIGAND FREE ENERGY PREDICTED BY IDOCK:   -3.37 KCAL/MOL
REMARK 924 INTRA-LIGAND FREE ENERGY PREDICTED BY IDOCK:   -0.54 KCAL/MOL
REMARK 927      BINDING AFFINITY PREDICTED BY RF-SCORE:    0.00 PKD
ROOT
HETATM    1  C   UNL     1      -6.703  10.555  66.328  1.00  0.00    -0.123 C  
HETATM    2  N   UNL     1      -7.964  10.960  66.933  1.00  0.00    -0.132 NA 
HETATM    3  C   UNL     1      -8.349  10.253  68.154  1.00  0.00    -0.118 C  
HETATM    4  C   UNL     1      -9.727  10.859  68.429  1.00  0.00    -0.179 C  
HETATM    5  C   UNL     1     -10.255  11.240  67.050  1.00  0.00    -0.250 C  
HETATM    6  C   UNL     1      -9.147  10.825  66.081  1.00  0.00    -0.174 C  
HETATM    7  C   UNL     1      -9.348   9.391  65.583  1.00  0.00    -0.309 C  
HETATM    8  C   UNL     1      -9.037   8.294  66.615  1.00  0.00    -0.166 C  
HETATM    9  C   UNL     1      -8.449   8.731  67.965  1.00  0.00    -0.126 C  
ENDROOT
BRANCH   8  10
HETATM   10  O   UNL     1     -10.253   7.544  66.798  1.00  0.00    -0.263 OA 
BRANCH  10  11
HETATM   11  C   UNL     1     -10.106   6.486  67.648  1.00  0.00    -0.147 C  
HETATM   12  C   UNL     1      -9.243   5.420  66.994  1.00  0.00    -0.113 C  
HETATM   13  O   UNL     1     -10.581   6.455  68.775  1.00  0.00    -0.199 OA 
HETATM   14  C   UNL     1     -10.118   4.438  66.214  1.00  0.00    -0.225 C  
HETATM   15  C   UNL     1      -8.343   4.714  68.001  1.00  0.00    -0.098 A  
HETATM   16  C   UNL     1      -6.952   4.907  67.962  1.00  0.00    -0.061 A  
HETATM   17  O   UNL     1     -10.804   5.070  65.134  1.00  0.00    -0.417 OA 
HETATM   18  H   UNL     1     -11.348   4.460  64.650  1.00  0.00     0.000 HD 
HETATM   19  C   UNL     1      -6.117   4.241  68.863  1.00  0.00    -0.030 A  
HETATM   20  C   UNL     1      -6.659   3.383  69.816  1.00  0.00    -0.033 A  
HETATM   21  C   UNL     1      -8.038   3.200  69.881  1.00  0.00    -0.058 A  
HETATM   22  C   UNL     1      -8.875   3.864  68.984  1.00  0.00    -0.151 A  
ENDBRANCH  10  11
ENDBRANCH   8  10
TORSDOF 2
ENDMDL
MODEL      171
REMARK 921   NORMALIZED FREE ENERGY PREDICTED BY IDOCK:   -2.97 KCAL/MOL
REMARK 922        TOTAL FREE ENERGY PREDICTED BY IDOCK:   -3.79 KCAL/MOL
REMARK 923 INTER-LIGAND FREE ENERGY PREDICTED BY IDOCK:   -4.08 KCAL/MOL
REMARK 924 INTRA-LIGAND FREE ENERGY PREDICTED BY IDOCK:    0.29 KCAL/MOL
REMARK 927      BINDING AFFINITY PREDICTED BY RF-SCORE:    0.00 PKD
ROOT
HETATM    1  C   UNL     1      -6.395   7.583  66.608  1.00  0.00    -0.045 C  
HETATM    2  N   UNL     1      -6.325   8.987  66.986  1.00  0.00    -0.059 NA 
HETATM    3  C   UNL     1      -6.253   9.265  68.420  1.00  0.00    -0.053 C  
HETATM    4  C   UNL     1      -6.294  10.794  68.431  1.00  0.00    -0.053 C  
HETATM    5  C   UNL     1      -7.083  11.162  67.179  1.00  0.00    -0.113 C  
HETATM    6  C   UNL     1      -7.443   9.819  66.539  1.00  0.00    -0.095 C  
HETATM    7  C   UNL     1      -8.794   9.304  67.042  1.00  0.00    -0.135 C  
HETATM    8  C   UNL     1      -8.788   8.765  68.483  1.00  0.00    -0.138 C  
HETATM    9  C   UNL     1      -7.436   8.681  69.208  1.00  0.00    -0.082 C  
ENDROOT
BRANCH   8  10
HETATM   10  O   UNL     1      -9.726   9.566  69.226  1.00  0.00    -0.163 OA 
BRANCH  10  11
HETATM   11  C   UNL     1     -10.554  10.300  68.426  1.00  0.00    -0.216 C  
HETATM   12  C   UNL     1     -10.635  11.726  68.946  1.00  0.00    -0.211 C  
HETATM   13  O   UNL     1     -11.099   9.852  67.426  1.00  0.00    -0.234 OA 
HETATM   14  C   UNL     1     -11.786  11.858  69.946  1.00  0.00    -0.308 C  
HETATM   15  C   UNL     1     -10.738  12.743  67.816  1.00  0.00    -0.237 A  
HETATM   16  C   UNL     1      -9.669  13.616  67.553  1.00  0.00    -0.227 A  
HETATM   17  O   UNL     1     -11.582  11.054  71.107  1.00  0.00    -0.215 OA 
HETATM   18  H   UNL     1     -12.297  11.135  71.728  1.00  0.00     0.000 HD 
HETATM   19  C   UNL     1      -9.766  14.571  66.537  1.00  0.00    -0.301 A  
HETATM   20  C   UNL     1     -10.923  14.661  65.768  1.00  0.00    -0.330 A  
HETATM   21  C   UNL     1     -11.981  13.786  66.003  1.00  0.00    -0.443 A  
HETATM   22  C   UNL     1     -11.888  12.831  67.015  1.00  0.00    -0.428 A  
ENDBRANCH  10  11
ENDBRANCH   8  10
TORSDOF 2
ENDMDL
MODEL      172
REMARK 921   NORMALIZED FREE ENERGY PREDICTED BY IDOCK:   -2.94 KCAL/MOL
REMARK 922        TOTAL FREE ENERGY PREDICTED BY IDOCK:   -3.76 KCAL/MOL
REMARK 923 INTER-LIGAND FREE ENERGY PREDICTED BY IDOCK:   -3.12 KCAL/MOL
REMARK 924 INTRA-LIGAND FREE ENERGY PREDICTED BY IDOCK:   -0.64 KCAL/MOL
REMARK 927      BINDING AFFINITY PREDICTED BY RF-SCORE:    0.00 PKD
ROOT
HETATM    1  C   UNL     1      -7.090   6.000  64.792  1.00  0.00    -0.060 C  
HETATM    2  N   UNL     1      -6.663   7.313  65.253  1.00  0.00    -0.047 NA 
HETATM    3  C   UNL     1      -5.717   7.327  66.369  1.00  0.00    -0.031 C  
HETATM    4  C   UNL     1      -5.585   8.829  66.631  1.00  0.00    -0.040 C  
HETATM    5  C   UNL     1      -6.924   9.410  66.190  1.00  0.00    -0.090 C  
HETATM    6  C   UNL     1      -7.732   8.202  65.710  1.00  0.00    -0.092 C  
HETATM    7  C   UNL     1      -8.555   7.592  66.848  1.00  0.00    -0.124 C  
HETATM    8  C   UNL     1      -7.742   6.801  67.887  1.00  0.00    -0.112 C  
HETATM    9  C   UNL     1      -6.243   6.599  67.616  1.00  0.00    -0.035 C  
ENDROOT
BRANCH   8  10
HETATM   10  O   UNL     1      -7.958   7.445  69.156  1.00  0.00    -0.114 OA 
BRANCH  10  11
HETATM   11  C   UNL     1      -8.316   6.574  70.144  1.00  0.00    -0.134 C  
HETATM   12  C   UNL     1      -9.536   5.779  69.707  1.00  0.00    -0.199 C  
HETATM   13  O   UNL     1      -7.701   6.453  71.194  1.00  0.00    -0.095 OA 
HETATM   14  C   UNL     1     -10.817   6.502  70.130  1.00  0.00    -0.282 C  
HETATM   15  C   UNL     1      -9.494   4.342  70.211  1.00  0.00    -0.242 A  
HETATM   16  C   UNL     1      -9.315   3.282  69.308  1.00  0.00    -0.233 A  
HETATM   17  O   UNL     1     -10.954   7.769  69.489  1.00  0.00    -0.390 OA 
HETATM   18  H   UNL     1     -11.749   8.218  69.752  1.00  0.00     0.000 HD 
HETATM   19  C   UNL     1      -9.305   1.959  69.758  1.00  0.00    -0.158 A  
HETATM   20  C   UNL     1      -9.463   1.680  71.113  1.00  0.00    -0.196 A  
HETATM   21  C   UNL     1      -9.617   2.722  72.023  1.00  0.00    -0.209 A  
HETATM   22  C   UNL     1      -9.628   4.043  71.577  1.00  0.00    -0.237 A  
ENDBRANCH  10  11
ENDBRANCH   8  10
TORSDOF 2
ENDMDL
MODEL      173
REMARK 921   NORMALIZED FREE ENERGY PREDICTED BY IDOCK:   -2.93 KCAL/MOL
REMARK 922        TOTAL FREE ENERGY PREDICTED BY IDOCK:   -3.75 KCAL/MOL
REMARK 923 INTER-LIGAND FREE ENERGY PREDICTED BY IDOCK:   -3.85 KCAL/MOL
REMARK 924 INTRA-LIGAND FREE ENERGY PREDICTED BY IDOCK:    0.10 KCAL/MOL
REMARK 927      BINDING AFFINITY PREDICTED BY RF-SCORE:    0.00 PKD
ROOT
HETATM    1  C   UNL     1      -8.433  12.567  67.045  1.00  0.00    -0.161 C  
HETATM    2  N   UNL     1      -9.690  12.199  67.681  1.00  0.00    -0.185 NA 
HETATM    3  C   UNL     1      -9.590  11.320  68.846  1.00  0.00    -0.105 C  
HETATM    4  C   UNL     1     -11.066  11.081  69.169  1.00  0.00    -0.301 C  
HETATM    5  C   UNL     1     -11.774  11.209  67.824  1.00  0.00    -0.220 C  
HETATM    6  C   UNL     1     -10.655  11.510  66.824  1.00  0.00    -0.250 C  
HETATM    7  C   UNL     1     -10.086  10.224  66.218  1.00  0.00    -0.300 C  
HETATM    8  C   UNL     1      -9.198   9.397  67.164  1.00  0.00    -0.134 C  
HETATM    9  C   UNL     1      -8.875   9.994  68.542  1.00  0.00    -0.120 C  
ENDROOT
BRANCH   8  10
HETATM   10  O   UNL     1      -9.822   8.106  67.291  1.00  0.00    -0.164 OA 
BRANCH  10  11
HETATM   11  C   UNL     1      -9.099   7.236  68.056  1.00  0.00    -0.133 C  
HETATM   12  C   UNL     1      -9.967   6.047  68.436  1.00  0.00    -0.173 C  
HETATM   13  O   UNL     1      -7.921   7.403  68.339  1.00  0.00    -0.120 OA 
HETATM   14  C   UNL     1     -10.689   6.322  69.757  1.00  0.00    -0.297 C  
HETATM   15  C   UNL     1      -9.173   4.748  68.476  1.00  0.00    -0.165 A  
HETATM   16  C   UNL     1      -9.403   3.750  67.515  1.00  0.00    -0.238 A  
HETATM   17  O   UNL     1     -11.594   7.421  69.655  1.00  0.00    -0.481 OA 
HETATM   18  H   UNL     1     -12.043   7.592  70.475  1.00  0.00     0.000 HD 
HETATM   19  C   UNL     1      -8.700   2.543  67.561  1.00  0.00    -0.139 A  
HETATM   20  C   UNL     1      -7.755   2.322  68.559  1.00  0.00    -0.053 A  
HETATM   21  C   UNL     1      -7.499   3.311  69.505  1.00  0.00    -0.045 A  
HETATM   22  C   UNL     1      -8.199   4.517  69.461  1.00  0.00    -0.067 A  
ENDBRANCH  10  11
ENDBRANCH   8  10
TORSDOF 2
ENDMDL
MODEL      174
REMARK 921   NORMALIZED FREE ENERGY PREDICTED BY IDOCK:   -2.89 KCAL/MOL
REMARK 922        TOTAL FREE ENERGY PREDICTED BY IDOCK:   -3.70 KCAL/MOL
REMARK 923 INTER-LIGAND FREE ENERGY PREDICTED BY IDOCK:   -3.22 KCAL/MOL
REMARK 924 INTRA-LIGAND FREE ENERGY PREDICTED BY IDOCK:   -0.48 KCAL/MOL
REMARK 927      BINDING AFFINITY PREDICTED BY RF-SCORE:    0.00 PKD
ROOT
HETATM    1  C   UNL     1     -11.642  11.973  66.396  1.00  0.00    -0.313 C  
HETATM    2  N   UNL     1     -10.779  11.495  67.466  1.00  0.00    -0.212 NA 
HETATM    3  C   UNL     1      -9.397  11.972  67.442  1.00  0.00    -0.178 C  
HETATM    4  C   UNL     1      -8.793  11.204  68.619  1.00  0.00    -0.155 C  
HETATM    5  C   UNL     1      -9.615   9.922  68.697  1.00  0.00    -0.159 C  
HETATM    6  C   UNL     1     -10.629  10.042  67.558  1.00  0.00    -0.280 C  
HETATM    7  C   UNL     1     -10.092   9.426  66.263  1.00  0.00    -0.328 C  
HETATM    8  C   UNL     1      -9.002  10.250  65.555  1.00  0.00    -0.173 C  
HETATM    9  C   UNL     1      -8.664  11.632  66.134  1.00  0.00    -0.094 C  
ENDROOT
BRANCH   8  10
HETATM   10  O   UNL     1      -7.832   9.414  65.490  1.00  0.00    -0.100 OA 
BRANCH  10  11
HETATM   11  C   UNL     1      -8.016   8.294  64.731  1.00  0.00    -0.146 C  
HETATM   12  C   UNL     1      -7.680   7.059  65.552  1.00  0.00    -0.105 C  
HETATM   13  O   UNL     1      -8.428   8.318  63.580  1.00  0.00    -0.078 OA 
HETATM   14  C   UNL     1      -6.200   6.705  65.390  1.00  0.00    -0.038 C  
HETATM   15  C   UNL     1      -8.592   5.885  65.220  1.00  0.00    -0.119 A  
HETATM   16  C   UNL     1      -9.529   5.430  66.163  1.00  0.00    -0.171 A  
HETATM   17  O   UNL     1      -5.344   7.728  65.896  1.00  0.00    -0.028 OA 
HETATM   18  H   UNL     1      -4.425   7.508  65.795  1.00  0.00     0.000 HD 
HETATM   19  C   UNL     1     -10.349   4.335  65.878  1.00  0.00    -0.152 A  
HETATM   20  C   UNL     1     -10.251   3.688  64.649  1.00  0.00    -0.142 A  
HETATM   21  C   UNL     1      -9.343   4.143  63.696  1.00  0.00    -0.143 A  
HETATM   22  C   UNL     1      -8.523   5.236  63.977  1.00  0.00    -0.102 A  
ENDBRANCH  10  11
ENDBRANCH   8  10
TORSDOF 2
ENDMDL
MODEL      175
REMARK 921   NORMALIZED FREE ENERGY PREDICTED BY IDOCK:   -2.89 KCAL/MOL
REMARK 922        TOTAL FREE ENERGY PREDICTED BY IDOCK:   -3.70 KCAL/MOL
REMARK 923 INTER-LIGAND FREE ENERGY PREDICTED BY IDOCK:   -3.25 KCAL/MOL
REMARK 924 INTRA-LIGAND FREE ENERGY PREDICTED BY IDOCK:   -0.45 KCAL/MOL
REMARK 927      BINDING AFFINITY PREDICTED BY RF-SCORE:    0.00 PKD
ROOT
HETATM    1  C   UNL     1     -11.252   7.874  72.828  1.00  0.00    -0.405 C  
HETATM    2  N   UNL     1     -10.476   6.643  72.840  1.00  0.00    -0.215 NA 
HETATM    3  C   UNL     1      -9.075   6.759  72.436  1.00  0.00    -0.134 C  
HETATM    4  C   UNL     1      -8.629   5.296  72.475  1.00  0.00    -0.121 C  
HETATM    5  C   UNL     1      -9.898   4.505  72.178  1.00  0.00    -0.237 C  
HETATM    6  C   UNL     1     -10.982   5.568  71.986  1.00  0.00    -0.214 C  
HETATM    7  C   UNL     1     -11.097   5.990  70.519  1.00  0.00    -0.385 C  
HETATM    8  C   UNL     1      -9.951   6.879  70.006  1.00  0.00    -0.180 C  
HETATM    9  C   UNL     1      -8.901   7.346  71.026  1.00  0.00    -0.143 C  
ENDROOT
BRANCH   8  10
HETATM   10  O   UNL     1      -9.335   6.168  68.916  1.00  0.00    -0.124 OA 
BRANCH  10  11
HETATM   11  C   UNL     1      -9.006   6.978  67.868  1.00  0.00    -0.122 C  
HETATM   12  C   UNL     1      -7.828   6.384  67.112  1.00  0.00    -0.108 C  
HETATM   13  O   UNL     1      -9.615   8.001  67.587  1.00  0.00    -0.145 OA 
HETATM   14  C   UNL     1      -6.512   6.905  67.692  1.00  0.00    -0.050 C  
HETATM   15  C   UNL     1      -7.930   6.624  65.611  1.00  0.00    -0.115 A  
HETATM   16  C   UNL     1      -8.166   5.549  64.738  1.00  0.00    -0.133 A  
HETATM   17  O   UNL     1      -6.323   6.499  69.046  1.00  0.00    -0.032 OA 
HETATM   18  H   UNL     1      -5.506   6.823  69.407  1.00  0.00     0.000 HD 
HETATM   19  C   UNL     1      -8.233   5.757  63.358  1.00  0.00    -0.074 A  
HETATM   20  C   UNL     1      -8.073   7.037  62.834  1.00  0.00    -0.038 A  
HETATM   21  C   UNL     1      -7.862   8.115  63.689  1.00  0.00    -0.151 A  
HETATM   22  C   UNL     1      -7.796   7.912  65.067  1.00  0.00    -0.120 A  
ENDBRANCH  10  11
ENDBRANCH   8  10
TORSDOF 2
ENDMDL
MODEL      176
REMARK 921   NORMALIZED FREE ENERGY PREDICTED BY IDOCK:   -2.87 KCAL/MOL
REMARK 922        TOTAL FREE ENERGY PREDICTED BY IDOCK:   -3.68 KCAL/MOL
REMARK 923 INTER-LIGAND FREE ENERGY PREDICTED BY IDOCK:   -3.64 KCAL/MOL
REMARK 924 INTRA-LIGAND FREE ENERGY PREDICTED BY IDOCK:   -0.04 KCAL/MOL
REMARK 927      BINDING AFFINITY PREDICTED BY RF-SCORE:    0.00 PKD
ROOT
HETATM    1  C   UNL     1     -11.937  12.165  65.351  1.00  0.00    -0.229 C  
HETATM    2  N   UNL     1     -11.105  12.810  66.356  1.00  0.00    -0.277 NA 
HETATM    3  C   UNL     1      -9.660  12.659  66.190  1.00  0.00    -0.222 C  
HETATM    4  C   UNL     1      -9.138  13.360  67.445  1.00  0.00    -0.216 C  
HETATM    5  C   UNL     1     -10.250  13.175  68.472  1.00  0.00    -0.218 C  
HETATM    6  C   UNL     1     -11.330  12.379  67.736  1.00  0.00    -0.299 C  
HETATM    7  C   UNL     1     -11.134  10.871  67.918  1.00  0.00    -0.362 C  
HETATM    8  C   UNL     1      -9.962  10.268  67.125  1.00  0.00    -0.197 C  
HETATM    9  C   UNL     1      -9.206  11.190  66.156  1.00  0.00    -0.216 C  
ENDROOT
BRANCH   8  10
HETATM   10  O   UNL     1      -9.067   9.686  68.091  1.00  0.00    -0.123 OA 
BRANCH  10  11
HETATM   11  C   UNL     1      -8.313   8.670  67.578  1.00  0.00    -0.120 C  
HETATM   12  C   UNL     1      -8.615   7.381  68.324  1.00  0.00    -0.124 C  
HETATM   13  O   UNL     1      -7.548   8.808  66.633  1.00  0.00    -0.088 OA 
HETATM   14  C   UNL     1      -7.674   7.231  69.521  1.00  0.00    -0.113 C  
HETATM   15  C   UNL     1      -8.576   6.165  67.406  1.00  0.00    -0.106 A  
HETATM   16  C   UNL     1      -9.759   5.474  67.100  1.00  0.00    -0.155 A  
HETATM   17  O   UNL     1      -7.861   8.267  70.484  1.00  0.00    -0.081 OA 
HETATM   18  H   UNL     1      -7.276   8.174  71.227  1.00  0.00     0.000 HD 
HETATM   19  C   UNL     1      -9.728   4.341  66.283  1.00  0.00    -0.225 A  
HETATM   20  C   UNL     1      -8.521   3.890  65.756  1.00  0.00    -0.110 A  
HETATM   21  C   UNL     1      -7.343   4.580  66.033  1.00  0.00    -0.077 A  
HETATM   22  C   UNL     1      -7.370   5.711  66.847  1.00  0.00    -0.079 A  
ENDBRANCH  10  11
ENDBRANCH   8  10
TORSDOF 2
ENDMDL
MODEL      177
REMARK 921   NORMALIZED FREE ENERGY PREDICTED BY IDOCK:   -2.76 KCAL/MOL
REMARK 922        TOTAL FREE ENERGY PREDICTED BY IDOCK:   -3.56 KCAL/MOL
REMARK 923 INTER-LIGAND FREE ENERGY PREDICTED BY IDOCK:   -3.40 KCAL/MOL
REMARK 924 INTRA-LIGAND FREE ENERGY PREDICTED BY IDOCK:   -0.16 KCAL/MOL
REMARK 927      BINDING AFFINITY PREDICTED BY RF-SCORE:    0.00 PKD
ROOT
HETATM    1  C   UNL     1     -11.942  12.903  68.538  1.00  0.00    -0.234 C  
HETATM    2  N   UNL     1     -10.550  13.322  68.477  1.00  0.00    -0.253 NA 
HETATM    3  C   UNL     1     -10.168  14.123  67.314  1.00  0.00    -0.256 C  
HETATM    4  C   UNL     1      -8.663  14.282  67.540  1.00  0.00    -0.204 C  
HETATM    5  C   UNL     1      -8.262  13.031  68.315  1.00  0.00    -0.150 C  
HETATM    6  C   UNL     1      -9.563  12.241  68.477  1.00  0.00    -0.125 C  
HETATM    7  C   UNL     1      -9.769  11.261  67.319  1.00  0.00    -0.192 C  
HETATM    8  C   UNL     1     -10.174  11.907  65.983  1.00  0.00    -0.229 C  
HETATM    9  C   UNL     1     -10.448  13.419  65.977  1.00  0.00    -0.294 C  
ENDROOT
BRANCH   8  10
HETATM   10  O   UNL     1      -9.149  11.562  65.032  1.00  0.00    -0.096 OA 
BRANCH  10  11
HETATM   11  C   UNL     1      -9.061  10.219  64.805  1.00  0.00    -0.219 C  
HETATM   12  C   UNL     1      -7.654   9.869  64.348  1.00  0.00    -0.143 C  
HETATM   13  O   UNL     1      -9.985   9.440  64.991  1.00  0.00    -0.029 OA 
HETATM   14  C   UNL     1      -7.561   9.949  62.822  1.00  0.00    -0.127 C  
HETATM   15  C   UNL     1      -7.197   8.518  64.882  1.00  0.00    -0.084 A  
HETATM   16  C   UNL     1      -6.176   8.448  65.844  1.00  0.00    -0.052 A  
HETATM   17  O   UNL     1      -7.787  11.272  62.339  1.00  0.00    -0.446 OA 
HETATM   18  H   UNL     1      -7.730  11.321  61.391  1.00  0.00     0.000 HD 
HETATM   19  C   UNL     1      -5.730   7.211  66.317  1.00  0.00    -0.031 A  
HETATM   20  C   UNL     1      -6.303   6.033  65.845  1.00  0.00    -0.042 A  
HETATM   21  C   UNL     1      -7.332   6.088  64.909  1.00  0.00    -0.073 A  
HETATM   22  C   UNL     1      -7.779   7.321  64.434  1.00  0.00    -0.120 A  
ENDBRANCH  10  11
ENDBRANCH   8  10
TORSDOF 2
ENDMDL
MODEL      178
REMARK 921   NORMALIZED FREE ENERGY PREDICTED BY IDOCK:   -2.74 KCAL/MOL
REMARK 922        TOTAL FREE ENERGY PREDICTED BY IDOCK:   -3.54 KCAL/MOL
REMARK 923 INTER-LIGAND FREE ENERGY PREDICTED BY IDOCK:   -3.45 KCAL/MOL
REMARK 924 INTRA-LIGAND FREE ENERGY PREDICTED BY IDOCK:   -0.09 KCAL/MOL
REMARK 927      BINDING AFFINITY PREDICTED BY RF-SCORE:    0.00 PKD
ROOT
HETATM    1  C   UNL     1     -10.071   5.733  67.761  1.00  0.00    -0.162 C  
HETATM    2  N   UNL     1      -9.669   6.577  66.646  1.00  0.00    -0.164 NA 
HETATM    3  C   UNL     1      -8.239   6.609  66.344  1.00  0.00    -0.117 C  
HETATM    4  C   UNL     1      -8.192   7.644  65.219  1.00  0.00    -0.136 C  
HETATM    5  C   UNL     1      -9.376   8.563  65.500  1.00  0.00    -0.039 C  
HETATM    6  C   UNL     1     -10.017   7.994  66.768  1.00  0.00    -0.274 C  
HETATM    7  C   UNL     1      -9.429   8.635  68.028  1.00  0.00    -0.154 C  
HETATM    8  C   UNL     1      -8.004   8.178  68.385  1.00  0.00    -0.123 C  
HETATM    9  C   UNL     1      -7.380   7.060  67.537  1.00  0.00    -0.092 C  
ENDROOT
BRANCH   8  10
HETATM   10  O   UNL     1      -7.179   9.358  68.374  1.00  0.00    -0.074 OA 
BRANCH  10  11
HETATM   11  C   UNL     1      -7.852  10.484  68.754  1.00  0.00    -0.116 C  
HETATM   12  C   UNL     1      -8.110  11.360  67.539  1.00  0.00    -0.127 C  
HETATM   13  O   UNL     1      -8.211  10.702  69.903  1.00  0.00     0.045 OA 
HETATM   14  C   UNL     1      -6.951  12.340  67.339  1.00  0.00    -0.151 C  
HETATM   15  C   UNL     1      -9.455  12.070  67.619  1.00  0.00    -0.185 A  
HETATM   16  C   UNL     1     -10.495  11.715  66.744  1.00  0.00    -0.265 A  
HETATM   17  O   UNL     1      -5.724  11.669  67.056  1.00  0.00    -0.100 OA 
HETATM   18  H   UNL     1      -5.004  12.278  66.933  1.00  0.00     0.000 HD 
HETATM   19  C   UNL     1     -11.722  12.381  66.791  1.00  0.00    -0.430 A  
HETATM   20  C   UNL     1     -11.930  13.401  67.717  1.00  0.00    -0.363 A  
HETATM   21  C   UNL     1     -10.916  13.748  68.606  1.00  0.00    -0.287 A  
HETATM   22  C   UNL     1      -9.690  13.085  68.562  1.00  0.00    -0.132 A  
ENDBRANCH  10  11
ENDBRANCH   8  10
TORSDOF 2
ENDMDL
MODEL      179
REMARK 921   NORMALIZED FREE ENERGY PREDICTED BY IDOCK:   -2.73 KCAL/MOL
REMARK 922        TOTAL FREE ENERGY PREDICTED BY IDOCK:   -3.52 KCAL/MOL
REMARK 923 INTER-LIGAND FREE ENERGY PREDICTED BY IDOCK:   -3.41 KCAL/MOL
REMARK 924 INTRA-LIGAND FREE ENERGY PREDICTED BY IDOCK:   -0.11 KCAL/MOL
REMARK 927      BINDING AFFINITY PREDICTED BY RF-SCORE:    0.00 PKD
ROOT
HETATM    1  C   UNL     1     -10.512  10.959  64.289  1.00  0.00    -0.335 C  
HETATM    2  N   UNL     1      -9.439  11.145  65.255  1.00  0.00    -0.221 NA 
HETATM    3  C   UNL     1      -8.333  10.191  65.182  1.00  0.00    -0.161 C  
HETATM    4  C   UNL     1      -7.480  10.629  66.374  1.00  0.00    -0.138 C  
HETATM    5  C   UNL     1      -8.481  11.227  67.357  1.00  0.00    -0.137 C  
HETATM    6  C   UNL     1      -9.837  11.089  66.662  1.00  0.00    -0.200 C  
HETATM    7  C   UNL     1     -10.519   9.767  67.025  1.00  0.00    -0.295 C  
HETATM    8  C   UNL     1      -9.907   8.518  66.367  1.00  0.00    -0.257 C  
HETATM    9  C   UNL     1      -8.785   8.730  65.340  1.00  0.00    -0.217 C  
ENDROOT
BRANCH   8  10
HETATM   10  O   UNL     1      -9.473   7.659  67.439  1.00  0.00    -0.136 OA 
BRANCH  10  11
HETATM   11  C   UNL     1      -8.756   6.582  67.004  1.00  0.00    -0.112 C  
HETATM   12  C   UNL     1      -9.677   5.381  66.857  1.00  0.00    -0.166 C  
HETATM   13  O   UNL     1      -7.562   6.625  66.744  1.00  0.00    -0.088 OA 
HETATM   14  C   UNL     1      -9.725   4.590  68.166  1.00  0.00    -0.127 C  
HETATM   15  C   UNL     1      -9.292   4.506  65.671  1.00  0.00    -0.164 A  
HETATM   16  C   UNL     1     -10.129   4.435  64.545  1.00  0.00    -0.031 A  
HETATM   17  O   UNL     1     -10.284   5.354  69.234  1.00  0.00    -0.208 OA 
HETATM   18  H   UNL     1     -10.313   4.863  70.047  1.00  0.00     0.000 HD 
HETATM   19  C   UNL     1      -9.798   3.612  63.465  1.00  0.00    -0.159 A  
HETATM   20  C   UNL     1      -8.627   2.859  63.491  1.00  0.00    -0.086 A  
HETATM   21  C   UNL     1      -7.777   2.937  64.591  1.00  0.00    -0.077 A  
HETATM   22  C   UNL     1      -8.103   3.758  65.670  1.00  0.00    -0.093 A  
ENDBRANCH  10  11
ENDBRANCH   8  10
TORSDOF 2
ENDMDL
MODEL      180
REMARK 921   NORMALIZED FREE ENERGY PREDICTED BY IDOCK:   -2.66 KCAL/MOL
REMARK 922        TOTAL FREE ENERGY PREDICTED BY IDOCK:   -3.44 KCAL/MOL
REMARK 923 INTER-LIGAND FREE ENERGY PREDICTED BY IDOCK:   -2.99 KCAL/MOL
REMARK 924 INTRA-LIGAND FREE ENERGY PREDICTED BY IDOCK:   -0.45 KCAL/MOL
REMARK 927      BINDING AFFINITY PREDICTED BY RF-SCORE:    0.00 PKD
ROOT
HETATM    1  C   UNL     1      -8.272   9.223  66.858  1.00  0.00    -0.119 C  
HETATM    2  N   UNL     1      -8.231   9.462  65.423  1.00  0.00    -0.120 NA 
HETATM    3  C   UNL     1      -7.621  10.721  64.996  1.00  0.00     0.162 C  
HETATM    4  C   UNL     1      -7.845  10.665  63.484  1.00  0.00     0.079 C  
HETATM    5  C   UNL     1      -9.112   9.833  63.319  1.00  0.00    -0.267 C  
HETATM    6  C   UNL     1      -9.529   9.472  64.746  1.00  0.00    -0.108 C  
HETATM    7  C   UNL     1     -10.485  10.516  65.330  1.00  0.00    -0.232 C  
HETATM    8  C   UNL     1      -9.830  11.853  65.718  1.00  0.00    -0.238 C  
HETATM    9  C   UNL     1      -8.302  11.958  65.604  1.00  0.00     0.596 C  
ENDROOT
BRANCH   8  10
HETATM   10  O   UNL     1     -10.480  12.872  64.936  1.00  0.00    -0.305 OA 
BRANCH  10  11
HETATM   11  C   UNL     1     -10.425  14.107  65.515  1.00  0.00    -0.339 C  
HETATM   12  C   UNL     1     -10.517  13.968  67.026  1.00  0.00    -0.275 C  
HETATM   13  O   UNL     1     -10.283  15.144  64.882  1.00  0.00    -0.341 OA 
HETATM   14  C   UNL     1     -11.979  14.025  67.473  1.00  0.00    -0.395 C  
HETATM   15  C   UNL     1      -9.655  14.996  67.749  1.00  0.00    -0.203 A  
HETATM   16  C   UNL     1      -8.512  14.586  68.456  1.00  0.00    -0.166 A  
HETATM   17  O   UNL     1     -12.741  12.935  66.956  1.00  0.00     0.084 OA 
HETATM   18  H   UNL     1     -13.649  12.971  67.233  1.00  0.00     0.000 HD 
HETATM   19  C   UNL     1      -7.732  15.517  69.146  1.00  0.00    -0.210 A  
HETATM   20  C   UNL     1      -8.077  16.866  69.132  1.00  0.00    -0.082 A  
HETATM   21  C   UNL     1      -9.193  17.290  68.416  1.00  0.00    -0.268 A  
HETATM   22  C   UNL     1      -9.974  16.363  67.725  1.00  0.00    -0.248 A  
ENDBRANCH  10  11
ENDBRANCH   8  10
TORSDOF 2
ENDMDL
MODEL      181
REMARK 921   NORMALIZED FREE ENERGY PREDICTED BY IDOCK:   -2.64 KCAL/MOL
REMARK 922        TOTAL FREE ENERGY PREDICTED BY IDOCK:   -3.42 KCAL/MOL
REMARK 923 INTER-LIGAND FREE ENERGY PREDICTED BY IDOCK:   -3.25 KCAL/MOL
REMARK 924 INTRA-LIGAND FREE ENERGY PREDICTED BY IDOCK:   -0.17 KCAL/MOL
REMARK 927      BINDING AFFINITY PREDICTED BY RF-SCORE:    0.00 PKD
ROOT
HETATM    1  C   UNL     1     -11.029   5.878  67.905  1.00  0.00    -0.149 C  
HETATM    2  N   UNL     1      -9.677   5.531  67.490  1.00  0.00    -0.122 NA 
HETATM    3  C   UNL     1      -8.632   5.687  68.501  1.00  0.00    -0.107 C  
HETATM    4  C   UNL     1      -7.380   5.337  67.695  1.00  0.00    -0.076 C  
HETATM    5  C   UNL     1      -7.728   5.732  66.264  1.00  0.00    -0.099 C  
HETATM    6  C   UNL     1      -9.153   6.282  66.349  1.00  0.00    -0.153 C  
HETATM    7  C   UNL     1      -9.155   7.794  66.593  1.00  0.00    -0.195 C  
HETATM    8  C   UNL     1      -8.764   8.223  68.017  1.00  0.00    -0.135 C  
HETATM    9  C   UNL     1      -8.541   7.117  69.060  1.00  0.00    -0.129 C  
ENDROOT
BRANCH   8  10
HETATM   10  O   UNL     1      -7.597   9.057  67.890  1.00  0.00    -0.091 OA 
BRANCH  10  11
HETATM   11  C   UNL     1      -7.896  10.388  67.820  1.00  0.00    -0.101 C  
HETATM   12  C   UNL     1      -8.435  10.719  66.438  1.00  0.00    -0.158 C  
HETATM   13  O   UNL     1      -7.771  11.158  68.762  1.00  0.00    -0.121 OA 
HETATM   14  C   UNL     1      -7.288  11.113  65.505  1.00  0.00     0.340 C  
HETATM   15  C   UNL     1      -9.526  11.780  66.488  1.00  0.00    -0.225 A  
HETATM   16  C   UNL     1     -10.856  11.441  66.187  1.00  0.00    -0.310 A  
HETATM   17  O   UNL     1      -6.372  10.040  65.296  1.00  0.00    -0.092 OA 
HETATM   18  H   UNL     1      -5.660  10.285  64.717  1.00  0.00     0.000 HD 
HETATM   19  C   UNL     1     -11.858  12.414  66.202  1.00  0.00    -0.442 A  
HETATM   20  C   UNL     1     -11.549  13.733  66.525  1.00  0.00    -0.386 A  
HETATM   21  C   UNL     1     -10.239  14.079  66.848  1.00  0.00    -0.260 A  
HETATM   22  C   UNL     1      -9.236  13.110  66.835  1.00  0.00    -0.236 A  
ENDBRANCH  10  11
ENDBRANCH   8  10
TORSDOF 2
ENDMDL
MODEL      182
REMARK 921   NORMALIZED FREE ENERGY PREDICTED BY IDOCK:   -2.62 KCAL/MOL
REMARK 922        TOTAL FREE ENERGY PREDICTED BY IDOCK:   -3.40 KCAL/MOL
REMARK 923 INTER-LIGAND FREE ENERGY PREDICTED BY IDOCK:   -2.88 KCAL/MOL
REMARK 924 INTRA-LIGAND FREE ENERGY PREDICTED BY IDOCK:   -0.52 KCAL/MOL
REMARK 927      BINDING AFFINITY PREDICTED BY RF-SCORE:    0.00 PKD
ROOT
HETATM    1  C   UNL     1     -11.028   5.282  72.364  1.00  0.00    -0.212 C  
HETATM    2  N   UNL     1      -9.789   5.749  72.969  1.00  0.00    -0.165 NA 
HETATM    3  C   UNL     1      -9.767   7.149  73.394  1.00  0.00    -0.232 C  
HETATM    4  C   UNL     1      -8.321   7.294  73.871  1.00  0.00    -0.185 C  
HETATM    5  C   UNL     1      -7.542   6.286  73.033  1.00  0.00    -0.096 C  
HETATM    6  C   UNL     1      -8.593   5.635  72.133  1.00  0.00    -0.126 C  
HETATM    7  C   UNL     1      -8.734   6.385  70.805  1.00  0.00    -0.140 C  
HETATM    8  C   UNL     1      -9.460   7.738  70.896  1.00  0.00    -0.160 C  
HETATM    9  C   UNL     1     -10.067   8.132  72.251  1.00  0.00    -0.338 C  
ENDROOT
BRANCH   8  10
HETATM   10  O   UNL     1      -8.529   8.736  70.436  1.00  0.00    -0.128 OA 
BRANCH  10  11
HETATM   11  C   UNL     1      -8.688   9.047  69.116  1.00  0.00    -0.135 C  
HETATM   12  C   UNL     1      -7.386   8.798  68.371  1.00  0.00    -0.086 C  
HETATM   13  O   UNL     1      -9.746   9.429  68.635  1.00  0.00    -0.148 OA 
HETATM   14  C   UNL     1      -6.524  10.062  68.378  1.00  0.00    -0.054 C  
HETATM   15  C   UNL     1      -7.624   8.272  66.961  1.00  0.00    -0.092 A  
HETATM   16  C   UNL     1      -7.281   6.950  66.634  1.00  0.00    -0.076 A  
HETATM   17  O   UNL     1      -6.129  10.435  69.697  1.00  0.00    -0.043 OA 
HETATM   18  H   UNL     1      -5.594  11.221  69.701  1.00  0.00     0.000 HD 
HETATM   19  C   UNL     1      -7.468   6.468  65.336  1.00  0.00    -0.080 A  
HETATM   20  C   UNL     1      -8.008   7.295  64.354  1.00  0.00    -0.106 A  
HETATM   21  C   UNL     1      -8.375   8.601  64.670  1.00  0.00    -0.165 A  
HETATM   22  C   UNL     1      -8.189   9.084  65.965  1.00  0.00    -0.113 A  
ENDBRANCH  10  11
ENDBRANCH   8  10
TORSDOF 2
ENDMDL
MODEL      183
REMARK 921   NORMALIZED FREE ENERGY PREDICTED BY IDOCK:   -2.61 KCAL/MOL
REMARK 922        TOTAL FREE ENERGY PREDICTED BY IDOCK:   -3.39 KCAL/MOL
REMARK 923 INTER-LIGAND FREE ENERGY PREDICTED BY IDOCK:   -4.32 KCAL/MOL
REMARK 924 INTRA-LIGAND FREE ENERGY PREDICTED BY IDOCK:    0.93 KCAL/MOL
REMARK 927      BINDING AFFINITY PREDICTED BY RF-SCORE:    0.00 PKD
ROOT
HETATM    1  C   UNL     1      -7.614   7.051  67.380  1.00  0.00    -0.109 C  
HETATM    2  N   UNL     1      -7.615   8.044  66.317  1.00  0.00    -0.088 NA 
HETATM    3  C   UNL     1      -7.316   9.418  66.718  1.00  0.00    -0.086 C  
HETATM    4  C   UNL     1      -7.504  10.165  65.396  1.00  0.00    -0.144 C  
HETATM    5  C   UNL     1      -8.536   9.338  64.637  1.00  0.00    -0.209 C  
HETATM    6  C   UNL     1      -8.871   8.178  65.577  1.00  0.00    -0.089 C  
HETATM    7  C   UNL     1     -10.053   8.520  66.488  1.00  0.00    -0.328 C  
HETATM    8  C   UNL     1      -9.738   9.516  67.617  1.00  0.00    -0.154 C  
HETATM    9  C   UNL     1      -8.277   9.957  67.791  1.00  0.00    -0.114 C  
ENDROOT
BRANCH   8  10
HETATM   10  O   UNL     1     -10.601  10.651  67.418  1.00  0.00    -0.222 OA 
BRANCH  10  11
HETATM   11  C   UNL     1     -10.010  11.837  67.745  1.00  0.00    -0.190 C  
HETATM   12  C   UNL     1     -10.773  12.984  67.103  1.00  0.00    -0.266 C  
HETATM   13  O   UNL     1      -9.035  11.926  68.480  1.00  0.00    -0.176 OA 
HETATM   14  C   UNL     1     -10.200  13.289  65.718  1.00  0.00    -0.292 C  
HETATM   15  C   UNL     1     -10.809  14.219  67.995  1.00  0.00    -0.247 A  
HETATM   16  C   UNL     1     -12.017  14.632  68.580  1.00  0.00    -0.305 A  
HETATM   17  O   UNL     1     -10.357  12.192  64.818  1.00  0.00    -0.271 OA 
HETATM   18  H   UNL     1     -10.001  12.382  63.958  1.00  0.00     0.000 HD 
HETATM   19  C   UNL     1     -12.065  15.779  69.376  1.00  0.00    -0.245 A  
HETATM   20  C   UNL     1     -10.909  16.522  69.603  1.00  0.00    -0.322 A  
HETATM   21  C   UNL     1      -9.700  16.111  69.048  1.00  0.00    -0.248 A  
HETATM   22  C   UNL     1      -9.648  14.966  68.254  1.00  0.00    -0.214 A  
ENDBRANCH  10  11
ENDBRANCH   8  10
TORSDOF 2
ENDMDL
MODEL      184
REMARK 921   NORMALIZED FREE ENERGY PREDICTED BY IDOCK:   -2.60 KCAL/MOL
REMARK 922        TOTAL FREE ENERGY PREDICTED BY IDOCK:   -3.37 KCAL/MOL
REMARK 923 INTER-LIGAND FREE ENERGY PREDICTED BY IDOCK:   -2.91 KCAL/MOL
REMARK 924 INTRA-LIGAND FREE ENERGY PREDICTED BY IDOCK:   -0.46 KCAL/MOL
REMARK 927      BINDING AFFINITY PREDICTED BY RF-SCORE:    0.00 PKD
ROOT
HETATM    1  C   UNL     1      -9.462   6.238  69.223  1.00  0.00    -0.134 C  
HETATM    2  N   UNL     1      -8.093   6.519  69.630  1.00  0.00    -0.123 NA 
HETATM    3  C   UNL     1      -7.642   7.900  69.466  1.00  0.00    -0.099 C  
HETATM    4  C   UNL     1      -6.176   7.789  69.888  1.00  0.00    -0.027 C  
HETATM    5  C   UNL     1      -5.789   6.355  69.543  1.00  0.00    -0.018 C  
HETATM    6  C   UNL     1      -7.057   5.744  68.944  1.00  0.00    -0.073 C  
HETATM    7  C   UNL     1      -7.102   5.926  67.424  1.00  0.00    -0.074 C  
HETATM    8  C   UNL     1      -7.408   7.357  66.949  1.00  0.00    -0.093 C  
HETATM    9  C   UNL     1      -7.756   8.404  68.018  1.00  0.00    -0.103 C  
ENDROOT
BRANCH   8  10
HETATM   10  O   UNL     1      -6.280   7.778  66.159  1.00  0.00    -0.043 OA 
BRANCH  10  11
HETATM   11  C   UNL     1      -6.626   8.620  65.141  1.00  0.00    -0.064 C  
HETATM   12  C   UNL     1      -8.002   8.248  64.614  1.00  0.00    -0.145 C  
HETATM   13  O   UNL     1      -5.923   9.547  64.764  1.00  0.00    -0.068 OA 
HETATM   14  C   UNL     1      -7.875   7.226  63.482  1.00  0.00    -0.108 C  
HETATM   15  C   UNL     1      -8.805   9.472  64.194  1.00  0.00    -0.243 A  
HETATM   16  C   UNL     1      -9.935   9.862  64.933  1.00  0.00    -0.190 A  
HETATM   17  O   UNL     1      -7.307   5.996  63.931  1.00  0.00    -0.056 OA 
HETATM   18  H   UNL     1      -7.228   5.361  63.228  1.00  0.00     0.000 HD 
HETATM   19  C   UNL     1     -10.695  10.967  64.539  1.00  0.00    -0.258 A  
HETATM   20  C   UNL     1     -10.332  11.699  63.411  1.00  0.00    -0.482 A  
HETATM   21  C   UNL     1      -9.201  11.338  62.683  1.00  0.00    -0.330 A  
HETATM   22  C   UNL     1      -8.441  10.236  63.074  1.00  0.00    -0.180 A  
ENDBRANCH  10  11
ENDBRANCH   8  10
TORSDOF 2
ENDMDL
MODEL      185
REMARK 921   NORMALIZED FREE ENERGY PREDICTED BY IDOCK:   -2.55 KCAL/MOL
REMARK 922        TOTAL FREE ENERGY PREDICTED BY IDOCK:   -3.32 KCAL/MOL
REMARK 923 INTER-LIGAND FREE ENERGY PREDICTED BY IDOCK:   -3.27 KCAL/MOL
REMARK 924 INTRA-LIGAND FREE ENERGY PREDICTED BY IDOCK:   -0.05 KCAL/MOL
REMARK 927      BINDING AFFINITY PREDICTED BY RF-SCORE:    0.00 PKD
ROOT
HETATM    1  C   UNL     1      -8.726  12.219  66.674  1.00  0.00    -0.132 C  
HETATM    2  N   UNL     1      -9.861  11.891  67.524  1.00  0.00    -0.186 NA 
HETATM    3  C   UNL     1      -9.543  11.341  68.840  1.00  0.00    -0.105 C  
HETATM    4  C   UNL     1     -10.940  11.036  69.384  1.00  0.00    -0.301 C  
HETATM    5  C   UNL     1     -11.778  10.756  68.141  1.00  0.00    -0.173 C  
HETATM    6  C   UNL     1     -10.804  10.916  66.972  1.00  0.00    -0.266 C  
HETATM    7  C   UNL     1     -10.131   9.587  66.619  1.00  0.00    -0.321 C  
HETATM    8  C   UNL     1      -9.060   9.114  67.618  1.00  0.00    -0.122 C  
HETATM    9  C   UNL     1      -8.693  10.061  68.770  1.00  0.00    -0.136 C  
ENDROOT
BRANCH   8  10
HETATM   10  O   UNL     1      -9.498   7.837  68.117  1.00  0.00    -0.145 OA 
BRANCH  10  11
HETATM   11  C   UNL     1      -9.081   6.790  67.345  1.00  0.00    -0.117 C  
HETATM   12  C   UNL     1      -8.322   5.792  68.204  1.00  0.00    -0.107 C  
HETATM   13  O   UNL     1      -9.334   6.687  66.153  1.00  0.00    -0.146 OA 
HETATM   14  C   UNL     1      -6.831   6.137  68.221  1.00  0.00    -0.074 C  
HETATM   15  C   UNL     1      -8.574   4.354  67.770  1.00  0.00    -0.109 A  
HETATM   16  C   UNL     1      -9.306   3.485  68.595  1.00  0.00    -0.230 A  
HETATM   17  O   UNL     1      -6.581   7.406  68.822  1.00  0.00    -0.045 OA 
HETATM   18  H   UNL     1      -5.655   7.621  68.832  1.00  0.00     0.000 HD 
HETATM   19  C   UNL     1      -9.517   2.156  68.218  1.00  0.00    -0.232 A  
HETATM   20  C   UNL     1      -9.009   1.682  67.012  1.00  0.00    -0.132 A  
HETATM   21  C   UNL     1      -8.301   2.538  66.172  1.00  0.00    -0.093 A  
HETATM   22  C   UNL     1      -8.089   3.865  66.545  1.00  0.00    -0.097 A  
ENDBRANCH  10  11
ENDBRANCH   8  10
TORSDOF 2
ENDMDL
MODEL      186
REMARK 921   NORMALIZED FREE ENERGY PREDICTED BY IDOCK:   -2.52 KCAL/MOL
REMARK 922        TOTAL FREE ENERGY PREDICTED BY IDOCK:   -3.29 KCAL/MOL
REMARK 923 INTER-LIGAND FREE ENERGY PREDICTED BY IDOCK:   -3.01 KCAL/MOL
REMARK 924 INTRA-LIGAND FREE ENERGY PREDICTED BY IDOCK:   -0.28 KCAL/MOL
REMARK 927      BINDING AFFINITY PREDICTED BY RF-SCORE:    0.00 PKD
ROOT
HETATM    1  C   UNL     1      -8.068   8.402  63.991  1.00  0.00    -0.142 C  
HETATM    2  N   UNL     1      -7.536   9.378  64.930  1.00  0.00    -0.107 NA 
HETATM    3  C   UNL     1      -6.565   8.877  65.901  1.00  0.00    -0.057 C  
HETATM    4  C   UNL     1      -6.319  10.124  66.752  1.00  0.00    -0.070 C  
HETATM    5  C   UNL     1      -7.624  10.909  66.660  1.00  0.00    -0.139 C  
HETATM    6  C   UNL     1      -8.527  10.056  65.767  1.00  0.00    -0.138 C  
HETATM    7  C   UNL     1      -9.365   9.076  66.593  1.00  0.00    -0.229 C  
HETATM    8  C   UNL     1      -8.586   7.881  67.169  1.00  0.00    -0.128 C  
HETATM    9  C   UNL     1      -7.112   7.727  66.763  1.00  0.00    -0.080 C  
ENDROOT
BRANCH   8  10
HETATM   10  O   UNL     1      -8.724   7.952  68.601  1.00  0.00    -0.128 OA 
BRANCH  10  11
HETATM   11  C   UNL     1      -8.654   6.730  69.206  1.00  0.00    -0.129 C  
HETATM   12  C   UNL     1      -8.549   6.911  70.712  1.00  0.00    -0.144 C  
HETATM   13  O   UNL     1      -8.709   5.670  68.598  1.00  0.00    -0.107 OA 
HETATM   14  C   UNL     1      -7.080   7.000  71.132  1.00  0.00    -0.074 C  
HETATM   15  C   UNL     1      -9.299   5.824  71.473  1.00  0.00    -0.163 A  
HETATM   16  C   UNL     1     -10.462   6.142  72.194  1.00  0.00    -0.237 A  
HETATM   17  O   UNL     1      -6.433   8.145  70.578  1.00  0.00    -0.036 OA 
HETATM   18  H   UNL     1      -5.520   8.200  70.838  1.00  0.00     0.000 HD 
HETATM   19  C   UNL     1     -11.139   5.158  72.918  1.00  0.00    -0.359 A  
HETATM   20  C   UNL     1     -10.671   3.846  72.925  1.00  0.00    -0.208 A  
HETATM   21  C   UNL     1      -9.532   3.513  72.196  1.00  0.00    -0.191 A  
HETATM   22  C   UNL     1      -8.854   4.492  71.471  1.00  0.00    -0.147 A  
ENDBRANCH  10  11
ENDBRANCH   8  10
TORSDOF 2
ENDMDL
MODEL      187
REMARK 921   NORMALIZED FREE ENERGY PREDICTED BY IDOCK:   -2.51 KCAL/MOL
REMARK 922        TOTAL FREE ENERGY PREDICTED BY IDOCK:   -3.27 KCAL/MOL
REMARK 923 INTER-LIGAND FREE ENERGY PREDICTED BY IDOCK:   -2.82 KCAL/MOL
REMARK 924 INTRA-LIGAND FREE ENERGY PREDICTED BY IDOCK:   -0.46 KCAL/MOL
REMARK 927      BINDING AFFINITY PREDICTED BY RF-SCORE:    0.00 PKD
ROOT
HETATM    1  C   UNL     1      -5.952   5.570  63.379  1.00  0.00    -0.021 C  
HETATM    2  N   UNL     1      -6.423   6.899  63.019  1.00  0.00    -0.043 NA 
HETATM    3  C   UNL     1      -5.763   8.020  63.688  1.00  0.00    -0.058 C  
HETATM    4  C   UNL     1      -6.567   9.205  63.152  1.00  0.00    -0.090 C  
HETATM    5  C   UNL     1      -7.950   8.628  62.867  1.00  0.00    -0.163 C  
HETATM    6  C   UNL     1      -7.844   7.154  63.263  1.00  0.00    -0.114 C  
HETATM    7  C   UNL     1      -8.235   6.939  64.727  1.00  0.00    -0.051 C  
HETATM    8  C   UNL     1      -7.198   7.425  65.755  1.00  0.00    -0.066 C  
HETATM    9  C   UNL     1      -5.856   7.946  65.221  1.00  0.00    -0.038 C  
ENDROOT
BRANCH   8  10
HETATM   10  O   UNL     1      -7.855   8.419  66.564  1.00  0.00    -0.090 OA 
BRANCH  10  11
HETATM   11  C   UNL     1      -7.746   8.175  67.903  1.00  0.00    -0.114 C  
HETATM   12  C   UNL     1      -8.089   9.436  68.681  1.00  0.00    -0.104 C  
HETATM   13  O   UNL     1      -7.453   7.083  68.370  1.00  0.00    -0.097 OA 
HETATM   14  C   UNL     1      -6.828  10.270  68.915  1.00  0.00    -0.059 C  
HETATM   15  C   UNL     1      -8.821   9.126  69.980  1.00  0.00    -0.193 A  
HETATM   16  C   UNL     1     -10.173   9.476  70.129  1.00  0.00    -0.291 A  
HETATM   17  O   UNL     1      -6.257  10.735  67.693  1.00  0.00    -0.051 OA 
HETATM   18  H   UNL     1      -5.474  11.253  67.838  1.00  0.00     0.000 HD 
HETATM   19  C   UNL     1     -10.845   9.222  71.328  1.00  0.00    -0.417 A  
HETATM   20  C   UNL     1     -10.181   8.608  72.386  1.00  0.00    -0.319 A  
HETATM   21  C   UNL     1      -8.847   8.234  72.244  1.00  0.00    -0.274 A  
HETATM   22  C   UNL     1      -8.173   8.486  71.049  1.00  0.00    -0.163 A  
ENDBRANCH  10  11
ENDBRANCH   8  10
TORSDOF 2
ENDMDL
MODEL      188
REMARK 921   NORMALIZED FREE ENERGY PREDICTED BY IDOCK:   -2.49 KCAL/MOL
REMARK 922        TOTAL FREE ENERGY PREDICTED BY IDOCK:   -3.25 KCAL/MOL
REMARK 923 INTER-LIGAND FREE ENERGY PREDICTED BY IDOCK:   -2.53 KCAL/MOL
REMARK 924 INTRA-LIGAND FREE ENERGY PREDICTED BY IDOCK:   -0.73 KCAL/MOL
REMARK 927      BINDING AFFINITY PREDICTED BY RF-SCORE:    0.00 PKD
ROOT
HETATM    1  C   UNL     1     -10.896   9.792  67.741  1.00  0.00    -0.246 C  
HETATM    2  N   UNL     1      -9.864   9.786  66.714  1.00  0.00    -0.196 NA 
HETATM    3  C   UNL     1      -9.440   8.471  66.234  1.00  0.00    -0.231 C  
HETATM    4  C   UNL     1      -8.314   8.852  65.271  1.00  0.00    -0.168 C  
HETATM    5  C   UNL     1      -7.760  10.156  65.833  1.00  0.00    -0.127 C  
HETATM    6  C   UNL     1      -8.603  10.431  67.080  1.00  0.00    -0.130 C  
HETATM    7  C   UNL     1      -7.970   9.814  68.330  1.00  0.00    -0.096 C  
HETATM    8  C   UNL     1      -8.086   8.283  68.428  1.00  0.00    -0.127 C  
HETATM    9  C   UNL     1      -8.915   7.560  67.356  1.00  0.00    -0.129 C  
ENDROOT
BRANCH   8  10
HETATM   10  O   UNL     1      -6.742   7.770  68.477  1.00  0.00    -0.055 OA 
BRANCH  10  11
HETATM   11  C   UNL     1      -6.630   6.631  69.221  1.00  0.00    -0.048 C  
HETATM   12  C   UNL     1      -7.173   6.878  70.619  1.00  0.00    -0.069 C  
HETATM   13  O   UNL     1      -6.190   5.578  68.782  1.00  0.00    -0.030 OA 
HETATM   14  C   UNL     1      -6.055   7.372  71.540  1.00  0.00    -0.036 C  
HETATM   15  C   UNL     1      -7.883   5.654  71.183  1.00  0.00    -0.110 A  
HETATM   16  C   UNL     1      -9.275   5.669  71.370  1.00  0.00    -0.163 A  
HETATM   17  O   UNL     1      -5.530   8.631  71.120  1.00  0.00    -0.032 OA 
HETATM   18  H   UNL     1      -4.835   8.937  71.692  1.00  0.00     0.000 HD 
HETATM   19  C   UNL     1      -9.931   4.561  71.913  1.00  0.00    -0.258 A  
HETATM   20  C   UNL     1      -9.208   3.425  72.268  1.00  0.00    -0.159 A  
HETATM   21  C   UNL     1      -7.831   3.387  72.067  1.00  0.00    -0.058 A  
HETATM   22  C   UNL     1      -7.173   4.491  71.524  1.00  0.00    -0.059 A  
ENDBRANCH  10  11
ENDBRANCH   8  10
TORSDOF 2
ENDMDL
MODEL      189
REMARK 921   NORMALIZED FREE ENERGY PREDICTED BY IDOCK:   -2.47 KCAL/MOL
REMARK 922        TOTAL FREE ENERGY PREDICTED BY IDOCK:   -3.23 KCAL/MOL
REMARK 923 INTER-LIGAND FREE ENERGY PREDICTED BY IDOCK:   -2.72 KCAL/MOL
REMARK 924 INTRA-LIGAND FREE ENERGY PREDICTED BY IDOCK:   -0.51 KCAL/MOL
REMARK 927      BINDING AFFINITY PREDICTED BY RF-SCORE:    0.00 PKD
ROOT
HETATM    1  C   UNL     1      -9.571   3.055  70.865  1.00  0.00    -0.145 C  
HETATM    2  N   UNL     1      -8.942   2.405  69.725  1.00  0.00    -0.084 NA 
HETATM    3  C   UNL     1      -7.516   2.667  69.539  1.00  0.00    -0.044 C  
HETATM    4  C   UNL     1      -7.241   1.923  68.230  1.00  0.00    -0.043 C  
HETATM    5  C   UNL     1      -8.572   1.962  67.486  1.00  0.00    -0.107 C  
HETATM    6  C   UNL     1      -9.515   2.728  68.417  1.00  0.00    -0.145 C  
HETATM    7  C   UNL     1      -9.492   4.230  68.123  1.00  0.00    -0.213 C  
HETATM    8  C   UNL     1      -8.224   4.965  68.589  1.00  0.00    -0.084 C  
HETATM    9  C   UNL     1      -7.191   4.163  69.395  1.00  0.00    -0.050 C  
ENDROOT
BRANCH   8  10
HETATM   10  O   UNL     1      -7.628   5.543  67.413  1.00  0.00    -0.087 OA 
BRANCH  10  11
HETATM   11  C   UNL     1      -7.549   6.905  67.468  1.00  0.00    -0.109 C  
HETATM   12  C   UNL     1      -8.840   7.513  66.944  1.00  0.00    -0.145 C  
HETATM   13  O   UNL     1      -6.583   7.509  67.914  1.00  0.00    -0.054 OA 
HETATM   14  C   UNL     1      -8.738   7.750  65.436  1.00  0.00    -0.020 C  
HETATM   15  C   UNL     1      -9.225   8.779  67.700  1.00  0.00    -0.148 A  
HETATM   16  C   UNL     1     -10.352   8.786  68.538  1.00  0.00    -0.231 A  
HETATM   17  O   UNL     1      -8.584   6.531  64.711  1.00  0.00    -0.341 OA 
HETATM   18  H   UNL     1      -8.521   6.679  63.774  1.00  0.00     0.000 HD 
HETATM   19  C   UNL     1     -10.729   9.950  69.212  1.00  0.00    -0.247 A  
HETATM   20  C   UNL     1      -9.982  11.117  69.066  1.00  0.00    -0.155 A  
HETATM   21  C   UNL     1      -8.849  11.118  68.256  1.00  0.00    -0.155 A  
HETATM   22  C   UNL     1      -8.470   9.958  67.582  1.00  0.00    -0.114 A  
ENDBRANCH  10  11
ENDBRANCH   8  10
TORSDOF 2
ENDMDL
MODEL      190
REMARK 921   NORMALIZED FREE ENERGY PREDICTED BY IDOCK:   -2.44 KCAL/MOL
REMARK 922        TOTAL FREE ENERGY PREDICTED BY IDOCK:   -3.20 KCAL/MOL
REMARK 923 INTER-LIGAND FREE ENERGY PREDICTED BY IDOCK:   -2.74 KCAL/MOL
REMARK 924 INTRA-LIGAND FREE ENERGY PREDICTED BY IDOCK:   -0.45 KCAL/MOL
REMARK 927      BINDING AFFINITY PREDICTED BY RF-SCORE:    0.00 PKD
ROOT
HETATM    1  C   UNL     1      -9.203   8.675  71.210  1.00  0.00    -0.220 C  
HETATM    2  N   UNL     1      -8.385   7.524  71.563  1.00  0.00    -0.106 NA 
HETATM    3  C   UNL     1      -7.236   7.260  70.698  1.00  0.00    -0.066 C  
HETATM    4  C   UNL     1      -6.698   5.961  71.301  1.00  0.00    -0.061 C  
HETATM    5  C   UNL     1      -7.926   5.284  71.899  1.00  0.00    -0.113 C  
HETATM    6  C   UNL     1      -9.083   6.238  71.595  1.00  0.00    -0.145 C  
HETATM    7  C   UNL     1      -9.749   5.900  70.258  1.00  0.00    -0.212 C  
HETATM    8  C   UNL     1      -8.933   6.281  69.010  1.00  0.00    -0.123 C  
HETATM    9  C   UNL     1      -7.625   7.057  69.224  1.00  0.00    -0.096 C  
ENDROOT
BRANCH   8  10
HETATM   10  O   UNL     1      -8.699   5.060  68.284  1.00  0.00    -0.101 OA 
BRANCH  10  11
HETATM   11  C   UNL     1      -7.983   5.250  67.136  1.00  0.00    -0.101 C  
HETATM   12  C   UNL     1      -8.888   5.827  66.059  1.00  0.00    -0.150 C  
HETATM   13  O   UNL     1      -6.787   5.017  67.040  1.00  0.00    -0.057 OA 
HETATM   14  C   UNL     1      -9.534   4.697  65.253  1.00  0.00    -0.158 C  
HETATM   15  C   UNL     1      -8.156   6.822  65.168  1.00  0.00    -0.132 A  
HETATM   16  C   UNL     1      -8.478   8.188  65.222  1.00  0.00    -0.157 A  
HETATM   17  O   UNL     1     -10.389   3.886  66.057  1.00  0.00    -0.423 OA 
HETATM   18  H   UNL     1     -10.791   3.184  65.557  1.00  0.00     0.000 HD 
HETATM   19  C   UNL     1      -7.832   9.104  64.388  1.00  0.00    -0.125 A  
HETATM   20  C   UNL     1      -6.853   8.670  63.498  1.00  0.00    -0.088 A  
HETATM   21  C   UNL     1      -6.507   7.322  63.450  1.00  0.00    -0.052 A  
HETATM   22  C   UNL     1      -7.149   6.405  64.282  1.00  0.00    -0.057 A  
ENDBRANCH  10  11
ENDBRANCH   8  10
TORSDOF 2
ENDMDL
MODEL      191
REMARK 921   NORMALIZED FREE ENERGY PREDICTED BY IDOCK:   -2.40 KCAL/MOL
REMARK 922        TOTAL FREE ENERGY PREDICTED BY IDOCK:   -3.15 KCAL/MOL
REMARK 923 INTER-LIGAND FREE ENERGY PREDICTED BY IDOCK:   -3.79 KCAL/MOL
REMARK 924 INTRA-LIGAND FREE ENERGY PREDICTED BY IDOCK:    0.64 KCAL/MOL
REMARK 927      BINDING AFFINITY PREDICTED BY RF-SCORE:    0.00 PKD
ROOT
HETATM    1  C   UNL     1     -11.245   9.705  70.479  1.00  0.00    -0.297 C  
HETATM    2  N   UNL     1     -10.268   8.660  70.213  1.00  0.00    -0.189 NA 
HETATM    3  C   UNL     1     -10.785   7.430  69.614  1.00  0.00    -0.235 C  
HETATM    4  C   UNL     1      -9.528   6.560  69.579  1.00  0.00    -0.150 C  
HETATM    5  C   UNL     1      -8.689   7.058  70.751  1.00  0.00    -0.148 C  
HETATM    6  C   UNL     1      -9.525   8.176  71.379  1.00  0.00    -0.166 C  
HETATM    7  C   UNL     1     -10.446   7.637  72.477  1.00  0.00    -0.323 C  
HETATM    8  C   UNL     1     -11.658   6.834  71.973  1.00  0.00    -0.291 C  
HETATM    9  C   UNL     1     -11.887   6.765  70.455  1.00  0.00    -0.418 C  
ENDROOT
BRANCH   8  10
HETATM   10  O   UNL     1     -11.543   5.515  72.540  1.00  0.00    -0.283 OA 
BRANCH  10  11
HETATM   11  C   UNL     1     -10.458   5.378  73.357  1.00  0.00    -0.235 C  
HETATM   12  C   UNL     1      -9.656   4.155  72.941  1.00  0.00    -0.166 C  
HETATM   13  O   UNL     1     -10.184   6.163  74.254  1.00  0.00    -0.277 OA 
HETATM   14  C   UNL     1     -10.151   2.919  73.694  1.00  0.00    -0.111 C  
HETATM   15  C   UNL     1      -8.157   4.369  73.111  1.00  0.00    -0.095 A  
HETATM   16  C   UNL     1      -7.325   4.463  71.982  1.00  0.00    -0.066 A  
HETATM   17  O   UNL     1     -11.503   2.599  73.370  1.00  0.00    -0.183 OA 
HETATM   18  H   UNL     1     -11.811   1.831  73.838  1.00  0.00     0.000 HD 
HETATM   19  C   UNL     1      -5.946   4.630  72.128  1.00  0.00    -0.016 A  
HETATM   20  C   UNL     1      -5.381   4.713  73.399  1.00  0.00    -0.008 A  
HETATM   21  C   UNL     1      -6.196   4.644  74.526  1.00  0.00    -0.052 A  
HETATM   22  C   UNL     1      -7.574   4.479  74.384  1.00  0.00    -0.081 A  
ENDBRANCH  10  11
ENDBRANCH   8  10
TORSDOF 2
ENDMDL
MODEL      192
REMARK 921   NORMALIZED FREE ENERGY PREDICTED BY IDOCK:   -2.39 KCAL/MOL
REMARK 922        TOTAL FREE ENERGY PREDICTED BY IDOCK:   -3.14 KCAL/MOL
REMARK 923 INTER-LIGAND FREE ENERGY PREDICTED BY IDOCK:   -2.75 KCAL/MOL
REMARK 924 INTRA-LIGAND FREE ENERGY PREDICTED BY IDOCK:   -0.39 KCAL/MOL
REMARK 927      BINDING AFFINITY PREDICTED BY RF-SCORE:    0.00 PKD
ROOT
HETATM    1  C   UNL     1      -6.721   1.971  68.245  1.00  0.00    -0.029 C  
HETATM    2  N   UNL     1      -7.049   2.484  66.923  1.00  0.00    -0.048 NA 
HETATM    3  C   UNL     1      -6.764   3.899  66.692  1.00  0.00    -0.046 C  
HETATM    4  C   UNL     1      -7.317   4.090  65.278  1.00  0.00    -0.072 C  
HETATM    5  C   UNL     1      -8.437   3.061  65.167  1.00  0.00    -0.098 C  
HETATM    6  C   UNL     1      -8.452   2.355  66.525  1.00  0.00    -0.100 C  
HETATM    7  C   UNL     1      -9.404   3.047  67.504  1.00  0.00    -0.229 C  
HETATM    8  C   UNL     1      -8.901   4.390  68.061  1.00  0.00    -0.109 C  
HETATM    9  C   UNL     1      -7.477   4.829  67.687  1.00  0.00    -0.078 C  
ENDROOT
BRANCH   8  10
HETATM   10  O   UNL     1      -9.868   5.384  67.673  1.00  0.00    -0.134 OA 
BRANCH  10  11
HETATM   11  C   UNL     1      -9.429   6.662  67.868  1.00  0.00    -0.117 C  
HETATM   12  C   UNL     1      -9.460   6.992  69.351  1.00  0.00    -0.145 C  
HETATM   13  O   UNL     1      -9.041   7.389  66.963  1.00  0.00    -0.127 OA 
HETATM   14  C   UNL     1     -10.815   7.594  69.730  1.00  0.00    -0.217 C  
HETATM   15  C   UNL     1      -8.298   7.889  69.762  1.00  0.00    -0.127 A  
HETATM   16  C   UNL     1      -7.275   7.386  70.583  1.00  0.00    -0.068 A  
HETATM   17  O   UNL     1     -11.885   6.670  69.537  1.00  0.00    -0.658 OA 
HETATM   18  H   UNL     1     -12.726   7.044  69.772  1.00  0.00     0.000 HD 
HETATM   19  C   UNL     1      -6.221   8.209  70.989  1.00  0.00    -0.034 A  
HETATM   20  C   UNL     1      -6.171   9.537  70.574  1.00  0.00    -0.071 A  
HETATM   21  C   UNL     1      -7.166  10.042  69.742  1.00  0.00    -0.127 A  
HETATM   22  C   UNL     1      -8.219   9.224  69.334  1.00  0.00    -0.114 A  
ENDBRANCH  10  11
ENDBRANCH   8  10
TORSDOF 2
ENDMDL
MODEL      193
REMARK 921   NORMALIZED FREE ENERGY PREDICTED BY IDOCK:   -2.26 KCAL/MOL
REMARK 922        TOTAL FREE ENERGY PREDICTED BY IDOCK:   -3.00 KCAL/MOL
REMARK 923 INTER-LIGAND FREE ENERGY PREDICTED BY IDOCK:   -3.41 KCAL/MOL
REMARK 924 INTRA-LIGAND FREE ENERGY PREDICTED BY IDOCK:    0.41 KCAL/MOL
REMARK 927      BINDING AFFINITY PREDICTED BY RF-SCORE:    0.00 PKD
ROOT
HETATM    1  C   UNL     1      -6.250   4.707  68.862  1.00  0.00    -0.031 C  
HETATM    2  N   UNL     1      -5.938   5.823  69.742  1.00  0.00    -0.023 NA 
HETATM    3  C   UNL     1      -7.079   6.484  70.374  1.00  0.00    -0.072 C  
HETATM    4  C   UNL     1      -6.389   7.630  71.117  1.00  0.00    -0.035 C  
HETATM    5  C   UNL     1      -5.145   7.926  70.287  1.00  0.00    -0.023 C  
HETATM    6  C   UNL     1      -5.209   6.933  69.125  1.00  0.00    -0.014 C  
HETATM    7  C   UNL     1      -5.952   7.525  67.924  1.00  0.00    -0.039 C  
HETATM    8  C   UNL     1      -7.478   7.629  68.091  1.00  0.00    -0.108 C  
HETATM    9  C   UNL     1      -8.100   7.027  69.360  1.00  0.00    -0.130 C  
ENDROOT
BRANCH   8  10
HETATM   10  O   UNL     1      -7.811   9.024  67.962  1.00  0.00    -0.099 OA 
BRANCH  10  11
HETATM   11  C   UNL     1      -8.764   9.431  68.852  1.00  0.00    -0.132 C  
HETATM   12  C   UNL     1     -10.124   8.906  68.420  1.00  0.00    -0.215 C  
HETATM   13  O   UNL     1      -8.516  10.085  69.855  1.00  0.00    -0.189 OA 
HETATM   14  C   UNL     1     -10.811   9.917  67.500  1.00  0.00    -0.243 C  
HETATM   15  C   UNL     1     -10.996   8.527  69.610  1.00  0.00    -0.093 A  
HETATM   16  C   UNL     1     -11.305   7.179  69.857  1.00  0.00    -0.199 A  
HETATM   17  O   UNL     1     -10.090  10.115  66.285  1.00  0.00    -0.226 OA 
HETATM   18  H   UNL     1     -10.517  10.744  65.714  1.00  0.00     0.000 HD 
HETATM   19  C   UNL     1     -12.128   6.824  70.929  1.00  0.00    -0.421 A  
HETATM   20  C   UNL     1     -12.644   7.806  71.771  1.00  0.00    -0.356 A  
HETATM   21  C   UNL     1     -12.327   9.144  71.552  1.00  0.00    -0.421 A  
HETATM   22  C   UNL     1     -11.505   9.502  70.483  1.00  0.00    -0.337 A  
ENDBRANCH  10  11
ENDBRANCH   8  10
TORSDOF 2
ENDMDL
MODEL      194
REMARK 921   NORMALIZED FREE ENERGY PREDICTED BY IDOCK:   -2.20 KCAL/MOL
REMARK 922        TOTAL FREE ENERGY PREDICTED BY IDOCK:   -2.93 KCAL/MOL
REMARK 923 INTER-LIGAND FREE ENERGY PREDICTED BY IDOCK:   -2.56 KCAL/MOL
REMARK 924 INTRA-LIGAND FREE ENERGY PREDICTED BY IDOCK:   -0.37 KCAL/MOL
REMARK 927      BINDING AFFINITY PREDICTED BY RF-SCORE:    0.00 PKD
ROOT
HETATM    1  C   UNL     1      -9.217   3.838  70.446  1.00  0.00    -0.143 C  
HETATM    2  N   UNL     1      -8.111   3.624  69.524  1.00  0.00    -0.053 NA 
HETATM    3  C   UNL     1      -6.878   4.352  69.817  1.00  0.00    -0.041 C  
HETATM    4  C   UNL     1      -6.009   3.966  68.618  1.00  0.00    -0.023 C  
HETATM    5  C   UNL     1      -7.007   3.706  67.495  1.00  0.00    -0.055 C  
HETATM    6  C   UNL     1      -8.377   3.964  68.126  1.00  0.00    -0.091 C  
HETATM    7  C   UNL     1      -8.808   5.423  67.950  1.00  0.00    -0.105 C  
HETATM    8  C   UNL     1      -8.062   6.432  68.840  1.00  0.00    -0.111 C  
HETATM    9  C   UNL     1      -7.077   5.876  69.879  1.00  0.00    -0.068 C  
ENDROOT
BRANCH   8  10
HETATM   10  O   UNL     1      -7.409   7.360  67.952  1.00  0.00    -0.088 OA 
BRANCH  10  11
HETATM   11  C   UNL     1      -7.657   8.665  68.266  1.00  0.00    -0.097 C  
HETATM   12  C   UNL     1      -8.247   9.378  67.060  1.00  0.00    -0.116 C  
HETATM   13  O   UNL     1      -7.458   9.143  69.375  1.00  0.00    -0.073 OA 
HETATM   14  C   UNL     1      -7.130   9.985  66.208  1.00  0.00    -0.105 C  
HETATM   15  C   UNL     1      -9.291  10.413  67.461  1.00  0.00    -0.163 A  
HETATM   16  C   UNL     1     -10.646  10.204  67.153  1.00  0.00    -0.308 A  
HETATM   17  O   UNL     1      -6.269   8.987  65.662  1.00  0.00    -0.055 OA 
HETATM   18  H   UNL     1      -5.575   9.364  65.133  1.00  0.00     0.000 HD 
HETATM   19  C   UNL     1     -11.607  11.161  67.490  1.00  0.00    -0.220 A  
HETATM   20  C   UNL     1     -11.230  12.331  68.145  1.00  0.00    -0.320 A  
HETATM   21  C   UNL     1      -9.894  12.540  68.476  1.00  0.00    -0.153 A  
HETATM   22  C   UNL     1      -8.932  11.587  68.142  1.00  0.00    -0.172 A  
ENDBRANCH  10  11
ENDBRANCH   8  10
TORSDOF 2
ENDMDL
MODEL      195
REMARK 921   NORMALIZED FREE ENERGY PREDICTED BY IDOCK:   -2.13 KCAL/MOL
REMARK 922        TOTAL FREE ENERGY PREDICTED BY IDOCK:   -2.85 KCAL/MOL
REMARK 923 INTER-LIGAND FREE ENERGY PREDICTED BY IDOCK:   -2.27 KCAL/MOL
REMARK 924 INTRA-LIGAND FREE ENERGY PREDICTED BY IDOCK:   -0.57 KCAL/MOL
REMARK 927      BINDING AFFINITY PREDICTED BY RF-SCORE:    0.00 PKD
ROOT
HETATM    1  C   UNL     1      -6.257   5.157  64.027  1.00  0.00    -0.022 C  
HETATM    2  N   UNL     1      -6.413   6.523  63.549  1.00  0.00    -0.036 NA 
HETATM    3  C   UNL     1      -5.813   7.568  64.378  1.00  0.00    -0.037 C  
HETATM    4  C   UNL     1      -6.255   8.831  63.636  1.00  0.00    -0.081 C  
HETATM    5  C   UNL     1      -7.570   8.439  62.971  1.00  0.00    -0.120 C  
HETATM    6  C   UNL     1      -7.793   6.982  63.380  1.00  0.00    -0.107 C  
HETATM    7  C   UNL     1      -8.605   6.882  64.674  1.00  0.00     0.254 C  
HETATM    8  C   UNL     1      -7.839   7.262  65.953  1.00  0.00    -0.106 C  
HETATM    9  C   UNL     1      -6.341   7.571  65.822  1.00  0.00    -0.042 C  
ENDROOT
BRANCH   8  10
HETATM   10  O   UNL     1      -8.547   8.368  66.543  1.00  0.00    -0.111 OA 
BRANCH  10  11
HETATM   11  C   UNL     1      -8.772   8.208  67.880  1.00  0.00    -0.128 C  
HETATM   12  C   UNL     1      -9.226   6.783  68.155  1.00  0.00    -0.121 C  
HETATM   13  O   UNL     1      -8.586   9.090  68.707  1.00  0.00    -0.129 OA 
HETATM   14  C   UNL     1     -10.751   6.691  68.073  1.00  0.00    -0.265 C  
HETATM   15  C   UNL     1      -8.689   6.256  69.480  1.00  0.00    -0.132 A  
HETATM   16  C   UNL     1      -7.725   5.235  69.494  1.00  0.00    -0.073 A  
HETATM   17  O   UNL     1     -11.237   6.987  66.765  1.00  0.00    -0.580 OA 
HETATM   18  H   UNL     1     -12.184   6.930  66.714  1.00  0.00     0.000 HD 
HETATM   19  C   UNL     1      -7.248   4.725  70.704  1.00  0.00    -0.049 A  
HETATM   20  C   UNL     1      -7.720   5.233  71.912  1.00  0.00    -0.110 A  
HETATM   21  C   UNL     1      -8.659   6.261  71.913  1.00  0.00    -0.128 A  
HETATM   22  C   UNL     1      -9.136   6.773  70.707  1.00  0.00    -0.151 A  
ENDBRANCH  10  11
ENDBRANCH   8  10
TORSDOF 2
ENDMDL
MODEL      196
REMARK 921   NORMALIZED FREE ENERGY PREDICTED BY IDOCK:   -2.06 KCAL/MOL
REMARK 922        TOTAL FREE ENERGY PREDICTED BY IDOCK:   -2.78 KCAL/MOL
REMARK 923 INTER-LIGAND FREE ENERGY PREDICTED BY IDOCK:   -2.70 KCAL/MOL
REMARK 924 INTRA-LIGAND FREE ENERGY PREDICTED BY IDOCK:   -0.08 KCAL/MOL
REMARK 927      BINDING AFFINITY PREDICTED BY RF-SCORE:    0.00 PKD
ROOT
HETATM    1  C   UNL     1     -10.517   4.096  71.974  1.00  0.00     0.002 C  
HETATM    2  N   UNL     1      -9.093   3.846  71.811  1.00  0.00    -0.114 NA 
HETATM    3  C   UNL     1      -8.211   5.000  71.983  1.00  0.00    -0.116 C  
HETATM    4  C   UNL     1      -6.849   4.390  71.647  1.00  0.00    -0.031 C  
HETATM    5  C   UNL     1      -7.169   3.264  70.670  1.00  0.00    -0.033 C  
HETATM    6  C   UNL     1      -8.690   3.308  70.510  1.00  0.00    -0.075 C  
HETATM    7  C   UNL     1      -9.104   4.215  69.349  1.00  0.00    -0.189 C  
HETATM    8  C   UNL     1      -8.956   5.723  69.616  1.00  0.00    -0.128 C  
HETATM    9  C   UNL     1      -8.541   6.159  71.029  1.00  0.00    -0.132 C  
ENDROOT
BRANCH   8  10
HETATM   10  O   UNL     1      -8.040   6.228  68.627  1.00  0.00    -0.107 OA 
BRANCH  10  11
HETATM   11  C   UNL     1      -7.944   7.591  68.634  1.00  0.00    -0.123 C  
HETATM   12  C   UNL     1      -8.804   8.169  67.521  1.00  0.00    -0.137 C  
HETATM   13  O   UNL     1      -7.286   8.218  69.452  1.00  0.00    -0.071 OA 
HETATM   14  C   UNL     1      -7.985   8.299  66.235  1.00  0.00    -0.100 C  
HETATM   15  C   UNL     1      -9.453   9.487  67.925  1.00  0.00    -0.149 A  
HETATM   16  C   UNL     1     -10.843   9.559  68.118  1.00  0.00    -0.208 A  
HETATM   17  O   UNL     1      -7.551   7.032  65.744  1.00  0.00    -0.087 OA 
HETATM   18  H   UNL     1      -7.042   7.113  64.946  1.00  0.00     0.000 HD 
HETATM   19  C   UNL     1     -11.450  10.769  68.460  1.00  0.00    -0.362 A  
HETATM   20  C   UNL     1     -10.680  11.918  68.622  1.00  0.00    -0.266 A  
HETATM   21  C   UNL     1      -9.299  11.856  68.456  1.00  0.00    -0.142 A  
HETATM   22  C   UNL     1      -8.689  10.649  68.115  1.00  0.00    -0.130 A  
ENDBRANCH  10  11
ENDBRANCH   8  10
TORSDOF 2
ENDMDL
MODEL      197
REMARK 921   NORMALIZED FREE ENERGY PREDICTED BY IDOCK:   -1.91 KCAL/MOL
REMARK 922        TOTAL FREE ENERGY PREDICTED BY IDOCK:   -2.60 KCAL/MOL
REMARK 923 INTER-LIGAND FREE ENERGY PREDICTED BY IDOCK:   -2.88 KCAL/MOL
REMARK 924 INTRA-LIGAND FREE ENERGY PREDICTED BY IDOCK:    0.28 KCAL/MOL
REMARK 927      BINDING AFFINITY PREDICTED BY RF-SCORE:    0.00 PKD
ROOT
HETATM    1  C   UNL     1     -10.655  19.969  65.636  1.00  0.00    -0.275 C  
HETATM    2  N   UNL     1      -9.859  19.886  66.852  1.00  0.00    -0.384 NA 
HETATM    3  C   UNL     1      -8.547  19.254  66.721  1.00  0.00    -0.307 C  
HETATM    4  C   UNL     1      -8.065  19.258  68.173  1.00  0.00    -0.349 C  
HETATM    5  C   UNL     1      -9.347  19.195  68.997  1.00  0.00    -0.326 C  
HETATM    6  C   UNL     1     -10.473  19.156  67.962  1.00  0.00    -0.370 C  
HETATM    7  C   UNL     1     -10.837  17.717  67.586  1.00  0.00    -0.227 C  
HETATM    8  C   UNL     1      -9.811  16.999  66.692  1.00  0.00    -0.290 C  
HETATM    9  C   UNL     1      -8.620  17.819  66.174  1.00  0.00    -0.139 C  
ENDROOT
BRANCH   8  10
HETATM   10  O   UNL     1      -9.365  15.842  67.423  1.00  0.00    -0.207 OA 
BRANCH  10  11
HETATM   11  C   UNL     1     -10.394  15.102  67.932  1.00  0.00    -0.241 C  
HETATM   12  C   UNL     1      -9.880  14.219  69.058  1.00  0.00    -0.074 C  
HETATM   13  O   UNL     1     -11.549  15.193  67.541  1.00  0.00    -0.331 OA 
HETATM   14  C   UNL     1      -9.425  12.868  68.502  1.00  0.00    -0.096 C  
HETATM   15  C   UNL     1     -10.903  14.064  70.176  1.00  0.00     0.363 A  
HETATM   16  C   UNL     1     -10.668  14.646  71.433  1.00  0.00     1.030 A  
HETATM   17  O   UNL     1      -8.323  13.001  67.605  1.00  0.00    -0.155 OA 
HETATM   18  H   UNL     1      -8.040  12.162  67.260  1.00  0.00     0.000 HD 
HETATM   19  C   UNL     1     -11.586  14.485  72.473  1.00  0.00     0.384 A  
HETATM   20  C   UNL     1     -12.752  13.750  72.271  1.00  0.00    -0.269 A  
HETATM   21  C   UNL     1     -13.009  13.187  71.024  1.00  0.00    -0.212 A  
HETATM   22  C   UNL     1     -12.095  13.347  69.982  1.00  0.00    -0.404 A  
ENDBRANCH  10  11
ENDBRANCH   8  10
TORSDOF 2
ENDMDL
MODEL      198
REMARK 921   NORMALIZED FREE ENERGY PREDICTED BY IDOCK:   -1.78 KCAL/MOL
REMARK 922        TOTAL FREE ENERGY PREDICTED BY IDOCK:   -2.46 KCAL/MOL
REMARK 923 INTER-LIGAND FREE ENERGY PREDICTED BY IDOCK:   -3.69 KCAL/MOL
REMARK 924 INTRA-LIGAND FREE ENERGY PREDICTED BY IDOCK:    1.23 KCAL/MOL
REMARK 927      BINDING AFFINITY PREDICTED BY RF-SCORE:    0.00 PKD
ROOT
HETATM    1  C   UNL     1     -10.991  10.313  68.081  1.00  0.00    -0.274 C  
HETATM    2  N   UNL     1      -9.791   9.581  68.457  1.00  0.00    -0.155 NA 
HETATM    3  C   UNL     1      -9.923   8.127  68.541  1.00  0.00    -0.190 C  
HETATM    4  C   UNL     1      -8.535   7.728  69.044  1.00  0.00    -0.132 C  
HETATM    5  C   UNL     1      -8.062   8.934  69.848  1.00  0.00    -0.112 C  
HETATM    6  C   UNL     1      -9.212   9.939  69.753  1.00  0.00    -0.227 C  
HETATM    7  C   UNL     1     -10.204   9.764  70.906  1.00  0.00    -0.195 C  
HETATM    8  C   UNL     1     -11.106   8.522  70.805  1.00  0.00    -0.254 C  
HETATM    9  C   UNL     1     -11.012   7.675  69.527  1.00  0.00    -0.108 C  
ENDROOT
BRANCH   8  10
HETATM   10  O   UNL     1     -10.843   7.726  71.975  1.00  0.00    -0.225 OA 
BRANCH  10  11
HETATM   11  C   UNL     1      -9.883   6.776  71.771  1.00  0.00    -0.163 C  
HETATM   12  C   UNL     1     -10.541   5.454  71.409  1.00  0.00    -0.282 C  
HETATM   13  O   UNL     1      -8.683   7.002  71.840  1.00  0.00    -0.124 OA 
HETATM   14  C   UNL     1     -10.820   4.640  72.673  1.00  0.00    -0.148 C  
HETATM   15  C   UNL     1      -9.726   4.670  70.388  1.00  0.00    -0.292 A  
HETATM   16  C   UNL     1     -10.211   4.497  69.081  1.00  0.00     0.049 A  
HETATM   17  O   UNL     1     -11.751   5.290  73.537  1.00  0.00    -0.419 OA 
HETATM   18  H   UNL     1     -11.924   4.784  74.322  1.00  0.00     0.000 HD 
HETATM   19  C   UNL     1      -9.484   3.754  68.147  1.00  0.00    -0.216 A  
HETATM   20  C   UNL     1      -8.264   3.184  68.502  1.00  0.00    -0.079 A  
HETATM   21  C   UNL     1      -7.761   3.367  69.787  1.00  0.00    -0.047 A  
HETATM   22  C   UNL     1      -8.483   4.108  70.722  1.00  0.00    -0.095 A  
ENDBRANCH  10  11
ENDBRANCH   8  10
TORSDOF 2
ENDMDL
MODEL      199
REMARK 921   NORMALIZED FREE ENERGY PREDICTED BY IDOCK:   -1.71 KCAL/MOL
REMARK 922        TOTAL FREE ENERGY PREDICTED BY IDOCK:   -2.39 KCAL/MOL
REMARK 923 INTER-LIGAND FREE ENERGY PREDICTED BY IDOCK:   -1.91 KCAL/MOL
REMARK 924 INTRA-LIGAND FREE ENERGY PREDICTED BY IDOCK:   -0.48 KCAL/MOL
REMARK 927      BINDING AFFINITY PREDICTED BY RF-SCORE:    0.00 PKD
ROOT
HETATM    1  C   UNL     1     -11.711  17.114  72.726  1.00  0.00     0.716 C  
HETATM    2  N   UNL     1     -12.704  16.069  72.920  1.00  0.00    -0.456 NA 
HETATM    3  C   UNL     1     -12.188  14.748  73.281  1.00  0.00    -0.262 C  
HETATM    4  C   UNL     1     -13.474  13.919  73.299  1.00  0.00     0.573 C  
HETATM    5  C   UNL     1     -14.387  14.613  72.294  1.00  0.00    -0.503 C  
HETATM    6  C   UNL     1     -13.562  15.789  71.768  1.00  0.00    -0.287 C  
HETATM    7  C   UNL     1     -12.762  15.397  70.523  1.00  0.00    -0.455 C  
HETATM    8  C   UNL     1     -11.546  14.494  70.790  1.00  0.00    -0.205 C  
HETATM    9  C   UNL     1     -11.191  14.188  72.253  1.00  0.00     2.139 C  
ENDROOT
BRANCH   8  10
HETATM   10  O   UNL     1     -11.763  13.281  70.045  1.00  0.00    -0.287 OA 
BRANCH  10  11
HETATM   11  C   UNL     1     -11.070  13.243  68.869  1.00  0.00    -0.261 C  
HETATM   12  C   UNL     1     -11.924  12.593  67.793  1.00  0.00    -0.303 C  
HETATM   13  O   UNL     1      -9.947  13.709  68.732  1.00  0.00    -0.191 OA 
HETATM   14  C   UNL     1     -11.685  11.082  67.771  1.00  0.00    -0.088 C  
HETATM   15  C   UNL     1     -11.705  13.230  66.426  1.00  0.00    -0.418 A  
HETATM   16  C   UNL     1     -12.725  13.989  65.829  1.00  0.00    -0.487 A  
HETATM   17  O   UNL     1     -12.088  10.457  68.988  1.00  0.00    -0.635 OA 
HETATM   18  H   UNL     1     -11.940   9.519  68.975  1.00  0.00     0.000 HD 
HETATM   19  C   UNL     1     -12.544  14.551  64.563  1.00  0.00    -0.207 A  
HETATM   20  C   UNL     1     -11.342  14.372  63.883  1.00  0.00     0.358 A  
HETATM   21  C   UNL     1     -10.313  13.641  64.472  1.00  0.00    -0.355 A  
HETATM   22  C   UNL     1     -10.491  13.079  65.736  1.00  0.00    -0.292 A  
ENDBRANCH  10  11
ENDBRANCH   8  10
TORSDOF 2
ENDMDL
MODEL      200
REMARK 921   NORMALIZED FREE ENERGY PREDICTED BY IDOCK:   -1.65 KCAL/MOL
REMARK 922        TOTAL FREE ENERGY PREDICTED BY IDOCK:   -2.31 KCAL/MOL
REMARK 923 INTER-LIGAND FREE ENERGY PREDICTED BY IDOCK:   -3.21 KCAL/MOL
REMARK 924 INTRA-LIGAND FREE ENERGY PREDICTED BY IDOCK:    0.89 KCAL/MOL
REMARK 927      BINDING AFFINITY PREDICTED BY RF-SCORE:    0.00 PKD
ROOT
HETATM    1  C   UNL     1     -14.396  16.015  72.537  1.00  0.00     0.077 C  
HETATM    2  N   UNL     1     -13.892  14.720  72.105  1.00  0.00    -0.429 NA 
HETATM    3  C   UNL     1     -12.670  14.252  72.759  1.00  0.00    -0.311 C  
HETATM    4  C   UNL     1     -12.400  12.952  71.999  1.00  0.00     0.480 C  
HETATM    5  C   UNL     1     -13.002  13.189  70.618  1.00  0.00     0.010 C  
HETATM    6  C   UNL     1     -13.572  14.608  70.681  1.00  0.00     0.063 C  
HETATM    7  C   UNL     1     -12.540  15.645  70.229  1.00  0.00    -0.319 C  
HETATM    8  C   UNL     1     -11.406  15.914  71.234  1.00  0.00    -0.365 C  
HETATM    9  C   UNL     1     -11.492  15.229  72.606  1.00  0.00    -0.380 C  
ENDROOT
BRANCH   8  10
HETATM   10  O   UNL     1     -10.175  15.582  70.565  1.00  0.00    -0.191 OA 
BRANCH  10  11
HETATM   11  C   UNL     1     -10.370  14.997  69.347  1.00  0.00    -0.235 C  
HETATM   12  C   UNL     1      -9.443  13.801  69.200  1.00  0.00     0.339 C  
HETATM   13  O   UNL     1     -11.203  15.382  68.538  1.00  0.00    -0.282 OA 
HETATM   14  C   UNL     1      -8.116  14.236  68.576  1.00  0.00    -0.147 C  
HETATM   15  C   UNL     1     -10.096  12.662  68.427  1.00  0.00    -0.222 A  
HETATM   16  C   UNL     1     -10.434  11.466  69.083  1.00  0.00    -0.159 A  
HETATM   17  O   UNL     1      -7.406  15.152  69.407  1.00  0.00    -0.174 OA 
HETATM   18  H   UNL     1      -6.582  15.422  69.019  1.00  0.00     0.000 HD 
HETATM   19  C   UNL     1     -11.006  10.405  68.376  1.00  0.00    -0.312 A  
HETATM   20  C   UNL     1     -11.256  10.528  67.011  1.00  0.00    -0.068 A  
HETATM   21  C   UNL     1     -10.948  11.716  66.353  1.00  0.00    -0.345 A  
HETATM   22  C   UNL     1     -10.377  12.776  67.056  1.00  0.00    -0.240 A  
ENDBRANCH  10  11
ENDBRANCH   8  10
TORSDOF 2
ENDMDL
MODEL      201
REMARK 921   NORMALIZED FREE ENERGY PREDICTED BY IDOCK:   -1.52 KCAL/MOL
REMARK 922        TOTAL FREE ENERGY PREDICTED BY IDOCK:   -2.16 KCAL/MOL
REMARK 923 INTER-LIGAND FREE ENERGY PREDICTED BY IDOCK:   -2.77 KCAL/MOL
REMARK 924 INTRA-LIGAND FREE ENERGY PREDICTED BY IDOCK:    0.60 KCAL/MOL
REMARK 927      BINDING AFFINITY PREDICTED BY RF-SCORE:    0.00 PKD
ROOT
HETATM    1  C   UNL     1     -10.576   4.980  72.328  1.00  0.00    -0.206 C  
HETATM    2  N   UNL     1      -9.292   5.084  71.651  1.00  0.00    -0.145 NA 
HETATM    3  C   UNL     1      -8.495   6.271  71.958  1.00  0.00    -0.123 C  
HETATM    4  C   UNL     1      -7.305   6.085  71.015  1.00  0.00    -0.080 C  
HETATM    5  C   UNL     1      -7.871   5.295  69.841  1.00  0.00    -0.080 C  
HETATM    6  C   UNL     1      -9.346   5.086  70.189  1.00  0.00    -0.157 C  
HETATM    7  C   UNL     1     -10.217   6.217  69.637  1.00  0.00    -0.233 C  
HETATM    8  C   UNL     1     -10.095   7.556  70.385  1.00  0.00    -0.196 C  
HETATM    9  C   UNL     1      -9.231   7.587  71.655  1.00  0.00    -0.152 C  
ENDROOT
BRANCH   8  10
HETATM   10  O   UNL     1      -9.636   8.525  69.423  1.00  0.00    -0.167 OA 
BRANCH  10  11
HETATM   11  C   UNL     1      -9.634   8.048  68.144  1.00  0.00    -0.153 C  
HETATM   12  C   UNL     1      -8.218   8.074  67.591  1.00  0.00    -0.124 C  
HETATM   13  O   UNL     1     -10.635   7.634  67.575  1.00  0.00    -0.255 OA 
HETATM   14  C   UNL     1      -7.947   9.412  66.899  1.00  0.00    -0.109 C  
HETATM   15  C   UNL     1      -7.938   6.888  66.677  1.00  0.00    -0.108 A  
HETATM   16  C   UNL     1      -7.041   5.884  67.078  1.00  0.00    -0.070 A  
HETATM   17  O   UNL     1      -8.007  10.509  67.810  1.00  0.00    -0.104 OA 
HETATM   18  H   UNL     1      -7.839  11.340  67.380  1.00  0.00     0.000 HD 
HETATM   19  C   UNL     1      -6.756   4.808  66.234  1.00  0.00    -0.050 A  
HETATM   20  C   UNL     1      -7.367   4.715  64.986  1.00  0.00    -0.072 A  
HETATM   21  C   UNL     1      -8.276   5.691  64.585  1.00  0.00    -0.129 A  
HETATM   22  C   UNL     1      -8.563   6.767  65.425  1.00  0.00    -0.057 A  
ENDBRANCH  10  11
ENDBRANCH   8  10
TORSDOF 2
ENDMDL
MODEL      202
REMARK 921   NORMALIZED FREE ENERGY PREDICTED BY IDOCK:   -1.38 KCAL/MOL
REMARK 922        TOTAL FREE ENERGY PREDICTED BY IDOCK:   -2.02 KCAL/MOL
REMARK 923 INTER-LIGAND FREE ENERGY PREDICTED BY IDOCK:   -3.23 KCAL/MOL
REMARK 924 INTRA-LIGAND FREE ENERGY PREDICTED BY IDOCK:    1.22 KCAL/MOL
REMARK 927      BINDING AFFINITY PREDICTED BY RF-SCORE:    0.00 PKD
ROOT
HETATM    1  C   UNL     1     -10.592  13.600  67.027  1.00  0.00    -0.274 C  
HETATM    2  N   UNL     1      -9.686  12.753  67.788  1.00  0.00    -0.201 NA 
HETATM    3  C   UNL     1      -8.654  12.059  67.019  1.00  0.00    -0.185 C  
HETATM    4  C   UNL     1      -7.984  11.217  68.106  1.00  0.00    -0.131 C  
HETATM    5  C   UNL     1      -9.090  10.964  69.125  1.00  0.00    -0.058 C  
HETATM    6  C   UNL     1     -10.317  11.675  68.550  1.00  0.00    -0.212 C  
HETATM    7  C   UNL     1     -11.142  10.737  67.665  1.00  0.00    -0.384 C  
HETATM    8  C   UNL     1     -10.519  10.422  66.294  1.00  0.00    -0.159 C  
HETATM    9  C   UNL     1      -9.228  11.162  65.910  1.00  0.00    -0.225 C  
ENDROOT
BRANCH   8  10
HETATM   10  O   UNL     1     -10.333   8.995  66.244  1.00  0.00    -0.247 OA 
BRANCH  10  11
HETATM   11  C   UNL     1      -9.094   8.633  65.799  1.00  0.00    -0.187 C  
HETATM   12  C   UNL     1      -8.739   7.257  66.339  1.00  0.00    -0.152 C  
HETATM   13  O   UNL     1      -8.417   9.322  65.049  1.00  0.00    -0.144 OA 
HETATM   14  C   UNL     1      -8.018   7.386  67.682  1.00  0.00    -0.114 C  
HETATM   15  C   UNL     1      -7.939   6.436  65.335  1.00  0.00    -0.116 A  
HETATM   16  C   UNL     1      -8.514   5.308  64.727  1.00  0.00    -0.149 A  
HETATM   17  O   UNL     1      -8.850   7.971  68.683  1.00  0.00    -0.134 OA 
HETATM   18  H   UNL     1      -8.403   8.052  69.518  1.00  0.00     0.000 HD 
HETATM   19  C   UNL     1      -7.778   4.533  63.827  1.00  0.00    -0.072 A  
HETATM   20  C   UNL     1      -6.465   4.879  63.517  1.00  0.00    -0.026 A  
HETATM   21  C   UNL     1      -5.890   6.008  64.094  1.00  0.00    -0.022 A  
HETATM   22  C   UNL     1      -6.622   6.784  64.992  1.00  0.00    -0.043 A  
ENDBRANCH  10  11
ENDBRANCH   8  10
TORSDOF 2
ENDMDL
MODEL      203
REMARK 921   NORMALIZED FREE ENERGY PREDICTED BY IDOCK:   -1.32 KCAL/MOL
REMARK 922        TOTAL FREE ENERGY PREDICTED BY IDOCK:   -1.95 KCAL/MOL
REMARK 923 INTER-LIGAND FREE ENERGY PREDICTED BY IDOCK:   -3.61 KCAL/MOL
REMARK 924 INTRA-LIGAND FREE ENERGY PREDICTED BY IDOCK:    1.66 KCAL/MOL
REMARK 927      BINDING AFFINITY PREDICTED BY RF-SCORE:    0.00 PKD
ROOT
HETATM    1  C   UNL     1      -6.646  12.980  67.468  1.00  0.00    -0.155 C  
HETATM    2  N   UNL     1      -5.988  11.933  68.236  1.00  0.00    -0.049 NA 
HETATM    3  C   UNL     1      -5.819  10.647  67.561  1.00  0.00    -0.044 C  
HETATM    4  C   UNL     1      -5.205   9.800  68.677  1.00  0.00    -0.036 C  
HETATM    5  C   UNL     1      -5.750  10.414  69.963  1.00  0.00    -0.055 C  
HETATM    6  C   UNL     1      -6.640  11.567  69.495  1.00  0.00    -0.120 C  
HETATM    7  C   UNL     1      -8.087  11.109  69.292  1.00  0.00     0.045 C  
HETATM    8  C   UNL     1      -8.327  10.243  68.043  1.00  0.00    -0.114 C  
HETATM    9  C   UNL     1      -7.147  10.038  67.081  1.00  0.00    -0.089 C  
ENDROOT
BRANCH   8  10
HETATM   10  O   UNL     1      -8.841   8.982  68.509  1.00  0.00    -0.132 OA 
BRANCH  10  11
HETATM   11  C   UNL     1      -9.042   8.952  69.859  1.00  0.00    -0.161 C  
HETATM   12  C   UNL     1     -10.446   8.450  70.156  1.00  0.00    -0.230 C  
HETATM   13  O   UNL     1      -8.184   9.255  70.677  1.00  0.00    -0.166 OA 
HETATM   14  C   UNL     1     -11.424   9.625  70.220  1.00  0.00    -0.233 C  
HETATM   15  C   UNL     1     -10.493   7.594  71.416  1.00  0.00    -0.230 A  
HETATM   16  C   UNL     1     -10.747   6.216  71.323  1.00  0.00    -0.310 A  
HETATM   17  O   UNL     1     -11.532  10.301  68.968  1.00  0.00    -0.397 OA 
HETATM   18  H   UNL     1     -12.139  11.031  69.008  1.00  0.00     0.000 HD 
HETATM   19  C   UNL     1     -10.821   5.428  72.475  1.00  0.00    -0.304 A  
HETATM   20  C   UNL     1     -10.635   6.004  73.730  1.00  0.00    -0.265 A  
HETATM   21  C   UNL     1     -10.360   7.365  73.835  1.00  0.00    -0.181 A  
HETATM   22  C   UNL     1     -10.285   8.153  72.687  1.00  0.00    -0.388 A  
ENDBRANCH  10  11
ENDBRANCH   8  10
TORSDOF 2
ENDMDL
MODEL      204
REMARK 921   NORMALIZED FREE ENERGY PREDICTED BY IDOCK:   -1.23 KCAL/MOL
REMARK 922        TOTAL FREE ENERGY PREDICTED BY IDOCK:   -1.85 KCAL/MOL
REMARK 923 INTER-LIGAND FREE ENERGY PREDICTED BY IDOCK:   -4.06 KCAL/MOL
REMARK 924 INTRA-LIGAND FREE ENERGY PREDICTED BY IDOCK:    2.21 KCAL/MOL
REMARK 927      BINDING AFFINITY PREDICTED BY RF-SCORE:    0.00 PKD
ROOT
HETATM    1  C   UNL     1     -12.180   9.745  71.369  1.00  0.00    -0.397 C  
HETATM    2  N   UNL     1     -11.126   8.984  70.716  1.00  0.00    -0.257 NA 
HETATM    3  C   UNL     1     -11.524   7.708  70.123  1.00  0.00    -0.066 C  
HETATM    4  C   UNL     1     -10.177   7.169  69.637  1.00  0.00    -0.215 C  
HETATM    5  C   UNL     1      -9.158   7.777  70.595  1.00  0.00    -0.153 C  
HETATM    6  C   UNL     1      -9.990   8.619  71.565  1.00  0.00    -0.274 C  
HETATM    7  C   UNL     1     -10.414   7.804  72.790  1.00  0.00    -0.390 C  
HETATM    8  C   UNL     1     -11.522   6.769  72.531  1.00  0.00    -0.231 C  
HETATM    9  C   UNL     1     -12.164   6.745  71.136  1.00  0.00    -0.413 C  
ENDROOT
BRANCH   8  10
HETATM   10  O   UNL     1     -10.970   5.483  72.870  1.00  0.00    -0.245 OA 
BRANCH  10  11
HETATM   11  C   UNL     1      -9.763   5.246  72.277  1.00  0.00    -0.158 C  
HETATM   12  C   UNL     1      -9.837   3.966  71.459  1.00  0.00    -0.247 C  
HETATM   13  O   UNL     1      -8.802   5.995  72.379  1.00  0.00    -0.133 OA 
HETATM   14  C   UNL     1      -9.443   2.766  72.323  1.00  0.00    -0.111 C  
HETATM   15  C   UNL     1      -9.009   4.053  70.183  1.00  0.00    -0.159 A  
HETATM   16  C   UNL     1      -9.644   4.091  68.931  1.00  0.00    -0.213 A  
HETATM   17  O   UNL     1     -10.348   2.564  73.407  1.00  0.00    -0.111 OA 
HETATM   18  H   UNL     1     -10.104   1.818  73.943  1.00  0.00     0.000 HD 
HETATM   19  C   UNL     1      -8.893   4.141  67.755  1.00  0.00    -0.130 A  
HETATM   20  C   UNL     1      -7.501   4.162  67.813  1.00  0.00    -0.068 A  
HETATM   21  C   UNL     1      -6.859   4.148  69.048  1.00  0.00    -0.046 A  
HETATM   22  C   UNL     1      -7.606   4.099  70.225  1.00  0.00    -0.045 A  
ENDBRANCH  10  11
ENDBRANCH   8  10
TORSDOF 2
ENDMDL
MODEL      205
REMARK 921   NORMALIZED FREE ENERGY PREDICTED BY IDOCK:   -1.23 KCAL/MOL
REMARK 922        TOTAL FREE ENERGY PREDICTED BY IDOCK:   -1.85 KCAL/MOL
REMARK 923 INTER-LIGAND FREE ENERGY PREDICTED BY IDOCK:   -2.73 KCAL/MOL
REMARK 924 INTRA-LIGAND FREE ENERGY PREDICTED BY IDOCK:    0.88 KCAL/MOL
REMARK 927      BINDING AFFINITY PREDICTED BY RF-SCORE:    0.00 PKD
ROOT
HETATM    1  C   UNL     1      -6.637   1.978  68.220  1.00  0.00    -0.029 C  
HETATM    2  N   UNL     1      -6.132   2.469  66.946  1.00  0.00    -0.023 NA 
HETATM    3  C   UNL     1      -5.574   3.821  66.952  1.00  0.00    -0.021 C  
HETATM    4  C   UNL     1      -5.252   4.019  65.469  1.00  0.00    -0.009 C  
HETATM    5  C   UNL     1      -6.269   3.147  64.741  1.00  0.00    -0.023 C  
HETATM    6  C   UNL     1      -7.105   2.513  65.854  1.00  0.00    -0.064 C  
HETATM    7  C   UNL     1      -8.327   3.371  66.193  1.00  0.00    -0.103 C  
HETATM    8  C   UNL     1      -8.020   4.658  66.978  1.00  0.00    -0.102 C  
HETATM    9  C   UNL     1      -6.573   4.883  67.440  1.00  0.00    -0.050 C  
ENDROOT
BRANCH   8  10
HETATM   10  O   UNL     1      -8.481   5.754  66.166  1.00  0.00    -0.121 OA 
BRANCH  10  11
HETATM   11  C   UNL     1      -8.131   6.975  66.667  1.00  0.00    -0.110 C  
HETATM   12  C   UNL     1      -9.049   8.044  66.097  1.00  0.00    -0.224 C  
HETATM   13  O   UNL     1      -7.233   7.139  67.482  1.00  0.00    -0.085 OA 
HETATM   14  C   UNL     1      -8.460   8.610  64.803  1.00  0.00    -0.149 C  
HETATM   15  C   UNL     1      -9.358   9.136  67.114  1.00  0.00    -0.178 A  
HETATM   16  C   UNL     1     -10.652   9.262  67.643  1.00  0.00    -0.324 A  
HETATM   17  O   UNL     1      -8.365   7.621  63.779  1.00  0.00    -0.361 OA 
HETATM   18  H   UNL     1      -7.999   7.972  62.976  1.00  0.00     0.000 HD 
HETATM   19  C   UNL     1     -10.951  10.279  68.554  1.00  0.00    -0.294 A  
HETATM   20  C   UNL     1      -9.962  11.175  68.953  1.00  0.00    -0.188 A  
HETATM   21  C   UNL     1      -8.669  11.048  68.453  1.00  0.00    -0.150 A  
HETATM   22  C   UNL     1      -8.367  10.034  67.545  1.00  0.00    -0.118 A  
ENDBRANCH  10  11
ENDBRANCH   8  10
TORSDOF 2
ENDMDL
MODEL      206
REMARK 921   NORMALIZED FREE ENERGY PREDICTED BY IDOCK:   -1.21 KCAL/MOL
REMARK 922        TOTAL FREE ENERGY PREDICTED BY IDOCK:   -1.82 KCAL/MOL
REMARK 923 INTER-LIGAND FREE ENERGY PREDICTED BY IDOCK:   -3.02 KCAL/MOL
REMARK 924 INTRA-LIGAND FREE ENERGY PREDICTED BY IDOCK:    1.19 KCAL/MOL
REMARK 927      BINDING AFFINITY PREDICTED BY RF-SCORE:    0.00 PKD
ROOT
HETATM    1  C   UNL     1      -7.222   3.061  67.942  1.00  0.00    -0.050 C  
HETATM    2  N   UNL     1      -6.851   3.996  68.994  1.00  0.00    -0.045 NA 
HETATM    3  C   UNL     1      -7.956   4.651  69.693  1.00  0.00    -0.065 C  
HETATM    4  C   UNL     1      -7.201   5.602  70.623  1.00  0.00    -0.078 C  
HETATM    5  C   UNL     1      -5.906   5.910  69.880  1.00  0.00    -0.024 C  
HETATM    6  C   UNL     1      -6.009   5.118  68.575  1.00  0.00    -0.021 C  
HETATM    7  C   UNL     1      -6.654   5.952  67.465  1.00  0.00    -0.056 C  
HETATM    8  C   UNL     1      -8.171   6.165  67.609  1.00  0.00    -0.113 C  
HETATM    9  C   UNL     1      -8.888   5.432  68.752  1.00  0.00    -0.107 C  
ENDROOT
BRANCH   8  10
HETATM   10  O   UNL     1      -8.380   7.587  67.693  1.00  0.00    -0.117 OA 
BRANCH  10  11
HETATM   11  C   UNL     1      -9.336   7.934  68.604  1.00  0.00    -0.145 C  
HETATM   12  C   UNL     1      -9.050   9.327  69.140  1.00  0.00    -0.145 C  
HETATM   13  O   UNL     1     -10.287   7.220  68.890  1.00  0.00    -0.192 OA 
HETATM   14  C   UNL     1      -8.157   9.241  70.381  1.00  0.00    -0.160 C  
HETATM   15  C   UNL     1     -10.328  10.113  69.405  1.00  0.00    -0.251 A  
HETATM   16  C   UNL     1     -10.653  11.221  68.605  1.00  0.00    -0.231 A  
HETATM   17  O   UNL     1      -6.876   8.690  70.083  1.00  0.00    -0.038 OA 
HETATM   18  H   UNL     1      -6.322   8.637  70.853  1.00  0.00     0.000 HD 
HETATM   19  C   UNL     1     -11.808  11.965  68.859  1.00  0.00    -0.366 A  
HETATM   20  C   UNL     1     -12.655  11.609  69.906  1.00  0.00    -0.002 A  
HETATM   21  C   UNL     1     -12.356  10.499  70.692  1.00  0.00    -0.449 A  
HETATM   22  C   UNL     1     -11.205   9.754  70.441  1.00  0.00    -0.362 A  
ENDBRANCH  10  11
ENDBRANCH   8  10
TORSDOF 2
ENDMDL
MODEL      207
REMARK 921   NORMALIZED FREE ENERGY PREDICTED BY IDOCK:   -1.21 KCAL/MOL
REMARK 922        TOTAL FREE ENERGY PREDICTED BY IDOCK:   -1.82 KCAL/MOL
REMARK 923 INTER-LIGAND FREE ENERGY PREDICTED BY IDOCK:   -2.70 KCAL/MOL
REMARK 924 INTRA-LIGAND FREE ENERGY PREDICTED BY IDOCK:    0.88 KCAL/MOL
REMARK 927      BINDING AFFINITY PREDICTED BY RF-SCORE:    0.00 PKD
ROOT
HETATM    1  C   UNL     1     -10.502   5.023  72.268  1.00  0.00    -0.214 C  
HETATM    2  N   UNL     1      -9.058   5.001  72.090  1.00  0.00    -0.131 NA 
HETATM    3  C   UNL     1      -8.344   6.222  72.460  1.00  0.00    -0.113 C  
HETATM    4  C   UNL     1      -6.912   5.868  72.053  1.00  0.00    -0.078 C  
HETATM    5  C   UNL     1      -7.078   4.881  70.903  1.00  0.00    -0.051 C  
HETATM    6  C   UNL     1      -8.591   4.740  70.728  1.00  0.00    -0.105 C  
HETATM    7  C   UNL     1      -9.134   5.756  69.719  1.00  0.00    -0.151 C  
HETATM    8  C   UNL     1      -9.195   7.207  70.226  1.00  0.00    -0.156 C  
HETATM    9  C   UNL     1      -8.836   7.463  71.698  1.00  0.00    -0.125 C  
ENDROOT
BRANCH   8  10
HETATM   10  O   UNL     1      -8.364   7.986  69.346  1.00  0.00    -0.127 OA 
BRANCH  10  11
HETATM   11  C   UNL     1      -8.490   7.628  68.035  1.00  0.00    -0.123 C  
HETATM   12  C   UNL     1      -8.683   8.871  67.181  1.00  0.00    -0.126 C  
HETATM   13  O   UNL     1      -8.414   6.472  67.640  1.00  0.00    -0.117 OA 
HETATM   14  C   UNL     1     -10.173   9.192  67.048  1.00  0.00    -0.263 C  
HETATM   15  C   UNL     1      -7.998   8.747  65.826  1.00  0.00    -0.105 A  
HETATM   16  C   UNL     1      -6.876   9.538  65.528  1.00  0.00    -0.085 A  
HETATM   17  O   UNL     1     -10.768   9.512  68.305  1.00  0.00    -0.279 OA 
HETATM   18  H   UNL     1     -11.693   9.712  68.222  1.00  0.00     0.000 HD 
HETATM   19  C   UNL     1      -6.260   9.452  64.277  1.00  0.00    -0.084 A  
HETATM   20  C   UNL     1      -6.749   8.573  63.314  1.00  0.00    -0.089 A  
HETATM   21  C   UNL     1      -7.846   7.766  63.604  1.00  0.00    -0.128 A  
HETATM   22  C   UNL     1      -8.463   7.848  64.852  1.00  0.00    -0.045 A  
ENDBRANCH  10  11
ENDBRANCH   8  10
TORSDOF 2
ENDMDL
MODEL      208
REMARK 921   NORMALIZED FREE ENERGY PREDICTED BY IDOCK:   -0.97 KCAL/MOL
REMARK 922        TOTAL FREE ENERGY PREDICTED BY IDOCK:   -1.55 KCAL/MOL
REMARK 923 INTER-LIGAND FREE ENERGY PREDICTED BY IDOCK:   -4.45 KCAL/MOL
REMARK 924 INTRA-LIGAND FREE ENERGY PREDICTED BY IDOCK:    2.90 KCAL/MOL
REMARK 927      BINDING AFFINITY PREDICTED BY RF-SCORE:    0.00 PKD
ROOT
HETATM    1  C   UNL     1     -10.176   6.092  73.052  1.00  0.00    -0.194 C  
HETATM    2  N   UNL     1     -11.287   6.936  72.639  1.00  0.00    -0.258 NA 
HETATM    3  C   UNL     1     -11.849   6.660  71.316  1.00  0.00    -0.350 C  
HETATM    4  C   UNL     1     -12.891   7.774  71.195  1.00  0.00    -0.189 C  
HETATM    5  C   UNL     1     -12.332   8.910  72.045  1.00  0.00    -0.460 C  
HETATM    6  C   UNL     1     -11.009   8.372  72.591  1.00  0.00    -0.248 C  
HETATM    7  C   UNL     1      -9.841   8.711  71.661  1.00  0.00    -0.351 C  
HETATM    8  C   UNL     1      -9.787   7.893  70.359  1.00  0.00    -0.183 C  
HETATM    9  C   UNL     1     -10.810   6.759  70.187  1.00  0.00    -0.311 C  
ENDROOT
BRANCH   8  10
HETATM   10  O   UNL     1      -9.873   8.837  69.276  1.00  0.00    -0.173 OA 
BRANCH  10  11
HETATM   11  C   UNL     1     -10.155  10.106  69.694  1.00  0.00    -0.234 C  
HETATM   12  C   UNL     1      -9.545  11.109  68.728  1.00  0.00    -0.180 C  
HETATM   13  O   UNL     1     -10.833  10.357  70.680  1.00  0.00    -0.249 OA 
HETATM   14  C   UNL     1      -8.126  11.473  69.173  1.00  0.00     0.136 C  
HETATM   15  C   UNL     1     -10.424  12.340  68.550  1.00  0.00    -0.248 A  
HETATM   16  C   UNL     1     -11.072  12.574  67.326  1.00  0.00    -0.319 A  
HETATM   17  O   UNL     1      -7.248  10.349  69.139  1.00  0.00    -0.071 OA 
HETATM   18  H   UNL     1      -6.368  10.575  69.415  1.00  0.00     0.000 HD 
HETATM   19  C   UNL     1     -11.857  13.715  67.143  1.00  0.00    -0.435 A  
HETATM   20  C   UNL     1     -12.012  14.631  68.181  1.00  0.00    -0.281 A  
HETATM   21  C   UNL     1     -11.395  14.400  69.408  1.00  0.00    -0.319 A  
HETATM   22  C   UNL     1     -10.611  13.262  69.593  1.00  0.00     0.471 A  
ENDBRANCH  10  11
ENDBRANCH   8  10
TORSDOF 2
ENDMDL
MODEL      209
REMARK 921   NORMALIZED FREE ENERGY PREDICTED BY IDOCK:   -0.82 KCAL/MOL
REMARK 922        TOTAL FREE ENERGY PREDICTED BY IDOCK:   -1.39 KCAL/MOL
REMARK 923 INTER-LIGAND FREE ENERGY PREDICTED BY IDOCK:   -1.47 KCAL/MOL
REMARK 924 INTRA-LIGAND FREE ENERGY PREDICTED BY IDOCK:    0.08 KCAL/MOL
REMARK 927      BINDING AFFINITY PREDICTED BY RF-SCORE:    0.00 PKD
ROOT
HETATM    1  C   UNL     1     -10.653   4.884  72.333  1.00  0.00    -0.200 C  
HETATM    2  N   UNL     1      -9.235   4.577  72.213  1.00  0.00    -0.124 NA 
HETATM    3  C   UNL     1      -8.313   5.687  72.448  1.00  0.00    -0.115 C  
HETATM    4  C   UNL     1      -6.966   5.028  72.143  1.00  0.00    -0.066 C  
HETATM    5  C   UNL     1      -7.297   3.943  71.125  1.00  0.00    -0.040 C  
HETATM    6  C   UNL     1      -8.808   4.056  70.913  1.00  0.00    -0.087 C  
HETATM    7  C   UNL     1      -9.142   5.010  69.763  1.00  0.00    -0.155 C  
HETATM    8  C   UNL     1      -8.941   6.503  70.077  1.00  0.00    -0.144 C  
HETATM    9  C   UNL     1      -8.559   6.884  71.515  1.00  0.00    -0.122 C  
ENDROOT
BRANCH   8  10
HETATM   10  O   UNL     1      -7.969   6.994  69.135  1.00  0.00    -0.115 OA 
BRANCH  10  11
HETATM   11  C   UNL     1      -7.777   8.343  69.218  1.00  0.00    -0.098 C  
HETATM   12  C   UNL     1      -6.317   8.670  68.947  1.00  0.00    -0.045 C  
HETATM   13  O   UNL     1      -8.677   9.140  69.442  1.00  0.00    -0.131 OA 
HETATM   14  C   UNL     1      -5.523   8.659  70.255  1.00  0.00    -0.021 C  
HETATM   15  C   UNL     1      -6.156   9.980  68.187  1.00  0.00    -0.049 A  
HETATM   16  C   UNL     1      -5.702   9.974  66.858  1.00  0.00    -0.050 A  
HETATM   17  O   UNL     1      -5.504   7.368  70.861  1.00  0.00    -0.027 OA 
HETATM   18  H   UNL     1      -5.011   7.362  71.673  1.00  0.00     0.000 HD 
HETATM   19  C   UNL     1      -5.523  11.172  66.162  1.00  0.00    -0.143 A  
HETATM   20  C   UNL     1      -5.802  12.389  66.781  1.00  0.00     0.383 A  
HETATM   21  C   UNL     1      -6.275  12.409  68.090  1.00  0.00    -0.065 A  
HETATM   22  C   UNL     1      -6.455  11.214  68.787  1.00  0.00    -0.052 A  
ENDBRANCH  10  11
ENDBRANCH   8  10
TORSDOF 2
ENDMDL
MODEL      210
REMARK 921   NORMALIZED FREE ENERGY PREDICTED BY IDOCK:   -0.57 KCAL/MOL
REMARK 922        TOTAL FREE ENERGY PREDICTED BY IDOCK:   -1.11 KCAL/MOL
REMARK 923 INTER-LIGAND FREE ENERGY PREDICTED BY IDOCK:   -0.64 KCAL/MOL
REMARK 924 INTRA-LIGAND FREE ENERGY PREDICTED BY IDOCK:   -0.47 KCAL/MOL
REMARK 927      BINDING AFFINITY PREDICTED BY RF-SCORE:    0.00 PKD
ROOT
HETATM    1  C   UNL     1     -12.588  12.049  71.777  1.00  0.00    -0.037 C  
HETATM    2  N   UNL     1     -11.997  11.991  70.448  1.00  0.00    -0.337 NA 
HETATM    3  C   UNL     1     -12.754  11.251  69.439  1.00  0.00     0.408 C  
HETATM    4  C   UNL     1     -11.804  11.320  68.242  1.00  0.00    -0.299 C  
HETATM    5  C   UNL     1     -10.415  11.414  68.865  1.00  0.00    -0.219 C  
HETATM    6  C   UNL     1     -10.665  11.390  70.374  1.00  0.00     1.169 C  
HETATM    7  C   UNL     1     -10.635   9.961  70.923  1.00  0.00    -0.254 C  
HETATM    8  C   UNL     1     -11.865   9.105  70.573  1.00  0.00    -0.095 C  
HETATM    9  C   UNL     1     -13.026   9.791  69.837  1.00  0.00     0.841 C  
ENDROOT
BRANCH   8  10
HETATM   10  O   UNL     1     -11.379   7.971  69.831  1.00  0.00    -0.114 OA 
BRANCH  10  11
HETATM   11  C   UNL     1     -11.623   6.780  70.453  1.00  0.00    -0.367 C  
HETATM   12  C   UNL     1     -10.308   6.072  70.735  1.00  0.00    -0.280 C  
HETATM   13  O   UNL     1     -12.744   6.394  70.756  1.00  0.00     0.081 OA 
HETATM   14  C   UNL     1      -9.931   5.171  69.557  1.00  0.00    -0.231 C  
HETATM   15  C   UNL     1     -10.340   5.310  72.054  1.00  0.00    -0.273 A  
HETATM   16  C   UNL     1      -9.562   5.745  73.139  1.00  0.00    -0.151 A  
HETATM   17  O   UNL     1      -9.699   5.917  68.364  1.00  0.00    -0.121 OA 
HETATM   18  H   UNL     1      -9.465   5.357  67.632  1.00  0.00     0.000 HD 
HETATM   19  C   UNL     1      -9.562   5.036  74.343  1.00  0.00    -0.151 A  
HETATM   20  C   UNL     1     -10.344   3.892  74.481  1.00  0.00    -0.266 A  
HETATM   21  C   UNL     1     -11.138   3.462  73.421  1.00  0.00    -0.288 A  
HETATM   22  C   UNL     1     -11.140   4.167  72.219  1.00  0.00     0.342 A  
ENDBRANCH  10  11
ENDBRANCH   8  10
TORSDOF 2
ENDMDL
MODEL      211
REMARK 921   NORMALIZED FREE ENERGY PREDICTED BY IDOCK:   -0.31 KCAL/MOL
REMARK 922        TOTAL FREE ENERGY PREDICTED BY IDOCK:   -0.81 KCAL/MOL
REMARK 923 INTER-LIGAND FREE ENERGY PREDICTED BY IDOCK:   -1.60 KCAL/MOL
REMARK 924 INTRA-LIGAND FREE ENERGY PREDICTED BY IDOCK:    0.78 KCAL/MOL
REMARK 927      BINDING AFFINITY PREDICTED BY RF-SCORE:    0.00 PKD
ROOT
HETATM    1  C   UNL     1     -12.300  10.957  71.702  1.00  0.00    -0.142 C  
HETATM    2  N   UNL     1     -11.488  10.767  70.509  1.00  0.00    -0.313 NA 
HETATM    3  C   UNL     1     -12.106  10.007  69.423  1.00  0.00     0.322 C  
HETATM    4  C   UNL     1     -10.956   9.930  68.418  1.00  0.00    -0.235 C  
HETATM    5  C   UNL     1      -9.697   9.980  69.277  1.00  0.00    -0.227 C  
HETATM    6  C   UNL     1     -10.213  10.079  70.715  1.00  0.00     0.094 C  
HETATM    7  C   UNL     1     -10.389   8.694  71.342  1.00  0.00    -0.331 C  
HETATM    8  C   UNL     1     -11.598   7.895  70.824  1.00  0.00    -0.247 C  
HETATM    9  C   UNL     1     -12.554   8.599  69.850  1.00  0.00     1.671 C  
ENDROOT
BRANCH   8  10
HETATM   10  O   UNL     1     -11.075   6.682  70.250  1.00  0.00    -0.274 OA 
BRANCH  10  11
HETATM   11  C   UNL     1      -9.966   6.218  70.899  1.00  0.00    -0.186 C  
HETATM   12  C   UNL     1     -10.291   4.904  71.591  1.00  0.00    -0.241 C  
HETATM   13  O   UNL     1      -8.882   6.784  70.872  1.00  0.00    -0.144 OA 
HETATM   14  C   UNL     1     -10.791   5.167  73.013  1.00  0.00    -0.279 C  
HETATM   15  C   UNL     1      -9.115   3.937  71.565  1.00  0.00    -0.170 A  
HETATM   16  C   UNL     1      -9.180   2.768  70.789  1.00  0.00    -0.204 A  
HETATM   17  O   UNL     1     -12.014   5.902  73.026  1.00  0.00    -0.495 OA 
HETATM   18  H   UNL     1     -12.324   6.065  73.909  1.00  0.00     0.000 HD 
HETATM   19  C   UNL     1      -8.117   1.860  70.781  1.00  0.00    -0.052 A  
HETATM   20  C   UNL     1      -6.976   2.112  71.539  1.00  0.00    -0.031 A  
HETATM   21  C   UNL     1      -6.889   3.279  72.295  1.00  0.00    -0.026 A  
HETATM   22  C   UNL     1      -7.947   4.187  72.304  1.00  0.00    -0.086 A  
ENDBRANCH  10  11
ENDBRANCH   8  10
TORSDOF 2
ENDMDL
MODEL      212
REMARK 921   NORMALIZED FREE ENERGY PREDICTED BY IDOCK:   -0.27 KCAL/MOL
REMARK 922        TOTAL FREE ENERGY PREDICTED BY IDOCK:   -0.78 KCAL/MOL
REMARK 923 INTER-LIGAND FREE ENERGY PREDICTED BY IDOCK:   -3.05 KCAL/MOL
REMARK 924 INTRA-LIGAND FREE ENERGY PREDICTED BY IDOCK:    2.28 KCAL/MOL
REMARK 927      BINDING AFFINITY PREDICTED BY RF-SCORE:    0.00 PKD
ROOT
HETATM    1  C   UNL     1      -5.989   5.885  65.434  1.00  0.00    -0.025 C  
HETATM    2  N   UNL     1      -5.821   7.269  65.851  1.00  0.00    -0.036 NA 
HETATM    3  C   UNL     1      -6.271   7.594  67.204  1.00  0.00    -0.053 C  
HETATM    4  C   UNL     1      -6.036   9.105  67.244  1.00  0.00    -0.050 C  
HETATM    5  C   UNL     1      -6.187   9.551  65.793  1.00  0.00    -0.064 C  
HETATM    6  C   UNL     1      -6.502   8.267  65.024  1.00  0.00    -0.052 C  
HETATM    7  C   UNL     1      -8.011   8.023  64.936  1.00  0.00    -0.138 C  
HETATM    8  C   UNL     1      -8.671   7.556  66.245  1.00  0.00    -0.149 C  
HETATM    9  C   UNL     1      -7.754   7.266  67.442  1.00  0.00    -0.110 C  
ENDROOT
BRANCH   8  10
HETATM   10  O   UNL     1      -9.664   8.544  66.579  1.00  0.00    -0.219 OA 
BRANCH  10  11
HETATM   11  C   UNL     1      -9.170   9.817  66.590  1.00  0.00    -0.150 C  
HETATM   12  C   UNL     1      -9.322  10.413  67.980  1.00  0.00    -0.145 C  
HETATM   13  O   UNL     1      -8.654  10.349  65.616  1.00  0.00    -0.154 OA 
HETATM   14  C   UNL     1     -10.668  11.129  68.102  1.00  0.00    -0.204 C  
HETATM   15  C   UNL     1      -8.153  11.320  68.345  1.00  0.00    -0.143 A  
HETATM   16  C   UNL     1      -7.245  10.933  69.344  1.00  0.00    -0.126 A  
HETATM   17  O   UNL     1     -11.768  10.232  67.964  1.00  0.00    -0.712 OA 
HETATM   18  H   UNL     1     -12.605  10.677  68.039  1.00  0.00     0.000 HD 
HETATM   19  C   UNL     1      -6.187  11.771  69.706  1.00  0.00    -0.138 A  
HETATM   20  C   UNL     1      -6.018  12.999  69.070  1.00  0.00    -0.084 A  
HETATM   21  C   UNL     1      -6.897  13.385  68.061  1.00  0.00    -0.132 A  
HETATM   22  C   UNL     1      -7.953  12.550  67.697  1.00  0.00    -0.170 A  
ENDBRANCH  10  11
ENDBRANCH   8  10
TORSDOF 2
ENDMDL
MODEL      213
REMARK 921   NORMALIZED FREE ENERGY PREDICTED BY IDOCK:    0.28 KCAL/MOL
REMARK 922        TOTAL FREE ENERGY PREDICTED BY IDOCK:   -0.16 KCAL/MOL
REMARK 923 INTER-LIGAND FREE ENERGY PREDICTED BY IDOCK:   -0.96 KCAL/MOL
REMARK 924 INTRA-LIGAND FREE ENERGY PREDICTED BY IDOCK:    0.81 KCAL/MOL
REMARK 927      BINDING AFFINITY PREDICTED BY RF-SCORE:    0.00 PKD
ROOT
HETATM    1  C   UNL     1     -10.576  13.359  66.898  1.00  0.00    -0.273 C  
HETATM    2  N   UNL     1      -9.474  13.101  67.813  1.00  0.00    -0.201 NA 
HETATM    3  C   UNL     1      -8.132  13.128  67.231  1.00  0.00    -0.146 C  
HETATM    4  C   UNL     1      -7.275  12.727  68.433  1.00  0.00    -0.115 C  
HETATM    5  C   UNL     1      -8.195  11.853  69.279  1.00  0.00     0.503 C  
HETATM    6  C   UNL     1      -9.513  11.811  68.503  1.00  0.00    -0.163 C  
HETATM    7  C   UNL     1      -9.553  10.629  67.532  1.00  0.00    -0.180 C  
HETATM    8  C   UNL     1      -8.670  10.784  66.282  1.00  0.00    -0.169 C  
HETATM    9  C   UNL     1      -7.956  12.129  66.076  1.00  0.00     0.744 C  
ENDROOT
BRANCH   8  10
HETATM   10  O   UNL     1      -7.728   9.695  66.305  1.00  0.00    -0.100 OA 
BRANCH  10  11
HETATM   11  C   UNL     1      -8.219   8.551  65.745  1.00  0.00    -0.125 C  
HETATM   12  C   UNL     1      -7.755   8.448  64.301  1.00  0.00    -0.136 C  
HETATM   13  O   UNL     1      -8.895   7.736  66.357  1.00  0.00    -0.140 OA 
HETATM   14  C   UNL     1      -8.768   9.121  63.373  1.00  0.00    -0.129 C  
HETATM   15  C   UNL     1      -7.469   7.009  63.892  1.00  0.00    -0.096 A  
HETATM   16  C   UNL     1      -6.151   6.596  63.638  1.00  0.00    -0.034 A  
HETATM   17  O   UNL     1      -8.880  10.521  63.625  1.00  0.00    -0.183 OA 
HETATM   18  H   UNL     1      -9.510  10.939  63.048  1.00  0.00     0.000 HD 
HETATM   19  C   UNL     1      -5.882   5.286  63.235  1.00  0.00    -0.017 A  
HETATM   20  C   UNL     1      -6.922   4.371  63.088  1.00  0.00    -0.040 A  
HETATM   21  C   UNL     1      -8.231   4.760  63.359  1.00  0.00    -0.107 A  
HETATM   22  C   UNL     1      -8.503   6.067  63.763  1.00  0.00     0.143 A  
ENDBRANCH  10  11
ENDBRANCH   8  10
TORSDOF 2
ENDMDL
MODEL      214
REMARK 921   NORMALIZED FREE ENERGY PREDICTED BY IDOCK:    0.36 KCAL/MOL
REMARK 922        TOTAL FREE ENERGY PREDICTED BY IDOCK:   -0.07 KCAL/MOL
REMARK 923 INTER-LIGAND FREE ENERGY PREDICTED BY IDOCK:   -1.01 KCAL/MOL
REMARK 924 INTRA-LIGAND FREE ENERGY PREDICTED BY IDOCK:    0.94 KCAL/MOL
REMARK 927      BINDING AFFINITY PREDICTED BY RF-SCORE:    0.00 PKD
ROOT
HETATM    1  C   UNL     1     -12.593  12.052  71.960  1.00  0.00     0.206 C  
HETATM    2  N   UNL     1     -12.132  11.909  70.586  1.00  0.00    -0.356 NA 
HETATM    3  C   UNL     1     -12.966  11.088  69.709  1.00  0.00     0.382 C  
HETATM    4  C   UNL     1     -12.138  11.087  68.423  1.00  0.00    -0.009 C  
HETATM    5  C   UNL     1     -10.698  11.247  68.899  1.00  0.00    -0.246 C  
HETATM    6  C   UNL     1     -10.800  11.326  70.423  1.00  0.00     0.773 C  
HETATM    7  C   UNL     1     -10.685   9.940  71.063  1.00  0.00    -0.241 C  
HETATM    8  C   UNL     1     -11.923   9.042  70.896  1.00  0.00    -0.225 C  
HETATM    9  C   UNL     1     -13.164   9.656  70.232  1.00  0.00     0.491 C  
ENDROOT
BRANCH   8  10
HETATM   10  O   UNL     1     -11.485   7.866  70.189  1.00  0.00    -0.168 OA 
BRANCH  10  11
HETATM   11  C   UNL     1     -10.209   7.970  69.716  1.00  0.00    -0.206 C  
HETATM   12  C   UNL     1     -10.151   7.463  68.284  1.00  0.00    -0.201 C  
HETATM   13  O   UNL     1      -9.285   8.443  70.363  1.00  0.00    -0.148 OA 
HETATM   14  C   UNL     1      -9.840   5.965  68.268  1.00  0.00    -0.137 C  
HETATM   15  C   UNL     1      -9.173   8.262  67.432  1.00  0.00    -0.163 A  
HETATM   16  C   UNL     1      -9.648   9.094  66.405  1.00  0.00    -0.309 A  
HETATM   17  O   UNL     1     -10.869   5.196  68.890  1.00  0.00     0.006 OA 
HETATM   18  H   UNL     1     -10.676   4.266  68.880  1.00  0.00     0.000 HD 
HETATM   19  C   UNL     1      -8.756   9.808  65.600  1.00  0.00    -0.168 A  
HETATM   20  C   UNL     1      -7.384   9.707  65.815  1.00  0.00    -0.100 A  
HETATM   21  C   UNL     1      -6.900   8.904  66.845  1.00  0.00    -0.077 A  
HETATM   22  C   UNL     1      -7.787   8.191  67.650  1.00  0.00    -0.114 A  
ENDBRANCH  10  11
ENDBRANCH   8  10
TORSDOF 2
ENDMDL
MODEL      215
REMARK 921   NORMALIZED FREE ENERGY PREDICTED BY IDOCK:    0.38 KCAL/MOL
REMARK 922        TOTAL FREE ENERGY PREDICTED BY IDOCK:   -0.05 KCAL/MOL
REMARK 923 INTER-LIGAND FREE ENERGY PREDICTED BY IDOCK:   -3.03 KCAL/MOL
REMARK 924 INTRA-LIGAND FREE ENERGY PREDICTED BY IDOCK:    2.98 KCAL/MOL
REMARK 927      BINDING AFFINITY PREDICTED BY RF-SCORE:    0.00 PKD
ROOT
HETATM    1  C   UNL     1     -12.830  10.771  71.708  1.00  0.00    -0.423 C  
HETATM    2  N   UNL     1     -11.884  10.167  70.782  1.00  0.00    -0.324 NA 
HETATM    3  C   UNL     1     -12.336   8.956  70.098  1.00  0.00     0.709 C  
HETATM    4  C   UNL     1     -11.080   8.568  69.314  1.00  0.00     0.129 C  
HETATM    5  C   UNL     1      -9.928   9.109  70.153  1.00  0.00    -0.231 C  
HETATM    6  C   UNL     1     -10.601   9.766  71.360  1.00  0.00     0.061 C  
HETATM    7  C   UNL     1     -10.764   8.776  72.517  1.00  0.00    -0.083 C  
HETATM    8  C   UNL     1     -11.861   7.716  72.316  1.00  0.00    -0.308 C  
HETATM    9  C   UNL     1     -12.745   7.833  71.065  1.00  0.00    -0.118 C  
ENDROOT
BRANCH   8  10
HETATM   10  O   UNL     1     -11.209   6.434  72.372  1.00  0.00    -0.253 OA 
BRANCH  10  11
HETATM   11  C   UNL     1     -10.756   6.010  71.155  1.00  0.00    -0.264 C  
HETATM   12  C   UNL     1      -9.535   5.125  71.343  1.00  0.00    -0.200 C  
HETATM   13  O   UNL     1     -11.302   6.290  70.097  1.00  0.00    -0.372 OA 
HETATM   14  C   UNL     1      -8.261   5.972  71.319  1.00  0.00    -0.123 C  
HETATM   15  C   UNL     1      -9.489   3.989  70.329  1.00  0.00    -0.255 A  
HETATM   16  C   UNL     1      -9.680   2.662  70.748  1.00  0.00    -0.103 A  
HETATM   17  O   UNL     1      -8.213   6.901  72.401  1.00  0.00    -0.104 OA 
HETATM   18  H   UNL     1      -7.422   7.428  72.385  1.00  0.00     0.000 HD 
HETATM   19  C   UNL     1      -9.610   1.611  69.830  1.00  0.00    -0.071 A  
HETATM   20  C   UNL     1      -9.359   1.871  68.485  1.00  0.00    -0.243 A  
HETATM   21  C   UNL     1      -9.191   3.184  68.052  1.00  0.00    -0.248 A  
HETATM   22  C   UNL     1      -9.261   4.236  68.966  1.00  0.00    -0.207 A  
ENDBRANCH  10  11
ENDBRANCH   8  10
TORSDOF 2
ENDMDL
MODEL      216
REMARK 921   NORMALIZED FREE ENERGY PREDICTED BY IDOCK:    0.54 KCAL/MOL
REMARK 922        TOTAL FREE ENERGY PREDICTED BY IDOCK:    0.13 KCAL/MOL
REMARK 923 INTER-LIGAND FREE ENERGY PREDICTED BY IDOCK:   -1.23 KCAL/MOL
REMARK 924 INTRA-LIGAND FREE ENERGY PREDICTED BY IDOCK:    1.36 KCAL/MOL
REMARK 927      BINDING AFFINITY PREDICTED BY RF-SCORE:    0.00 PKD
ROOT
HETATM    1  C   UNL     1     -12.035  16.786  73.248  1.00  0.00    -0.144 C  
HETATM    2  N   UNL     1     -12.901  15.631  73.063  1.00  0.00    -0.438 NA 
HETATM    3  C   UNL     1     -12.235  14.330  73.008  1.00  0.00     0.116 C  
HETATM    4  C   UNL     1     -13.415  13.402  72.712  1.00  0.00    -0.348 C  
HETATM    5  C   UNL     1     -14.400  14.275  71.943  1.00  0.00    -0.597 C  
HETATM    6  C   UNL     1     -13.717  15.640  71.848  1.00  0.00    -0.416 C  
HETATM    7  C   UNL     1     -12.872  15.756  70.576  1.00  0.00    -0.189 C  
HETATM    8  C   UNL     1     -11.560  14.953  70.592  1.00  0.00    -0.291 C  
HETATM    9  C   UNL     1     -11.177  14.239  71.897  1.00  0.00     1.413 C  
ENDROOT
BRANCH   8  10
HETATM   10  O   UNL     1     -11.632  14.024  69.495  1.00  0.00    -0.263 OA 
BRANCH  10  11
HETATM   11  C   UNL     1     -11.126  12.793  69.802  1.00  0.00     0.196 C  
HETATM   12  C   UNL     1     -10.284  12.283  68.644  1.00  0.00    -0.177 C  
HETATM   13  O   UNL     1     -11.313  12.234  70.874  1.00  0.00     0.952 OA 
HETATM   14  C   UNL     1     -11.152  11.482  67.672  1.00  0.00    -0.266 C  
HETATM   15  C   UNL     1      -9.074  11.489  69.122  1.00  0.00     0.250 A  
HETATM   16  C   UNL     1      -7.779  12.007  68.955  1.00  0.00     0.014 A  
HETATM   17  O   UNL     1     -12.162  12.288  67.066  1.00  0.00    -0.522 OA 
HETATM   18  H   UNL     1     -12.702  11.790  66.462  1.00  0.00     0.000 HD 
HETATM   19  C   UNL     1      -6.663  11.273  69.364  1.00  0.00    -0.123 A  
HETATM   20  C   UNL     1      -6.825  10.020  69.950  1.00  0.00    -0.108 A  
HETATM   21  C   UNL     1      -8.104   9.505  70.143  1.00  0.00    -0.186 A  
HETATM   22  C   UNL     1      -9.221  10.235  69.737  1.00  0.00    -0.101 A  
ENDBRANCH  10  11
ENDBRANCH   8  10
TORSDOF 2
ENDMDL
MODEL      217
REMARK 921   NORMALIZED FREE ENERGY PREDICTED BY IDOCK:    0.70 KCAL/MOL
REMARK 922        TOTAL FREE ENERGY PREDICTED BY IDOCK:    0.31 KCAL/MOL
REMARK 923 INTER-LIGAND FREE ENERGY PREDICTED BY IDOCK:   -3.15 KCAL/MOL
REMARK 924 INTRA-LIGAND FREE ENERGY PREDICTED BY IDOCK:    3.46 KCAL/MOL
REMARK 927      BINDING AFFINITY PREDICTED BY RF-SCORE:    0.00 PKD
ROOT
HETATM    1  C   UNL     1     -12.035  16.786  73.248  1.00  0.00    -0.144 C  
HETATM    2  N   UNL     1     -12.903  15.631  73.075  1.00  0.00    -0.438 NA 
HETATM    3  C   UNL     1     -12.241  14.328  73.029  1.00  0.00     0.116 C  
HETATM    4  C   UNL     1     -13.423  13.400  72.744  1.00  0.00    -0.348 C  
HETATM    5  C   UNL     1     -14.409  14.269  71.970  1.00  0.00    -0.629 C  
HETATM    6  C   UNL     1     -13.723  15.632  71.862  1.00  0.00    -0.416 C  
HETATM    7  C   UNL     1     -12.881  15.735  70.587  1.00  0.00    -0.269 C  
HETATM    8  C   UNL     1     -11.570  14.930  70.606  1.00  0.00    -0.291 C  
HETATM    9  C   UNL     1     -11.185  14.226  71.916  1.00  0.00     1.413 C  
ENDROOT
BRANCH   8  10
HETATM   10  O   UNL     1     -11.647  13.992  69.516  1.00  0.00    -0.263 OA 
BRANCH  10  11
HETATM   11  C   UNL     1     -12.316  12.847  69.843  1.00  0.00    -0.088 C  
HETATM   12  C   UNL     1     -11.530  11.640  69.357  1.00  0.00    -0.372 C  
HETATM   13  O   UNL     1     -13.368  12.834  70.467  1.00  0.00     0.465 OA 
HETATM   14  C   UNL     1     -11.958  11.269  67.936  1.00  0.00    -0.002 C  
HETATM   15  C   UNL     1     -11.640  10.462  70.317  1.00  0.00    -0.410 A  
HETATM   16  C   UNL     1     -10.520  10.048  71.057  1.00  0.00     0.096 A  
HETATM   17  O   UNL     1     -11.662  12.303  66.999  1.00  0.00    -0.432 OA 
HETATM   18  H   UNL     1     -11.928  12.072  66.116  1.00  0.00     0.000 HD 
HETATM   19  C   UNL     1     -10.604   8.950  71.917  1.00  0.00    -0.419 A  
HETATM   20  C   UNL     1     -11.805   8.259  72.056  1.00  0.00    -0.408 A  
HETATM   21  C   UNL     1     -12.929   8.673  71.346  1.00  0.00    -0.285 A  
HETATM   22  C   UNL     1     -12.849   9.769  70.487  1.00  0.00    -0.026 A  
ENDBRANCH  10  11
ENDBRANCH   8  10
TORSDOF 2
ENDMDL
MODEL      218
REMARK 921   NORMALIZED FREE ENERGY PREDICTED BY IDOCK:    1.28 KCAL/MOL
REMARK 922        TOTAL FREE ENERGY PREDICTED BY IDOCK:    0.96 KCAL/MOL
REMARK 923 INTER-LIGAND FREE ENERGY PREDICTED BY IDOCK:    0.55 KCAL/MOL
REMARK 924 INTRA-LIGAND FREE ENERGY PREDICTED BY IDOCK:    0.41 KCAL/MOL
REMARK 927      BINDING AFFINITY PREDICTED BY RF-SCORE:    0.00 PKD
ROOT
HETATM    1  C   UNL     1      -7.932   9.284  72.234  1.00  0.00     0.947 C  
HETATM    2  N   UNL     1      -7.018   8.156  72.341  1.00  0.00    -0.082 NA 
HETATM    3  C   UNL     1      -6.458   7.659  71.085  1.00  0.00    -0.038 C  
HETATM    4  C   UNL     1      -5.655   6.451  71.572  1.00  0.00    -0.027 C  
HETATM    5  C   UNL     1      -6.395   5.983  72.821  1.00  0.00    -0.062 C  
HETATM    6  C   UNL     1      -7.571   6.951  72.961  1.00  0.00    -0.088 C  
HETATM    7  C   UNL     1      -8.812   6.433  72.230  1.00  0.00    -0.135 C  
HETATM    8  C   UNL     1      -8.749   6.526  70.696  1.00  0.00    -0.144 C  
HETATM    9  C   UNL     1      -7.533   7.228  70.073  1.00  0.00    -0.085 C  
ENDROOT
BRANCH   8  10
HETATM   10  O   UNL     1      -8.883   5.182  70.196  1.00  0.00    -0.111 OA 
BRANCH  10  11
HETATM   11  C   UNL     1      -8.524   5.061  68.884  1.00  0.00    -0.086 C  
HETATM   12  C   UNL     1      -8.161   3.615  68.585  1.00  0.00    -0.084 C  
HETATM   13  O   UNL     1      -8.543   5.991  68.090  1.00  0.00    -0.115 OA 
HETATM   14  C   UNL     1      -6.668   3.386  68.826  1.00  0.00    -0.045 C  
HETATM   15  C   UNL     1      -8.588   3.196  67.184  1.00  0.00    -0.122 A  
HETATM   16  C   UNL     1      -9.626   2.265  67.012  1.00  0.00     0.225 A  
HETATM   17  O   UNL     1      -6.308   3.581  70.193  1.00  0.00    -0.026 OA 
HETATM   18  H   UNL     1      -5.380   3.439  70.342  1.00  0.00     0.000 HD 
HETATM   19  C   UNL     1     -10.005   1.852  65.732  1.00  0.00     0.939 A  
HETATM   20  C   UNL     1      -9.360   2.369  64.611  1.00  0.00    -0.133 A  
HETATM   21  C   UNL     1      -8.346   3.310  64.766  1.00  0.00    -0.090 A  
HETATM   22  C   UNL     1      -7.966   3.725  66.042  1.00  0.00    -0.090 A  
ENDBRANCH  10  11
ENDBRANCH   8  10
TORSDOF 2
ENDMDL
MODEL      219
REMARK 921   NORMALIZED FREE ENERGY PREDICTED BY IDOCK:    1.32 KCAL/MOL
REMARK 922        TOTAL FREE ENERGY PREDICTED BY IDOCK:    1.00 KCAL/MOL
REMARK 923 INTER-LIGAND FREE ENERGY PREDICTED BY IDOCK:   -1.67 KCAL/MOL
REMARK 924 INTRA-LIGAND FREE ENERGY PREDICTED BY IDOCK:    2.66 KCAL/MOL
REMARK 927      BINDING AFFINITY PREDICTED BY RF-SCORE:    0.00 PKD
ROOT
HETATM    1  C   UNL     1     -10.982   5.877  67.831  1.00  0.00    -0.149 C  
HETATM    2  N   UNL     1     -10.714   7.069  67.039  1.00  0.00    -0.346 NA 
HETATM    3  C   UNL     1      -9.558   7.003  66.146  1.00  0.00     0.057 C  
HETATM    4  C   UNL     1      -9.536   8.424  65.579  1.00  0.00     0.131 C  
HETATM    5  C   UNL     1     -10.150   9.281  66.680  1.00  0.00    -0.341 C  
HETATM    6  C   UNL     1     -10.478   8.295  67.803  1.00  0.00    -0.215 C  
HETATM    7  C   UNL     1      -9.311   8.158  68.785  1.00  0.00    -0.143 C  
HETATM    8  C   UNL     1      -8.107   7.359  68.256  1.00  0.00    -0.125 C  
HETATM    9  C   UNL     1      -8.244   6.688  66.881  1.00  0.00    -0.113 C  
ENDROOT
BRANCH   8  10
HETATM   10  O   UNL     1      -6.976   8.250  68.288  1.00  0.00    -0.073 OA 
BRANCH  10  11
HETATM   11  C   UNL     1      -7.284   9.488  68.775  1.00  0.00    -0.073 C  
HETATM   12  C   UNL     1      -6.005  10.237  69.114  1.00  0.00    -0.037 C  
HETATM   13  O   UNL     1      -8.428   9.910  68.873  1.00  0.00    -0.114 OA 
HETATM   14  C   UNL     1      -5.604   9.965  70.566  1.00  0.00    -0.056 C  
HETATM   15  C   UNL     1      -6.119  11.727  68.819  1.00  0.00    -0.050 A  
HETATM   16  C   UNL     1      -5.377  12.297  67.771  1.00  0.00    -0.082 A  
HETATM   17  O   UNL     1      -5.296   8.590  70.789  1.00  0.00    -0.028 OA 
HETATM   18  H   UNL     1      -5.047   8.421  71.690  1.00  0.00     0.000 HD 
HETATM   19  C   UNL     1      -5.453  13.668  67.512  1.00  0.00     0.099 A  
HETATM   20  C   UNL     1      -6.274  14.483  68.287  1.00  0.00    -0.120 A  
HETATM   21  C   UNL     1      -7.033  13.927  69.314  1.00  0.00    -0.067 A  
HETATM   22  C   UNL     1      -6.960  12.559  69.575  1.00  0.00     0.177 A  
ENDBRANCH  10  11
ENDBRANCH   8  10
TORSDOF 2
ENDMDL
MODEL      220
REMARK 921   NORMALIZED FREE ENERGY PREDICTED BY IDOCK:    1.37 KCAL/MOL
REMARK 922        TOTAL FREE ENERGY PREDICTED BY IDOCK:    1.06 KCAL/MOL
REMARK 923 INTER-LIGAND FREE ENERGY PREDICTED BY IDOCK:   -0.07 KCAL/MOL
REMARK 924 INTRA-LIGAND FREE ENERGY PREDICTED BY IDOCK:    1.13 KCAL/MOL
REMARK 927      BINDING AFFINITY PREDICTED BY RF-SCORE:    0.00 PKD
ROOT
HETATM    1  C   UNL     1     -14.013  16.360  73.525  1.00  0.00     0.837 C  
HETATM    2  N   UNL     1     -13.334  15.079  73.389  1.00  0.00    -0.488 NA 
HETATM    3  C   UNL     1     -11.880  15.132  73.242  1.00  0.00    -0.315 C  
HETATM    4  C   UNL     1     -11.546  13.655  73.029  1.00  0.00     3.097 C  
HETATM    5  C   UNL     1     -12.794  13.074  72.374  1.00  0.00    -0.122 C  
HETATM    6  C   UNL     1     -13.756  14.258  72.253  1.00  0.00    -0.495 C  
HETATM    7  C   UNL     1     -13.587  14.980  70.914  1.00  0.00    -0.363 C  
HETATM    8  C   UNL     1     -12.313  15.833  70.791  1.00  0.00    -0.390 C  
HETATM    9  C   UNL     1     -11.426  15.974  72.037  1.00  0.00    -0.380 C  
ENDROOT
BRANCH   8  10
HETATM   10  O   UNL     1     -11.566  15.301  69.681  1.00  0.00    -0.278 OA 
BRANCH  10  11
HETATM   11  C   UNL     1     -10.241  15.628  69.722  1.00  0.00    -0.300 C  
HETATM   12  C   UNL     1      -9.566  15.190  68.432  1.00  0.00    -0.212 C  
HETATM   13  O   UNL     1      -9.719  16.218  70.658  1.00  0.00     1.106 OA 
HETATM   14  C   UNL     1      -9.032  13.764  68.573  1.00  0.00    -0.120 C  
HETATM   15  C   UNL     1      -8.484  16.168  67.992  1.00  0.00    -0.168 A  
HETATM   16  C   UNL     1      -8.666  16.951  66.840  1.00  0.00    -0.248 A  
HETATM   17  O   UNL     1     -10.078  12.817  68.781  1.00  0.00    -0.390 OA 
HETATM   18  H   UNL     1      -9.747  11.930  68.869  1.00  0.00     0.000 HD 
HETATM   19  C   UNL     1      -7.667  17.829  66.412  1.00  0.00    -0.318 A  
HETATM   20  C   UNL     1      -6.480  17.943  67.132  1.00  0.00    -0.188 A  
HETATM   21  C   UNL     1      -6.295  17.190  68.289  1.00  0.00    -0.149 A  
HETATM   22  C   UNL     1      -7.291  16.313  68.719  1.00  0.00    -0.191 A  
ENDBRANCH  10  11
ENDBRANCH   8  10
TORSDOF 2
ENDMDL
MODEL      221
REMARK 921   NORMALIZED FREE ENERGY PREDICTED BY IDOCK:    4.76 KCAL/MOL
REMARK 922        TOTAL FREE ENERGY PREDICTED BY IDOCK:    4.84 KCAL/MOL
REMARK 923 INTER-LIGAND FREE ENERGY PREDICTED BY IDOCK:    0.11 KCAL/MOL
REMARK 924 INTRA-LIGAND FREE ENERGY PREDICTED BY IDOCK:    4.73 KCAL/MOL
REMARK 927      BINDING AFFINITY PREDICTED BY RF-SCORE:    0.00 PKD
ROOT
HETATM    1  C   UNL     1     -10.349   6.936  70.745  1.00  0.00    -0.203 C  
HETATM    2  N   UNL     1      -9.995   7.692  69.552  1.00  0.00    -0.179 NA 
HETATM    3  C   UNL     1      -9.078   8.814  69.748  1.00  0.00    -0.151 C  
HETATM    4  C   UNL     1      -9.024   9.407  68.339  1.00  0.00    -0.128 C  
HETATM    5  C   UNL     1     -10.378   9.062  67.730  1.00  0.00    -0.304 C  
HETATM    6  C   UNL     1     -11.116   8.298  68.832  1.00  0.00     0.301 C  
HETATM    7  C   UNL     1     -11.936   9.244  69.714  1.00  0.00     0.501 C  
HETATM    8  C   UNL     1     -11.111  10.108  70.683  1.00  0.00    -0.322 C  
HETATM    9  C   UNL     1      -9.598   9.850  70.757  1.00  0.00     0.178 C  
ENDROOT
BRANCH   8  10
HETATM   10  O   UNL     1     -11.387  11.481  70.347  1.00  0.00    -0.121 OA 
BRANCH  10  11
HETATM   11  C   UNL     1     -10.564  11.969  69.374  1.00  0.00     0.158 C  
HETATM   12  C   UNL     1     -10.505  13.485  69.467  1.00  0.00     0.352 C  
HETATM   13  O   UNL     1      -9.951  11.259  68.588  1.00  0.00    -0.196 OA 
HETATM   14  C   UNL     1     -11.600  14.109  68.599  1.00  0.00    -0.317 C  
HETATM   15  C   UNL     1      -9.123  14.027  69.125  1.00  0.00     0.282 A  
HETATM   16  C   UNL     1      -8.326  14.609  70.125  1.00  0.00     0.906 A  
HETATM   17  O   UNL     1     -12.908  13.762  69.053  1.00  0.00     0.012 OA 
HETATM   18  H   UNL     1     -13.588  14.149  68.514  1.00  0.00     0.000 HD 
HETATM   19  C   UNL     1      -7.069  15.135  69.815  1.00  0.00    -0.169 A  
HETATM   20  C   UNL     1      -6.590  15.079  68.509  1.00  0.00    -0.096 A  
HETATM   21  C   UNL     1      -7.359  14.485  67.512  1.00  0.00    -0.212 A  
HETATM   22  C   UNL     1      -8.614  13.958  67.818  1.00  0.00    -0.182 A  
ENDBRANCH  10  11
ENDBRANCH   8  10
TORSDOF 2
ENDMDL
MODEL      222
REMARK 921   NORMALIZED FREE ENERGY PREDICTED BY IDOCK:    4.86 KCAL/MOL
REMARK 922        TOTAL FREE ENERGY PREDICTED BY IDOCK:    4.96 KCAL/MOL
REMARK 923 INTER-LIGAND FREE ENERGY PREDICTED BY IDOCK:    5.14 KCAL/MOL
REMARK 924 INTRA-LIGAND FREE ENERGY PREDICTED BY IDOCK:   -0.18 KCAL/MOL
REMARK 927      BINDING AFFINITY PREDICTED BY RF-SCORE:    0.00 PKD
ROOT
HETATM    1  C   UNL     1     -12.254  11.650  71.839  1.00  0.00     0.814 C  
HETATM    2  N   UNL     1     -13.113  12.557  71.093  1.00  0.00    -0.138 NA 
HETATM    3  C   UNL     1     -12.903  12.599  69.646  1.00  0.00     0.875 C  
HETATM    4  C   UNL     1     -13.883  13.699  69.233  1.00  0.00     5.435 C  
HETATM    5  C   UNL     1     -13.972  14.606  70.455  1.00  0.00     0.581 C  
HETATM    6  C   UNL     1     -13.037  13.966  71.483  1.00  0.00    -0.365 C  
HETATM    7  C   UNL     1     -11.617  14.528  71.372  1.00  0.00    -0.117 C  
HETATM    8  C   UNL     1     -10.819  14.043  70.149  1.00  0.00     0.409 C  
HETATM    9  C   UNL     1     -11.464  12.974  69.255  1.00  0.00    -0.348 C  
ENDROOT
BRANCH   8  10
HETATM   10  O   UNL     1     -10.478  15.218  69.389  1.00  0.00    -0.226 OA 
BRANCH  10  11
HETATM   11  C   UNL     1      -9.131  15.393  69.251  1.00  0.00    -0.260 C  
HETATM   12  C   UNL     1      -8.808  15.758  67.811  1.00  0.00    -0.173 C  
HETATM   13  O   UNL     1      -8.339  15.299  70.179  1.00  0.00     0.133 OA 
HETATM   14  C   UNL     1      -8.543  14.493  66.993  1.00  0.00    -0.217 C  
HETATM   15  C   UNL     1      -7.658  16.754  67.717  1.00  0.00    -0.180 A  
HETATM   16  C   UNL     1      -7.898  18.070  67.289  1.00  0.00    -0.224 A  
HETATM   17  O   UNL     1      -9.696  13.656  66.910  1.00  0.00    -0.245 OA 
HETATM   18  H   UNL     1      -9.531  12.870  66.402  1.00  0.00     0.000 HD 
HETATM   19  C   UNL     1      -6.846  18.982  67.171  1.00  0.00    -0.205 A  
HETATM   20  C   UNL     1      -5.546  18.595  67.488  1.00  0.00    -0.153 A  
HETATM   21  C   UNL     1      -5.297  17.300  67.937  1.00  0.00    -0.121 A  
HETATM   22  C   UNL     1      -6.345  16.388  68.056  1.00  0.00    -0.137 A  
ENDBRANCH  10  11
ENDBRANCH   8  10
TORSDOF 2
ENDMDL
MODEL      223
REMARK 921   NORMALIZED FREE ENERGY PREDICTED BY IDOCK:    5.01 KCAL/MOL
REMARK 922        TOTAL FREE ENERGY PREDICTED BY IDOCK:    5.13 KCAL/MOL
REMARK 923 INTER-LIGAND FREE ENERGY PREDICTED BY IDOCK:    1.97 KCAL/MOL
REMARK 924 INTRA-LIGAND FREE ENERGY PREDICTED BY IDOCK:    3.16 KCAL/MOL
REMARK 927      BINDING AFFINITY PREDICTED BY RF-SCORE:    0.00 PKD
ROOT
HETATM    1  C   UNL     1     -13.853  16.558  73.362  1.00  0.00     0.743 C  
HETATM    2  N   UNL     1     -12.852  15.505  73.283  1.00  0.00    -0.463 NA 
HETATM    3  C   UNL     1     -11.478  15.938  73.036  1.00  0.00     0.097 C  
HETATM    4  C   UNL     1     -10.755  14.595  72.920  1.00  0.00     2.700 C  
HETATM    5  C   UNL     1     -11.819  13.636  72.398  1.00  0.00     1.511 C  
HETATM    6  C   UNL     1     -13.076  14.495  72.247  1.00  0.00    -0.374 C  
HETATM    7  C   UNL     1     -13.171  15.106  70.846  1.00  0.00    -0.488 C  
HETATM    8  C   UNL     1     -12.190  16.259  70.571  1.00  0.00     0.304 C  
HETATM    9  C   UNL     1     -11.326  16.753  71.741  1.00  0.00     0.356 C  
ENDROOT
BRANCH   8  10
HETATM   10  O   UNL     1     -11.372  15.847  69.460  1.00  0.00    -0.291 OA 
BRANCH  10  11
HETATM   11  C   UNL     1     -11.532  14.530  69.137  1.00  0.00    -0.294 C  
HETATM   12  C   UNL     1     -10.656  14.186  67.943  1.00  0.00    -0.244 C  
HETATM   13  O   UNL     1     -12.251  13.764  69.763  1.00  0.00    -0.324 OA 
HETATM   14  C   UNL     1     -11.428  14.410  66.641  1.00  0.00    -0.363 C  
HETATM   15  C   UNL     1     -10.087  12.776  68.038  1.00  0.00    -0.230 A  
HETATM   16  C   UNL     1      -8.711  12.583  68.247  1.00  0.00    -0.171 A  
HETATM   17  O   UNL     1     -11.782  15.780  66.456  1.00  0.00     0.255 OA 
HETATM   18  H   UNL     1     -12.262  15.919  65.648  1.00  0.00     0.000 HD 
HETATM   19  C   UNL     1      -8.176  11.294  68.306  1.00  0.00    -0.143 A  
HETATM   20  C   UNL     1      -9.005  10.184  68.166  1.00  0.00    -0.122 A  
HETATM   21  C   UNL     1     -10.374  10.360  67.981  1.00  0.00    -0.212 A  
HETATM   22  C   UNL     1     -10.912  11.646  67.923  1.00  0.00    -0.277 A  
ENDBRANCH  10  11
ENDBRANCH   8  10
TORSDOF 2
ENDMDL
MODEL      224
REMARK 921   NORMALIZED FREE ENERGY PREDICTED BY IDOCK:    8.93 KCAL/MOL
REMARK 922        TOTAL FREE ENERGY PREDICTED BY IDOCK:    9.51 KCAL/MOL
REMARK 923 INTER-LIGAND FREE ENERGY PREDICTED BY IDOCK:    6.04 KCAL/MOL
REMARK 924 INTRA-LIGAND FREE ENERGY PREDICTED BY IDOCK:    3.47 KCAL/MOL
REMARK 927      BINDING AFFINITY PREDICTED BY RF-SCORE:    0.00 PKD
ROOT
HETATM    1  C   UNL     1     -10.567   6.076  67.430  1.00  0.00    -0.283 C  
HETATM    2  N   UNL     1     -10.891   7.274  66.669  1.00  0.00    -0.076 NA 
HETATM    3  C   UNL     1      -9.879   7.725  65.715  1.00  0.00     0.621 C  
HETATM    4  C   UNL     1     -10.510   9.019  65.198  1.00  0.00     2.314 C  
HETATM    5  C   UNL     1     -11.364   9.515  66.359  1.00  0.00     1.618 C  
HETATM    6  C   UNL     1     -11.162   8.474  67.462  1.00  0.00     0.719 C  
HETATM    7  C   UNL     1      -9.992   8.847  68.376  1.00  0.00    -0.198 C  
HETATM    8  C   UNL     1      -8.596   8.655  67.757  1.00  0.00    -0.136 C  
HETATM    9  C   UNL     1      -8.516   8.005  66.368  1.00  0.00    -0.138 C  
ENDROOT
BRANCH   8  10
HETATM   10  O   UNL     1      -7.963   9.949  67.761  1.00  0.00    -0.104 OA 
BRANCH  10  11
HETATM   11  C   UNL     1      -8.854  10.980  67.845  1.00  0.00    -0.134 C  
HETATM   12  C   UNL     1      -8.587  11.786  69.106  1.00  0.00     0.371 C  
HETATM   13  O   UNL     1      -9.700  11.212  66.993  1.00  0.00    -0.182 OA 
HETATM   14  C   UNL     1      -9.404  11.226  70.272  1.00  0.00     2.597 C  
HETATM   15  C   UNL     1      -8.830  13.275  68.897  1.00  0.00     0.281 A  
HETATM   16  C   UNL     1      -7.751  14.174  68.903  1.00  0.00    -0.091 A  
HETATM   17  O   UNL     1      -9.025   9.890  70.601  1.00  0.00    -0.343 OA 
HETATM   18  H   UNL     1      -9.532   9.542  71.325  1.00  0.00     0.000 HD 
HETATM   19  C   UNL     1      -7.968  15.545  68.741  1.00  0.00    -0.163 A  
HETATM   20  C   UNL     1      -9.260  16.033  68.562  1.00  0.00    -0.206 A  
HETATM   21  C   UNL     1     -10.337  15.151  68.530  1.00  0.00    -0.230 A  
HETATM   22  C   UNL     1     -10.124  13.782  68.691  1.00  0.00    -0.195 A  
ENDBRANCH  10  11
ENDBRANCH   8  10
TORSDOF 2
ENDMDL
MODEL      225
REMARK 921   NORMALIZED FREE ENERGY PREDICTED BY IDOCK:   16.14 KCAL/MOL
REMARK 922        TOTAL FREE ENERGY PREDICTED BY IDOCK:   17.55 KCAL/MOL
REMARK 923 INTER-LIGAND FREE ENERGY PREDICTED BY IDOCK:   13.43 KCAL/MOL
REMARK 924 INTRA-LIGAND FREE ENERGY PREDICTED BY IDOCK:    4.13 KCAL/MOL
REMARK 927      BINDING AFFINITY PREDICTED BY RF-SCORE:    0.00 PKD
ROOT
HETATM    1  C   UNL     1      -9.440  20.398  68.372  1.00  0.00     0.113 C  
HETATM    2  N   UNL     1      -8.122  20.149  67.809  1.00  0.00    -0.288 NA 
HETATM    3  C   UNL     1      -7.827  18.762  67.448  1.00  0.00    -0.232 C  
HETATM    4  C   UNL     1      -6.368  18.872  67.002  1.00  0.00    -0.193 C  
HETATM    5  C   UNL     1      -5.813  20.043  67.805  1.00  0.00    -0.219 C  
HETATM    6  C   UNL     1      -6.989  20.521  68.658  1.00  0.00    -0.035 C  
HETATM    7  C   UNL     1      -7.019  19.815  70.016  1.00  0.00    -0.055 C  
HETATM    8  C   UNL     1      -7.475  18.346  69.975  1.00  0.00     1.147 C  
HETATM    9  C   UNL     1      -7.964  17.789  68.630  1.00  0.00    -0.276 C  
ENDROOT
BRANCH   8  10
HETATM   10  O   UNL     1      -6.385  17.562  70.495  1.00  0.00     0.351 OA 
BRANCH  10  11
HETATM   11  C   UNL     1      -6.691  16.237  70.621  1.00  0.00     1.280 C  
HETATM   12  C   UNL     1      -8.001  15.946  69.907  1.00  0.00     0.400 C  
HETATM   13  O   UNL     1      -5.973  15.430  71.195  1.00  0.00     0.153 OA 
HETATM   14  C   UNL     1      -9.177  16.122  70.871  1.00  0.00     3.124 C  
HETATM   15  C   UNL     1      -8.000  14.573  69.247  1.00  0.00     0.007 A  
HETATM   16  C   UNL     1      -7.993  14.464  67.846  1.00  0.00    -0.150 A  
HETATM   17  O   UNL     1      -9.298  17.467  71.329  1.00  0.00     5.813 OA 
HETATM   18  H   UNL     1     -10.028  17.576  71.928  1.00  0.00     0.000 HD 
HETATM   19  C   UNL     1      -8.021  13.209  67.232  1.00  0.00    -0.140 A  
HETATM   20  C   UNL     1      -8.049  12.051  68.005  1.00  0.00    -0.153 A  
HETATM   21  C   UNL     1      -8.033  12.144  69.394  1.00  0.00     0.694 A  
HETATM   22  C   UNL     1      -8.004  13.395  70.011  1.00  0.00     2.085 A  
ENDBRANCH  10  11
ENDBRANCH   8  10
TORSDOF 2
ENDMDL
MODEL      226
REMARK 921   NORMALIZED FREE ENERGY PREDICTED BY IDOCK:   30.10 KCAL/MOL
REMARK 922        TOTAL FREE ENERGY PREDICTED BY IDOCK:   33.15 KCAL/MOL
REMARK 923 INTER-LIGAND FREE ENERGY PREDICTED BY IDOCK:   33.08 KCAL/MOL
REMARK 924 INTRA-LIGAND FREE ENERGY PREDICTED BY IDOCK:    0.07 KCAL/MOL
REMARK 927      BINDING AFFINITY PREDICTED BY RF-SCORE:    0.00 PKD
ROOT
HETATM    1  C   UNL     1     -13.170   7.127  65.672  1.00  0.00    14.910 C  
HETATM    2  N   UNL     1     -12.097   8.029  66.065  1.00  0.00     7.856 NA 
HETATM    3  C   UNL     1     -10.955   8.107  65.155  1.00  0.00     7.016 C  
HETATM    4  C   UNL     1     -10.021   9.042  65.924  1.00  0.00    -0.169 C  
HETATM    5  C   UNL     1     -10.369   8.804  67.390  1.00  0.00    -0.349 C  
HETATM    6  C   UNL     1     -11.475   7.747  67.359  1.00  0.00     1.245 C  
HETATM    7  C   UNL     1     -10.897   6.331  67.434  1.00  0.00    -0.448 C  
HETATM    8  C   UNL     1     -10.210   5.839  66.148  1.00  0.00     0.010 C  
HETATM    9  C   UNL     1     -10.284   6.745  64.910  1.00  0.00     3.751 C  
ENDROOT
BRANCH   8  10
HETATM   10  O   UNL     1      -8.844   5.549  66.497  1.00  0.00    -0.117 OA 
BRANCH  10  11
HETATM   11  C   UNL     1      -8.712   4.409  67.238  1.00  0.00    -0.105 C  
HETATM   12  C   UNL     1      -7.238   4.103  67.447  1.00  0.00    -0.068 C  
HETATM   13  O   UNL     1      -9.661   3.779  67.682  1.00  0.00    -0.178 OA 
HETATM   14  C   UNL     1      -6.719   3.211  66.317  1.00  0.00    -0.048 C  
HETATM   15  C   UNL     1      -6.966   3.505  68.821  1.00  0.00    -0.046 A  
HETATM   16  C   UNL     1      -6.257   4.242  69.784  1.00  0.00    -0.027 A  
HETATM   17  O   UNL     1      -6.784   3.860  65.048  1.00  0.00    -0.046 OA 
HETATM   18  H   UNL     1      -6.462   3.305  64.346  1.00  0.00     0.000 HD 
HETATM   19  C   UNL     1      -5.978   3.691  71.037  1.00  0.00    -0.014 A  
HETATM   20  C   UNL     1      -6.410   2.403  71.347  1.00  0.00    -0.018 A  
HETATM   21  C   UNL     1      -7.134   1.670  70.411  1.00  0.00    -0.033 A  
HETATM   22  C   UNL     1      -7.415   2.218  69.160  1.00  0.00    -0.043 A  
ENDBRANCH  10  11
ENDBRANCH   8  10
TORSDOF 2
ENDMDL
MODEL      227
REMARK 921   NORMALIZED FREE ENERGY PREDICTED BY IDOCK:   61.43 KCAL/MOL
REMARK 922        TOTAL FREE ENERGY PREDICTED BY IDOCK:   68.14 KCAL/MOL
REMARK 923 INTER-LIGAND FREE ENERGY PREDICTED BY IDOCK:   55.84 KCAL/MOL
REMARK 924 INTRA-LIGAND FREE ENERGY PREDICTED BY IDOCK:   12.30 KCAL/MOL
REMARK 927      BINDING AFFINITY PREDICTED BY RF-SCORE:    0.00 PKD
ROOT
HETATM    1  C   UNL     1     -10.205  16.677  74.264  1.00  0.00     9.665 C  
HETATM    2  N   UNL     1      -9.652  15.882  73.177  1.00  0.00     8.641 NA 
HETATM    3  C   UNL     1      -9.887  16.388  71.825  1.00  0.00     5.124 C  
HETATM    4  C   UNL     1      -9.269  15.274  70.976  1.00  0.00     2.321 C  
HETATM    5  C   UNL     1      -9.424  14.019  71.828  1.00  0.00     8.070 C  
HETATM    6  C   UNL     1     -10.122  14.498  73.102  1.00  0.00     6.053 C  
HETATM    7  C   UNL     1     -11.645  14.403  72.976  1.00  0.00     0.736 C  
HETATM    8  C   UNL     1     -12.289  15.464  72.067  1.00  0.00    -0.373 C  
HETATM    9  C   UNL     1     -11.379  16.561  71.495  1.00  0.00     0.005 C  
ENDROOT
BRANCH   8  10
HETATM   10  O   UNL     1     -12.963  14.749  71.014  1.00  0.00    -0.327 OA 
BRANCH  10  11
HETATM   11  C   UNL     1     -12.320  13.601  70.650  1.00  0.00    -0.368 C  
HETATM   12  C   UNL     1     -12.811  12.446  71.507  1.00  0.00    -0.377 C  
HETATM   13  O   UNL     1     -11.505  13.543  69.739  1.00  0.00    -0.248 OA 
HETATM   14  C   UNL     1     -11.947  12.317  72.763  1.00  0.00     5.023 C  
HETATM   15  C   UNL     1     -12.885  11.142  70.724  1.00  0.00    -0.322 A  
HETATM   16  C   UNL     1     -14.132  10.567  70.425  1.00  0.00     2.020 A  
HETATM   17  O   UNL     1     -12.045  13.466  73.603  1.00  0.00     1.839 OA 
HETATM   18  H   UNL     1     -11.507  13.386  74.383  1.00  0.00     0.000 HD 
HETATM   19  C   UNL     1     -14.208   9.356  69.732  1.00  0.00     3.059 A  
HETATM   20  C   UNL     1     -13.044   8.710  69.322  1.00  0.00     5.238 A  
HETATM   21  C   UNL     1     -11.803   9.280  69.590  1.00  0.00     0.481 A  
HETATM   22  C   UNL     1     -11.723  10.489  70.281  1.00  0.00    -0.420 A  
ENDBRANCH  10  11
ENDBRANCH   8  10
TORSDOF 2
ENDMDL
