MODEL        1
REMARK 921   NORMALIZED FREE ENERGY PREDICTED BY IDOCK:   -6.03 KCAL/MOL
REMARK 922        TOTAL FREE ENERGY PREDICTED BY IDOCK:   -9.18 KCAL/MOL
REMARK 923 INTER-LIGAND FREE ENERGY PREDICTED BY IDOCK:   -8.50 KCAL/MOL
REMARK 924 INTRA-LIGAND FREE ENERGY PREDICTED BY IDOCK:   -0.68 KCAL/MOL
REMARK 927      BINDING AFFINITY PREDICTED BY RF-SCORE:    0.00 PKD
ROOT
HETATM    1  C   UNL     1     -12.352  15.512  74.157  1.00  0.00    -0.806 C  
HETATM    2  C   UNL     1     -13.638  15.869  73.431  1.00  0.00    -0.393 C  
ENDROOT
BRANCH   2   3
HETATM    3  C   UNL     1     -13.867  14.959  72.227  1.00  0.00    -0.588 C  
BRANCH   3   4
HETATM    4  C   UNL     1     -13.118  15.476  70.999  1.00  0.00    -0.551 C  
BRANCH   4   5
HETATM    5  C   UNL     1     -12.503  14.301  70.224  1.00  0.00    -0.361 C  
BRANCH   5   6
HETATM    6  N   UNL     1     -11.491  14.688  69.217  1.00  0.00    -0.275 NA 
HETATM    7  C   UNL     1     -10.342  15.345  69.859  1.00  0.00    -0.285 C  
BRANCH   6   8
HETATM    8  C   UNL     1     -10.995  13.492  68.498  1.00  0.00    -0.267 C  
BRANCH   8   9
HETATM    9  C   UNL     1     -10.331  13.798  67.149  1.00  0.00    -0.261 C  
BRANCH   9  10
HETATM   10  C   UNL     1     -11.266  14.419  66.070  1.00  0.00    -0.333 C  
HETATM   11  P   UNL     1     -11.265  13.247  64.665  1.00  0.00    -0.388 P  
HETATM   12  P   UNL     1     -10.728  16.110  65.593  1.00  0.00    -0.195 P  
HETATM   13  O   UNL     1     -12.612  14.518  66.650  1.00  0.00    -0.480 OA 
HETATM   14  O   UNL     1      -9.123  16.095  65.581  1.00  0.00    -0.394 OA 
HETATM   15  O   UNL     1     -11.260  16.815  64.393  1.00  0.00    -1.112 OA 
HETATM   16  O   UNL     1     -11.017  17.010  66.898  1.00  0.00    -0.081 OA 
HETATM   17  O   UNL     1     -12.439  12.392  65.472  1.00  0.00    -0.643 OA 
HETATM   18  O   UNL     1     -12.345  14.198  63.880  1.00  0.00    -0.660 OA 
HETATM   19  O   UNL     1     -11.264  12.255  63.476  1.00  0.00    -0.425 OA 
HETATM   20  H   UNL     1     -13.182  14.897  65.992  1.00  0.00     0.000 HD 
ENDBRANCH   9  10
ENDBRANCH   8   9
ENDBRANCH   6   8
ENDBRANCH   5   6
ENDBRANCH   4   5
ENDBRANCH   3   4
ENDBRANCH   2   3
TORSDOF 7
ENDMDL
MODEL        2
REMARK 921   NORMALIZED FREE ENERGY PREDICTED BY IDOCK:   -5.57 KCAL/MOL
REMARK 922        TOTAL FREE ENERGY PREDICTED BY IDOCK:   -8.53 KCAL/MOL
REMARK 923 INTER-LIGAND FREE ENERGY PREDICTED BY IDOCK:   -8.07 KCAL/MOL
REMARK 924 INTRA-LIGAND FREE ENERGY PREDICTED BY IDOCK:   -0.46 KCAL/MOL
REMARK 927      BINDING AFFINITY PREDICTED BY RF-SCORE:    0.00 PKD
ROOT
HETATM    1  C   UNL     1     -12.366  15.820  74.272  1.00  0.00    -0.790 C  
HETATM    2  C   UNL     1     -13.333  15.562  73.129  1.00  0.00    -0.632 C  
ENDROOT
BRANCH   2   3
HETATM    3  C   UNL     1     -12.681  14.733  72.026  1.00  0.00    -0.400 C  
BRANCH   3   4
HETATM    4  C   UNL     1     -12.745  15.460  70.683  1.00  0.00    -0.490 C  
BRANCH   4   5
HETATM    5  C   UNL     1     -11.357  16.004  70.312  1.00  0.00    -0.382 C  
BRANCH   5   6
HETATM    6  N   UNL     1     -11.164  16.271  68.870  1.00  0.00    -0.343 NA 
HETATM    7  C   UNL     1     -10.333  17.468  68.668  1.00  0.00    -0.369 C  
BRANCH   6   8
HETATM    8  C   UNL     1     -10.487  15.126  68.220  1.00  0.00    -0.241 C  
BRANCH   8   9
HETATM    9  C   UNL     1     -11.416  14.234  67.386  1.00  0.00    -0.368 C  
BRANCH   9  10
HETATM   10  C   UNL     1     -10.720  13.409  66.264  1.00  0.00    -0.287 C  
HETATM   11  P   UNL     1     -11.729  13.655  64.757  1.00  0.00    -0.421 P  
HETATM   12  P   UNL     1     -10.544  11.640  66.727  1.00  0.00    -0.266 P  
HETATM   13  O   UNL     1      -9.374  13.964  66.072  1.00  0.00    -0.485 OA 
HETATM   14  O   UNL     1     -11.876  11.240  67.530  1.00  0.00    -0.613 OA 
HETATM   15  O   UNL     1     -10.182  10.582  65.742  1.00  0.00    -0.255 OA 
HETATM   16  O   UNL     1      -9.457  11.639  67.917  1.00  0.00    -0.170 OA 
HETATM   17  O   UNL     1     -10.887  15.066  64.513  1.00  0.00    -0.313 OA 
HETATM   18  O   UNL     1     -10.664  12.745  63.905  1.00  0.00    -0.406 OA 
HETATM   19  O   UNL     1     -12.581  13.863  63.482  1.00  0.00    -0.842 OA 
HETATM   20  H   UNL     1      -8.949  13.460  65.388  1.00  0.00     0.000 HD 
ENDBRANCH   9  10
ENDBRANCH   8   9
ENDBRANCH   6   8
ENDBRANCH   5   6
ENDBRANCH   4   5
ENDBRANCH   3   4
ENDBRANCH   2   3
TORSDOF 7
ENDMDL
MODEL        3
REMARK 921   NORMALIZED FREE ENERGY PREDICTED BY IDOCK:   -5.43 KCAL/MOL
REMARK 922        TOTAL FREE ENERGY PREDICTED BY IDOCK:   -8.33 KCAL/MOL
REMARK 923 INTER-LIGAND FREE ENERGY PREDICTED BY IDOCK:   -7.72 KCAL/MOL
REMARK 924 INTRA-LIGAND FREE ENERGY PREDICTED BY IDOCK:   -0.61 KCAL/MOL
REMARK 927      BINDING AFFINITY PREDICTED BY RF-SCORE:    0.00 PKD
ROOT
HETATM    1  C   UNL     1     -12.596   9.380  71.954  1.00  0.00    -0.481 C  
HETATM    2  C   UNL     1     -12.783  10.387  70.832  1.00  0.00    -0.477 C  
ENDROOT
BRANCH   2   3
HETATM    3  C   UNL     1     -11.441  10.872  70.291  1.00  0.00    -0.391 C  
BRANCH   3   4
HETATM    4  C   UNL     1     -10.996  10.030  69.095  1.00  0.00    -0.256 C  
BRANCH   4   5
HETATM    5  C   UNL     1     -11.147  10.839  67.797  1.00  0.00    -0.318 C  
BRANCH   5   6
HETATM    6  N   UNL     1      -9.939  10.868  66.944  1.00  0.00    -0.189 NA 
HETATM    7  C   UNL     1      -9.963   9.767  65.968  1.00  0.00    -0.272 C  
BRANCH   6   8
HETATM    8  C   UNL     1      -9.865  12.144  66.197  1.00  0.00    -0.237 C  
BRANCH   8   9
HETATM    9  C   UNL     1     -10.672  13.289  66.824  1.00  0.00    -0.279 C  
BRANCH   9  10
HETATM   10  C   UNL     1     -11.459  14.180  65.819  1.00  0.00    -0.327 C  
HETATM   11  P   UNL     1     -11.633  13.187  64.292  1.00  0.00    -0.435 P  
HETATM   12  P   UNL     1     -10.621  15.791  65.534  1.00  0.00    -0.390 P  
HETATM   13  O   UNL     1     -12.778  14.454  66.403  1.00  0.00    -0.486 OA 
HETATM   14  O   UNL     1      -9.043  15.492  65.525  1.00  0.00    -0.105 OA 
HETATM   15  O   UNL     1     -10.993  16.706  64.418  1.00  0.00    -0.924 OA 
HETATM   16  O   UNL     1     -10.775  16.580  66.930  1.00  0.00    -0.279 OA 
HETATM   17  O   UNL     1     -12.957  12.471  64.997  1.00  0.00    -0.779 OA 
HETATM   18  O   UNL     1     -12.511  14.394  63.615  1.00  0.00    -0.805 OA 
HETATM   19  O   UNL     1     -11.781  12.346  63.001  1.00  0.00    -0.295 OA 
HETATM   20  H   UNL     1     -13.258  14.997  65.789  1.00  0.00     0.000 HD 
ENDBRANCH   9  10
ENDBRANCH   8   9
ENDBRANCH   6   8
ENDBRANCH   5   6
ENDBRANCH   4   5
ENDBRANCH   3   4
ENDBRANCH   2   3
TORSDOF 7
ENDMDL
MODEL        4
REMARK 921   NORMALIZED FREE ENERGY PREDICTED BY IDOCK:   -5.42 KCAL/MOL
REMARK 922        TOTAL FREE ENERGY PREDICTED BY IDOCK:   -8.32 KCAL/MOL
REMARK 923 INTER-LIGAND FREE ENERGY PREDICTED BY IDOCK:   -7.83 KCAL/MOL
REMARK 924 INTRA-LIGAND FREE ENERGY PREDICTED BY IDOCK:   -0.49 KCAL/MOL
REMARK 927      BINDING AFFINITY PREDICTED BY RF-SCORE:    0.00 PKD
ROOT
HETATM    1  C   UNL     1     -12.490  15.580  74.290  1.00  0.00    -0.792 C  
HETATM    2  C   UNL     1     -13.243  15.759  72.982  1.00  0.00    -0.671 C  
ENDROOT
BRANCH   2   3
HETATM    3  C   UNL     1     -13.622  14.413  72.371  1.00  0.00    -0.578 C  
BRANCH   3   4
HETATM    4  C   UNL     1     -12.840  14.158  71.082  1.00  0.00    -0.431 C  
BRANCH   4   5
HETATM    5  C   UNL     1     -12.480  15.493  70.411  1.00  0.00    -0.402 C  
BRANCH   5   6
HETATM    6  N   UNL     1     -12.118  15.387  68.981  1.00  0.00    -0.277 NA 
HETATM    7  C   UNL     1     -10.973  16.256  68.667  1.00  0.00    -0.340 C  
BRANCH   6   8
HETATM    8  C   UNL     1     -11.744  13.994  68.646  1.00  0.00    -0.354 C  
BRANCH   8   9
HETATM    9  C   UNL     1     -10.752  13.870  67.482  1.00  0.00    -0.271 C  
BRANCH   9  10
HETATM   10  C   UNL     1     -11.070  12.748  66.450  1.00  0.00    -0.285 C  
HETATM   11  P   UNL     1      -9.518  11.802  66.238  1.00  0.00    -0.221 P  
HETATM   12  P   UNL     1     -11.711  13.436  64.871  1.00  0.00    -0.397 P  
HETATM   13  O   UNL     1     -12.114  11.893  67.028  1.00  0.00    -0.600 OA 
HETATM   14  O   UNL     1     -10.897  14.793  64.597  1.00  0.00    -0.376 OA 
HETATM   15  O   UNL     1     -11.822  12.625  63.626  1.00  0.00    -0.446 OA 
HETATM   16  O   UNL     1     -13.165  14.021  65.245  1.00  0.00    -0.782 OA 
HETATM   17  O   UNL     1      -9.943  10.944  67.596  1.00  0.00    -0.169 OA 
HETATM   18  O   UNL     1     -10.292  10.778  65.218  1.00  0.00    -0.280 OA 
HETATM   19  O   UNL     1      -8.206  11.000  66.059  1.00  0.00    -0.164 OA 
HETATM   20  H   UNL     1     -12.309  11.209  66.399  1.00  0.00     0.000 HD 
ENDBRANCH   9  10
ENDBRANCH   8   9
ENDBRANCH   6   8
ENDBRANCH   5   6
ENDBRANCH   4   5
ENDBRANCH   3   4
ENDBRANCH   2   3
TORSDOF 7
ENDMDL
MODEL        5
REMARK 921   NORMALIZED FREE ENERGY PREDICTED BY IDOCK:   -5.36 KCAL/MOL
REMARK 922        TOTAL FREE ENERGY PREDICTED BY IDOCK:   -8.24 KCAL/MOL
REMARK 923 INTER-LIGAND FREE ENERGY PREDICTED BY IDOCK:   -7.41 KCAL/MOL
REMARK 924 INTRA-LIGAND FREE ENERGY PREDICTED BY IDOCK:   -0.83 KCAL/MOL
REMARK 927      BINDING AFFINITY PREDICTED BY RF-SCORE:    0.00 PKD
ROOT
HETATM    1  C   UNL     1     -10.350  19.835  65.905  1.00  0.00    -0.582 C  
HETATM    2  C   UNL     1      -9.848  20.362  67.239  1.00  0.00    -0.597 C  
ENDROOT
BRANCH   2   3
HETATM    3  C   UNL     1      -9.987  19.313  68.338  1.00  0.00    -0.502 C  
BRANCH   3   4
HETATM    4  C   UNL     1     -10.594  18.021  67.789  1.00  0.00    -0.409 C  
BRANCH   4   5
HETATM    5  C   UNL     1     -10.422  16.884  68.809  1.00  0.00    -0.343 C  
BRANCH   5   6
HETATM    6  N   UNL     1      -9.430  15.857  68.425  1.00  0.00    -0.197 NA 
HETATM    7  C   UNL     1      -8.175  16.040  69.171  1.00  0.00    -0.241 C  
BRANCH   6   8
HETATM    8  C   UNL     1      -9.948  14.502  68.723  1.00  0.00    -0.232 C  
BRANCH   8   9
HETATM    9  C   UNL     1     -11.058  14.029  67.775  1.00  0.00    -0.284 C  
BRANCH   9  10
HETATM   10  C   UNL     1     -10.570  13.374  66.449  1.00  0.00    -0.285 C  
HETATM   11  P   UNL     1     -11.648  14.041  65.129  1.00  0.00    -0.383 P  
HETATM   12  P   UNL     1     -10.602  11.539  66.542  1.00  0.00    -0.275 P  
HETATM   13  O   UNL     1      -9.179  13.793  66.231  1.00  0.00    -0.454 OA 
HETATM   14  O   UNL     1     -11.910  11.145  67.384  1.00  0.00    -0.570 OA 
HETATM   15  O   UNL     1     -10.464  10.670  65.339  1.00  0.00    -0.258 OA 
HETATM   16  O   UNL     1      -9.437  11.167  67.591  1.00  0.00    -0.163 OA 
HETATM   17  O   UNL     1     -10.642  15.363  65.077  1.00  0.00    -0.414 OA 
HETATM   18  O   UNL     1     -10.785  13.205  64.013  1.00  0.00    -0.399 OA 
HETATM   19  O   UNL     1     -12.559  14.605  64.013  1.00  0.00    -0.819 OA 
HETATM   20  H   UNL     1      -8.881  13.393  65.422  1.00  0.00     0.000 HD 
ENDBRANCH   9  10
ENDBRANCH   8   9
ENDBRANCH   6   8
ENDBRANCH   5   6
ENDBRANCH   4   5
ENDBRANCH   3   4
ENDBRANCH   2   3
TORSDOF 7
ENDMDL
MODEL        6
REMARK 921   NORMALIZED FREE ENERGY PREDICTED BY IDOCK:   -5.33 KCAL/MOL
REMARK 922        TOTAL FREE ENERGY PREDICTED BY IDOCK:   -8.19 KCAL/MOL
REMARK 923 INTER-LIGAND FREE ENERGY PREDICTED BY IDOCK:   -7.66 KCAL/MOL
REMARK 924 INTRA-LIGAND FREE ENERGY PREDICTED BY IDOCK:   -0.53 KCAL/MOL
REMARK 927      BINDING AFFINITY PREDICTED BY RF-SCORE:    0.00 PKD
ROOT
HETATM    1  C   UNL     1     -12.550   8.496  72.169  1.00  0.00    -0.431 C  
HETATM    2  C   UNL     1     -11.941   9.733  71.532  1.00  0.00    -0.488 C  
ENDROOT
BRANCH   2   3
HETATM    3  C   UNL     1     -12.831  10.956  71.732  1.00  0.00    -0.509 C  
BRANCH   3   4
HETATM    4  C   UNL     1     -12.427  12.089  70.787  1.00  0.00    -0.372 C  
BRANCH   4   5
HETATM    5  C   UNL     1     -11.808  11.509  69.505  1.00  0.00    -0.351 C  
BRANCH   5   6
HETATM    6  N   UNL     1     -10.550  12.159  69.080  1.00  0.00    -0.139 NA 
HETATM    7  C   UNL     1      -9.866  11.352  68.057  1.00  0.00    -0.184 C  
BRANCH   6   8
HETATM    8  C   UNL     1     -10.828  13.494  68.502  1.00  0.00    -0.264 C  
BRANCH   8   9
HETATM    9  C   UNL     1     -10.385  13.654  67.041  1.00  0.00    -0.260 C  
BRANCH   9  10
HETATM   10  C   UNL     1     -11.374  14.433  66.125  1.00  0.00    -0.350 C  
HETATM   11  P   UNL     1     -11.612  13.392  64.638  1.00  0.00    -0.395 P  
HETATM   12  P   UNL     1     -10.755  16.117  65.729  1.00  0.00    -0.170 P  
HETATM   13  O   UNL     1     -12.641  14.576  66.855  1.00  0.00    -0.492 OA 
HETATM   14  O   UNL     1      -9.166  15.990  65.540  1.00  0.00    -0.354 OA 
HETATM   15  O   UNL     1     -11.350  16.962  64.655  1.00  0.00    -0.841 OA 
HETATM   16  O   UNL     1     -10.835  16.916  67.126  1.00  0.00    -0.227 OA 
HETATM   17  O   UNL     1     -12.760  12.555  65.499  1.00  0.00    -0.583 OA 
HETATM   18  O   UNL     1     -12.688  14.483  64.056  1.00  0.00    -0.759 OA 
HETATM   19  O   UNL     1     -11.813  12.512  63.381  1.00  0.00    -0.491 OA 
HETATM   20  H   UNL     1     -13.244  15.051  66.296  1.00  0.00     0.000 HD 
ENDBRANCH   9  10
ENDBRANCH   8   9
ENDBRANCH   6   8
ENDBRANCH   5   6
ENDBRANCH   4   5
ENDBRANCH   3   4
ENDBRANCH   2   3
TORSDOF 7
ENDMDL
MODEL        7
REMARK 921   NORMALIZED FREE ENERGY PREDICTED BY IDOCK:   -5.31 KCAL/MOL
REMARK 922        TOTAL FREE ENERGY PREDICTED BY IDOCK:   -8.16 KCAL/MOL
REMARK 923 INTER-LIGAND FREE ENERGY PREDICTED BY IDOCK:   -7.38 KCAL/MOL
REMARK 924 INTRA-LIGAND FREE ENERGY PREDICTED BY IDOCK:   -0.79 KCAL/MOL
REMARK 927      BINDING AFFINITY PREDICTED BY RF-SCORE:    0.00 PKD
ROOT
HETATM    1  C   UNL     1     -10.380  20.086  66.719  1.00  0.00    -0.564 C  
HETATM    2  C   UNL     1      -9.037  20.170  67.424  1.00  0.00    -0.475 C  
ENDROOT
BRANCH   2   3
HETATM    3  C   UNL     1      -8.945  19.162  68.567  1.00  0.00    -0.406 C  
BRANCH   3   4
HETATM    4  C   UNL     1     -10.065  18.126  68.474  1.00  0.00    -0.413 C  
BRANCH   4   5
HETATM    5  C   UNL     1      -9.469  16.720  68.302  1.00  0.00    -0.240 C  
BRANCH   5   6
HETATM    6  N   UNL     1      -8.834  16.476  66.989  1.00  0.00    -0.187 NA 
HETATM    7  C   UNL     1      -7.814  15.420  67.091  1.00  0.00    -0.214 C  
BRANCH   6   8
HETATM    8  C   UNL     1      -9.846  16.044  65.998  1.00  0.00    -0.337 C  
BRANCH   8   9
HETATM    9  C   UNL     1      -9.815  14.544  65.679  1.00  0.00    -0.337 C  
BRANCH   9  10
HETATM   10  C   UNL     1     -11.102  13.754  66.057  1.00  0.00    -0.291 C  
HETATM   11  P   UNL     1     -10.539  12.294  67.006  1.00  0.00    -0.234 P  
HETATM   12  P   UNL     1     -12.089  13.307  64.572  1.00  0.00    -0.421 P  
HETATM   13  O   UNL     1     -11.928  14.625  66.904  1.00  0.00    -0.373 OA 
HETATM   14  O   UNL     1     -11.038  12.937  63.417  1.00  0.00    -0.350 OA 
HETATM   15  O   UNL     1     -13.202  12.316  64.614  1.00  0.00    -0.763 OA 
HETATM   16  O   UNL     1     -12.662  14.712  64.028  1.00  0.00    -0.772 OA 
HETATM   17  O   UNL     1     -10.508  13.272  68.349  1.00  0.00    -0.243 OA 
HETATM   18  O   UNL     1     -12.101  11.849  67.233  1.00  0.00    -0.582 OA 
HETATM   19  O   UNL     1     -10.063  11.060  67.809  1.00  0.00    -0.173 OA 
HETATM   20  H   UNL     1     -12.713  14.144  67.134  1.00  0.00     0.000 HD 
ENDBRANCH   9  10
ENDBRANCH   8   9
ENDBRANCH   6   8
ENDBRANCH   5   6
ENDBRANCH   4   5
ENDBRANCH   3   4
ENDBRANCH   2   3
TORSDOF 7
ENDMDL
MODEL        8
REMARK 921   NORMALIZED FREE ENERGY PREDICTED BY IDOCK:   -5.28 KCAL/MOL
REMARK 922        TOTAL FREE ENERGY PREDICTED BY IDOCK:   -8.12 KCAL/MOL
REMARK 923 INTER-LIGAND FREE ENERGY PREDICTED BY IDOCK:   -7.89 KCAL/MOL
REMARK 924 INTRA-LIGAND FREE ENERGY PREDICTED BY IDOCK:   -0.23 KCAL/MOL
REMARK 927      BINDING AFFINITY PREDICTED BY RF-SCORE:    0.00 PKD
ROOT
HETATM    1  C   UNL     1     -13.965  15.575  72.602  1.00  0.00    -0.617 C  
HETATM    2  C   UNL     1     -12.958  14.438  72.544  1.00  0.00    -0.501 C  
ENDROOT
BRANCH   2   3
HETATM    3  C   UNL     1     -13.638  13.110  72.222  1.00  0.00    -0.677 C  
BRANCH   3   4
HETATM    4  C   UNL     1     -12.829  12.314  71.198  1.00  0.00    -0.302 C  
BRANCH   4   5
HETATM    5  C   UNL     1     -12.142  13.271  70.211  1.00  0.00    -0.335 C  
BRANCH   5   6
HETATM    6  N   UNL     1     -11.485  12.607  69.064  1.00  0.00    -0.284 NA 
HETATM    7  C   UNL     1     -11.739  11.158  69.085  1.00  0.00    -0.338 C  
BRANCH   6   8
HETATM    8  C   UNL     1     -12.008  13.147  67.788  1.00  0.00    -0.307 C  
BRANCH   8   9
HETATM    9  C   UNL     1     -11.030  13.039  66.610  1.00  0.00    -0.301 C  
BRANCH   9  10
HETATM   10  C   UNL     1     -10.872  14.330  65.754  1.00  0.00    -0.303 C  
HETATM   11  P   UNL     1     -10.731  15.712  66.945  1.00  0.00    -0.239 P  
HETATM   12  P   UNL     1     -12.264  14.541  64.573  1.00  0.00    -0.275 P  
HETATM   13  O   UNL     1      -9.633  14.199  64.975  1.00  0.00    -0.511 OA 
HETATM   14  O   UNL     1     -13.589  14.047  65.333  1.00  0.00    -0.593 OA 
HETATM   15  O   UNL     1     -12.516  15.816  63.844  1.00  0.00    -0.744 OA 
HETATM   16  O   UNL     1     -12.067  13.356  63.499  1.00  0.00    -0.549 OA 
HETATM   17  O   UNL     1      -9.113  15.352  67.058  1.00  0.00    -0.204 OA 
HETATM   18  O   UNL     1     -10.522  16.755  65.698  1.00  0.00    -0.470 OA 
HETATM   19  O   UNL     1     -10.611  16.881  67.952  1.00  0.00    -0.339 OA 
HETATM   20  H   UNL     1      -9.537  14.987  64.453  1.00  0.00     0.000 HD 
ENDBRANCH   9  10
ENDBRANCH   8   9
ENDBRANCH   6   8
ENDBRANCH   5   6
ENDBRANCH   4   5
ENDBRANCH   3   4
ENDBRANCH   2   3
TORSDOF 7
ENDMDL
MODEL        9
REMARK 921   NORMALIZED FREE ENERGY PREDICTED BY IDOCK:   -5.28 KCAL/MOL
REMARK 922        TOTAL FREE ENERGY PREDICTED BY IDOCK:   -8.12 KCAL/MOL
REMARK 923 INTER-LIGAND FREE ENERGY PREDICTED BY IDOCK:   -7.41 KCAL/MOL
REMARK 924 INTRA-LIGAND FREE ENERGY PREDICTED BY IDOCK:   -0.71 KCAL/MOL
REMARK 927      BINDING AFFINITY PREDICTED BY RF-SCORE:    0.00 PKD
ROOT
HETATM    1  C   UNL     1      -9.005   9.629  64.525  1.00  0.00    -0.278 C  
HETATM    2  C   UNL     1      -9.634  10.035  65.847  1.00  0.00    -0.283 C  
ENDROOT
BRANCH   2   3
HETATM    3  C   UNL     1     -10.089   8.816  66.643  1.00  0.00    -0.358 C  
BRANCH   3   4
HETATM    4  C   UNL     1     -10.573   9.220  68.036  1.00  0.00    -0.262 C  
BRANCH   4   5
HETATM    5  C   UNL     1     -10.525  10.749  68.187  1.00  0.00    -0.185 C  
BRANCH   5   6
HETATM    6  N   UNL     1     -11.806  11.369  68.589  1.00  0.00    -0.453 NA 
HETATM    7  C   UNL     1     -12.011  11.247  70.041  1.00  0.00    -0.368 C  
BRANCH   6   8
HETATM    8  C   UNL     1     -11.814  12.809  68.243  1.00  0.00    -0.312 C  
BRANCH   8   9
HETATM    9  C   UNL     1     -10.957  13.169  67.022  1.00  0.00    -0.289 C  
BRANCH   9  10
HETATM   10  C   UNL     1     -11.645  14.088  65.971  1.00  0.00    -0.357 C  
HETATM   11  P   UNL     1     -11.752  13.104  64.432  1.00  0.00    -0.433 P  
HETATM   12  P   UNL     1     -10.737  15.670  65.748  1.00  0.00    -0.301 P  
HETATM   13  O   UNL     1     -12.991  14.404  66.468  1.00  0.00    -0.298 OA 
HETATM   14  O   UNL     1      -9.173  15.318  65.842  1.00  0.00    -0.315 OA 
HETATM   15  O   UNL     1     -11.004  16.599  64.614  1.00  0.00    -0.793 OA 
HETATM   16  O   UNL     1     -10.957  16.461  67.135  1.00  0.00    -0.226 OA 
HETATM   17  O   UNL     1     -13.142  12.432  65.045  1.00  0.00    -0.678 OA 
HETATM   18  O   UNL     1     -12.542  14.342  63.704  1.00  0.00    -0.831 OA 
HETATM   19  O   UNL     1     -11.843  12.271  63.130  1.00  0.00    -0.389 OA 
HETATM   20  H   UNL     1     -13.411  14.965  65.826  1.00  0.00     0.000 HD 
ENDBRANCH   9  10
ENDBRANCH   8   9
ENDBRANCH   6   8
ENDBRANCH   5   6
ENDBRANCH   4   5
ENDBRANCH   3   4
ENDBRANCH   2   3
TORSDOF 7
ENDMDL
MODEL       10
REMARK 921   NORMALIZED FREE ENERGY PREDICTED BY IDOCK:   -5.24 KCAL/MOL
REMARK 922        TOTAL FREE ENERGY PREDICTED BY IDOCK:   -8.06 KCAL/MOL
REMARK 923 INTER-LIGAND FREE ENERGY PREDICTED BY IDOCK:   -7.41 KCAL/MOL
REMARK 924 INTRA-LIGAND FREE ENERGY PREDICTED BY IDOCK:   -0.65 KCAL/MOL
REMARK 927      BINDING AFFINITY PREDICTED BY RF-SCORE:    0.00 PKD
ROOT
HETATM    1  C   UNL     1     -13.069  10.653  71.792  1.00  0.00    -0.571 C  
HETATM    2  C   UNL     1     -12.770  11.962  71.081  1.00  0.00    -0.384 C  
ENDROOT
BRANCH   2   3
HETATM    3  C   UNL     1     -13.348  13.152  71.842  1.00  0.00    -0.546 C  
BRANCH   3   4
HETATM    4  C   UNL     1     -13.063  14.463  71.109  1.00  0.00    -0.419 C  
BRANCH   4   5
HETATM    5  C   UNL     1     -12.140  14.204  69.907  1.00  0.00    -0.347 C  
BRANCH   5   6
HETATM    6  N   UNL     1     -11.758  15.416  69.151  1.00  0.00    -0.331 NA 
HETATM    7  C   UNL     1     -10.543  16.022  69.716  1.00  0.00    -0.323 C  
BRANCH   6   8
HETATM    8  C   UNL     1     -11.488  15.076  67.735  1.00  0.00    -0.334 C  
BRANCH   8   9
HETATM    9  C   UNL     1     -12.286  13.874  67.211  1.00  0.00    -0.324 C  
BRANCH   9  10
HETATM   10  C   UNL     1     -11.457  12.810  66.434  1.00  0.00    -0.357 C  
HETATM   11  P   UNL     1      -9.701  13.169  66.803  1.00  0.00    -0.253 P  
HETATM   12  P   UNL     1     -11.830  12.835  64.635  1.00  0.00    -0.431 P  
HETATM   13  O   UNL     1     -11.828  11.488  66.955  1.00  0.00    -0.568 OA 
HETATM   14  O   UNL     1     -12.040  14.375  64.230  1.00  0.00    -0.470 OA 
HETATM   15  O   UNL     1     -10.986  12.133  63.627  1.00  0.00    -0.387 OA 
HETATM   16  O   UNL     1     -13.340  12.281  64.527  1.00  0.00    -0.769 OA 
HETATM   17  O   UNL     1      -9.891  12.288  68.199  1.00  0.00    -0.201 OA 
HETATM   18  O   UNL     1      -9.255  11.866  65.913  1.00  0.00    -0.217 OA 
HETATM   19  O   UNL     1      -8.215  13.472  67.116  1.00  0.00    -0.178 OA 
HETATM   20  H   UNL     1     -11.322  10.839  66.481  1.00  0.00     0.000 HD 
ENDBRANCH   9  10
ENDBRANCH   8   9
ENDBRANCH   6   8
ENDBRANCH   5   6
ENDBRANCH   4   5
ENDBRANCH   3   4
ENDBRANCH   2   3
TORSDOF 7
ENDMDL
MODEL       11
REMARK 921   NORMALIZED FREE ENERGY PREDICTED BY IDOCK:   -5.20 KCAL/MOL
REMARK 922        TOTAL FREE ENERGY PREDICTED BY IDOCK:   -8.01 KCAL/MOL
REMARK 923 INTER-LIGAND FREE ENERGY PREDICTED BY IDOCK:   -7.63 KCAL/MOL
REMARK 924 INTRA-LIGAND FREE ENERGY PREDICTED BY IDOCK:   -0.38 KCAL/MOL
REMARK 927      BINDING AFFINITY PREDICTED BY RF-SCORE:    0.00 PKD
ROOT
HETATM    1  C   UNL     1     -10.113  19.763  69.529  1.00  0.00    -0.104 C  
HETATM    2  C   UNL     1      -9.293  19.582  68.263  1.00  0.00    -0.420 C  
ENDROOT
BRANCH   2   3
HETATM    3  C   UNL     1      -9.855  20.415  67.114  1.00  0.00    -0.601 C  
BRANCH   3   4
HETATM    4  C   UNL     1     -10.438  19.519  66.021  1.00  0.00    -0.611 C  
BRANCH   4   5
HETATM    5  C   UNL     1     -10.432  18.053  66.483  1.00  0.00    -0.334 C  
BRANCH   5   6
HETATM    6  N   UNL     1      -9.693  17.129  65.596  1.00  0.00    -0.544 NA 
HETATM    7  C   UNL     1      -8.567  16.508  66.311  1.00  0.00    -0.332 C  
BRANCH   6   8
HETATM    8  C   UNL     1     -10.586  16.050  65.117  1.00  0.00    -0.370 C  
BRANCH   8   9
HETATM    9  C   UNL     1     -10.159  14.640  65.548  1.00  0.00    -0.405 C  
BRANCH   9  10
HETATM   10  C   UNL     1     -11.324  13.653  65.851  1.00  0.00    -0.309 C  
HETATM   11  P   UNL     1     -10.697  12.509  67.134  1.00  0.00    -0.250 P  
HETATM   12  P   UNL     1     -11.896  12.785  64.335  1.00  0.00    -0.452 P  
HETATM   13  O   UNL     1     -12.450  14.438  66.375  1.00  0.00    -0.468 OA 
HETATM   14  O   UNL     1     -10.586  12.487  63.456  1.00  0.00    -0.432 OA 
HETATM   15  O   UNL     1     -12.788  11.593  64.378  1.00  0.00    -0.129 OA 
HETATM   16  O   UNL     1     -12.602  13.935  63.453  1.00  0.00    -0.853 OA 
HETATM   17  O   UNL     1     -11.116  13.658  68.259  1.00  0.00    -0.238 OA 
HETATM   18  O   UNL     1     -12.160  11.772  67.182  1.00  0.00    -0.592 OA 
HETATM   19  O   UNL     1     -10.166  11.541  68.220  1.00  0.00    -0.183 OA 
HETATM   20  H   UNL     1     -13.160  13.836  66.560  1.00  0.00     0.000 HD 
ENDBRANCH   9  10
ENDBRANCH   8   9
ENDBRANCH   6   8
ENDBRANCH   5   6
ENDBRANCH   4   5
ENDBRANCH   3   4
ENDBRANCH   2   3
TORSDOF 7
ENDMDL
MODEL       12
REMARK 921   NORMALIZED FREE ENERGY PREDICTED BY IDOCK:   -5.18 KCAL/MOL
REMARK 922        TOTAL FREE ENERGY PREDICTED BY IDOCK:   -7.99 KCAL/MOL
REMARK 923 INTER-LIGAND FREE ENERGY PREDICTED BY IDOCK:   -7.32 KCAL/MOL
REMARK 924 INTRA-LIGAND FREE ENERGY PREDICTED BY IDOCK:   -0.67 KCAL/MOL
REMARK 927      BINDING AFFINITY PREDICTED BY RF-SCORE:    0.00 PKD
ROOT
HETATM    1  C   UNL     1     -12.529  11.322  70.941  1.00  0.00    -0.493 C  
HETATM    2  C   UNL     1     -13.392  11.983  72.003  1.00  0.00    -0.447 C  
ENDROOT
BRANCH   2   3
HETATM    3  C   UNL     1     -13.299  13.504  71.926  1.00  0.00    -0.529 C  
BRANCH   3   4
HETATM    4  C   UNL     1     -12.138  13.938  71.030  1.00  0.00    -0.357 C  
BRANCH   4   5
HETATM    5  C   UNL     1     -12.582  15.090  70.115  1.00  0.00    -0.269 C  
BRANCH   5   6
HETATM    6  N   UNL     1     -11.474  15.902  69.565  1.00  0.00    -0.332 NA 
HETATM    7  C   UNL     1     -10.172  15.365  69.992  1.00  0.00    -0.249 C  
BRANCH   6   8
HETATM    8  C   UNL     1     -11.513  15.892  68.085  1.00  0.00    -0.281 C  
BRANCH   8   9
HETATM    9  C   UNL     1     -12.035  14.583  67.477  1.00  0.00    -0.358 C  
BRANCH   9  10
HETATM   10  C   UNL     1     -11.072  13.883  66.473  1.00  0.00    -0.308 C  
HETATM   11  P   UNL     1     -11.888  13.981  64.838  1.00  0.00    -0.442 P  
HETATM   12  P   UNL     1     -10.693  12.159  66.982  1.00  0.00    -0.259 P  
HETATM   13  O   UNL     1      -9.813  14.639  66.461  1.00  0.00    -0.253 OA 
HETATM   14  O   UNL     1     -12.046  11.553  67.599  1.00  0.00    -0.623 OA 
HETATM   15  O   UNL     1     -10.040  11.176  66.072  1.00  0.00    -0.227 OA 
HETATM   16  O   UNL     1      -9.794  12.317  68.310  1.00  0.00    -0.210 OA 
HETATM   17  O   UNL     1     -11.247  15.507  64.692  1.00  0.00    -0.423 OA 
HETATM   18  O   UNL     1     -10.589  13.252  64.154  1.00  0.00    -0.416 OA 
HETATM   19  O   UNL     1     -12.578  14.065  63.455  1.00  0.00    -0.845 OA 
HETATM   20  H   UNL     1      -9.226  14.212  65.849  1.00  0.00     0.000 HD 
ENDBRANCH   9  10
ENDBRANCH   8   9
ENDBRANCH   6   8
ENDBRANCH   5   6
ENDBRANCH   4   5
ENDBRANCH   3   4
ENDBRANCH   2   3
TORSDOF 7
ENDMDL
MODEL       13
REMARK 921   NORMALIZED FREE ENERGY PREDICTED BY IDOCK:   -5.17 KCAL/MOL
REMARK 922        TOTAL FREE ENERGY PREDICTED BY IDOCK:   -7.96 KCAL/MOL
REMARK 923 INTER-LIGAND FREE ENERGY PREDICTED BY IDOCK:   -7.40 KCAL/MOL
REMARK 924 INTRA-LIGAND FREE ENERGY PREDICTED BY IDOCK:   -0.56 KCAL/MOL
REMARK 927      BINDING AFFINITY PREDICTED BY RF-SCORE:    0.00 PKD
ROOT
HETATM    1  C   UNL     1     -14.278  14.672  72.155  1.00  0.00    -0.608 C  
HETATM    2  C   UNL     1     -13.266  13.569  71.893  1.00  0.00    -0.510 C  
ENDROOT
BRANCH   2   3
HETATM    3  C   UNL     1     -12.100  14.075  71.049  1.00  0.00    -0.383 C  
BRANCH   3   4
HETATM    4  C   UNL     1     -12.332  15.519  70.602  1.00  0.00    -0.462 C  
BRANCH   4   5
HETATM    5  C   UNL     1     -11.113  16.030  69.818  1.00  0.00    -0.337 C  
BRANCH   5   6
HETATM    6  N   UNL     1     -11.370  16.300  68.387  1.00  0.00    -0.357 NA 
HETATM    7  C   UNL     1     -10.686  17.530  67.957  1.00  0.00    -0.341 C  
BRANCH   6   8
HETATM    8  C   UNL     1     -10.871  15.182  67.554  1.00  0.00    -0.301 C  
BRANCH   8   9
HETATM    9  C   UNL     1     -11.915  14.095  67.266  1.00  0.00    -0.449 C  
BRANCH   9  10
HETATM   10  C   UNL     1     -11.372  12.820  66.556  1.00  0.00    -0.322 C  
HETATM   11  P   UNL     1      -9.573  12.784  66.887  1.00  0.00    -0.244 P  
HETATM   12  P   UNL     1     -11.771  12.815  64.762  1.00  0.00    -0.404 P  
HETATM   13  O   UNL     1     -12.027  11.656  67.168  1.00  0.00    -0.614 OA 
HETATM   14  O   UNL     1     -11.628  14.332  64.257  1.00  0.00    -0.357 OA 
HETATM   15  O   UNL     1     -11.135  11.873  63.799  1.00  0.00    -0.365 OA 
HETATM   16  O   UNL     1     -13.370  12.622  64.704  1.00  0.00    -0.767 OA 
HETATM   17  O   UNL     1      -9.930  12.062  68.341  1.00  0.00    -0.206 OA 
HETATM   18  O   UNL     1      -9.461  11.359  66.084  1.00  0.00    -0.203 OA 
HETATM   19  O   UNL     1      -8.051  12.753  67.168  1.00  0.00    -0.176 OA 
HETATM   20  H   UNL     1     -11.696  10.878  66.735  1.00  0.00     0.000 HD 
ENDBRANCH   9  10
ENDBRANCH   8   9
ENDBRANCH   6   8
ENDBRANCH   5   6
ENDBRANCH   4   5
ENDBRANCH   3   4
ENDBRANCH   2   3
TORSDOF 7
ENDMDL
MODEL       14
REMARK 921   NORMALIZED FREE ENERGY PREDICTED BY IDOCK:   -5.15 KCAL/MOL
REMARK 922        TOTAL FREE ENERGY PREDICTED BY IDOCK:   -7.94 KCAL/MOL
REMARK 923 INTER-LIGAND FREE ENERGY PREDICTED BY IDOCK:   -7.18 KCAL/MOL
REMARK 924 INTRA-LIGAND FREE ENERGY PREDICTED BY IDOCK:   -0.76 KCAL/MOL
REMARK 927      BINDING AFFINITY PREDICTED BY RF-SCORE:    0.00 PKD
ROOT
HETATM    1  C   UNL     1     -11.882   8.894  71.753  1.00  0.00    -0.429 C  
HETATM    2  C   UNL     1     -10.693   9.328  70.912  1.00  0.00    -0.371 C  
ENDROOT
BRANCH   2   3
HETATM    3  C   UNL     1     -10.719   8.675  69.533  1.00  0.00    -0.189 C  
BRANCH   3   4
HETATM    4  C   UNL     1     -10.946   9.718  68.438  1.00  0.00    -0.200 C  
BRANCH   4   5
HETATM    5  C   UNL     1     -10.325  11.061  68.853  1.00  0.00    -0.205 C  
BRANCH   5   6
HETATM    6  N   UNL     1     -11.229  12.224  68.726  1.00  0.00    -0.246 NA 
HETATM    7  C   UNL     1     -11.966  12.450  69.980  1.00  0.00    -0.299 C  
BRANCH   6   8
HETATM    8  C   UNL     1     -10.455  13.448  68.419  1.00  0.00    -0.250 C  
BRANCH   8   9
HETATM    9  C   UNL     1     -10.093  13.611  66.937  1.00  0.00    -0.260 C  
BRANCH   9  10
HETATM   10  C   UNL     1     -11.176  14.300  66.057  1.00  0.00    -0.324 C  
HETATM   11  P   UNL     1     -11.490  13.163  64.658  1.00  0.00    -0.377 P  
HETATM   12  P   UNL     1     -10.648  15.975  65.513  1.00  0.00    -0.308 P  
HETATM   13  O   UNL     1     -12.386  14.451  66.874  1.00  0.00    -0.558 OA 
HETATM   14  O   UNL     1      -9.074  15.884  65.207  1.00  0.00    -0.064 OA 
HETATM   15  O   UNL     1     -11.352  16.732  64.440  1.00  0.00    -1.089 OA 
HETATM   16  O   UNL     1     -10.648  16.857  66.861  1.00  0.00    -0.297 OA 
HETATM   17  O   UNL     1     -12.540  12.346  65.655  1.00  0.00    -0.575 OA 
HETATM   18  O   UNL     1     -12.645  14.182  64.098  1.00  0.00    -0.684 OA 
HETATM   19  O   UNL     1     -11.757  12.200  63.476  1.00  0.00    -0.452 OA 
HETATM   20  H   UNL     1     -13.047  14.872  66.337  1.00  0.00     0.000 HD 
ENDBRANCH   9  10
ENDBRANCH   8   9
ENDBRANCH   6   8
ENDBRANCH   5   6
ENDBRANCH   4   5
ENDBRANCH   3   4
ENDBRANCH   2   3
TORSDOF 7
ENDMDL
MODEL       15
REMARK 921   NORMALIZED FREE ENERGY PREDICTED BY IDOCK:   -5.13 KCAL/MOL
REMARK 922        TOTAL FREE ENERGY PREDICTED BY IDOCK:   -7.91 KCAL/MOL
REMARK 923 INTER-LIGAND FREE ENERGY PREDICTED BY IDOCK:   -7.07 KCAL/MOL
REMARK 924 INTRA-LIGAND FREE ENERGY PREDICTED BY IDOCK:   -0.84 KCAL/MOL
REMARK 927      BINDING AFFINITY PREDICTED BY RF-SCORE:    0.00 PKD
ROOT
HETATM    1  C   UNL     1     -10.132  20.183  66.173  1.00  0.00    -0.532 C  
HETATM    2  C   UNL     1     -10.796  19.364  67.267  1.00  0.00    -0.561 C  
ENDROOT
BRANCH   2   3
HETATM    3  C   UNL     1     -10.128  19.599  68.619  1.00  0.00    -0.547 C  
BRANCH   3   4
HETATM    4  C   UNL     1      -8.629  19.305  68.547  1.00  0.00    -0.400 C  
BRANCH   4   5
HETATM    5  C   UNL     1      -8.397  17.804  68.312  1.00  0.00    -0.276 C  
BRANCH   5   6
HETATM    6  N   UNL     1      -7.731  17.477  67.032  1.00  0.00    -0.203 NA 
HETATM    7  C   UNL     1      -6.269  17.448  67.197  1.00  0.00    -0.156 C  
BRANCH   6   8
HETATM    8  C   UNL     1      -8.166  16.146  66.550  1.00  0.00    -0.308 C  
BRANCH   8   9
HETATM    9  C   UNL     1      -9.637  16.081  66.118  1.00  0.00    -0.366 C  
BRANCH   9  10
HETATM   10  C   UNL     1     -10.348  14.720  66.371  1.00  0.00    -0.293 C  
HETATM   11  P   UNL     1     -11.562  14.523  65.016  1.00  0.00    -0.406 P  
HETATM   12  P   UNL     1     -11.118  14.651  68.039  1.00  0.00    -0.307 P  
HETATM   13  O   UNL     1      -9.329  13.664  66.300  1.00  0.00    -0.420 OA 
HETATM   14  O   UNL     1     -11.710  16.115  68.331  1.00  0.00    -0.320 OA 
HETATM   15  O   UNL     1     -12.094  13.597  68.432  1.00  0.00    -0.361 OA 
HETATM   16  O   UNL     1      -9.871  14.615  69.059  1.00  0.00    -0.221 OA 
HETATM   17  O   UNL     1     -10.319  13.926  64.089  1.00  0.00    -0.204 OA 
HETATM   18  O   UNL     1     -11.972  13.051  65.608  1.00  0.00    -0.381 OA 
HETATM   19  O   UNL     1     -12.588  14.357  63.870  1.00  0.00    -0.814 OA 
HETATM   20  H   UNL     1      -9.762  12.833  66.455  1.00  0.00     0.000 HD 
ENDBRANCH   9  10
ENDBRANCH   8   9
ENDBRANCH   6   8
ENDBRANCH   5   6
ENDBRANCH   4   5
ENDBRANCH   3   4
ENDBRANCH   2   3
TORSDOF 7
ENDMDL
MODEL       16
REMARK 921   NORMALIZED FREE ENERGY PREDICTED BY IDOCK:   -5.12 KCAL/MOL
REMARK 922        TOTAL FREE ENERGY PREDICTED BY IDOCK:   -7.90 KCAL/MOL
REMARK 923 INTER-LIGAND FREE ENERGY PREDICTED BY IDOCK:   -7.46 KCAL/MOL
REMARK 924 INTRA-LIGAND FREE ENERGY PREDICTED BY IDOCK:   -0.44 KCAL/MOL
REMARK 927      BINDING AFFINITY PREDICTED BY RF-SCORE:    0.00 PKD
ROOT
HETATM    1  C   UNL     1     -12.053  16.182  73.094  1.00  0.00    -0.621 C  
HETATM    2  C   UNL     1     -13.374  15.442  72.967  1.00  0.00    -0.632 C  
ENDROOT
BRANCH   2   3
HETATM    3  C   UNL     1     -13.736  15.199  71.504  1.00  0.00    -0.582 C  
BRANCH   3   4
HETATM    4  C   UNL     1     -12.553  15.513  70.588  1.00  0.00    -0.493 C  
BRANCH   4   5
HETATM    5  C   UNL     1     -12.148  14.256  69.802  1.00  0.00    -0.347 C  
BRANCH   5   6
HETATM    6  N   UNL     1     -11.694  14.513  68.418  1.00  0.00    -0.325 NA 
HETATM    7  C   UNL     1     -11.031  15.823  68.322  1.00  0.00    -0.325 C  
BRANCH   6   8
HETATM    8  C   UNL     1     -10.729  13.475  67.991  1.00  0.00    -0.251 C  
BRANCH   8   9
HETATM    9  C   UNL     1     -11.309  12.433  67.025  1.00  0.00    -0.388 C  
BRANCH   9  10
HETATM   10  C   UNL     1     -10.584  12.320  65.651  1.00  0.00    -0.260 C  
HETATM   11  P   UNL     1     -11.898  12.394  64.379  1.00  0.00    -0.414 P  
HETATM   12  P   UNL     1      -9.566  10.794  65.541  1.00  0.00    -0.259 P  
HETATM   13  O   UNL     1      -9.685  13.474  65.524  1.00  0.00    -0.482 OA 
HETATM   14  O   UNL     1     -10.387   9.638  66.294  1.00  0.00    -0.239 OA 
HETATM   15  O   UNL     1      -9.004  10.293  64.255  1.00  0.00    -0.195 OA 
HETATM   16  O   UNL     1      -8.358  11.038  66.579  1.00  0.00    -0.152 OA 
HETATM   17  O   UNL     1     -11.823  14.049  64.504  1.00  0.00    -0.393 OA 
HETATM   18  O   UNL     1     -10.756  12.323  63.206  1.00  0.00    -0.427 OA 
HETATM   19  O   UNL     1     -13.009  12.458  63.304  1.00  0.00    -0.675 OA 
HETATM   20  H   UNL     1      -9.244  13.405  64.686  1.00  0.00     0.000 HD 
ENDBRANCH   9  10
ENDBRANCH   8   9
ENDBRANCH   6   8
ENDBRANCH   5   6
ENDBRANCH   4   5
ENDBRANCH   3   4
ENDBRANCH   2   3
TORSDOF 7
ENDMDL
MODEL       17
REMARK 921   NORMALIZED FREE ENERGY PREDICTED BY IDOCK:   -5.12 KCAL/MOL
REMARK 922        TOTAL FREE ENERGY PREDICTED BY IDOCK:   -7.90 KCAL/MOL
REMARK 923 INTER-LIGAND FREE ENERGY PREDICTED BY IDOCK:   -7.41 KCAL/MOL
REMARK 924 INTRA-LIGAND FREE ENERGY PREDICTED BY IDOCK:   -0.49 KCAL/MOL
REMARK 927      BINDING AFFINITY PREDICTED BY RF-SCORE:    0.00 PKD
ROOT
HETATM    1  C   UNL     1      -7.234  20.543  67.389  1.00  0.00    -0.370 C  
HETATM    2  C   UNL     1      -8.407  20.038  66.566  1.00  0.00    -0.353 C  
ENDROOT
BRANCH   2   3
HETATM    3  C   UNL     1      -9.739  20.474  67.171  1.00  0.00    -0.581 C  
BRANCH   3   4
HETATM    4  C   UNL     1     -10.724  19.306  67.225  1.00  0.00    -0.594 C  
BRANCH   4   5
HETATM    5  C   UNL     1      -9.993  18.018  67.636  1.00  0.00    -0.329 C  
BRANCH   5   6
HETATM    6  N   UNL     1     -10.197  16.874  66.721  1.00  0.00    -0.299 NA 
HETATM    7  C   UNL     1      -8.928  16.478  66.090  1.00  0.00    -0.309 C  
BRANCH   6   8
HETATM    8  C   UNL     1     -10.726  15.708  67.464  1.00  0.00    -0.303 C  
BRANCH   8   9
HETATM    9  C   UNL     1      -9.852  14.450  67.367  1.00  0.00    -0.224 C  
BRANCH   9  10
HETATM   10  C   UNL     1     -10.567  13.180  66.819  1.00  0.00    -0.263 C  
HETATM   11  P   UNL     1     -12.024  13.783  65.890  1.00  0.00    -0.460 P  
HETATM   12  P   UNL     1     -11.010  12.012  68.167  1.00  0.00    -0.272 P  
HETATM   13  O   UNL     1      -9.633  12.496  65.916  1.00  0.00    -0.326 OA 
HETATM   14  O   UNL     1     -11.464  12.907  69.420  1.00  0.00    -0.273 OA 
HETATM   15  O   UNL     1     -11.945  10.869  67.966  1.00  0.00    -0.586 OA 
HETATM   16  O   UNL     1      -9.596  11.444  68.691  1.00  0.00    -0.195 OA 
HETATM   17  O   UNL     1     -11.010  14.010  64.593  1.00  0.00    -0.384 OA 
HETATM   18  O   UNL     1     -12.387  12.239  65.473  1.00  0.00    -0.602 OA 
HETATM   19  O   UNL     1     -13.256  14.292  65.103  1.00  0.00    -0.686 OA 
HETATM   20  H   UNL     1     -10.070  11.722  65.582  1.00  0.00     0.000 HD 
ENDBRANCH   9  10
ENDBRANCH   8   9
ENDBRANCH   6   8
ENDBRANCH   5   6
ENDBRANCH   4   5
ENDBRANCH   3   4
ENDBRANCH   2   3
TORSDOF 7
ENDMDL
MODEL       18
REMARK 921   NORMALIZED FREE ENERGY PREDICTED BY IDOCK:   -5.11 KCAL/MOL
REMARK 922        TOTAL FREE ENERGY PREDICTED BY IDOCK:   -7.88 KCAL/MOL
REMARK 923 INTER-LIGAND FREE ENERGY PREDICTED BY IDOCK:   -7.44 KCAL/MOL
REMARK 924 INTRA-LIGAND FREE ENERGY PREDICTED BY IDOCK:   -0.45 KCAL/MOL
REMARK 927      BINDING AFFINITY PREDICTED BY RF-SCORE:    0.00 PKD
ROOT
HETATM    1  C   UNL     1     -13.277   9.005  71.806  1.00  0.00    -0.445 C  
HETATM    2  C   UNL     1     -11.867   9.515  71.561  1.00  0.00    -0.478 C  
ENDROOT
BRANCH   2   3
HETATM    3  C   UNL     1     -11.855  10.643  70.533  1.00  0.00    -0.453 C  
BRANCH   3   4
HETATM    4  C   UNL     1     -10.687  10.483  69.559  1.00  0.00    -0.291 C  
BRANCH   4   5
HETATM    5  C   UNL     1     -11.145  10.813  68.130  1.00  0.00    -0.280 C  
BRANCH   5   6
HETATM    6  N   UNL     1     -10.106  10.634  67.093  1.00  0.00    -0.198 NA 
HETATM    7  C   UNL     1     -10.187   9.289  66.500  1.00  0.00    -0.246 C  
BRANCH   6   8
HETATM    8  C   UNL     1     -10.283  11.626  66.008  1.00  0.00    -0.232 C  
BRANCH   8   9
HETATM    9  C   UNL     1     -11.004  12.911  66.440  1.00  0.00    -0.310 C  
BRANCH   9  10
HETATM   10  C   UNL     1     -10.771  14.147  65.523  1.00  0.00    -0.324 C  
HETATM   11  P   UNL     1     -10.305  15.522  66.636  1.00  0.00    -0.300 P  
HETATM   12  P   UNL     1     -12.250  14.525  64.499  1.00  0.00    -0.275 P  
HETATM   13  O   UNL     1      -9.662  13.827  64.615  1.00  0.00    -0.558 OA 
HETATM   14  O   UNL     1     -13.533  14.239  65.422  1.00  0.00    -0.581 OA 
HETATM   15  O   UNL     1     -12.408  15.806  63.755  1.00  0.00    -0.698 OA 
HETATM   16  O   UNL     1     -12.344  13.300  63.455  1.00  0.00    -0.698 OA 
HETATM   17  O   UNL     1      -8.749  14.941  66.580  1.00  0.00    -0.254 OA 
HETATM   18  O   UNL     1     -10.103  16.498  65.335  1.00  0.00    -0.570 OA 
HETATM   19  O   UNL     1      -9.909  16.685  67.578  1.00  0.00    -0.245 OA 
HETATM   20  H   UNL     1      -9.520  14.581  64.055  1.00  0.00     0.000 HD 
ENDBRANCH   9  10
ENDBRANCH   8   9
ENDBRANCH   6   8
ENDBRANCH   5   6
ENDBRANCH   4   5
ENDBRANCH   3   4
ENDBRANCH   2   3
TORSDOF 7
ENDMDL
MODEL       19
REMARK 921   NORMALIZED FREE ENERGY PREDICTED BY IDOCK:   -5.03 KCAL/MOL
REMARK 922        TOTAL FREE ENERGY PREDICTED BY IDOCK:   -7.77 KCAL/MOL
REMARK 923 INTER-LIGAND FREE ENERGY PREDICTED BY IDOCK:   -7.21 KCAL/MOL
REMARK 924 INTRA-LIGAND FREE ENERGY PREDICTED BY IDOCK:   -0.56 KCAL/MOL
REMARK 927      BINDING AFFINITY PREDICTED BY RF-SCORE:    0.00 PKD
ROOT
HETATM    1  C   UNL     1      -8.459   8.390  65.068  1.00  0.00    -0.160 C  
HETATM    2  C   UNL     1      -9.518   9.122  65.876  1.00  0.00    -0.326 C  
ENDROOT
BRANCH   2   3
HETATM    3  C   UNL     1     -10.153   8.206  66.918  1.00  0.00    -0.367 C  
BRANCH   3   4
HETATM    4  C   UNL     1     -10.885   9.017  67.988  1.00  0.00    -0.102 C  
BRANCH   4   5
HETATM    5  C   UNL     1     -10.616  10.517  67.787  1.00  0.00    -0.243 C  
BRANCH   5   6
HETATM    6  N   UNL     1     -11.759  11.398  68.111  1.00  0.00    -0.538 NA 
HETATM    7  C   UNL     1     -11.827  11.651  69.559  1.00  0.00    -0.348 C  
BRANCH   6   8
HETATM    8  C   UNL     1     -11.617  12.701  67.423  1.00  0.00    -0.360 C  
BRANCH   8   9
HETATM    9  C   UNL     1     -11.095  12.600  65.983  1.00  0.00    -0.321 C  
BRANCH   9  10
HETATM   10  C   UNL     1     -10.765  13.958  65.296  1.00  0.00    -0.345 C  
HETATM   11  P   UNL     1     -10.167  15.065  66.625  1.00  0.00    -0.288 P  
HETATM   12  P   UNL     1     -12.217  14.638  64.397  1.00  0.00    -0.149 P  
HETATM   13  O   UNL     1      -9.699  13.715  64.316  1.00  0.00    -0.625 OA 
HETATM   14  O   UNL     1     -13.509  14.298  65.288  1.00  0.00    -0.564 OA 
HETATM   15  O   UNL     1     -12.271  16.041  63.899  1.00  0.00    -0.883 OA 
HETATM   16  O   UNL     1     -12.429  13.634  63.154  1.00  0.00    -0.786 OA 
HETATM   17  O   UNL     1      -8.669  14.375  66.423  1.00  0.00    -0.104 OA 
HETATM   18  O   UNL     1      -9.895  16.239  65.514  1.00  0.00    -0.489 OA 
HETATM   19  O   UNL     1      -9.660  16.001  67.749  1.00  0.00    -0.217 OA 
HETATM   20  H   UNL     1      -9.498  14.543  63.897  1.00  0.00     0.000 HD 
ENDBRANCH   9  10
ENDBRANCH   8   9
ENDBRANCH   6   8
ENDBRANCH   5   6
ENDBRANCH   4   5
ENDBRANCH   3   4
ENDBRANCH   2   3
TORSDOF 7
ENDMDL
MODEL       20
REMARK 921   NORMALIZED FREE ENERGY PREDICTED BY IDOCK:   -5.03 KCAL/MOL
REMARK 922        TOTAL FREE ENERGY PREDICTED BY IDOCK:   -7.77 KCAL/MOL
REMARK 923 INTER-LIGAND FREE ENERGY PREDICTED BY IDOCK:   -7.46 KCAL/MOL
REMARK 924 INTRA-LIGAND FREE ENERGY PREDICTED BY IDOCK:   -0.31 KCAL/MOL
REMARK 927      BINDING AFFINITY PREDICTED BY RF-SCORE:    0.00 PKD
ROOT
HETATM    1  C   UNL     1     -12.439  15.933  74.494  1.00  0.00    -0.734 C  
HETATM    2  C   UNL     1     -12.530  16.026  72.980  1.00  0.00    -0.614 C  
ENDROOT
BRANCH   2   3
HETATM    3  C   UNL     1     -13.802  15.362  72.460  1.00  0.00    -0.651 C  
BRANCH   3   4
HETATM    4  C   UNL     1     -13.561  14.708  71.098  1.00  0.00    -0.404 C  
BRANCH   4   5
HETATM    5  C   UNL     1     -12.862  13.352  71.282  1.00  0.00    -0.323 C  
BRANCH   5   6
HETATM    6  N   UNL     1     -11.874  13.021  70.232  1.00  0.00    -0.273 NA 
HETATM    7  C   UNL     1     -11.930  11.589  69.897  1.00  0.00    -0.351 C  
BRANCH   6   8
HETATM    8  C   UNL     1     -12.154  13.792  68.999  1.00  0.00    -0.322 C  
BRANCH   8   9
HETATM    9  C   UNL     1     -11.816  13.049  67.699  1.00  0.00    -0.401 C  
BRANCH   9  10
HETATM   10  C   UNL     1     -11.119  13.906  66.602  1.00  0.00    -0.306 C  
HETATM   11  P   UNL     1     -10.898  15.572  67.327  1.00  0.00    -0.263 P  
HETATM   12  P   UNL     1     -12.084  13.928  65.038  1.00  0.00    -0.448 P  
HETATM   13  O   UNL     1      -9.813  13.295  66.321  1.00  0.00    -0.277 OA 
HETATM   14  O   UNL     1     -13.633  13.973  65.455  1.00  0.00    -0.596 OA 
HETATM   15  O   UNL     1     -11.804  14.887  63.933  1.00  0.00    -0.283 OA 
HETATM   16  O   UNL     1     -11.963  12.425  64.468  1.00  0.00    -0.370 OA 
HETATM   17  O   UNL     1      -9.510  14.998  68.038  1.00  0.00    -0.190 OA 
HETATM   18  O   UNL     1     -10.129  16.055  65.963  1.00  0.00    -0.297 OA 
HETATM   19  O   UNL     1     -10.710  16.981  67.941  1.00  0.00    -0.356 OA 
HETATM   20  H   UNL     1      -9.388  13.818  65.652  1.00  0.00     0.000 HD 
ENDBRANCH   9  10
ENDBRANCH   8   9
ENDBRANCH   6   8
ENDBRANCH   5   6
ENDBRANCH   4   5
ENDBRANCH   3   4
ENDBRANCH   2   3
TORSDOF 7
ENDMDL
MODEL       21
REMARK 921   NORMALIZED FREE ENERGY PREDICTED BY IDOCK:   -5.01 KCAL/MOL
REMARK 922        TOTAL FREE ENERGY PREDICTED BY IDOCK:   -7.74 KCAL/MOL
REMARK 923 INTER-LIGAND FREE ENERGY PREDICTED BY IDOCK:   -7.13 KCAL/MOL
REMARK 924 INTRA-LIGAND FREE ENERGY PREDICTED BY IDOCK:   -0.61 KCAL/MOL
REMARK 927      BINDING AFFINITY PREDICTED BY RF-SCORE:    0.00 PKD
ROOT
HETATM    1  C   UNL     1      -9.687  20.356  67.066  1.00  0.00    -0.588 C  
HETATM    2  C   UNL     1     -10.764  19.374  67.494  1.00  0.00    -0.570 C  
ENDROOT
BRANCH   2   3
HETATM    3  C   UNL     1     -10.352  17.934  67.199  1.00  0.00    -0.371 C  
BRANCH   3   4
HETATM    4  C   UNL     1     -10.338  17.095  68.477  1.00  0.00    -0.364 C  
BRANCH   4   5
HETATM    5  C   UNL     1     -11.387  15.976  68.385  1.00  0.00    -0.355 C  
BRANCH   5   6
HETATM    6  N   UNL     1     -11.185  14.862  69.336  1.00  0.00    -0.268 NA 
HETATM    7  C   UNL     1     -12.190  14.906  70.410  1.00  0.00    -0.336 C  
BRANCH   6   8
HETATM    8  C   UNL     1     -11.311  13.561  68.641  1.00  0.00    -0.288 C  
BRANCH   8   9
HETATM    9  C   UNL     1     -10.468  13.443  67.364  1.00  0.00    -0.243 C  
BRANCH   9  10
HETATM   10  C   UNL     1     -11.079  12.557  66.240  1.00  0.00    -0.295 C  
HETATM   11  P   UNL     1      -9.701  11.543  65.591  1.00  0.00    -0.232 P  
HETATM   12  P   UNL     1     -11.896  13.569  64.942  1.00  0.00    -0.425 P  
HETATM   13  O   UNL     1     -12.099  11.698  66.854  1.00  0.00    -0.512 OA 
HETATM   14  O   UNL     1     -10.994  14.883  64.748  1.00  0.00    -0.390 OA 
HETATM   15  O   UNL     1     -12.306  13.008  63.623  1.00  0.00    -0.621 OA 
HETATM   16  O   UNL     1     -13.192  14.191  65.670  1.00  0.00    -0.615 OA 
HETATM   17  O   UNL     1      -9.983  10.490  66.845  1.00  0.00    -0.186 OA 
HETATM   18  O   UNL     1     -10.744  10.786  64.578  1.00  0.00    -0.297 OA 
HETATM   19  O   UNL     1      -8.535  10.684  65.043  1.00  0.00    -0.177 OA 
HETATM   20  H   UNL     1     -12.472  11.157  66.168  1.00  0.00     0.000 HD 
ENDBRANCH   9  10
ENDBRANCH   8   9
ENDBRANCH   6   8
ENDBRANCH   5   6
ENDBRANCH   4   5
ENDBRANCH   3   4
ENDBRANCH   2   3
TORSDOF 7
ENDMDL
MODEL       22
REMARK 921   NORMALIZED FREE ENERGY PREDICTED BY IDOCK:   -4.93 KCAL/MOL
REMARK 922        TOTAL FREE ENERGY PREDICTED BY IDOCK:   -7.63 KCAL/MOL
REMARK 923 INTER-LIGAND FREE ENERGY PREDICTED BY IDOCK:   -7.45 KCAL/MOL
REMARK 924 INTRA-LIGAND FREE ENERGY PREDICTED BY IDOCK:   -0.18 KCAL/MOL
REMARK 927      BINDING AFFINITY PREDICTED BY RF-SCORE:    0.00 PKD
ROOT
HETATM    1  C   UNL     1     -10.090  19.745  69.220  1.00  0.00    -0.302 C  
HETATM    2  C   UNL     1      -9.256  19.749  67.950  1.00  0.00    -0.427 C  
ENDROOT
BRANCH   2   3
HETATM    3  C   UNL     1      -9.997  20.427  66.801  1.00  0.00    -0.525 C  
BRANCH   3   4
HETATM    4  C   UNL     1     -10.568  19.392  65.831  1.00  0.00    -0.551 C  
BRANCH   4   5
HETATM    5  C   UNL     1     -10.426  17.981  66.423  1.00  0.00    -0.339 C  
BRANCH   5   6
HETATM    6  N   UNL     1      -9.590  17.059  65.626  1.00  0.00    -0.530 NA 
HETATM    7  C   UNL     1      -8.315  16.788  66.309  1.00  0.00    -0.318 C  
BRANCH   6   8
HETATM    8  C   UNL     1     -10.289  15.768  65.428  1.00  0.00    -0.389 C  
BRANCH   8   9
HETATM    9  C   UNL     1      -9.577  14.562  66.056  1.00  0.00    -0.305 C  
BRANCH   9  10
HETATM   10  C   UNL     1     -10.363  13.219  65.998  1.00  0.00    -0.289 C  
HETATM   11  P   UNL     1     -11.561  13.393  64.626  1.00  0.00    -0.395 P  
HETATM   12  P   UNL     1     -11.165  12.828  67.604  1.00  0.00    -0.320 P  
HETATM   13  O   UNL     1      -9.399  12.151  65.701  1.00  0.00    -0.397 OA 
HETATM   14  O   UNL     1     -11.685  14.222  68.209  1.00  0.00    -0.306 OA 
HETATM   15  O   UNL     1     -12.202  11.768  67.749  1.00  0.00    -0.536 OA 
HETATM   16  O   UNL     1      -9.940  12.500  68.599  1.00  0.00    -0.196 OA 
HETATM   17  O   UNL     1     -10.335  12.947  63.597  1.00  0.00    -0.346 OA 
HETATM   18  O   UNL     1     -12.059  11.851  64.875  1.00  0.00    -0.243 OA 
HETATM   19  O   UNL     1     -12.574  13.540  63.465  1.00  0.00    -0.738 OA 
HETATM   20  H   UNL     1      -9.878  11.332  65.666  1.00  0.00     0.000 HD 
ENDBRANCH   9  10
ENDBRANCH   8   9
ENDBRANCH   6   8
ENDBRANCH   5   6
ENDBRANCH   4   5
ENDBRANCH   3   4
ENDBRANCH   2   3
TORSDOF 7
ENDMDL
MODEL       23
REMARK 921   NORMALIZED FREE ENERGY PREDICTED BY IDOCK:   -4.92 KCAL/MOL
REMARK 922        TOTAL FREE ENERGY PREDICTED BY IDOCK:   -7.62 KCAL/MOL
REMARK 923 INTER-LIGAND FREE ENERGY PREDICTED BY IDOCK:   -7.23 KCAL/MOL
REMARK 924 INTRA-LIGAND FREE ENERGY PREDICTED BY IDOCK:   -0.38 KCAL/MOL
REMARK 927      BINDING AFFINITY PREDICTED BY RF-SCORE:    0.00 PKD
ROOT
HETATM    1  C   UNL     1     -10.354   8.166  72.566  1.00  0.00    -0.401 C  
HETATM    2  C   UNL     1     -10.787   8.772  71.241  1.00  0.00    -0.347 C  
ENDROOT
BRANCH   2   3
HETATM    3  C   UNL     1     -11.911   9.786  71.435  1.00  0.00    -0.488 C  
BRANCH   3   4
HETATM    4  C   UNL     1     -12.299  10.434  70.106  1.00  0.00    -0.281 C  
BRANCH   4   5
HETATM    5  C   UNL     1     -11.938  11.928  70.123  1.00  0.00    -0.332 C  
BRANCH   5   6
HETATM    6  N   UNL     1     -10.905  12.323  69.142  1.00  0.00    -0.154 NA 
HETATM    7  C   UNL     1     -10.265  11.137  68.551  1.00  0.00    -0.198 C  
BRANCH   6   8
HETATM    8  C   UNL     1     -11.510  13.113  68.045  1.00  0.00    -0.311 C  
BRANCH   8   9
HETATM    9  C   UNL     1     -11.023  12.723  66.643  1.00  0.00    -0.300 C  
BRANCH   9  10
HETATM   10  C   UNL     1     -10.803  13.909  65.659  1.00  0.00    -0.292 C  
HETATM   11  P   UNL     1     -10.394  15.359  66.698  1.00  0.00    -0.295 P  
HETATM   12  P   UNL     1     -12.270  14.187  64.587  1.00  0.00    -0.390 P  
HETATM   13  O   UNL     1      -9.668  13.566  64.793  1.00  0.00    -0.589 OA 
HETATM   14  O   UNL     1     -13.563  13.922  65.501  1.00  0.00    -0.579 OA 
HETATM   15  O   UNL     1     -12.445  15.418  63.766  1.00  0.00    -0.663 OA 
HETATM   16  O   UNL     1     -12.311  12.902  63.616  1.00  0.00    -0.594 OA 
HETATM   17  O   UNL     1      -8.823  14.817  66.705  1.00  0.00    -0.246 OA 
HETATM   18  O   UNL     1     -10.190  16.262  65.345  1.00  0.00    -0.518 OA 
HETATM   19  O   UNL     1     -10.047  16.585  67.577  1.00  0.00    -0.255 OA 
HETATM   20  H   UNL     1      -9.534  14.289  64.192  1.00  0.00     0.000 HD 
ENDBRANCH   9  10
ENDBRANCH   8   9
ENDBRANCH   6   8
ENDBRANCH   5   6
ENDBRANCH   4   5
ENDBRANCH   3   4
ENDBRANCH   2   3
TORSDOF 7
ENDMDL
MODEL       24
REMARK 921   NORMALIZED FREE ENERGY PREDICTED BY IDOCK:   -4.92 KCAL/MOL
REMARK 922        TOTAL FREE ENERGY PREDICTED BY IDOCK:   -7.61 KCAL/MOL
REMARK 923 INTER-LIGAND FREE ENERGY PREDICTED BY IDOCK:   -7.18 KCAL/MOL
REMARK 924 INTRA-LIGAND FREE ENERGY PREDICTED BY IDOCK:   -0.42 KCAL/MOL
REMARK 927      BINDING AFFINITY PREDICTED BY RF-SCORE:    0.00 PKD
ROOT
HETATM    1  C   UNL     1     -14.135   7.564  71.468  1.00  0.00    -0.550 C  
HETATM    2  C   UNL     1     -12.634   7.732  71.630  1.00  0.00    -0.357 C  
ENDROOT
BRANCH   2   3
HETATM    3  C   UNL     1     -12.281   9.140  72.102  1.00  0.00    -0.408 C  
BRANCH   3   4
HETATM    4  C   UNL     1     -11.223   9.772  71.197  1.00  0.00    -0.444 C  
BRANCH   4   5
HETATM    5  C   UNL     1     -11.894  10.432  69.983  1.00  0.00    -0.273 C  
BRANCH   5   6
HETATM    6  N   UNL     1     -11.102  11.508  69.348  1.00  0.00    -0.244 NA 
HETATM    7  C   UNL     1      -9.754  11.029  69.004  1.00  0.00    -0.134 C  
BRANCH   6   8
HETATM    8  C   UNL     1     -11.759  11.967  68.103  1.00  0.00    -0.320 C  
BRANCH   8   9
HETATM    9  C   UNL     1     -10.826  12.040  66.887  1.00  0.00    -0.302 C  
BRANCH   9  10
HETATM   10  C   UNL     1     -10.771  13.421  66.170  1.00  0.00    -0.284 C  
HETATM   11  P   UNL     1     -11.245  14.663  67.428  1.00  0.00    -0.365 P  
HETATM   12  P   UNL     1     -11.849  13.460  64.682  1.00  0.00    -0.441 P  
HETATM   13  O   UNL     1      -9.387  13.641  65.732  1.00  0.00    -0.494 OA 
HETATM   14  O   UNL     1     -13.166  12.616  65.047  1.00  0.00    -0.753 OA 
HETATM   15  O   UNL     1     -12.208  14.725  63.981  1.00  0.00    -0.577 OA 
HETATM   16  O   UNL     1     -11.130  12.468  63.635  1.00  0.00    -0.418 OA 
HETATM   17  O   UNL     1      -9.663  14.643  67.936  1.00  0.00    -0.211 OA 
HETATM   18  O   UNL     1     -10.992  15.856  66.333  1.00  0.00    -0.247 OA 
HETATM   19  O   UNL     1     -11.645  15.713  68.492  1.00  0.00    -0.360 OA 
HETATM   20  H   UNL     1      -9.354  14.484  65.294  1.00  0.00     0.000 HD 
ENDBRANCH   9  10
ENDBRANCH   8   9
ENDBRANCH   6   8
ENDBRANCH   5   6
ENDBRANCH   4   5
ENDBRANCH   3   4
ENDBRANCH   2   3
TORSDOF 7
ENDMDL
MODEL       25
REMARK 921   NORMALIZED FREE ENERGY PREDICTED BY IDOCK:   -4.88 KCAL/MOL
REMARK 922        TOTAL FREE ENERGY PREDICTED BY IDOCK:   -7.55 KCAL/MOL
REMARK 923 INTER-LIGAND FREE ENERGY PREDICTED BY IDOCK:   -7.13 KCAL/MOL
REMARK 924 INTRA-LIGAND FREE ENERGY PREDICTED BY IDOCK:   -0.42 KCAL/MOL
REMARK 927      BINDING AFFINITY PREDICTED BY RF-SCORE:    0.00 PKD
ROOT
HETATM    1  C   UNL     1     -12.544  15.170  73.869  1.00  0.00    -0.690 C  
HETATM    2  C   UNL     1     -13.472  15.762  72.822  1.00  0.00    -0.659 C  
ENDROOT
BRANCH   2   3
HETATM    3  C   UNL     1     -13.747  14.768  71.697  1.00  0.00    -0.512 C  
BRANCH   3   4
HETATM    4  C   UNL     1     -13.061  15.202  70.402  1.00  0.00    -0.232 C  
BRANCH   4   5
HETATM    5  C   UNL     1     -11.534  15.139  70.568  1.00  0.00    -0.304 C  
BRANCH   5   6
HETATM    6  N   UNL     1     -10.790  14.851  69.323  1.00  0.00    -0.258 NA 
HETATM    7  C   UNL     1     -11.714  14.518  68.228  1.00  0.00    -0.335 C  
BRANCH   6   8
HETATM    8  C   UNL     1      -9.995  16.031  68.912  1.00  0.00    -0.232 C  
BRANCH   8   9
HETATM    9  C   UNL     1     -10.683  16.923  67.870  1.00  0.00    -0.344 C  
BRANCH   9  10
HETATM   10  C   UNL     1      -9.738  17.568  66.814  1.00  0.00    -0.295 C  
HETATM   11  P   UNL     1      -8.195  16.585  66.850  1.00  0.00    -0.274 P  
HETATM   12  P   UNL     1      -9.458  19.353  67.149  1.00  0.00    -0.358 P  
HETATM   13  O   UNL     1     -10.388  17.449  65.502  1.00  0.00    -0.621 OA 
HETATM   14  O   UNL     1      -9.371  19.513  68.744  1.00  0.00    -0.375 OA 
HETATM   15  O   UNL     1      -8.385  20.139  66.478  1.00  0.00    -0.309 OA 
HETATM   16  O   UNL     1     -10.881  20.049  66.848  1.00  0.00    -0.370 OA 
HETATM   17  O   UNL     1      -8.940  15.515  65.819  1.00  0.00    -0.235 OA 
HETATM   18  O   UNL     1      -7.591  17.503  65.635  1.00  0.00    -0.480 OA 
HETATM   19  O   UNL     1      -6.890  15.753  66.880  1.00  0.00    -0.248 OA 
HETATM   20  H   UNL     1      -9.811  17.842  64.858  1.00  0.00     0.000 HD 
ENDBRANCH   9  10
ENDBRANCH   8   9
ENDBRANCH   6   8
ENDBRANCH   5   6
ENDBRANCH   4   5
ENDBRANCH   3   4
ENDBRANCH   2   3
TORSDOF 7
ENDMDL
MODEL       26
REMARK 921   NORMALIZED FREE ENERGY PREDICTED BY IDOCK:   -4.83 KCAL/MOL
REMARK 922        TOTAL FREE ENERGY PREDICTED BY IDOCK:   -7.49 KCAL/MOL
REMARK 923 INTER-LIGAND FREE ENERGY PREDICTED BY IDOCK:   -6.96 KCAL/MOL
REMARK 924 INTRA-LIGAND FREE ENERGY PREDICTED BY IDOCK:   -0.53 KCAL/MOL
REMARK 927      BINDING AFFINITY PREDICTED BY RF-SCORE:    0.00 PKD
ROOT
HETATM    1  C   UNL     1     -11.959  10.844  70.726  1.00  0.00    -0.449 C  
HETATM    2  C   UNL     1     -13.095  10.934  71.731  1.00  0.00    -0.564 C  
ENDROOT
BRANCH   2   3
HETATM    3  C   UNL     1     -13.420  12.385  72.074  1.00  0.00    -0.460 C  
BRANCH   3   4
HETATM    4  C   UNL     1     -12.635  13.347  71.182  1.00  0.00    -0.430 C  
BRANCH   4   5
HETATM    5  C   UNL     1     -13.419  14.656  71.001  1.00  0.00    -0.320 C  
BRANCH   5   6
HETATM    6  N   UNL     1     -12.598  15.884  71.078  1.00  0.00    -0.399 NA 
HETATM    7  C   UNL     1     -12.182  16.146  72.465  1.00  0.00    -0.520 C  
BRANCH   6   8
HETATM    8  C   UNL     1     -11.377  15.740  70.252  1.00  0.00    -0.361 C  
BRANCH   8   9
HETATM    9  C   UNL     1     -11.605  15.951  68.749  1.00  0.00    -0.389 C  
BRANCH   9  10
HETATM   10  C   UNL     1     -10.396  15.595  67.834  1.00  0.00    -0.259 C  
HETATM   11  P   UNL     1     -10.481  16.745  66.413  1.00  0.00    -0.159 P  
HETATM   12  P   UNL     1     -10.421  13.828  67.328  1.00  0.00    -0.265 P  
HETATM   13  O   UNL     1      -9.169  15.828  68.606  1.00  0.00    -0.189 OA 
HETATM   14  O   UNL     1     -11.960  13.442  67.083  1.00  0.00    -0.375 OA 
HETATM   15  O   UNL     1      -9.560  13.291  66.237  1.00  0.00    -0.273 OA 
HETATM   16  O   UNL     1     -10.113  13.015  68.685  1.00  0.00    -0.218 OA 
HETATM   17  O   UNL     1      -9.689  17.857  67.360  1.00  0.00    -0.276 OA 
HETATM   18  O   UNL     1      -9.095  16.102  65.819  1.00  0.00    -0.398 OA 
HETATM   19  O   UNL     1     -10.553  17.718  65.212  1.00  0.00    -0.651 OA 
HETATM   20  H   UNL     1      -8.431  15.611  68.048  1.00  0.00     0.000 HD 
ENDBRANCH   9  10
ENDBRANCH   8   9
ENDBRANCH   6   8
ENDBRANCH   5   6
ENDBRANCH   4   5
ENDBRANCH   3   4
ENDBRANCH   2   3
TORSDOF 7
ENDMDL
MODEL       27
REMARK 921   NORMALIZED FREE ENERGY PREDICTED BY IDOCK:   -4.82 KCAL/MOL
REMARK 922        TOTAL FREE ENERGY PREDICTED BY IDOCK:   -7.47 KCAL/MOL
REMARK 923 INTER-LIGAND FREE ENERGY PREDICTED BY IDOCK:   -7.01 KCAL/MOL
REMARK 924 INTRA-LIGAND FREE ENERGY PREDICTED BY IDOCK:   -0.46 KCAL/MOL
REMARK 927      BINDING AFFINITY PREDICTED BY RF-SCORE:    0.00 PKD
ROOT
HETATM    1  C   UNL     1      -8.476   9.742  70.079  1.00  0.00    -0.229 C  
HETATM    2  C   UNL     1      -9.773   9.531  70.840  1.00  0.00    -0.242 C  
ENDROOT
BRANCH   2   3
HETATM    3  C   UNL     1     -10.960  10.131  70.093  1.00  0.00    -0.376 C  
BRANCH   3   4
HETATM    4  C   UNL     1     -10.970   9.685  68.630  1.00  0.00    -0.152 C  
BRANCH   4   5
HETATM    5  C   UNL     1     -10.903  10.910  67.705  1.00  0.00    -0.259 C  
BRANCH   5   6
HETATM    6  N   UNL     1      -9.678  10.995  66.881  1.00  0.00    -0.185 NA 
HETATM    7  C   UNL     1      -9.551   9.812  66.014  1.00  0.00    -0.235 C  
BRANCH   6   8
HETATM    8  C   UNL     1      -9.720  12.196  66.016  1.00  0.00    -0.244 C  
BRANCH   8   9
HETATM    9  C   UNL     1     -10.259  13.454  66.711  1.00  0.00    -0.259 C  
BRANCH   9  10
HETATM   10  C   UNL     1     -11.265  14.299  65.875  1.00  0.00    -0.319 C  
HETATM   11  P   UNL     1     -11.605  13.328  64.362  1.00  0.00    -0.421 P  
HETATM   12  P   UNL     1     -10.612  15.979  65.517  1.00  0.00    -0.308 P  
HETATM   13  O   UNL     1     -12.490  14.450  66.671  1.00  0.00    -0.535 OA 
HETATM   14  O   UNL     1      -9.038  15.812  65.246  1.00  0.00    -0.019 OA 
HETATM   15  O   UNL     1     -11.230  16.885  64.507  1.00  0.00    -1.057 OA 
HETATM   16  O   UNL     1     -10.600  16.723  66.946  1.00  0.00    -0.298 OA 
HETATM   17  O   UNL     1     -12.738  12.491  65.243  1.00  0.00    -0.654 OA 
HETATM   18  O   UNL     1     -12.672  14.474  63.876  1.00  0.00    -0.782 OA 
HETATM   19  O   UNL     1     -11.894  12.507  63.082  1.00  0.00    -0.437 OA 
HETATM   20  H   UNL     1     -13.104  14.966  66.161  1.00  0.00     0.000 HD 
ENDBRANCH   9  10
ENDBRANCH   8   9
ENDBRANCH   6   8
ENDBRANCH   5   6
ENDBRANCH   4   5
ENDBRANCH   3   4
ENDBRANCH   2   3
TORSDOF 7
ENDMDL
MODEL       28
REMARK 921   NORMALIZED FREE ENERGY PREDICTED BY IDOCK:   -4.81 KCAL/MOL
REMARK 922        TOTAL FREE ENERGY PREDICTED BY IDOCK:   -7.46 KCAL/MOL
REMARK 923 INTER-LIGAND FREE ENERGY PREDICTED BY IDOCK:   -6.94 KCAL/MOL
REMARK 924 INTRA-LIGAND FREE ENERGY PREDICTED BY IDOCK:   -0.52 KCAL/MOL
REMARK 927      BINDING AFFINITY PREDICTED BY RF-SCORE:    0.00 PKD
ROOT
HETATM    1  C   UNL     1     -13.446  12.429  71.996  1.00  0.00    -0.460 C  
HETATM    2  C   UNL     1     -13.410  13.830  72.583  1.00  0.00    -0.618 C  
ENDROOT
BRANCH   2   3
HETATM    3  C   UNL     1     -14.173  14.819  71.706  1.00  0.00    -0.629 C  
BRANCH   3   4
HETATM    4  C   UNL     1     -13.270  15.397  70.616  1.00  0.00    -0.356 C  
BRANCH   4   5
HETATM    5  C   UNL     1     -11.832  15.534  71.142  1.00  0.00    -0.387 C  
BRANCH   5   6
HETATM    6  N   UNL     1     -10.785  15.442  70.102  1.00  0.00    -0.303 NA 
HETATM    7  C   UNL     1     -11.080  14.353  69.158  1.00  0.00    -0.265 C  
BRANCH   6   8
HETATM    8  C   UNL     1     -10.708  16.707  69.335  1.00  0.00    -0.331 C  
BRANCH   8   9
HETATM    9  C   UNL     1     -10.653  16.519  67.813  1.00  0.00    -0.332 C  
BRANCH   9  10
HETATM   10  C   UNL     1      -9.463  17.220  67.096  1.00  0.00    -0.256 C  
HETATM   11  P   UNL     1      -8.086  17.237  68.300  1.00  0.00    -0.261 P  
HETATM   12  P   UNL     1      -9.917  18.900  66.504  1.00  0.00    -0.427 P  
HETATM   13  O   UNL     1      -9.106  16.409  65.924  1.00  0.00    -0.429 OA 
HETATM   14  O   UNL     1     -10.877  19.537  67.622  1.00  0.00    -0.444 OA 
HETATM   15  O   UNL     1      -8.905  19.894  66.047  1.00  0.00    -0.365 OA 
HETATM   16  O   UNL     1     -10.968  18.639  65.311  1.00  0.00    -0.536 OA 
HETATM   17  O   UNL     1      -7.730  15.692  67.803  1.00  0.00    -0.128 OA 
HETATM   18  O   UNL     1      -7.120  17.937  67.176  1.00  0.00    -0.178 OA 
HETATM   19  O   UNL     1      -6.920  17.250  69.319  1.00  0.00    -0.239 OA 
HETATM   20  H   UNL     1      -8.380  16.837  65.487  1.00  0.00     0.000 HD 
ENDBRANCH   9  10
ENDBRANCH   8   9
ENDBRANCH   6   8
ENDBRANCH   5   6
ENDBRANCH   4   5
ENDBRANCH   3   4
ENDBRANCH   2   3
TORSDOF 7
ENDMDL
MODEL       29
REMARK 921   NORMALIZED FREE ENERGY PREDICTED BY IDOCK:   -4.81 KCAL/MOL
REMARK 922        TOTAL FREE ENERGY PREDICTED BY IDOCK:   -7.46 KCAL/MOL
REMARK 923 INTER-LIGAND FREE ENERGY PREDICTED BY IDOCK:   -7.05 KCAL/MOL
REMARK 924 INTRA-LIGAND FREE ENERGY PREDICTED BY IDOCK:   -0.41 KCAL/MOL
REMARK 927      BINDING AFFINITY PREDICTED BY RF-SCORE:    0.00 PKD
ROOT
HETATM    1  C   UNL     1     -11.713   6.656  70.383  1.00  0.00    -0.446 C  
HETATM    2  C   UNL     1     -11.034   6.354  69.058  1.00  0.00    -0.410 C  
ENDROOT
BRANCH   2   3
HETATM    3  C   UNL     1     -10.039   7.448  68.681  1.00  0.00    -0.186 C  
BRANCH   3   4
HETATM    4  C   UNL     1     -10.387   8.767  69.372  1.00  0.00    -0.217 C  
BRANCH   4   5
HETATM    5  C   UNL     1     -10.784   9.820  68.326  1.00  0.00    -0.233 C  
BRANCH   5   6
HETATM    6  N   UNL     1     -11.974  10.624  68.681  1.00  0.00    -0.383 NA 
HETATM    7  C   UNL     1     -12.081  10.781  70.140  1.00  0.00    -0.346 C  
BRANCH   6   8
HETATM    8  C   UNL     1     -11.884  11.973  68.078  1.00  0.00    -0.269 C  
BRANCH   8   9
HETATM    9  C   UNL     1     -11.110  12.022  66.753  1.00  0.00    -0.353 C  
BRANCH   9  10
HETATM   10  C   UNL     1     -10.993  13.430  66.100  1.00  0.00    -0.276 C  
HETATM   11  P   UNL     1     -11.442  14.631  67.405  1.00  0.00    -0.366 P  
HETATM   12  P   UNL     1     -12.045  13.575  64.600  1.00  0.00    -0.419 P  
HETATM   13  O   UNL     1      -9.595  13.618  65.692  1.00  0.00    -0.489 OA 
HETATM   14  O   UNL     1     -13.397  12.766  64.907  1.00  0.00    -0.736 OA 
HETATM   15  O   UNL     1     -12.346  14.882  63.951  1.00  0.00    -0.711 OA 
HETATM   16  O   UNL     1     -11.346  12.605  63.519  1.00  0.00    -0.458 OA 
HETATM   17  O   UNL     1      -9.871  14.531  67.935  1.00  0.00    -0.217 OA 
HETATM   18  O   UNL     1     -11.128  15.862  66.369  1.00  0.00    -0.182 OA 
HETATM   19  O   UNL     1     -11.821  15.648  68.509  1.00  0.00    -0.355 OA 
HETATM   20  H   UNL     1      -9.524  14.477  65.293  1.00  0.00     0.000 HD 
ENDBRANCH   9  10
ENDBRANCH   8   9
ENDBRANCH   6   8
ENDBRANCH   5   6
ENDBRANCH   4   5
ENDBRANCH   3   4
ENDBRANCH   2   3
TORSDOF 7
ENDMDL
MODEL       30
REMARK 921   NORMALIZED FREE ENERGY PREDICTED BY IDOCK:   -4.80 KCAL/MOL
REMARK 922        TOTAL FREE ENERGY PREDICTED BY IDOCK:   -7.45 KCAL/MOL
REMARK 923 INTER-LIGAND FREE ENERGY PREDICTED BY IDOCK:   -6.73 KCAL/MOL
REMARK 924 INTRA-LIGAND FREE ENERGY PREDICTED BY IDOCK:   -0.72 KCAL/MOL
REMARK 927      BINDING AFFINITY PREDICTED BY RF-SCORE:    0.00 PKD
ROOT
HETATM    1  C   UNL     1     -10.279  11.102  63.468  1.00  0.00    -0.446 C  
HETATM    2  C   UNL     1     -11.115  12.365  63.354  1.00  0.00    -0.465 C  
ENDROOT
BRANCH   2   3
HETATM    3  C   UNL     1     -12.388  12.266  64.189  1.00  0.00    -0.546 C  
BRANCH   3   4
HETATM    4  C   UNL     1     -12.411  13.334  65.283  1.00  0.00    -0.525 C  
BRANCH   4   5
HETATM    5  C   UNL     1     -11.623  12.849  66.510  1.00  0.00    -0.371 C  
BRANCH   5   6
HETATM    6  N   UNL     1     -10.565  13.774  66.970  1.00  0.00    -0.277 NA 
HETATM    7  C   UNL     1      -9.240  13.314  66.526  1.00  0.00    -0.172 C  
BRANCH   6   8
HETATM    8  C   UNL     1     -10.790  15.129  66.417  1.00  0.00    -0.326 C  
BRANCH   8   9
HETATM    9  C   UNL     1     -10.380  16.271  67.358  1.00  0.00    -0.285 C  
BRANCH   9  10
HETATM   10  C   UNL     1      -9.294  17.237  66.801  1.00  0.00    -0.259 C  
HETATM   11  P   UNL     1      -8.017  17.366  68.105  1.00  0.00    -0.248 P  
HETATM   12  P   UNL     1     -10.006  18.866  66.332  1.00  0.00    -0.401 P  
HETATM   13  O   UNL     1      -8.729  16.625  65.592  1.00  0.00    -0.428 OA 
HETATM   14  O   UNL     1     -11.130  19.208  67.427  1.00  0.00    -0.426 OA 
HETATM   15  O   UNL     1      -9.163  20.061  66.047  1.00  0.00    -0.375 OA 
HETATM   16  O   UNL     1     -10.920  18.552  65.043  1.00  0.00    -0.602 OA 
HETATM   17  O   UNL     1      -7.361  15.966  67.497  1.00  0.00    -0.139 OA 
HETATM   18  O   UNL     1      -7.127  18.335  67.126  1.00  0.00    -0.192 OA 
HETATM   19  O   UNL     1      -6.935  17.475  69.207  1.00  0.00    -0.247 OA 
HETATM   20  H   UNL     1      -8.067  17.215  65.252  1.00  0.00     0.000 HD 
ENDBRANCH   9  10
ENDBRANCH   8   9
ENDBRANCH   6   8
ENDBRANCH   5   6
ENDBRANCH   4   5
ENDBRANCH   3   4
ENDBRANCH   2   3
TORSDOF 7
ENDMDL
MODEL       31
REMARK 921   NORMALIZED FREE ENERGY PREDICTED BY IDOCK:   -4.76 KCAL/MOL
REMARK 922        TOTAL FREE ENERGY PREDICTED BY IDOCK:   -7.39 KCAL/MOL
REMARK 923 INTER-LIGAND FREE ENERGY PREDICTED BY IDOCK:   -6.74 KCAL/MOL
REMARK 924 INTRA-LIGAND FREE ENERGY PREDICTED BY IDOCK:   -0.64 KCAL/MOL
REMARK 927      BINDING AFFINITY PREDICTED BY RF-SCORE:    0.00 PKD
ROOT
HETATM    1  C   UNL     1     -10.539  11.903  64.507  1.00  0.00    -0.358 C  
HETATM    2  C   UNL     1     -11.661  12.821  64.050  1.00  0.00    -0.488 C  
ENDROOT
BRANCH   2   3
HETATM    3  C   UNL     1     -12.575  13.202  65.212  1.00  0.00    -0.531 C  
BRANCH   3   4
HETATM    4  C   UNL     1     -11.877  12.982  66.554  1.00  0.00    -0.464 C  
BRANCH   4   5
HETATM    5  C   UNL     1     -11.908  14.277  67.381  1.00  0.00    -0.409 C  
BRANCH   5   6
HETATM    6  N   UNL     1     -11.002  14.283  68.551  1.00  0.00    -0.243 NA 
HETATM    7  C   UNL     1      -9.981  13.231  68.425  1.00  0.00    -0.226 C  
BRANCH   6   8
HETATM    8  C   UNL     1     -10.309  15.587  68.659  1.00  0.00    -0.219 C  
BRANCH   8   9
HETATM    9  C   UNL     1     -10.905  16.694  67.778  1.00  0.00    -0.292 C  
BRANCH   9  10
HETATM   10  C   UNL     1      -9.913  17.359  66.779  1.00  0.00    -0.307 C  
HETATM   11  P   UNL     1      -8.394  16.341  66.822  1.00  0.00    -0.313 P  
HETATM   12  P   UNL     1      -9.606  19.122  67.196  1.00  0.00    -0.352 P  
HETATM   13  O   UNL     1     -10.524  17.309  65.444  1.00  0.00    -0.635 OA 
HETATM   14  O   UNL     1      -9.565  19.215  68.798  1.00  0.00    -0.381 OA 
HETATM   15  O   UNL     1      -8.495  19.911  66.591  1.00  0.00    -0.309 OA 
HETATM   16  O   UNL     1     -11.002  19.862  66.881  1.00  0.00    -0.385 OA 
HETATM   17  O   UNL     1      -9.128  15.331  65.725  1.00  0.00    -0.234 OA 
HETATM   18  O   UNL     1      -7.732  17.294  65.664  1.00  0.00    -0.393 OA 
HETATM   19  O   UNL     1      -7.109  15.479  66.857  1.00  0.00    -0.203 OA 
HETATM   20  H   UNL     1      -9.919  17.715  64.835  1.00  0.00     0.000 HD 
ENDBRANCH   9  10
ENDBRANCH   8   9
ENDBRANCH   6   8
ENDBRANCH   5   6
ENDBRANCH   4   5
ENDBRANCH   3   4
ENDBRANCH   2   3
TORSDOF 7
ENDMDL
MODEL       32
REMARK 921   NORMALIZED FREE ENERGY PREDICTED BY IDOCK:   -4.72 KCAL/MOL
REMARK 922        TOTAL FREE ENERGY PREDICTED BY IDOCK:   -7.33 KCAL/MOL
REMARK 923 INTER-LIGAND FREE ENERGY PREDICTED BY IDOCK:   -6.71 KCAL/MOL
REMARK 924 INTRA-LIGAND FREE ENERGY PREDICTED BY IDOCK:   -0.62 KCAL/MOL
REMARK 927      BINDING AFFINITY PREDICTED BY RF-SCORE:    0.00 PKD
ROOT
HETATM    1  C   UNL     1     -11.312  12.878  63.878  1.00  0.00    -0.489 C  
HETATM    2  C   UNL     1     -12.398  12.620  64.909  1.00  0.00    -0.563 C  
ENDROOT
BRANCH   2   3
HETATM    3  C   UNL     1     -12.667  13.861  65.756  1.00  0.00    -0.503 C  
BRANCH   3   4
HETATM    4  C   UNL     1     -11.509  14.129  66.718  1.00  0.00    -0.383 C  
BRANCH   4   5
HETATM    5  C   UNL     1     -11.967  13.905  68.168  1.00  0.00    -0.350 C  
BRANCH   5   6
HETATM    6  N   UNL     1     -12.012  15.130  68.996  1.00  0.00    -0.294 NA 
HETATM    7  C   UNL     1     -11.187  14.972  70.205  1.00  0.00    -0.260 C  
BRANCH   6   8
HETATM    8  C   UNL     1     -11.493  16.288  68.233  1.00  0.00    -0.207 C  
BRANCH   8   9
HETATM    9  C   UNL     1     -10.384  17.070  68.950  1.00  0.00    -0.337 C  
BRANCH   9  10
HETATM   10  C   UNL     1      -9.367  17.792  68.018  1.00  0.00    -0.276 C  
HETATM   11  P   UNL     1     -10.214  17.999  66.410  1.00  0.00    -0.332 P  
HETATM   12  P   UNL     1      -7.788  16.861  67.881  1.00  0.00    -0.184 P  
HETATM   13  O   UNL     1      -9.071  19.102  68.611  1.00  0.00    -0.350 OA 
HETATM   14  O   UNL     1      -8.173  15.303  67.861  1.00  0.00    -0.137 OA 
HETATM   15  O   UNL     1      -6.761  17.167  66.846  1.00  0.00    -0.162 OA 
HETATM   16  O   UNL     1      -7.114  16.992  69.339  1.00  0.00    -0.225 OA 
HETATM   17  O   UNL     1     -10.911  19.371  67.037  1.00  0.00    -0.467 OA 
HETATM   18  O   UNL     1      -8.905  18.799  65.832  1.00  0.00    -0.465 OA 
HETATM   19  O   UNL     1     -10.931  18.175  65.049  1.00  0.00    -0.726 OA 
HETATM   20  H   UNL     1      -8.450  19.542  68.043  1.00  0.00     0.000 HD 
ENDBRANCH   9  10
ENDBRANCH   8   9
ENDBRANCH   6   8
ENDBRANCH   5   6
ENDBRANCH   4   5
ENDBRANCH   3   4
ENDBRANCH   2   3
TORSDOF 7
ENDMDL
MODEL       33
REMARK 921   NORMALIZED FREE ENERGY PREDICTED BY IDOCK:   -4.71 KCAL/MOL
REMARK 922        TOTAL FREE ENERGY PREDICTED BY IDOCK:   -7.32 KCAL/MOL
REMARK 923 INTER-LIGAND FREE ENERGY PREDICTED BY IDOCK:   -6.63 KCAL/MOL
REMARK 924 INTRA-LIGAND FREE ENERGY PREDICTED BY IDOCK:   -0.69 KCAL/MOL
REMARK 927      BINDING AFFINITY PREDICTED BY RF-SCORE:    0.00 PKD
ROOT
HETATM    1  C   UNL     1     -11.035  11.572  63.345  1.00  0.00    -0.397 C  
HETATM    2  C   UNL     1     -12.159  12.573  63.552  1.00  0.00    -0.653 C  
ENDROOT
BRANCH   2   3
HETATM    3  C   UNL     1     -11.774  13.637  64.576  1.00  0.00    -0.429 C  
BRANCH   3   4
HETATM    4  C   UNL     1     -11.852  13.081  65.998  1.00  0.00    -0.471 C  
BRANCH   4   5
HETATM    5  C   UNL     1     -12.159  14.214  66.990  1.00  0.00    -0.414 C  
BRANCH   5   6
HETATM    6  N   UNL     1     -11.641  13.994  68.358  1.00  0.00    -0.309 NA 
HETATM    7  C   UNL     1     -10.472  13.100  68.335  1.00  0.00    -0.253 C  
BRANCH   6   8
HETATM    8  C   UNL     1     -11.226  15.279  68.965  1.00  0.00    -0.280 C  
BRANCH   8   9
HETATM    9  C   UNL     1     -11.177  16.455  67.981  1.00  0.00    -0.235 C  
BRANCH   9  10
HETATM   10  C   UNL     1      -9.783  17.129  67.815  1.00  0.00    -0.271 C  
HETATM   11  P   UNL     1     -10.088  18.933  67.837  1.00  0.00    -0.410 P  
HETATM   12  P   UNL     1      -8.929  16.565  66.288  1.00  0.00    -0.281 P  
HETATM   13  O   UNL     1      -8.959  16.737  68.966  1.00  0.00    -0.257 OA 
HETATM   14  O   UNL     1     -10.062  16.406  65.161  1.00  0.00    -0.529 OA 
HETATM   15  O   UNL     1      -7.727  17.251  65.738  1.00  0.00    -0.470 OA 
HETATM   16  O   UNL     1      -8.564  15.022  66.575  1.00  0.00    -0.253 OA 
HETATM   17  O   UNL     1     -10.066  18.842  69.496  1.00  0.00    -0.117 OA 
HETATM   18  O   UNL     1      -8.475  19.200  67.722  1.00  0.00    -0.288 OA 
HETATM   19  O   UNL     1     -10.346  20.459  67.856  1.00  0.00    -0.316 OA 
HETATM   20  H   UNL     1      -8.108  17.148  68.865  1.00  0.00     0.000 HD 
ENDBRANCH   9  10
ENDBRANCH   8   9
ENDBRANCH   6   8
ENDBRANCH   5   6
ENDBRANCH   4   5
ENDBRANCH   3   4
ENDBRANCH   2   3
TORSDOF 7
ENDMDL
MODEL       34
REMARK 921   NORMALIZED FREE ENERGY PREDICTED BY IDOCK:   -4.71 KCAL/MOL
REMARK 922        TOTAL FREE ENERGY PREDICTED BY IDOCK:   -7.31 KCAL/MOL
REMARK 923 INTER-LIGAND FREE ENERGY PREDICTED BY IDOCK:   -6.40 KCAL/MOL
REMARK 924 INTRA-LIGAND FREE ENERGY PREDICTED BY IDOCK:   -0.91 KCAL/MOL
REMARK 927      BINDING AFFINITY PREDICTED BY RF-SCORE:    0.00 PKD
ROOT
HETATM    1  C   UNL     1     -10.905  11.358  63.961  1.00  0.00    -0.450 C  
HETATM    2  C   UNL     1     -12.081  12.153  63.421  1.00  0.00    -0.608 C  
ENDROOT
BRANCH   2   3
HETATM    3  C   UNL     1     -12.558  13.194  64.431  1.00  0.00    -0.315 C  
BRANCH   3   4
HETATM    4  C   UNL     1     -12.072  12.854  65.840  1.00  0.00    -0.503 C  
BRANCH   4   5
HETATM    5  C   UNL     1     -11.719  14.142  66.600  1.00  0.00    -0.403 C  
BRANCH   5   6
HETATM    6  N   UNL     1     -10.419  14.106  67.305  1.00  0.00    -0.271 NA 
HETATM    7  C   UNL     1     -10.123  12.746  67.783  1.00  0.00    -0.224 C  
BRANCH   6   8
HETATM    8  C   UNL     1      -9.328  14.521  66.394  1.00  0.00    -0.273 C  
BRANCH   8   9
HETATM    9  C   UNL     1      -9.291  16.027  66.099  1.00  0.00    -0.377 C  
BRANCH   9  10
HETATM   10  C   UNL     1      -8.752  16.920  67.254  1.00  0.00    -0.194 C  
HETATM   11  P   UNL     1      -9.954  18.288  67.438  1.00  0.00    -0.371 P  
HETATM   12  P   UNL     1      -7.043  17.509  66.921  1.00  0.00    -0.235 P  
HETATM   13  O   UNL     1      -8.720  16.102  68.473  1.00  0.00    -0.183 OA 
HETATM   14  O   UNL     1      -6.962  17.817  65.348  1.00  0.00    -0.370 OA 
HETATM   15  O   UNL     1      -6.399  18.597  67.708  1.00  0.00    -0.198 OA 
HETATM   16  O   UNL     1      -6.132  16.183  67.021  1.00  0.00    -0.307 OA 
HETATM   17  O   UNL     1     -10.859  17.266  68.387  1.00  0.00    -0.354 OA 
HETATM   18  O   UNL     1      -9.088  18.869  68.702  1.00  0.00    -0.340 OA 
HETATM   19  O   UNL     1     -10.971  19.444  67.594  1.00  0.00    -0.429 OA 
HETATM   20  H   UNL     1      -8.391  16.647  69.178  1.00  0.00     0.000 HD 
ENDBRANCH   9  10
ENDBRANCH   8   9
ENDBRANCH   6   8
ENDBRANCH   5   6
ENDBRANCH   4   5
ENDBRANCH   3   4
ENDBRANCH   2   3
TORSDOF 7
ENDMDL
MODEL       35
REMARK 921   NORMALIZED FREE ENERGY PREDICTED BY IDOCK:   -4.70 KCAL/MOL
REMARK 922        TOTAL FREE ENERGY PREDICTED BY IDOCK:   -7.30 KCAL/MOL
REMARK 923 INTER-LIGAND FREE ENERGY PREDICTED BY IDOCK:   -6.75 KCAL/MOL
REMARK 924 INTRA-LIGAND FREE ENERGY PREDICTED BY IDOCK:   -0.55 KCAL/MOL
REMARK 927      BINDING AFFINITY PREDICTED BY RF-SCORE:    0.00 PKD
ROOT
HETATM    1  C   UNL     1     -12.070  12.827  63.333  1.00  0.00    -0.619 C  
HETATM    2  C   UNL     1     -12.535  12.598  64.761  1.00  0.00    -0.555 C  
ENDROOT
BRANCH   2   3
HETATM    3  C   UNL     1     -12.847  13.917  65.462  1.00  0.00    -0.471 C  
BRANCH   3   4
HETATM    4  C   UNL     1     -12.138  14.000  66.814  1.00  0.00    -0.480 C  
BRANCH   4   5
HETATM    5  C   UNL     1     -10.878  14.871  66.695  1.00  0.00    -0.319 C  
BRANCH   5   6
HETATM    6  N   UNL     1      -9.809  14.543  67.664  1.00  0.00    -0.221 NA 
HETATM    7  C   UNL     1      -9.246  13.211  67.389  1.00  0.00    -0.213 C  
BRANCH   6   8
HETATM    8  C   UNL     1      -8.711  15.533  67.574  1.00  0.00    -0.172 C  
BRANCH   8   9
HETATM    9  C   UNL     1      -8.854  16.531  66.416  1.00  0.00    -0.345 C  
BRANCH   9  10
HETATM   10  C   UNL     1      -8.459  17.999  66.748  1.00  0.00    -0.257 C  
HETATM   11  P   UNL     1      -7.392  17.913  68.232  1.00  0.00    -0.266 P  
HETATM   12  P   UNL     1      -9.937  19.065  66.989  1.00  0.00    -0.401 P  
HETATM   13  O   UNL     1      -7.702  18.527  65.606  1.00  0.00    -0.509 OA 
HETATM   14  O   UNL     1     -11.031  18.168  67.748  1.00  0.00    -0.315 OA 
HETATM   15  O   UNL     1      -9.859  20.426  67.591  1.00  0.00    -0.415 OA 
HETATM   16  O   UNL     1     -10.597  19.180  65.523  1.00  0.00    -0.536 OA 
HETATM   17  O   UNL     1      -6.122  17.596  67.210  1.00  0.00    -0.136 OA 
HETATM   18  O   UNL     1      -7.181  19.537  68.166  1.00  0.00    -0.275 OA 
HETATM   19  O   UNL     1      -6.489  17.840  69.487  1.00  0.00    -0.245 OA 
HETATM   20  H   UNL     1      -7.461  19.423  65.808  1.00  0.00     0.000 HD 
ENDBRANCH   9  10
ENDBRANCH   8   9
ENDBRANCH   6   8
ENDBRANCH   5   6
ENDBRANCH   4   5
ENDBRANCH   3   4
ENDBRANCH   2   3
TORSDOF 7
ENDMDL
MODEL       36
REMARK 921   NORMALIZED FREE ENERGY PREDICTED BY IDOCK:   -4.69 KCAL/MOL
REMARK 922        TOTAL FREE ENERGY PREDICTED BY IDOCK:   -7.29 KCAL/MOL
REMARK 923 INTER-LIGAND FREE ENERGY PREDICTED BY IDOCK:   -6.86 KCAL/MOL
REMARK 924 INTRA-LIGAND FREE ENERGY PREDICTED BY IDOCK:   -0.43 KCAL/MOL
REMARK 927      BINDING AFFINITY PREDICTED BY RF-SCORE:    0.00 PKD
ROOT
HETATM    1  C   UNL     1     -14.331  15.105  72.302  1.00  0.00    -0.559 C  
HETATM    2  C   UNL     1     -13.058  15.214  73.124  1.00  0.00    -0.625 C  
ENDROOT
BRANCH   2   3
HETATM    3  C   UNL     1     -11.963  15.951  72.358  1.00  0.00    -0.620 C  
BRANCH   3   4
HETATM    4  C   UNL     1     -12.069  15.682  70.856  1.00  0.00    -0.452 C  
BRANCH   4   5
HETATM    5  C   UNL     1     -10.693  15.295  70.292  1.00  0.00    -0.258 C  
BRANCH   5   6
HETATM    6  N   UNL     1     -10.660  15.097  68.827  1.00  0.00    -0.229 NA 
HETATM    7  C   UNL     1     -11.864  14.384  68.370  1.00  0.00    -0.319 C  
BRANCH   6   8
HETATM    8  C   UNL     1     -10.608  16.403  68.132  1.00  0.00    -0.318 C  
BRANCH   8   9
HETATM    9  C   UNL     1      -9.716  17.447  68.817  1.00  0.00    -0.282 C  
BRANCH   9  10
HETATM   10  C   UNL     1      -9.053  18.487  67.866  1.00  0.00    -0.290 C  
HETATM   11  P   UNL     1     -10.067  18.497  66.343  1.00  0.00    -0.396 P  
HETATM   12  P   UNL     1      -7.287  18.091  67.548  1.00  0.00    -0.210 P  
HETATM   13  O   UNL     1      -9.112  19.797  68.526  1.00  0.00    -0.324 OA 
HETATM   14  O   UNL     1      -7.186  16.492  67.447  1.00  0.00    -0.125 OA 
HETATM   15  O   UNL     1      -6.499  18.741  66.463  1.00  0.00    -0.184 OA 
HETATM   16  O   UNL     1      -6.553  18.356  68.958  1.00  0.00    -0.244 OA 
HETATM   17  O   UNL     1     -11.084  19.560  67.115  1.00  0.00    -0.446 OA 
HETATM   18  O   UNL     1      -9.118  19.683  65.728  1.00  0.00    -0.377 OA 
HETATM   19  O   UNL     1     -10.926  18.506  65.054  1.00  0.00    -0.602 OA 
HETATM   20  H   UNL     1      -8.707  20.431  67.946  1.00  0.00     0.000 HD 
ENDBRANCH   9  10
ENDBRANCH   8   9
ENDBRANCH   6   8
ENDBRANCH   5   6
ENDBRANCH   4   5
ENDBRANCH   3   4
ENDBRANCH   2   3
TORSDOF 7
ENDMDL
MODEL       37
REMARK 921   NORMALIZED FREE ENERGY PREDICTED BY IDOCK:   -4.64 KCAL/MOL
REMARK 922        TOTAL FREE ENERGY PREDICTED BY IDOCK:   -7.22 KCAL/MOL
REMARK 923 INTER-LIGAND FREE ENERGY PREDICTED BY IDOCK:   -6.64 KCAL/MOL
REMARK 924 INTRA-LIGAND FREE ENERGY PREDICTED BY IDOCK:   -0.58 KCAL/MOL
REMARK 927      BINDING AFFINITY PREDICTED BY RF-SCORE:    0.00 PKD
ROOT
HETATM    1  C   UNL     1      -9.919  11.478  63.296  1.00  0.00    -0.435 C  
HETATM    2  C   UNL     1     -10.827  12.669  63.553  1.00  0.00    -0.373 C  
ENDROOT
BRANCH   2   3
HETATM    3  C   UNL     1     -12.124  12.241  64.235  1.00  0.00    -0.499 C  
BRANCH   3   4
HETATM    4  C   UNL     1     -12.374  13.063  65.500  1.00  0.00    -0.527 C  
BRANCH   4   5
HETATM    5  C   UNL     1     -11.593  12.464  66.680  1.00  0.00    -0.385 C  
BRANCH   5   6
HETATM    6  N   UNL     1     -10.473  13.300  67.166  1.00  0.00    -0.247 NA 
HETATM    7  C   UNL     1      -9.179  12.695  66.813  1.00  0.00    -0.225 C  
BRANCH   6   8
HETATM    8  C   UNL     1     -10.533  14.647  66.556  1.00  0.00    -0.290 C  
BRANCH   8   9
HETATM    9  C   UNL     1      -9.242  15.464  66.701  1.00  0.00    -0.303 C  
BRANCH   9  10
HETATM   10  C   UNL     1      -9.351  16.732  67.597  1.00  0.00    -0.228 C  
HETATM   11  P   UNL     1     -10.673  16.380  68.813  1.00  0.00    -0.353 P  
HETATM   12  P   UNL     1      -9.676  18.244  66.604  1.00  0.00    -0.361 P  
HETATM   13  O   UNL     1      -8.063  16.908  68.281  1.00  0.00    -0.200 OA 
HETATM   14  O   UNL     1     -10.673  17.811  65.423  1.00  0.00    -0.626 OA 
HETATM   15  O   UNL     1     -10.107  19.532  67.216  1.00  0.00    -0.355 OA 
HETATM   16  O   UNL     1      -8.312  18.487  65.780  1.00  0.00    -0.471 OA 
HETATM   17  O   UNL     1      -9.525  15.596  69.723  1.00  0.00    -0.277 OA 
HETATM   18  O   UNL     1     -10.399  17.832  69.521  1.00  0.00    -0.168 OA 
HETATM   19  O   UNL     1     -11.791  16.081  69.841  1.00  0.00    -0.315 OA 
HETATM   20  H   UNL     1      -8.130  17.682  68.828  1.00  0.00     0.000 HD 
ENDBRANCH   9  10
ENDBRANCH   8   9
ENDBRANCH   6   8
ENDBRANCH   5   6
ENDBRANCH   4   5
ENDBRANCH   3   4
ENDBRANCH   2   3
TORSDOF 7
ENDMDL
MODEL       38
REMARK 921   NORMALIZED FREE ENERGY PREDICTED BY IDOCK:   -4.62 KCAL/MOL
REMARK 922        TOTAL FREE ENERGY PREDICTED BY IDOCK:   -7.20 KCAL/MOL
REMARK 923 INTER-LIGAND FREE ENERGY PREDICTED BY IDOCK:   -6.74 KCAL/MOL
REMARK 924 INTRA-LIGAND FREE ENERGY PREDICTED BY IDOCK:   -0.45 KCAL/MOL
REMARK 927      BINDING AFFINITY PREDICTED BY RF-SCORE:    0.00 PKD
ROOT
HETATM    1  C   UNL     1      -9.974   4.753  69.543  1.00  0.00    -0.287 C  
HETATM    2  C   UNL     1     -10.954   5.910  69.446  1.00  0.00    -0.421 C  
ENDROOT
BRANCH   2   3
HETATM    3  C   UNL     1     -10.934   6.540  68.056  1.00  0.00    -0.368 C  
BRANCH   3   4
HETATM    4  C   UNL     1     -10.265   7.914  68.086  1.00  0.00    -0.248 C  
BRANCH   4   5
HETATM    5  C   UNL     1      -9.738   8.275  66.688  1.00  0.00    -0.251 C  
BRANCH   5   6
HETATM    6  N   UNL     1      -9.170   9.636  66.575  1.00  0.00    -0.152 NA 
HETATM    7  C   UNL     1      -7.756   9.579  66.173  1.00  0.00    -0.101 C  
BRANCH   6   8
HETATM    8  C   UNL     1      -9.907  10.419  65.557  1.00  0.00    -0.269 C  
BRANCH   8   9
HETATM    9  C   UNL     1     -11.085  11.229  66.115  1.00  0.00    -0.207 C  
BRANCH   9  10
HETATM   10  C   UNL     1     -11.049  12.755  65.811  1.00  0.00    -0.285 C  
HETATM   11  P   UNL     1     -11.644  13.587  67.328  1.00  0.00    -0.402 P  
HETATM   12  P   UNL     1     -12.045  13.179  64.325  1.00  0.00    -0.420 P  
HETATM   13  O   UNL     1      -9.653  13.124  65.541  1.00  0.00    -0.478 OA 
HETATM   14  O   UNL     1     -13.343  12.234  64.357  1.00  0.00    -0.786 OA 
HETATM   15  O   UNL     1     -12.417  14.579  63.978  1.00  0.00    -0.778 OA 
HETATM   16  O   UNL     1     -11.228  12.535  63.094  1.00  0.00    -0.388 OA 
HETATM   17  O   UNL     1     -10.093  13.467  67.913  1.00  0.00    -0.235 OA 
HETATM   18  O   UNL     1     -11.381  15.044  66.624  1.00  0.00    -0.344 OA 
HETATM   19  O   UNL     1     -12.146  14.290  68.612  1.00  0.00    -0.325 OA 
HETATM   20  H   UNL     1      -9.631  14.055  65.355  1.00  0.00     0.000 HD 
ENDBRANCH   9  10
ENDBRANCH   8   9
ENDBRANCH   6   8
ENDBRANCH   5   6
ENDBRANCH   4   5
ENDBRANCH   3   4
ENDBRANCH   2   3
TORSDOF 7
ENDMDL
MODEL       39
REMARK 921   NORMALIZED FREE ENERGY PREDICTED BY IDOCK:   -4.62 KCAL/MOL
REMARK 922        TOTAL FREE ENERGY PREDICTED BY IDOCK:   -7.19 KCAL/MOL
REMARK 923 INTER-LIGAND FREE ENERGY PREDICTED BY IDOCK:   -6.67 KCAL/MOL
REMARK 924 INTRA-LIGAND FREE ENERGY PREDICTED BY IDOCK:   -0.51 KCAL/MOL
REMARK 927      BINDING AFFINITY PREDICTED BY RF-SCORE:    0.00 PKD
ROOT
HETATM    1  C   UNL     1      -7.478  19.315  68.614  1.00  0.00    -0.380 C  
HETATM    2  C   UNL     1      -8.765  19.896  69.173  1.00  0.00     0.122 C  
ENDROOT
BRANCH   2   3
HETATM    3  C   UNL     1      -9.940  19.654  68.230  1.00  0.00    -0.543 C  
BRANCH   3   4
HETATM    4  C   UNL     1      -9.454  19.172  66.862  1.00  0.00    -0.368 C  
BRANCH   4   5
HETATM    5  C   UNL     1     -10.370  18.054  66.342  1.00  0.00    -0.379 C  
BRANCH   5   6
HETATM    6  N   UNL     1      -9.671  16.971  65.616  1.00  0.00    -0.548 NA 
HETATM    7  C   UNL     1      -8.445  16.575  66.327  1.00  0.00    -0.328 C  
BRANCH   6   8
HETATM    8  C   UNL     1     -10.542  15.779  65.503  1.00  0.00    -0.406 C  
BRANCH   8   9
HETATM    9  C   UNL     1     -10.149  14.620  66.428  1.00  0.00    -0.288 C  
BRANCH   9  10
HETATM   10  C   UNL     1     -11.305  14.028  67.286  1.00  0.00    -0.330 C  
HETATM   11  P   UNL     1     -11.019  14.617  68.995  1.00  0.00    -0.276 P  
HETATM   12  P   UNL     1     -11.379  12.196  67.162  1.00  0.00    -0.335 P  
HETATM   13  O   UNL     1     -12.568  14.569  66.766  1.00  0.00    -0.494 OA 
HETATM   14  O   UNL     1      -9.860  11.678  67.107  1.00  0.00    -0.187 OA 
HETATM   15  O   UNL     1     -12.191  11.358  68.090  1.00  0.00    -0.602 OA 
HETATM   16  O   UNL     1     -11.856  11.912  65.649  1.00  0.00    -0.398 OA 
HETATM   17  O   UNL     1     -11.794  16.021  68.563  1.00  0.00    -0.343 OA 
HETATM   18  O   UNL     1     -12.399  13.874  69.474  1.00  0.00    -0.333 OA 
HETATM   19  O   UNL     1     -10.777  15.115  70.441  1.00  0.00    -0.256 OA 
HETATM   20  H   UNL     1     -13.274  14.208  67.290  1.00  0.00     0.000 HD 
ENDBRANCH   9  10
ENDBRANCH   8   9
ENDBRANCH   6   8
ENDBRANCH   5   6
ENDBRANCH   4   5
ENDBRANCH   3   4
ENDBRANCH   2   3
TORSDOF 7
ENDMDL
MODEL       40
REMARK 921   NORMALIZED FREE ENERGY PREDICTED BY IDOCK:   -4.56 KCAL/MOL
REMARK 922        TOTAL FREE ENERGY PREDICTED BY IDOCK:   -7.10 KCAL/MOL
REMARK 923 INTER-LIGAND FREE ENERGY PREDICTED BY IDOCK:   -6.71 KCAL/MOL
REMARK 924 INTRA-LIGAND FREE ENERGY PREDICTED BY IDOCK:   -0.40 KCAL/MOL
REMARK 927      BINDING AFFINITY PREDICTED BY RF-SCORE:    0.00 PKD
ROOT
HETATM    1  C   UNL     1     -10.889   7.071  70.293  1.00  0.00    -0.283 C  
HETATM    2  C   UNL     1     -10.967   6.588  68.855  1.00  0.00    -0.376 C  
ENDROOT
BRANCH   2   3
HETATM    3  C   UNL     1      -9.774   7.077  68.039  1.00  0.00    -0.140 C  
BRANCH   3   4
HETATM    4  C   UNL     1     -10.223   8.022  66.924  1.00  0.00    -0.385 C  
BRANCH   4   5
HETATM    5  C   UNL     1      -9.612   9.416  67.137  1.00  0.00    -0.154 C  
BRANCH   5   6
HETATM    6  N   UNL     1     -10.598  10.487  67.400  1.00  0.00    -0.244 NA 
HETATM    7  C   UNL     1     -10.269  11.205  68.642  1.00  0.00    -0.205 C  
BRANCH   6   8
HETATM    8  C   UNL     1     -10.603  11.467  66.291  1.00  0.00    -0.263 C  
BRANCH   8   9
HETATM    9  C   UNL     1     -11.128  12.856  66.678  1.00  0.00    -0.316 C  
BRANCH   9  10
HETATM   10  C   UNL     1     -10.808  13.997  65.668  1.00  0.00    -0.295 C  
HETATM   11  P   UNL     1     -10.257  15.423  66.673  1.00  0.00    -0.298 P  
HETATM   12  P   UNL     1     -12.252  14.387  64.600  1.00  0.00    -0.352 P  
HETATM   13  O   UNL     1      -9.717  13.532  64.801  1.00  0.00    -0.589 OA 
HETATM   14  O   UNL     1     -13.556  14.262  65.528  1.00  0.00    -0.497 OA 
HETATM   15  O   UNL     1     -12.319  15.612  63.754  1.00  0.00    -0.644 OA 
HETATM   16  O   UNL     1     -12.420  13.092  63.657  1.00  0.00    -0.666 OA 
HETATM   17  O   UNL     1      -8.743  14.739  66.681  1.00  0.00    -0.249 OA 
HETATM   18  O   UNL     1      -9.983  16.275  65.300  1.00  0.00    -0.505 OA 
HETATM   19  O   UNL     1      -9.791  16.630  67.523  1.00  0.00    -0.245 OA 
HETATM   20  H   UNL     1      -9.522  14.228  64.185  1.00  0.00     0.000 HD 
ENDBRANCH   9  10
ENDBRANCH   8   9
ENDBRANCH   6   8
ENDBRANCH   5   6
ENDBRANCH   4   5
ENDBRANCH   3   4
ENDBRANCH   2   3
TORSDOF 7
ENDMDL
MODEL       41
REMARK 921   NORMALIZED FREE ENERGY PREDICTED BY IDOCK:   -4.53 KCAL/MOL
REMARK 922        TOTAL FREE ENERGY PREDICTED BY IDOCK:   -7.06 KCAL/MOL
REMARK 923 INTER-LIGAND FREE ENERGY PREDICTED BY IDOCK:   -6.26 KCAL/MOL
REMARK 924 INTRA-LIGAND FREE ENERGY PREDICTED BY IDOCK:   -0.80 KCAL/MOL
REMARK 927      BINDING AFFINITY PREDICTED BY RF-SCORE:    0.00 PKD
ROOT
HETATM    1  C   UNL     1     -12.215  13.414  63.308  1.00  0.00    -0.314 C  
HETATM    2  C   UNL     1     -12.218  11.971  63.784  1.00  0.00    -0.600 C  
ENDROOT
BRANCH   2   3
HETATM    3  C   UNL     1     -10.878  11.590  64.408  1.00  0.00    -0.405 C  
BRANCH   3   4
HETATM    4  C   UNL     1     -10.375  12.692  65.341  1.00  0.00    -0.311 C  
BRANCH   4   5
HETATM    5  C   UNL     1     -10.941  12.484  66.754  1.00  0.00    -0.265 C  
BRANCH   5   6
HETATM    6  N   UNL     1     -11.913  13.512  67.186  1.00  0.00    -0.389 NA 
HETATM    7  C   UNL     1     -11.879  13.681  68.647  1.00  0.00    -0.374 C  
BRANCH   6   8
HETATM    8  C   UNL     1     -11.595  14.817  66.563  1.00  0.00    -0.301 C  
BRANCH   8   9
HETATM    9  C   UNL     1     -10.973  15.839  67.524  1.00  0.00    -0.293 C  
BRANCH   9  10
HETATM   10  C   UNL     1      -9.624  16.459  67.057  1.00  0.00    -0.237 C  
HETATM   11  P   UNL     1      -8.434  16.165  68.416  1.00  0.00    -0.203 P  
HETATM   12  P   UNL     1      -9.801  18.239  66.633  1.00  0.00    -0.384 P  
HETATM   13  O   UNL     1      -9.200  15.746  65.845  1.00  0.00    -0.340 OA 
HETATM   14  O   UNL     1     -10.831  18.863  67.696  1.00  0.00    -0.428 OA 
HETATM   15  O   UNL     1      -8.631  19.141  66.437  1.00  0.00    -0.314 OA 
HETATM   16  O   UNL     1     -10.698  18.249  65.295  1.00  0.00    -0.605 OA 
HETATM   17  O   UNL     1      -8.187  14.653  67.773  1.00  0.00    -0.141 OA 
HETATM   18  O   UNL     1      -7.250  16.858  67.519  1.00  0.00    -0.139 OA 
HETATM   19  O   UNL     1      -7.428  15.915  69.565  1.00  0.00    -0.221 OA 
HETATM   20  H   UNL     1      -8.377  16.125  65.560  1.00  0.00     0.000 HD 
ENDBRANCH   9  10
ENDBRANCH   8   9
ENDBRANCH   6   8
ENDBRANCH   5   6
ENDBRANCH   4   5
ENDBRANCH   3   4
ENDBRANCH   2   3
TORSDOF 7
ENDMDL
MODEL       42
REMARK 921   NORMALIZED FREE ENERGY PREDICTED BY IDOCK:   -4.53 KCAL/MOL
REMARK 922        TOTAL FREE ENERGY PREDICTED BY IDOCK:   -7.06 KCAL/MOL
REMARK 923 INTER-LIGAND FREE ENERGY PREDICTED BY IDOCK:   -6.50 KCAL/MOL
REMARK 924 INTRA-LIGAND FREE ENERGY PREDICTED BY IDOCK:   -0.56 KCAL/MOL
REMARK 927      BINDING AFFINITY PREDICTED BY RF-SCORE:    0.00 PKD
ROOT
HETATM    1  C   UNL     1     -10.882   9.160  71.567  1.00  0.00    -0.436 C  
HETATM    2  C   UNL     1     -12.237   8.797  72.149  1.00  0.00    -0.448 C  
ENDROOT
BRANCH   2   3
HETATM    3  C   UNL     1     -13.279   9.869  71.842  1.00  0.00    -0.558 C  
BRANCH   3   4
HETATM    4  C   UNL     1     -12.613  11.160  71.364  1.00  0.00    -0.479 C  
BRANCH   4   5
HETATM    5  C   UNL     1     -13.296  12.376  72.010  1.00  0.00    -0.407 C  
BRANCH   5   6
HETATM    6  N   UNL     1     -13.070  13.656  71.306  1.00  0.00    -0.312 NA 
HETATM    7  C   UNL     1     -12.609  14.693  72.244  1.00  0.00    -0.322 C  
BRANCH   6   8
HETATM    8  C   UNL     1     -12.037  13.493  70.257  1.00  0.00    -0.355 C  
BRANCH   8   9
HETATM    9  C   UNL     1     -12.253  14.371  69.017  1.00  0.00    -0.233 C  
BRANCH   9  10
HETATM   10  C   UNL     1     -11.307  14.075  67.817  1.00  0.00    -0.303 C  
HETATM   11  P   UNL     1     -10.679  12.376  68.075  1.00  0.00    -0.245 P  
HETATM   12  P   UNL     1      -9.964  15.323  67.684  1.00  0.00    -0.222 P  
HETATM   13  O   UNL     1     -12.110  14.141  66.589  1.00  0.00    -0.429 OA 
HETATM   14  O   UNL     1      -9.528  15.691  69.185  1.00  0.00    -0.219 OA 
HETATM   15  O   UNL     1      -8.767  15.128  66.818  1.00  0.00    -0.243 OA 
HETATM   16  O   UNL     1     -10.714  16.679  67.241  1.00  0.00    -0.306 OA 
HETATM   17  O   UNL     1     -12.076  11.830  67.361  1.00  0.00    -0.595 OA 
HETATM   18  O   UNL     1      -9.863  12.470  66.657  1.00  0.00    -0.229 OA 
HETATM   19  O   UNL     1     -10.148  10.939  68.293  1.00  0.00    -0.164 OA 
HETATM   20  H   UNL     1     -11.532  13.961  65.857  1.00  0.00     0.000 HD 
ENDBRANCH   9  10
ENDBRANCH   8   9
ENDBRANCH   6   8
ENDBRANCH   5   6
ENDBRANCH   4   5
ENDBRANCH   3   4
ENDBRANCH   2   3
TORSDOF 7
ENDMDL
MODEL       43
REMARK 921   NORMALIZED FREE ENERGY PREDICTED BY IDOCK:   -4.52 KCAL/MOL
REMARK 922        TOTAL FREE ENERGY PREDICTED BY IDOCK:   -7.06 KCAL/MOL
REMARK 923 INTER-LIGAND FREE ENERGY PREDICTED BY IDOCK:   -6.70 KCAL/MOL
REMARK 924 INTRA-LIGAND FREE ENERGY PREDICTED BY IDOCK:   -0.36 KCAL/MOL
REMARK 927      BINDING AFFINITY PREDICTED BY RF-SCORE:    0.00 PKD
ROOT
HETATM    1  C   UNL     1      -9.174  19.598  67.496  1.00  0.00    -0.409 C  
HETATM    2  C   UNL     1     -10.458  18.847  67.804  1.00  0.00    -0.487 C  
ENDROOT
BRANCH   2   3
HETATM    3  C   UNL     1     -10.274  17.341  67.635  1.00  0.00    -0.333 C  
BRANCH   3   4
HETATM    4  C   UNL     1     -10.858  16.581  68.826  1.00  0.00    -0.342 C  
BRANCH   4   5
HETATM    5  C   UNL     1      -9.923  15.426  69.223  1.00  0.00    -0.256 C  
BRANCH   5   6
HETATM    6  N   UNL     1      -9.286  14.730  68.084  1.00  0.00    -0.190 NA 
HETATM    7  C   UNL     1      -7.904  14.348  68.415  1.00  0.00    -0.138 C  
BRANCH   6   8
HETATM    8  C   UNL     1     -10.036  13.499  67.747  1.00  0.00    -0.232 C  
BRANCH   8   9
HETATM    9  C   UNL     1      -9.668  12.889  66.388  1.00  0.00    -0.263 C  
BRANCH   9  10
HETATM   10  C   UNL     1     -10.853  12.709  65.394  1.00  0.00    -0.287 C  
HETATM   11  P   UNL     1     -10.169  11.824  63.946  1.00  0.00    -0.440 P  
HETATM   12  P   UNL     1     -11.624  14.318  64.953  1.00  0.00    -0.423 P  
HETATM   13  O   UNL     1     -11.872  11.886  66.060  1.00  0.00    -0.497 OA 
HETATM   14  O   UNL     1     -10.429  15.384  64.842  1.00  0.00    -0.396 OA 
HETATM   15  O   UNL     1     -12.576  14.469  63.817  1.00  0.00    -0.825 OA 
HETATM   16  O   UNL     1     -12.346  14.806  66.308  1.00  0.00    -0.160 OA 
HETATM   17  O   UNL     1     -10.405  10.412  64.790  1.00  0.00    -0.320 OA 
HETATM   18  O   UNL     1     -11.661  11.795  63.268  1.00  0.00    -0.388 OA 
HETATM   19  O   UNL     1      -9.590  11.075  62.721  1.00  0.00    -0.313 OA 
HETATM   20  H   UNL     1     -12.595  11.776  65.454  1.00  0.00     0.000 HD 
ENDBRANCH   9  10
ENDBRANCH   8   9
ENDBRANCH   6   8
ENDBRANCH   5   6
ENDBRANCH   4   5
ENDBRANCH   3   4
ENDBRANCH   2   3
TORSDOF 7
ENDMDL
MODEL       44
REMARK 921   NORMALIZED FREE ENERGY PREDICTED BY IDOCK:   -4.51 KCAL/MOL
REMARK 922        TOTAL FREE ENERGY PREDICTED BY IDOCK:   -7.03 KCAL/MOL
REMARK 923 INTER-LIGAND FREE ENERGY PREDICTED BY IDOCK:   -6.41 KCAL/MOL
REMARK 924 INTRA-LIGAND FREE ENERGY PREDICTED BY IDOCK:   -0.63 KCAL/MOL
REMARK 927      BINDING AFFINITY PREDICTED BY RF-SCORE:    0.00 PKD
ROOT
HETATM    1  C   UNL     1     -12.012  16.162  72.919  1.00  0.00    -0.623 C  
HETATM    2  C   UNL     1     -12.775  14.985  73.503  1.00  0.00    -0.667 C  
ENDROOT
BRANCH   2   3
HETATM    3  C   UNL     1     -13.754  14.400  72.489  1.00  0.00    -0.589 C  
BRANCH   3   4
HETATM    4  C   UNL     1     -13.380  12.961  72.133  1.00  0.00    -0.615 C  
BRANCH   4   5
HETATM    5  C   UNL     1     -12.480  12.943  70.887  1.00  0.00    -0.296 C  
BRANCH   5   6
HETATM    6  N   UNL     1     -11.937  11.612  70.538  1.00  0.00    -0.359 NA 
HETATM    7  C   UNL     1     -12.646  10.551  71.269  1.00  0.00    -0.426 C  
BRANCH   6   8
HETATM    8  C   UNL     1     -12.095  11.356  69.088  1.00  0.00    -0.264 C  
BRANCH   8   9
HETATM    9  C   UNL     1     -11.752  12.555  68.194  1.00  0.00    -0.400 C  
BRANCH   9  10
HETATM   10  C   UNL     1     -10.251  12.687  67.801  1.00  0.00    -0.222 C  
HETATM   11  P   UNL     1     -10.031  14.407  67.216  1.00  0.00    -0.253 P  
HETATM   12  P   UNL     1      -9.762  11.436  66.546  1.00  0.00    -0.214 P  
HETATM   13  O   UNL     1      -9.451  12.453  69.010  1.00  0.00    -0.388 OA 
HETATM   14  O   UNL     1     -11.009  11.277  65.547  1.00  0.00    -0.229 OA 
HETATM   15  O   UNL     1      -8.482  11.514  65.788  1.00  0.00    -0.036 OA 
HETATM   16  O   UNL     1      -9.818  10.031  67.333  1.00  0.00    -0.172 OA 
HETATM   17  O   UNL     1      -9.855  14.847  68.809  1.00  0.00    -0.213 OA 
HETATM   18  O   UNL     1      -8.430  14.123  67.006  1.00  0.00    -0.208 OA 
HETATM   19  O   UNL     1      -9.844  15.862  66.723  1.00  0.00    -0.231 OA 
HETATM   20  H   UNL     1      -8.535  12.533  68.769  1.00  0.00     0.000 HD 
ENDBRANCH   9  10
ENDBRANCH   8   9
ENDBRANCH   6   8
ENDBRANCH   5   6
ENDBRANCH   4   5
ENDBRANCH   3   4
ENDBRANCH   2   3
TORSDOF 7
ENDMDL
MODEL       45
REMARK 921   NORMALIZED FREE ENERGY PREDICTED BY IDOCK:   -4.49 KCAL/MOL
REMARK 922        TOTAL FREE ENERGY PREDICTED BY IDOCK:   -7.00 KCAL/MOL
REMARK 923 INTER-LIGAND FREE ENERGY PREDICTED BY IDOCK:   -6.26 KCAL/MOL
REMARK 924 INTRA-LIGAND FREE ENERGY PREDICTED BY IDOCK:   -0.74 KCAL/MOL
REMARK 927      BINDING AFFINITY PREDICTED BY RF-SCORE:    0.00 PKD
ROOT
HETATM    1  C   UNL     1     -12.972   9.334  71.695  1.00  0.00    -0.447 C  
HETATM    2  C   UNL     1     -12.103   8.194  71.192  1.00  0.00    -0.281 C  
ENDROOT
BRANCH   2   3
HETATM    3  C   UNL     1     -10.796   8.713  70.597  1.00  0.00    -0.265 C  
BRANCH   3   4
HETATM    4  C   UNL     1     -11.064   9.648  69.418  1.00  0.00    -0.170 C  
BRANCH   4   5
HETATM    5  C   UNL     1     -10.048   9.384  68.295  1.00  0.00    -0.183 C  
BRANCH   5   6
HETATM    6  N   UNL     1      -9.536  10.602  67.629  1.00  0.00    -0.153 NA 
HETATM    7  C   UNL     1      -8.074  10.697  67.770  1.00  0.00    -0.111 C  
BRANCH   6   8
HETATM    8  C   UNL     1      -9.858  10.573  66.184  1.00  0.00    -0.217 C  
BRANCH   8   9
HETATM    9  C   UNL     1      -9.885  11.955  65.517  1.00  0.00    -0.257 C  
BRANCH   9  10
HETATM   10  C   UNL     1     -11.024  12.904  65.993  1.00  0.00    -0.276 C  
HETATM   11  P   UNL     1     -11.943  13.386  64.486  1.00  0.00    -0.440 P  
HETATM   12  P   UNL     1     -10.365  14.346  66.922  1.00  0.00    -0.271 P  
HETATM   13  O   UNL     1     -11.892  12.140  66.899  1.00  0.00    -0.555 OA 
HETATM   14  O   UNL     1      -8.996  14.772  66.199  1.00  0.00    -0.205 OA 
HETATM   15  O   UNL     1     -11.191  15.545  67.240  1.00  0.00    -0.308 OA 
HETATM   16  O   UNL     1      -9.804  13.720  68.297  1.00  0.00    -0.222 OA 
HETATM   17  O   UNL     1     -12.795  11.968  64.642  1.00  0.00    -0.460 OA 
HETATM   18  O   UNL     1     -12.993  14.243  65.410  1.00  0.00    -0.654 OA 
HETATM   19  O   UNL     1     -12.722  13.793  63.212  1.00  0.00    -0.783 OA 
HETATM   20  H   UNL     1     -12.586  12.720  67.189  1.00  0.00     0.000 HD 
ENDBRANCH   9  10
ENDBRANCH   8   9
ENDBRANCH   6   8
ENDBRANCH   5   6
ENDBRANCH   4   5
ENDBRANCH   3   4
ENDBRANCH   2   3
TORSDOF 7
ENDMDL
MODEL       46
REMARK 921   NORMALIZED FREE ENERGY PREDICTED BY IDOCK:   -4.47 KCAL/MOL
REMARK 922        TOTAL FREE ENERGY PREDICTED BY IDOCK:   -6.99 KCAL/MOL
REMARK 923 INTER-LIGAND FREE ENERGY PREDICTED BY IDOCK:   -6.35 KCAL/MOL
REMARK 924 INTRA-LIGAND FREE ENERGY PREDICTED BY IDOCK:   -0.64 KCAL/MOL
REMARK 927      BINDING AFFINITY PREDICTED BY RF-SCORE:    0.00 PKD
ROOT
HETATM    1  C   UNL     1     -12.382  12.378  63.451  1.00  0.00    -0.603 C  
HETATM    2  C   UNL     1     -10.949  12.279  63.947  1.00  0.00    -0.464 C  
ENDROOT
BRANCH   2   3
HETATM    3  C   UNL     1     -10.633  13.380  64.955  1.00  0.00    -0.370 C  
BRANCH   3   4
HETATM    4  C   UNL     1      -9.743  12.852  66.082  1.00  0.00    -0.250 C  
BRANCH   4   5
HETATM    5  C   UNL     1     -10.017  13.632  67.378  1.00  0.00    -0.234 C  
BRANCH   5   6
HETATM    6  N   UNL     1     -10.080  15.100  67.212  1.00  0.00    -0.234 NA 
HETATM    7  C   UNL     1     -11.248  15.654  67.915  1.00  0.00    -0.328 C  
BRANCH   6   8
HETATM    8  C   UNL     1      -8.864  15.735  67.769  1.00  0.00    -0.171 C  
BRANCH   8   9
HETATM    9  C   UNL     1      -9.047  17.205  68.171  1.00  0.00    -0.247 C  
BRANCH   9  10
HETATM   10  C   UNL     1      -8.601  18.248  67.104  1.00  0.00    -0.248 C  
HETATM   11  P   UNL     1      -7.463  19.395  67.963  1.00  0.00    -0.299 P  
HETATM   12  P   UNL     1     -10.040  19.103  66.344  1.00  0.00    -0.469 P  
HETATM   13  O   UNL     1      -7.891  17.525  66.042  1.00  0.00    -0.458 OA 
HETATM   14  O   UNL     1     -11.115  19.323  67.515  1.00  0.00    -0.423 OA 
HETATM   15  O   UNL     1      -9.900  20.333  65.515  1.00  0.00    -0.235 OA 
HETATM   16  O   UNL     1     -10.770  17.964  65.467  1.00  0.00    -0.585 OA 
HETATM   17  O   UNL     1      -6.254  18.293  67.675  1.00  0.00    -0.181 OA 
HETATM   18  O   UNL     1      -7.218  20.195  66.554  1.00  0.00    -0.246 OA 
HETATM   19  O   UNL     1      -6.500  20.365  68.690  1.00  0.00    -0.306 OA 
HETATM   20  H   UNL     1      -7.619  18.162  65.391  1.00  0.00     0.000 HD 
ENDBRANCH   9  10
ENDBRANCH   8   9
ENDBRANCH   6   8
ENDBRANCH   5   6
ENDBRANCH   4   5
ENDBRANCH   3   4
ENDBRANCH   2   3
TORSDOF 7
ENDMDL
MODEL       47
REMARK 921   NORMALIZED FREE ENERGY PREDICTED BY IDOCK:   -4.47 KCAL/MOL
REMARK 922        TOTAL FREE ENERGY PREDICTED BY IDOCK:   -6.98 KCAL/MOL
REMARK 923 INTER-LIGAND FREE ENERGY PREDICTED BY IDOCK:   -6.17 KCAL/MOL
REMARK 924 INTRA-LIGAND FREE ENERGY PREDICTED BY IDOCK:   -0.81 KCAL/MOL
REMARK 927      BINDING AFFINITY PREDICTED BY RF-SCORE:    0.00 PKD
ROOT
HETATM    1  C   UNL     1      -8.159   7.914  64.780  1.00  0.00    -0.141 C  
HETATM    2  C   UNL     1      -9.088   9.016  65.260  1.00  0.00    -0.226 C  
ENDROOT
BRANCH   2   3
HETATM    3  C   UNL     1      -8.983  10.255  64.376  1.00  0.00    -0.255 C  
BRANCH   3   4
HETATM    4  C   UNL     1     -10.363  10.859  64.113  1.00  0.00    -0.432 C  
BRANCH   4   5
HETATM    5  C   UNL     1     -10.246  12.381  63.933  1.00  0.00    -0.383 C  
BRANCH   5   6
HETATM    6  N   UNL     1     -11.537  13.083  63.768  1.00  0.00    -0.448 NA 
HETATM    7  C   UNL     1     -12.657  12.129  63.798  1.00  0.00    -0.475 C  
BRANCH   6   8
HETATM    8  C   UNL     1     -11.735  14.061  64.862  1.00  0.00    -0.380 C  
BRANCH   8   9
HETATM    9  C   UNL     1     -10.597  14.096  65.891  1.00  0.00    -0.301 C  
BRANCH   9  10
HETATM   10  C   UNL     1     -11.045  14.081  67.382  1.00  0.00    -0.303 C  
HETATM   11  P   UNL     1      -9.967  15.282  68.245  1.00  0.00    -0.229 P  
HETATM   12  P   UNL     1     -10.958  12.393  68.103  1.00  0.00    -0.265 P  
HETATM   13  O   UNL     1     -12.444  14.524  67.432  1.00  0.00    -0.580 OA 
HETATM   14  O   UNL     1      -9.652  11.695  67.483  1.00  0.00    -0.168 OA 
HETATM   15  O   UNL     1     -11.050  12.138  69.568  1.00  0.00    -0.170 OA 
HETATM   16  O   UNL     1     -12.127  11.573  67.356  1.00  0.00    -0.593 OA 
HETATM   17  O   UNL     1     -11.011  16.471  67.740  1.00  0.00    -0.327 OA 
HETATM   18  O   UNL     1     -10.785  15.004  69.638  1.00  0.00    -0.252 OA 
HETATM   19  O   UNL     1      -9.055  16.298  68.975  1.00  0.00    -0.244 OA 
HETATM   20  H   UNL     1     -12.717  14.515  68.342  1.00  0.00     0.000 HD 
ENDBRANCH   9  10
ENDBRANCH   8   9
ENDBRANCH   6   8
ENDBRANCH   5   6
ENDBRANCH   4   5
ENDBRANCH   3   4
ENDBRANCH   2   3
TORSDOF 7
ENDMDL
MODEL       48
REMARK 921   NORMALIZED FREE ENERGY PREDICTED BY IDOCK:   -4.47 KCAL/MOL
REMARK 922        TOTAL FREE ENERGY PREDICTED BY IDOCK:   -6.98 KCAL/MOL
REMARK 923 INTER-LIGAND FREE ENERGY PREDICTED BY IDOCK:   -6.38 KCAL/MOL
REMARK 924 INTRA-LIGAND FREE ENERGY PREDICTED BY IDOCK:   -0.60 KCAL/MOL
REMARK 927      BINDING AFFINITY PREDICTED BY RF-SCORE:    0.00 PKD
ROOT
HETATM    1  C   UNL     1     -12.146  10.653  70.908  1.00  0.00    -0.489 C  
HETATM    2  C   UNL     1     -12.064  11.365  69.569  1.00  0.00    -0.370 C  
ENDROOT
BRANCH   2   3
HETATM    3  C   UNL     1     -11.838  12.863  69.749  1.00  0.00    -0.380 C  
BRANCH   3   4
HETATM    4  C   UNL     1     -11.911  13.594  68.407  1.00  0.00    -0.407 C  
BRANCH   4   5
HETATM    5  C   UNL     1     -10.671  13.265  67.560  1.00  0.00    -0.250 C  
BRANCH   5   6
HETATM    6  N   UNL     1     -10.316  14.295  66.561  1.00  0.00    -0.274 NA 
HETATM    7  C   UNL     1     -10.653  13.842  65.202  1.00  0.00    -0.374 C  
BRANCH   6   8
HETATM    8  C   UNL     1     -11.061  15.548  66.825  1.00  0.00    -0.206 C  
BRANCH   8   9
HETATM    9  C   UNL     1     -10.335  16.529  67.756  1.00  0.00    -0.291 C  
BRANCH   9  10
HETATM   10  C   UNL     1      -9.197  17.360  67.093  1.00  0.00    -0.237 C  
HETATM   11  P   UNL     1      -7.878  17.506  68.353  1.00  0.00    -0.273 P  
HETATM   12  P   UNL     1      -9.801  18.990  66.496  1.00  0.00    -0.410 P  
HETATM   13  O   UNL     1      -8.711  16.604  65.931  1.00  0.00    -0.483 OA 
HETATM   14  O   UNL     1     -10.866  19.509  67.579  1.00  0.00    -0.468 OA 
HETATM   15  O   UNL     1      -8.881  20.089  66.088  1.00  0.00    -0.346 OA 
HETATM   16  O   UNL     1     -10.770  18.634  65.259  1.00  0.00    -0.559 OA 
HETATM   17  O   UNL     1      -7.343  16.012  67.859  1.00  0.00    -0.121 OA 
HETATM   18  O   UNL     1      -6.947  18.316  67.274  1.00  0.00    -0.194 OA 
HETATM   19  O   UNL     1      -6.762  17.628  69.419  1.00  0.00    -0.248 OA 
HETATM   20  H   UNL     1      -8.017  17.111  65.527  1.00  0.00     0.000 HD 
ENDBRANCH   9  10
ENDBRANCH   8   9
ENDBRANCH   6   8
ENDBRANCH   5   6
ENDBRANCH   4   5
ENDBRANCH   3   4
ENDBRANCH   2   3
TORSDOF 7
ENDMDL
MODEL       49
REMARK 921   NORMALIZED FREE ENERGY PREDICTED BY IDOCK:   -4.45 KCAL/MOL
REMARK 922        TOTAL FREE ENERGY PREDICTED BY IDOCK:   -6.96 KCAL/MOL
REMARK 923 INTER-LIGAND FREE ENERGY PREDICTED BY IDOCK:   -6.10 KCAL/MOL
REMARK 924 INTRA-LIGAND FREE ENERGY PREDICTED BY IDOCK:   -0.85 KCAL/MOL
REMARK 927      BINDING AFFINITY PREDICTED BY RF-SCORE:    0.00 PKD
ROOT
HETATM    1  C   UNL     1     -11.091  11.509  63.946  1.00  0.00    -0.458 C  
HETATM    2  C   UNL     1     -12.071  12.549  63.430  1.00  0.00    -0.621 C  
ENDROOT
BRANCH   2   3
HETATM    3  C   UNL     1     -12.060  13.803  64.300  1.00  0.00    -0.481 C  
BRANCH   3   4
HETATM    4  C   UNL     1     -12.260  13.449  65.773  1.00  0.00    -0.507 C  
BRANCH   4   5
HETATM    5  C   UNL     1     -11.970  14.675  66.654  1.00  0.00    -0.275 C  
BRANCH   5   6
HETATM    6  N   UNL     1     -11.265  14.373  67.918  1.00  0.00    -0.274 NA 
HETATM    7  C   UNL     1     -11.674  13.061  68.443  1.00  0.00    -0.351 C  
BRANCH   6   8
HETATM    8  C   UNL     1      -9.801  14.345  67.699  1.00  0.00    -0.224 C  
BRANCH   8   9
HETATM    9  C   UNL     1      -9.254  15.560  66.938  1.00  0.00    -0.257 C  
BRANCH   9  10
HETATM   10  C   UNL     1      -8.799  16.755  67.826  1.00  0.00    -0.208 C  
HETATM   11  P   UNL     1      -9.235  18.270  66.898  1.00  0.00    -0.298 P  
HETATM   12  P   UNL     1      -7.010  16.657  68.237  1.00  0.00    -0.169 P  
HETATM   13  O   UNL     1      -9.556  16.691  69.083  1.00  0.00    -0.259 OA 
HETATM   14  O   UNL     1      -6.269  16.093  66.929  1.00  0.00    -0.316 OA 
HETATM   15  O   UNL     1      -6.255  17.800  68.822  1.00  0.00    -0.188 OA 
HETATM   16  O   UNL     1      -6.891  15.391  69.227  1.00  0.00    -0.132 OA 
HETATM   17  O   UNL     1     -10.765  18.128  67.531  1.00  0.00    -0.412 OA 
HETATM   18  O   UNL     1      -8.688  19.183  68.145  1.00  0.00    -0.301 OA 
HETATM   19  O   UNL     1      -9.606  19.552  66.113  1.00  0.00    -0.373 OA 
HETATM   20  H   UNL     1      -9.278  17.419  69.625  1.00  0.00     0.000 HD 
ENDBRANCH   9  10
ENDBRANCH   8   9
ENDBRANCH   6   8
ENDBRANCH   5   6
ENDBRANCH   4   5
ENDBRANCH   3   4
ENDBRANCH   2   3
TORSDOF 7
ENDMDL
MODEL       50
REMARK 921   NORMALIZED FREE ENERGY PREDICTED BY IDOCK:   -4.45 KCAL/MOL
REMARK 922        TOTAL FREE ENERGY PREDICTED BY IDOCK:   -6.96 KCAL/MOL
REMARK 923 INTER-LIGAND FREE ENERGY PREDICTED BY IDOCK:   -6.29 KCAL/MOL
REMARK 924 INTRA-LIGAND FREE ENERGY PREDICTED BY IDOCK:   -0.66 KCAL/MOL
REMARK 927      BINDING AFFINITY PREDICTED BY RF-SCORE:    0.00 PKD
ROOT
HETATM    1  C   UNL     1      -9.019   7.602  67.569  1.00  0.00    -0.128 C  
HETATM    2  C   UNL     1     -10.318   8.097  66.957  1.00  0.00    -0.403 C  
ENDROOT
BRANCH   2   3
HETATM    3  C   UNL     1     -10.134   9.455  66.285  1.00  0.00    -0.328 C  
BRANCH   3   4
HETATM    4  C   UNL     1     -10.774  10.568  67.115  1.00  0.00    -0.323 C  
BRANCH   4   5
HETATM    5  C   UNL     1     -11.384  11.631  66.188  1.00  0.00    -0.209 C  
BRANCH   5   6
HETATM    6  N   UNL     1     -12.210  12.647  66.876  1.00  0.00    -0.454 NA 
HETATM    7  C   UNL     1     -11.832  12.755  68.294  1.00  0.00    -0.312 C  
BRANCH   6   8
HETATM    8  C   UNL     1     -12.023  13.975  66.248  1.00  0.00    -0.432 C  
BRANCH   8   9
HETATM    9  C   UNL     1     -11.264  14.984  67.120  1.00  0.00    -0.336 C  
BRANCH   9  10
HETATM   10  C   UNL     1      -9.902  15.472  66.544  1.00  0.00    -0.264 C  
HETATM   11  P   UNL     1      -8.636  15.017  67.784  1.00  0.00    -0.180 P  
HETATM   12  P   UNL     1      -9.925  17.272  66.170  1.00  0.00    -0.190 P  
HETATM   13  O   UNL     1      -9.666  14.752  65.285  1.00  0.00    -0.467 OA 
HETATM   14  O   UNL     1     -10.784  17.971  67.333  1.00  0.00    -0.390 OA 
HETATM   15  O   UNL     1      -8.686  18.050  65.886  1.00  0.00    -0.506 OA 
HETATM   16  O   UNL     1     -10.930  17.413  64.919  1.00  0.00    -0.862 OA 
HETATM   17  O   UNL     1      -8.610  13.505  67.094  1.00  0.00    -0.205 OA 
HETATM   18  O   UNL     1      -7.468  15.606  66.797  1.00  0.00    -0.179 OA 
HETATM   19  O   UNL     1      -7.565  14.631  68.833  1.00  0.00    -0.127 OA 
HETATM   20  H   UNL     1      -8.835  15.050  64.934  1.00  0.00     0.000 HD 
ENDBRANCH   9  10
ENDBRANCH   8   9
ENDBRANCH   6   8
ENDBRANCH   5   6
ENDBRANCH   4   5
ENDBRANCH   3   4
ENDBRANCH   2   3
TORSDOF 7
ENDMDL
MODEL       51
REMARK 921   NORMALIZED FREE ENERGY PREDICTED BY IDOCK:   -4.45 KCAL/MOL
REMARK 922        TOTAL FREE ENERGY PREDICTED BY IDOCK:   -6.95 KCAL/MOL
REMARK 923 INTER-LIGAND FREE ENERGY PREDICTED BY IDOCK:   -6.34 KCAL/MOL
REMARK 924 INTRA-LIGAND FREE ENERGY PREDICTED BY IDOCK:   -0.62 KCAL/MOL
REMARK 927      BINDING AFFINITY PREDICTED BY RF-SCORE:    0.00 PKD
ROOT
HETATM    1  C   UNL     1      -8.950   8.248  65.820  1.00  0.00    -0.185 C  
HETATM    2  C   UNL     1     -10.032   9.084  66.483  1.00  0.00    -0.355 C  
ENDROOT
BRANCH   2   3
HETATM    3  C   UNL     1     -10.152  10.457  65.829  1.00  0.00    -0.329 C  
BRANCH   3   4
HETATM    4  C   UNL     1     -10.845  11.450  66.762  1.00  0.00    -0.336 C  
BRANCH   4   5
HETATM    5  C   UNL     1     -11.668  12.457  65.943  1.00  0.00    -0.419 C  
BRANCH   5   6
HETATM    6  N   UNL     1     -10.988  12.971  64.735  1.00  0.00    -0.311 NA 
HETATM    7  C   UNL     1     -11.953  13.188  63.646  1.00  0.00    -0.514 C  
BRANCH   6   8
HETATM    8  C   UNL     1     -10.326  14.262  65.027  1.00  0.00    -0.421 C  
BRANCH   8   9
HETATM    9  C   UNL     1     -11.081  15.148  66.027  1.00  0.00    -0.312 C  
BRANCH   9  10
HETATM   10  C   UNL     1     -10.245  15.647  67.241  1.00  0.00    -0.266 C  
HETATM   11  P   UNL     1     -11.393  15.686  68.665  1.00  0.00    -0.378 P  
HETATM   12  P   UNL     1      -9.463  17.276  66.907  1.00  0.00    -0.278 P  
HETATM   13  O   UNL     1      -9.173  14.670  67.477  1.00  0.00    -0.184 OA 
HETATM   14  O   UNL     1     -10.523  18.128  66.053  1.00  0.00    -0.440 OA 
HETATM   15  O   UNL     1      -8.853  18.112  67.980  1.00  0.00    -0.266 OA 
HETATM   16  O   UNL     1      -8.345  16.967  65.788  1.00  0.00    -0.500 OA 
HETATM   17  O   UNL     1     -11.082  14.066  68.866  1.00  0.00    -0.250 OA 
HETATM   18  O   UNL     1     -10.160  16.154  69.638  1.00  0.00    -0.255 OA 
HETATM   19  O   UNL     1     -12.365  15.718  69.870  1.00  0.00    -0.338 OA 
HETATM   20  H   UNL     1      -8.663  14.975  68.218  1.00  0.00     0.000 HD 
ENDBRANCH   9  10
ENDBRANCH   8   9
ENDBRANCH   6   8
ENDBRANCH   5   6
ENDBRANCH   4   5
ENDBRANCH   3   4
ENDBRANCH   2   3
TORSDOF 7
ENDMDL
MODEL       52
REMARK 921   NORMALIZED FREE ENERGY PREDICTED BY IDOCK:   -4.44 KCAL/MOL
REMARK 922        TOTAL FREE ENERGY PREDICTED BY IDOCK:   -6.93 KCAL/MOL
REMARK 923 INTER-LIGAND FREE ENERGY PREDICTED BY IDOCK:   -6.36 KCAL/MOL
REMARK 924 INTRA-LIGAND FREE ENERGY PREDICTED BY IDOCK:   -0.57 KCAL/MOL
REMARK 927      BINDING AFFINITY PREDICTED BY RF-SCORE:    0.00 PKD
ROOT
HETATM    1  C   UNL     1     -14.284  15.085  71.769  1.00  0.00    -0.649 C  
HETATM    2  C   UNL     1     -13.758  13.860  72.497  1.00  0.00    -0.665 C  
ENDROOT
BRANCH   2   3
HETATM    3  C   UNL     1     -13.046  12.908  71.539  1.00  0.00    -0.390 C  
BRANCH   3   4
HETATM    4  C   UNL     1     -13.255  11.452  71.957  1.00  0.00    -0.432 C  
BRANCH   4   5
HETATM    5  C   UNL     1     -12.728  10.510  70.864  1.00  0.00    -0.402 C  
BRANCH   5   6
HETATM    6  N   UNL     1     -11.254  10.451  70.759  1.00  0.00    -0.296 NA 
HETATM    7  C   UNL     1     -10.737   9.211  71.360  1.00  0.00    -0.343 C  
BRANCH   6   8
HETATM    8  C   UNL     1     -10.837  10.482  69.338  1.00  0.00    -0.249 C  
BRANCH   8   9
HETATM    9  C   UNL     1     -11.756  11.309  68.429  1.00  0.00    -0.365 C  
BRANCH   9  10
HETATM   10  C   UNL     1     -11.063  11.964  67.198  1.00  0.00    -0.293 C  
HETATM   11  P   UNL     1      -9.501  11.044  66.948  1.00  0.00    -0.183 P  
HETATM   12  P   UNL     1     -10.801  13.767  67.443  1.00  0.00    -0.284 P  
HETATM   13  O   UNL     1     -11.950  11.789  66.040  1.00  0.00    -0.435 OA 
HETATM   14  O   UNL     1     -10.411  13.969  68.987  1.00  0.00    -0.227 OA 
HETATM   15  O   UNL     1      -9.914  14.578  66.562  1.00  0.00    -0.262 OA 
HETATM   16  O   UNL     1     -12.283  14.399  67.415  1.00  0.00    -0.364 OA 
HETATM   17  O   UNL     1     -10.385   9.921  66.099  1.00  0.00    -0.230 OA 
HETATM   18  O   UNL     1      -9.185  11.956  65.623  1.00  0.00    -0.173 OA 
HETATM   19  O   UNL     1      -8.181  10.265  66.736  1.00  0.00    -0.121 OA 
HETATM   20  H   UNL     1     -11.527  12.189  65.290  1.00  0.00     0.000 HD 
ENDBRANCH   9  10
ENDBRANCH   8   9
ENDBRANCH   6   8
ENDBRANCH   5   6
ENDBRANCH   4   5
ENDBRANCH   3   4
ENDBRANCH   2   3
TORSDOF 7
ENDMDL
MODEL       53
REMARK 921   NORMALIZED FREE ENERGY PREDICTED BY IDOCK:   -4.41 KCAL/MOL
REMARK 922        TOTAL FREE ENERGY PREDICTED BY IDOCK:   -6.90 KCAL/MOL
REMARK 923 INTER-LIGAND FREE ENERGY PREDICTED BY IDOCK:   -6.24 KCAL/MOL
REMARK 924 INTRA-LIGAND FREE ENERGY PREDICTED BY IDOCK:   -0.66 KCAL/MOL
REMARK 927      BINDING AFFINITY PREDICTED BY RF-SCORE:    0.00 PKD
ROOT
HETATM    1  C   UNL     1      -5.677  15.874  67.952  1.00  0.00    -0.155 C  
HETATM    2  C   UNL     1      -6.725  16.517  67.060  1.00  0.00    -0.240 C  
ENDROOT
BRANCH   2   3
HETATM    3  C   UNL     1      -6.718  18.037  67.201  1.00  0.00    -0.203 C  
BRANCH   3   4
HETATM    4  C   UNL     1      -8.103  18.558  67.582  1.00  0.00    -0.262 C  
BRANCH   4   5
HETATM    5  C   UNL     1      -8.960  17.414  68.147  1.00  0.00    -0.260 C  
BRANCH   5   6
HETATM    6  N   UNL     1     -10.335  17.348  67.606  1.00  0.00    -0.342 NA 
HETATM    7  C   UNL     1     -10.325  17.480  66.141  1.00  0.00    -0.329 C  
BRANCH   6   8
HETATM    8  C   UNL     1     -10.960  16.050  67.946  1.00  0.00    -0.327 C  
BRANCH   8   9
HETATM    9  C   UNL     1     -10.493  14.876  67.075  1.00  0.00    -0.272 C  
BRANCH   9  10
HETATM   10  C   UNL     1     -11.479  13.674  66.989  1.00  0.00    -0.343 C  
HETATM   11  P   UNL     1     -10.587  12.237  67.687  1.00  0.00    -0.228 P  
HETATM   12  P   UNL     1     -12.060  13.390  65.269  1.00  0.00    -0.473 P  
HETATM   13  O   UNL     1     -12.650  13.998  67.815  1.00  0.00    -0.409 OA 
HETATM   14  O   UNL     1     -10.807  13.677  64.307  1.00  0.00    -0.388 OA 
HETATM   15  O   UNL     1     -12.772  12.148  64.854  1.00  0.00    -0.508 OA 
HETATM   16  O   UNL     1     -12.995  14.662  64.942  1.00  0.00    -0.481 OA 
HETATM   17  O   UNL     1     -11.057  12.769  69.189  1.00  0.00    -0.242 OA 
HETATM   18  O   UNL     1     -11.924  11.314  67.476  1.00  0.00    -0.612 OA 
HETATM   19  O   UNL     1      -9.832  11.022  68.278  1.00  0.00    -0.166 OA 
HETATM   20  H   UNL     1     -13.251  13.264  67.762  1.00  0.00     0.000 HD 
ENDBRANCH   9  10
ENDBRANCH   8   9
ENDBRANCH   6   8
ENDBRANCH   5   6
ENDBRANCH   4   5
ENDBRANCH   3   4
ENDBRANCH   2   3
TORSDOF 7
ENDMDL
MODEL       54
REMARK 921   NORMALIZED FREE ENERGY PREDICTED BY IDOCK:   -4.39 KCAL/MOL
REMARK 922        TOTAL FREE ENERGY PREDICTED BY IDOCK:   -6.87 KCAL/MOL
REMARK 923 INTER-LIGAND FREE ENERGY PREDICTED BY IDOCK:   -6.23 KCAL/MOL
REMARK 924 INTRA-LIGAND FREE ENERGY PREDICTED BY IDOCK:   -0.64 KCAL/MOL
REMARK 927      BINDING AFFINITY PREDICTED BY RF-SCORE:    0.00 PKD
ROOT
HETATM    1  C   UNL     1     -12.253  14.523  64.627  1.00  0.00    -0.474 C  
HETATM    2  C   UNL     1     -12.469  13.042  64.885  1.00  0.00    -0.512 C  
ENDROOT
BRANCH   2   3
HETATM    3  C   UNL     1     -12.278  12.223  63.611  1.00  0.00    -0.665 C  
BRANCH   3   4
HETATM    4  C   UNL     1     -10.846  11.697  63.507  1.00  0.00    -0.497 C  
BRANCH   4   5
HETATM    5  C   UNL     1     -10.374  11.181  64.876  1.00  0.00    -0.313 C  
BRANCH   5   6
HETATM    6  N   UNL     1      -9.685   9.873  64.837  1.00  0.00    -0.301 NA 
HETATM    7  C   UNL     1      -8.468   9.949  64.012  1.00  0.00    -0.180 C  
BRANCH   6   8
HETATM    8  C   UNL     1      -9.289   9.458  66.202  1.00  0.00    -0.205 C  
BRANCH   8   9
HETATM    9  C   UNL     1      -9.416  10.563  67.259  1.00  0.00    -0.179 C  
BRANCH   9  10
HETATM   10  C   UNL     1     -10.271  10.198  68.508  1.00  0.00    -0.174 C  
HETATM   11  P   UNL     1     -11.136  11.735  68.994  1.00  0.00    -0.232 P  
HETATM   12  P   UNL     1      -9.241   9.498  69.859  1.00  0.00    -0.243 P  
HETATM   13  O   UNL     1     -11.241   9.174  68.100  1.00  0.00    -0.483 OA 
HETATM   14  O   UNL     1      -7.854  10.306  69.845  1.00  0.00    -0.166 OA 
HETATM   15  O   UNL     1      -9.744   9.332  71.252  1.00  0.00    -0.282 OA 
HETATM   16  O   UNL     1      -8.765   8.062  69.302  1.00  0.00    -0.135 OA 
HETATM   17  O   UNL     1     -12.286  11.362  67.854  1.00  0.00    -0.592 OA 
HETATM   18  O   UNL     1     -11.901  10.917  70.191  1.00  0.00    -0.290 OA 
HETATM   19  O   UNL     1     -11.869  13.035  69.406  1.00  0.00    -0.306 OA 
HETATM   20  H   UNL     1     -11.763   8.951  68.862  1.00  0.00     0.000 HD 
ENDBRANCH   9  10
ENDBRANCH   8   9
ENDBRANCH   6   8
ENDBRANCH   5   6
ENDBRANCH   4   5
ENDBRANCH   3   4
ENDBRANCH   2   3
TORSDOF 7
ENDMDL
MODEL       55
REMARK 921   NORMALIZED FREE ENERGY PREDICTED BY IDOCK:   -4.38 KCAL/MOL
REMARK 922        TOTAL FREE ENERGY PREDICTED BY IDOCK:   -6.85 KCAL/MOL
REMARK 923 INTER-LIGAND FREE ENERGY PREDICTED BY IDOCK:   -6.32 KCAL/MOL
REMARK 924 INTRA-LIGAND FREE ENERGY PREDICTED BY IDOCK:   -0.53 KCAL/MOL
REMARK 927      BINDING AFFINITY PREDICTED BY RF-SCORE:    0.00 PKD
ROOT
HETATM    1  C   UNL     1     -12.497  11.873  63.369  1.00  0.00    -0.582 C  
HETATM    2  C   UNL     1     -11.014  11.722  63.667  1.00  0.00    -0.513 C  
ENDROOT
BRANCH   2   3
HETATM    3  C   UNL     1     -10.762  11.558  65.163  1.00  0.00    -0.348 C  
BRANCH   3   4
HETATM    4  C   UNL     1      -9.981  12.748  65.721  1.00  0.00    -0.259 C  
BRANCH   4   5
HETATM    5  C   UNL     1     -10.939  13.914  66.017  1.00  0.00    -0.285 C  
BRANCH   5   6
HETATM    6  N   UNL     1     -10.884  15.020  65.036  1.00  0.00    -0.399 NA 
HETATM    7  C   UNL     1     -12.187  15.194  64.375  1.00  0.00    -0.275 C  
BRANCH   6   8
HETATM    8  C   UNL     1     -10.538  16.291  65.712  1.00  0.00    -0.324 C  
BRANCH   8   9
HETATM    9  C   UNL     1     -10.682  16.253  67.240  1.00  0.00    -0.265 C  
BRANCH   9  10
HETATM   10  C   UNL     1      -9.792  17.264  68.019  1.00  0.00    -0.284 C  
HETATM   11  P   UNL     1      -9.550  18.693  66.901  1.00  0.00    -0.340 P  
HETATM   12  P   UNL     1      -8.209  16.503  68.561  1.00  0.00    -0.231 P  
HETATM   13  O   UNL     1     -10.530  17.676  69.220  1.00  0.00    -0.403 OA 
HETATM   14  O   UNL     1      -7.743  15.523  67.378  1.00  0.00    -0.157 OA 
HETATM   15  O   UNL     1      -7.061  17.307  69.067  1.00  0.00    -0.234 OA 
HETATM   16  O   UNL     1      -8.639  15.437  69.691  1.00  0.00    -0.249 OA 
HETATM   17  O   UNL     1     -11.014  19.267  67.439  1.00  0.00    -0.484 OA 
HETATM   18  O   UNL     1      -8.697  19.457  68.074  1.00  0.00    -0.303 OA 
HETATM   19  O   UNL     1      -9.346  19.901  65.955  1.00  0.00    -0.386 OA 
HETATM   20  H   UNL     1      -9.987  18.293  69.696  1.00  0.00     0.000 HD 
ENDBRANCH   9  10
ENDBRANCH   8   9
ENDBRANCH   6   8
ENDBRANCH   5   6
ENDBRANCH   4   5
ENDBRANCH   3   4
ENDBRANCH   2   3
TORSDOF 7
ENDMDL
MODEL       56
REMARK 921   NORMALIZED FREE ENERGY PREDICTED BY IDOCK:   -4.36 KCAL/MOL
REMARK 922        TOTAL FREE ENERGY PREDICTED BY IDOCK:   -6.83 KCAL/MOL
REMARK 923 INTER-LIGAND FREE ENERGY PREDICTED BY IDOCK:   -6.27 KCAL/MOL
REMARK 924 INTRA-LIGAND FREE ENERGY PREDICTED BY IDOCK:   -0.56 KCAL/MOL
REMARK 927      BINDING AFFINITY PREDICTED BY RF-SCORE:    0.00 PKD
ROOT
HETATM    1  C   UNL     1     -10.253   5.260  69.924  1.00  0.00    -0.364 C  
HETATM    2  C   UNL     1     -10.821   5.933  68.686  1.00  0.00    -0.333 C  
ENDROOT
BRANCH   2   3
HETATM    3  C   UNL     1     -10.030   7.186  68.323  1.00  0.00    -0.171 C  
BRANCH   3   4
HETATM    4  C   UNL     1     -10.062   7.436  66.815  1.00  0.00    -0.305 C  
BRANCH   4   5
HETATM    5  C   UNL     1     -10.459   8.894  66.531  1.00  0.00    -0.105 C  
BRANCH   5   6
HETATM    6  N   UNL     1      -9.329   9.785  66.189  1.00  0.00    -0.177 NA 
HETATM    7  C   UNL     1      -9.305  10.067  64.745  1.00  0.00    -0.271 C  
BRANCH   6   8
HETATM    8  C   UNL     1      -9.452  11.073  66.908  1.00  0.00    -0.177 C  
BRANCH   8   9
HETATM    9  C   UNL     1      -9.806  12.266  66.009  1.00  0.00    -0.263 C  
BRANCH   9  10
HETATM   10  C   UNL     1     -11.139  12.992  66.357  1.00  0.00    -0.287 C  
HETATM   11  P   UNL     1     -11.920  13.408  64.755  1.00  0.00    -0.441 P  
HETATM   12  P   UNL     1     -10.857  14.464  67.420  1.00  0.00    -0.306 P  
HETATM   13  O   UNL     1     -11.979  12.047  67.105  1.00  0.00    -0.601 OA 
HETATM   14  O   UNL     1      -9.495  15.144  66.910  1.00  0.00    -0.219 OA 
HETATM   15  O   UNL     1     -11.905  15.494  67.663  1.00  0.00    -0.164 OA 
HETATM   16  O   UNL     1     -10.384  13.856  68.836  1.00  0.00    -0.225 OA 
HETATM   17  O   UNL     1     -12.537  11.865  64.739  1.00  0.00    -0.312 OA 
HETATM   18  O   UNL     1     -13.209  14.030  65.555  1.00  0.00    -0.710 OA 
HETATM   19  O   UNL     1     -12.582  13.759  63.401  1.00  0.00    -0.842 OA 
HETATM   20  H   UNL     1     -12.792  12.490  67.317  1.00  0.00     0.000 HD 
ENDBRANCH   9  10
ENDBRANCH   8   9
ENDBRANCH   6   8
ENDBRANCH   5   6
ENDBRANCH   4   5
ENDBRANCH   3   4
ENDBRANCH   2   3
TORSDOF 7
ENDMDL
MODEL       57
REMARK 921   NORMALIZED FREE ENERGY PREDICTED BY IDOCK:   -4.36 KCAL/MOL
REMARK 922        TOTAL FREE ENERGY PREDICTED BY IDOCK:   -6.83 KCAL/MOL
REMARK 923 INTER-LIGAND FREE ENERGY PREDICTED BY IDOCK:   -6.17 KCAL/MOL
REMARK 924 INTRA-LIGAND FREE ENERGY PREDICTED BY IDOCK:   -0.65 KCAL/MOL
REMARK 927      BINDING AFFINITY PREDICTED BY RF-SCORE:    0.00 PKD
ROOT
HETATM    1  C   UNL     1     -12.572  11.981  63.366  1.00  0.00    -0.592 C  
HETATM    2  C   UNL     1     -11.106  12.365  63.473  1.00  0.00    -0.521 C  
ENDROOT
BRANCH   2   3
HETATM    3  C   UNL     1     -10.863  13.310  64.646  1.00  0.00    -0.396 C  
BRANCH   3   4
HETATM    4  C   UNL     1     -12.019  13.251  65.645  1.00  0.00    -0.455 C  
BRANCH   4   5
HETATM    5  C   UNL     1     -11.824  14.311  66.740  1.00  0.00    -0.426 C  
BRANCH   5   6
HETATM    6  N   UNL     1     -10.756  14.001  67.715  1.00  0.00    -0.241 NA 
HETATM    7  C   UNL     1     -10.476  15.166  68.570  1.00  0.00    -0.233 C  
BRANCH   6   8
HETATM    8  C   UNL     1     -11.164  12.877  68.588  1.00  0.00    -0.281 C  
BRANCH   8   9
HETATM    9  C   UNL     1     -10.132  11.746  68.685  1.00  0.00    -0.198 C  
BRANCH   9  10
HETATM   10  C   UNL     1     -10.719  10.304  68.673  1.00  0.00    -0.224 C  
HETATM   11  P   UNL     1     -10.429   9.627  70.348  1.00  0.00    -0.306 P  
HETATM   12  P   UNL     1      -9.974   9.274  67.346  1.00  0.00    -0.232 P  
HETATM   13  O   UNL     1     -12.160  10.411  68.409  1.00  0.00    -0.769 OA 
HETATM   14  O   UNL     1      -8.423   9.683  67.263  1.00  0.00    -0.129 OA 
HETATM   15  O   UNL     1     -10.135   7.794  67.288  1.00  0.00    -0.188 OA 
HETATM   16  O   UNL     1     -10.533   9.914  65.976  1.00  0.00    -0.170 OA 
HETATM   17  O   UNL     1     -11.821  10.401  70.822  1.00  0.00    -0.312 OA 
HETATM   18  O   UNL     1     -11.211   8.251  69.920  1.00  0.00    -0.171 OA 
HETATM   19  O   UNL     1     -10.184   9.054  71.766  1.00  0.00    -0.328 OA 
HETATM   20  H   UNL     1     -12.518   9.531  68.401  1.00  0.00     0.000 HD 
ENDBRANCH   9  10
ENDBRANCH   8   9
ENDBRANCH   6   8
ENDBRANCH   5   6
ENDBRANCH   4   5
ENDBRANCH   3   4
ENDBRANCH   2   3
TORSDOF 7
ENDMDL
MODEL       58
REMARK 921   NORMALIZED FREE ENERGY PREDICTED BY IDOCK:   -4.35 KCAL/MOL
REMARK 922        TOTAL FREE ENERGY PREDICTED BY IDOCK:   -6.82 KCAL/MOL
REMARK 923 INTER-LIGAND FREE ENERGY PREDICTED BY IDOCK:   -6.25 KCAL/MOL
REMARK 924 INTRA-LIGAND FREE ENERGY PREDICTED BY IDOCK:   -0.57 KCAL/MOL
REMARK 927      BINDING AFFINITY PREDICTED BY RF-SCORE:    0.00 PKD
ROOT
HETATM    1  C   UNL     1      -5.386  12.621  70.349  1.00  0.00    -0.136 C  
HETATM    2  C   UNL     1      -6.051  11.274  70.121  1.00  0.00    -0.149 C  
ENDROOT
BRANCH   2   3
HETATM    3  C   UNL     1      -7.058  11.339  68.975  1.00  0.00    -0.116 C  
BRANCH   3   4
HETATM    4  C   UNL     1      -8.451  10.921  69.446  1.00  0.00     0.075 C  
BRANCH   4   5
HETATM    5  C   UNL     1      -9.519  11.488  68.498  1.00  0.00    -0.174 C  
BRANCH   5   6
HETATM    6  N   UNL     1      -9.320  11.149  67.072  1.00  0.00    -0.168 NA 
HETATM    7  C   UNL     1     -10.225  10.064  66.662  1.00  0.00    -0.223 C  
BRANCH   6   8
HETATM    8  C   UNL     1      -9.599  12.327  66.219  1.00  0.00    -0.242 C  
BRANCH   8   9
HETATM    9  C   UNL     1     -10.418  13.426  66.909  1.00  0.00    -0.273 C  
BRANCH   9  10
HETATM   10  C   UNL     1     -11.367  14.236  65.977  1.00  0.00    -0.335 C  
HETATM   11  P   UNL     1     -11.554  13.237  64.455  1.00  0.00    -0.413 P  
HETATM   12  P   UNL     1     -10.725  15.926  65.650  1.00  0.00    -0.270 P  
HETATM   13  O   UNL     1     -12.659  14.367  66.663  1.00  0.00    -0.534 OA 
HETATM   14  O   UNL     1      -9.130  15.793  65.518  1.00  0.00    -0.235 OA 
HETATM   15  O   UNL     1     -11.274  16.803  64.578  1.00  0.00    -0.997 OA 
HETATM   16  O   UNL     1     -10.853  16.688  67.064  1.00  0.00    -0.230 OA 
HETATM   17  O   UNL     1     -12.739  12.384  65.249  1.00  0.00    -0.617 OA 
HETATM   18  O   UNL     1     -12.602  14.350  63.863  1.00  0.00    -0.814 OA 
HETATM   19  O   UNL     1     -11.713  12.392  63.168  1.00  0.00    -0.402 OA 
HETATM   20  H   UNL     1     -13.239  14.861  66.095  1.00  0.00     0.000 HD 
ENDBRANCH   9  10
ENDBRANCH   8   9
ENDBRANCH   6   8
ENDBRANCH   5   6
ENDBRANCH   4   5
ENDBRANCH   3   4
ENDBRANCH   2   3
TORSDOF 7
ENDMDL
MODEL       59
REMARK 921   NORMALIZED FREE ENERGY PREDICTED BY IDOCK:   -4.35 KCAL/MOL
REMARK 922        TOTAL FREE ENERGY PREDICTED BY IDOCK:   -6.81 KCAL/MOL
REMARK 923 INTER-LIGAND FREE ENERGY PREDICTED BY IDOCK:   -6.33 KCAL/MOL
REMARK 924 INTRA-LIGAND FREE ENERGY PREDICTED BY IDOCK:   -0.48 KCAL/MOL
REMARK 927      BINDING AFFINITY PREDICTED BY RF-SCORE:    0.00 PKD
ROOT
HETATM    1  C   UNL     1     -10.774   9.178  70.998  1.00  0.00    -0.363 C  
HETATM    2  C   UNL     1     -11.903   8.470  71.729  1.00  0.00    -0.395 C  
ENDROOT
BRANCH   2   3
HETATM    3  C   UNL     1     -13.052   9.426  72.035  1.00  0.00    -0.516 C  
BRANCH   3   4
HETATM    4  C   UNL     1     -12.997  10.657  71.131  1.00  0.00    -0.483 C  
BRANCH   4   5
HETATM    5  C   UNL     1     -13.162  11.935  71.969  1.00  0.00    -0.356 C  
BRANCH   5   6
HETATM    6  N   UNL     1     -13.191  13.188  71.184  1.00  0.00    -0.113 NA 
HETATM    7  C   UNL     1     -12.986  14.355  72.057  1.00  0.00    -0.353 C  
BRANCH   6   8
HETATM    8  C   UNL     1     -12.118  13.183  70.164  1.00  0.00    -0.321 C  
BRANCH   8   9
HETATM    9  C   UNL     1     -12.211  14.326  69.145  1.00  0.00    -0.272 C  
BRANCH   9  10
HETATM   10  C   UNL     1     -10.945  14.540  68.264  1.00  0.00    -0.247 C  
HETATM   11  P   UNL     1     -10.721  16.351  68.132  1.00  0.00    -0.338 P  
HETATM   12  P   UNL     1     -11.104  13.717  66.629  1.00  0.00    -0.319 P  
HETATM   13  O   UNL     1      -9.805  13.935  68.967  1.00  0.00    -0.415 OA 
HETATM   14  O   UNL     1     -12.634  13.892  66.174  1.00  0.00    -0.452 OA 
HETATM   15  O   UNL     1     -10.179  13.994  65.494  1.00  0.00    -0.317 OA 
HETATM   16  O   UNL     1     -11.062  12.141  66.963  1.00  0.00    -0.262 OA 
HETATM   17  O   UNL     1      -9.934  16.287  69.594  1.00  0.00    -0.228 OA 
HETATM   18  O   UNL     1      -9.353  16.111  67.262  1.00  0.00    -0.211 OA 
HETATM   19  O   UNL     1     -10.531  17.884  68.021  1.00  0.00    -0.369 OA 
HETATM   20  H   UNL     1      -9.033  14.066  68.429  1.00  0.00     0.000 HD 
ENDBRANCH   9  10
ENDBRANCH   8   9
ENDBRANCH   6   8
ENDBRANCH   5   6
ENDBRANCH   4   5
ENDBRANCH   3   4
ENDBRANCH   2   3
TORSDOF 7
ENDMDL
MODEL       60
REMARK 921   NORMALIZED FREE ENERGY PREDICTED BY IDOCK:   -4.34 KCAL/MOL
REMARK 922        TOTAL FREE ENERGY PREDICTED BY IDOCK:   -6.80 KCAL/MOL
REMARK 923 INTER-LIGAND FREE ENERGY PREDICTED BY IDOCK:   -6.24 KCAL/MOL
REMARK 924 INTRA-LIGAND FREE ENERGY PREDICTED BY IDOCK:   -0.56 KCAL/MOL
REMARK 927      BINDING AFFINITY PREDICTED BY RF-SCORE:    0.00 PKD
ROOT
HETATM    1  C   UNL     1      -6.694  20.313  65.366  1.00  0.00    -0.318 C  
HETATM    2  C   UNL     1      -6.782  20.865  66.779  1.00  0.00    -0.367 C  
ENDROOT
BRANCH   2   3
HETATM    3  C   UNL     1      -7.947  20.245  67.546  1.00  0.00    -0.346 C  
BRANCH   3   4
HETATM    4  C   UNL     1      -7.451  19.198  68.544  1.00  0.00    -0.360 C  
BRANCH   4   5
HETATM    5  C   UNL     1      -7.837  17.790  68.066  1.00  0.00    -0.241 C  
BRANCH   5   6
HETATM    6  N   UNL     1      -9.277  17.609  67.780  1.00  0.00    -0.248 NA 
HETATM    7  C   UNL     1      -9.470  16.826  66.549  1.00  0.00    -0.266 C  
BRANCH   6   8
HETATM    8  C   UNL     1      -9.937  16.888  68.892  1.00  0.00    -0.279 C  
BRANCH   8   9
HETATM    9  C   UNL     1     -11.121  16.012  68.462  1.00  0.00    -0.347 C  
BRANCH   9  10
HETATM   10  C   UNL     1     -11.156  14.585  69.083  1.00  0.00    -0.263 C  
HETATM   11  P   UNL     1     -11.762  13.473  67.762  1.00  0.00    -0.354 P  
HETATM   12  P   UNL     1     -12.192  14.527  70.600  1.00  0.00    -0.378 P  
HETATM   13  O   UNL     1      -9.782  14.228  69.459  1.00  0.00    -0.386 OA 
HETATM   14  O   UNL     1     -13.447  15.492  70.336  1.00  0.00    -0.273 OA 
HETATM   15  O   UNL     1     -12.630  13.248  71.226  1.00  0.00    -0.358 OA 
HETATM   16  O   UNL     1     -11.368  15.385  71.686  1.00  0.00    -0.385 OA 
HETATM   17  O   UNL     1     -10.198  13.405  67.204  1.00  0.00    -0.243 OA 
HETATM   18  O   UNL     1     -11.574  12.191  68.765  1.00  0.00    -0.277 OA 
HETATM   19  O   UNL     1     -12.273  12.533  66.644  1.00  0.00    -0.552 OA 
HETATM   20  H   UNL     1      -9.803  13.358  69.839  1.00  0.00     0.000 HD 
ENDBRANCH   9  10
ENDBRANCH   8   9
ENDBRANCH   6   8
ENDBRANCH   5   6
ENDBRANCH   4   5
ENDBRANCH   3   4
ENDBRANCH   2   3
TORSDOF 7
ENDMDL
MODEL       61
REMARK 921   NORMALIZED FREE ENERGY PREDICTED BY IDOCK:   -4.34 KCAL/MOL
REMARK 922        TOTAL FREE ENERGY PREDICTED BY IDOCK:   -6.80 KCAL/MOL
REMARK 923 INTER-LIGAND FREE ENERGY PREDICTED BY IDOCK:   -6.22 KCAL/MOL
REMARK 924 INTRA-LIGAND FREE ENERGY PREDICTED BY IDOCK:   -0.58 KCAL/MOL
REMARK 927      BINDING AFFINITY PREDICTED BY RF-SCORE:    0.00 PKD
ROOT
HETATM    1  C   UNL     1     -11.832  11.180  69.678  1.00  0.00    -0.419 C  
HETATM    2  C   UNL     1     -11.832  12.694  69.543  1.00  0.00    -0.376 C  
ENDROOT
BRANCH   2   3
HETATM    3  C   UNL     1     -11.307  13.130  68.179  1.00  0.00    -0.328 C  
BRANCH   3   4
HETATM    4  C   UNL     1      -9.894  13.702  68.293  1.00  0.00    -0.232 C  
BRANCH   4   5
HETATM    5  C   UNL     1      -9.874  15.159  67.804  1.00  0.00    -0.223 C  
BRANCH   5   6
HETATM    6  N   UNL     1      -9.362  15.341  66.429  1.00  0.00    -0.275 NA 
HETATM    7  C   UNL     1     -10.471  15.416  65.465  1.00  0.00    -0.380 C  
BRANCH   6   8
HETATM    8  C   UNL     1      -8.582  16.596  66.331  1.00  0.00    -0.310 C  
BRANCH   8   9
HETATM    9  C   UNL     1      -8.310  17.277  67.679  1.00  0.00    -0.209 C  
BRANCH   9  10
HETATM   10  C   UNL     1      -8.624  18.800  67.733  1.00  0.00    -0.283 C  
HETATM   11  P   UNL     1      -9.870  19.106  66.428  1.00  0.00    -0.398 P  
HETATM   12  P   UNL     1      -7.107  19.817  67.526  1.00  0.00    -0.248 P  
HETATM   13  O   UNL     1      -9.188  19.094  69.057  1.00  0.00    -0.339 OA 
HETATM   14  O   UNL     1      -6.191  19.061  66.446  1.00  0.00    -0.175 OA 
HETATM   15  O   UNL     1      -7.150  21.281  67.251  1.00  0.00    -0.522 OA 
HETATM   16  O   UNL     1      -6.263  19.564  68.875  1.00  0.00    -0.238 OA 
HETATM   17  O   UNL     1     -11.025  18.630  67.524  1.00  0.00    -0.392 OA 
HETATM   18  O   UNL     1      -9.941  20.682  66.875  1.00  0.00    -0.418 OA 
HETATM   19  O   UNL     1     -10.926  19.364  65.326  1.00  0.00    -0.457 OA 
HETATM   20  H   UNL     1      -9.379  20.023  69.089  1.00  0.00     0.000 HD 
ENDBRANCH   9  10
ENDBRANCH   8   9
ENDBRANCH   6   8
ENDBRANCH   5   6
ENDBRANCH   4   5
ENDBRANCH   3   4
ENDBRANCH   2   3
TORSDOF 7
ENDMDL
MODEL       62
REMARK 921   NORMALIZED FREE ENERGY PREDICTED BY IDOCK:   -4.33 KCAL/MOL
REMARK 922        TOTAL FREE ENERGY PREDICTED BY IDOCK:   -6.78 KCAL/MOL
REMARK 923 INTER-LIGAND FREE ENERGY PREDICTED BY IDOCK:   -6.29 KCAL/MOL
REMARK 924 INTRA-LIGAND FREE ENERGY PREDICTED BY IDOCK:   -0.48 KCAL/MOL
REMARK 927      BINDING AFFINITY PREDICTED BY RF-SCORE:    0.00 PKD
ROOT
HETATM    1  C   UNL     1     -11.287  12.455  63.689  1.00  0.00    -0.556 C  
HETATM    2  C   UNL     1     -12.342  12.995  64.640  1.00  0.00    -0.480 C  
ENDROOT
BRANCH   2   3
HETATM    3  C   UNL     1     -11.855  12.962  66.086  1.00  0.00    -0.487 C  
BRANCH   3   4
HETATM    4  C   UNL     1     -12.027  14.328  66.753  1.00  0.00    -0.462 C  
BRANCH   4   5
HETATM    5  C   UNL     1     -10.689  15.084  66.757  1.00  0.00    -0.308 C  
BRANCH   5   6
HETATM    6  N   UNL     1      -9.869  14.879  67.971  1.00  0.00    -0.214 NA 
HETATM    7  C   UNL     1      -8.701  14.034  67.675  1.00  0.00    -0.189 C  
BRANCH   6   8
HETATM    8  C   UNL     1      -9.378  16.177  68.487  1.00  0.00    -0.209 C  
BRANCH   8   9
HETATM    9  C   UNL     1      -8.834  17.121  67.406  1.00  0.00    -0.218 C  
BRANCH   9  10
HETATM   10  C   UNL     1      -8.814  18.630  67.786  1.00  0.00    -0.275 C  
HETATM   11  P   UNL     1      -9.739  19.496  66.465  1.00  0.00    -0.447 P  
HETATM   12  P   UNL     1      -7.100  19.260  67.991  1.00  0.00    -0.271 P  
HETATM   13  O   UNL     1      -9.507  18.775  69.073  1.00  0.00    -0.305 OA 
HETATM   14  O   UNL     1      -6.208  18.539  66.868  1.00  0.00    -0.170 OA 
HETATM   15  O   UNL     1      -6.780  20.713  68.069  1.00  0.00    -0.301 OA 
HETATM   16  O   UNL     1      -6.559  18.534  69.325  1.00  0.00    -0.264 OA 
HETATM   17  O   UNL     1     -11.130  19.106  67.286  1.00  0.00    -0.417 OA 
HETATM   18  O   UNL     1      -9.537  20.913  67.263  1.00  0.00    -0.435 OA 
HETATM   19  O   UNL     1     -10.522  20.228  65.349  1.00  0.00    -0.285 OA 
HETATM   20  H   UNL     1      -9.495  19.697  69.305  1.00  0.00     0.000 HD 
ENDBRANCH   9  10
ENDBRANCH   8   9
ENDBRANCH   6   8
ENDBRANCH   5   6
ENDBRANCH   4   5
ENDBRANCH   3   4
ENDBRANCH   2   3
TORSDOF 7
ENDMDL
MODEL       63
REMARK 921   NORMALIZED FREE ENERGY PREDICTED BY IDOCK:   -4.30 KCAL/MOL
REMARK 922        TOTAL FREE ENERGY PREDICTED BY IDOCK:   -6.74 KCAL/MOL
REMARK 923 INTER-LIGAND FREE ENERGY PREDICTED BY IDOCK:   -6.14 KCAL/MOL
REMARK 924 INTRA-LIGAND FREE ENERGY PREDICTED BY IDOCK:   -0.60 KCAL/MOL
REMARK 927      BINDING AFFINITY PREDICTED BY RF-SCORE:    0.00 PKD
ROOT
HETATM    1  C   UNL     1      -6.799  17.946  69.022  1.00  0.00    -0.242 C  
HETATM    2  C   UNL     1      -7.478  19.075  68.265  1.00  0.00    -0.325 C  
ENDROOT
BRANCH   2   3
HETATM    3  C   UNL     1      -8.965  19.153  68.600  1.00  0.00    -0.411 C  
BRANCH   3   4
HETATM    4  C   UNL     1      -9.811  18.547  67.480  1.00  0.00    -0.330 C  
BRANCH   4   5
HETATM    5  C   UNL     1     -10.816  17.542  68.064  1.00  0.00    -0.258 C  
BRANCH   5   6
HETATM    6  N   UNL     1     -10.217  16.502  68.929  1.00  0.00    -0.250 NA 
HETATM    7  C   UNL     1     -11.095  16.203  70.071  1.00  0.00    -0.363 C  
BRANCH   6   8
HETATM    8  C   UNL     1     -10.014  15.250  68.164  1.00  0.00    -0.221 C  
BRANCH   8   9
HETATM    9  C   UNL     1     -11.298  14.667  67.558  1.00  0.00    -0.361 C  
BRANCH   9  10
HETATM   10  C   UNL     1     -11.100  13.413  66.656  1.00  0.00    -0.295 C  
HETATM   11  P   UNL     1      -9.506  12.672  67.164  1.00  0.00    -0.227 P  
HETATM   12  P   UNL     1     -11.154  13.842  64.870  1.00  0.00    -0.402 P  
HETATM   13  O   UNL     1     -12.205  12.486  66.933  1.00  0.00    -0.511 OA 
HETATM   14  O   UNL     1     -10.422  15.263  64.716  1.00  0.00    -0.357 OA 
HETATM   15  O   UNL     1     -10.713  12.901  63.802  1.00  0.00    -0.397 OA 
HETATM   16  O   UNL     1     -12.688  14.256  64.599  1.00  0.00    -0.655 OA 
HETATM   17  O   UNL     1     -10.335  11.906  68.384  1.00  0.00    -0.198 OA 
HETATM   18  O   UNL     1      -9.740  11.453  66.093  1.00  0.00    -0.205 OA 
HETATM   19  O   UNL     1      -8.158  12.044  67.594  1.00  0.00    -0.136 OA 
HETATM   20  H   UNL     1     -12.084  11.721  66.382  1.00  0.00     0.000 HD 
ENDBRANCH   9  10
ENDBRANCH   8   9
ENDBRANCH   6   8
ENDBRANCH   5   6
ENDBRANCH   4   5
ENDBRANCH   3   4
ENDBRANCH   2   3
TORSDOF 7
ENDMDL
MODEL       64
REMARK 921   NORMALIZED FREE ENERGY PREDICTED BY IDOCK:   -4.30 KCAL/MOL
REMARK 922        TOTAL FREE ENERGY PREDICTED BY IDOCK:   -6.74 KCAL/MOL
REMARK 923 INTER-LIGAND FREE ENERGY PREDICTED BY IDOCK:   -5.98 KCAL/MOL
REMARK 924 INTRA-LIGAND FREE ENERGY PREDICTED BY IDOCK:   -0.76 KCAL/MOL
REMARK 927      BINDING AFFINITY PREDICTED BY RF-SCORE:    0.00 PKD
ROOT
HETATM    1  C   UNL     1     -11.918  10.605  70.637  1.00  0.00    -0.466 C  
HETATM    2  C   UNL     1     -10.694   9.728  70.438  1.00  0.00    -0.368 C  
ENDROOT
BRANCH   2   3
HETATM    3  C   UNL     1     -10.718   9.040  69.076  1.00  0.00    -0.163 C  
BRANCH   3   4
HETATM    4  C   UNL     1      -9.553   9.509  68.204  1.00  0.00    -0.153 C  
BRANCH   4   5
HETATM    5  C   UNL     1      -8.730  10.569  68.952  1.00  0.00    -0.154 C  
BRANCH   5   6
HETATM    6  N   UNL     1      -8.477  11.808  68.185  1.00  0.00    -0.152 NA 
HETATM    7  C   UNL     1      -7.645  11.530  67.004  1.00  0.00    -0.154 C  
BRANCH   6   8
HETATM    8  C   UNL     1      -9.754  12.396  67.720  1.00  0.00    -0.201 C  
BRANCH   8   9
HETATM    9  C   UNL     1      -9.685  13.034  66.326  1.00  0.00    -0.265 C  
BRANCH   9  10
HETATM   10  C   UNL     1     -10.917  12.774  65.410  1.00  0.00    -0.283 C  
HETATM   11  P   UNL     1     -10.278  11.894  63.939  1.00  0.00    -0.432 P  
HETATM   12  P   UNL     1     -11.794  14.333  64.988  1.00  0.00    -0.433 P  
HETATM   13  O   UNL     1     -11.851  11.916  66.152  1.00  0.00    -0.528 OA 
HETATM   14  O   UNL     1     -10.664  15.455  64.784  1.00  0.00    -0.415 OA 
HETATM   15  O   UNL     1     -12.820  14.413  63.910  1.00  0.00    -0.655 OA 
HETATM   16  O   UNL     1     -12.457  14.813  66.376  1.00  0.00    -0.088 OA 
HETATM   17  O   UNL     1     -10.390  10.490  64.821  1.00  0.00    -0.339 OA 
HETATM   18  O   UNL     1     -11.805  11.776  63.354  1.00  0.00    -0.453 OA 
HETATM   19  O   UNL     1      -9.736  11.149  62.694  1.00  0.00    -0.281 OA 
HETATM   20  H   UNL     1     -12.603  11.758  65.593  1.00  0.00     0.000 HD 
ENDBRANCH   9  10
ENDBRANCH   8   9
ENDBRANCH   6   8
ENDBRANCH   5   6
ENDBRANCH   4   5
ENDBRANCH   3   4
ENDBRANCH   2   3
TORSDOF 7
ENDMDL
MODEL       65
REMARK 921   NORMALIZED FREE ENERGY PREDICTED BY IDOCK:   -4.28 KCAL/MOL
REMARK 922        TOTAL FREE ENERGY PREDICTED BY IDOCK:   -6.71 KCAL/MOL
REMARK 923 INTER-LIGAND FREE ENERGY PREDICTED BY IDOCK:   -6.03 KCAL/MOL
REMARK 924 INTRA-LIGAND FREE ENERGY PREDICTED BY IDOCK:   -0.68 KCAL/MOL
REMARK 927      BINDING AFFINITY PREDICTED BY RF-SCORE:    0.00 PKD
ROOT
HETATM    1  C   UNL     1     -10.672   9.606  67.126  1.00  0.00    -0.258 C  
HETATM    2  C   UNL     1     -11.348  10.521  68.133  1.00  0.00    -0.324 C  
ENDROOT
BRANCH   2   3
HETATM    3  C   UNL     1     -11.311  11.976  67.673  1.00  0.00    -0.375 C  
BRANCH   3   4
HETATM    4  C   UNL     1     -11.390  12.071  66.149  1.00  0.00    -0.407 C  
BRANCH   4   5
HETATM    5  C   UNL     1     -10.262  12.972  65.619  1.00  0.00    -0.287 C  
BRANCH   5   6
HETATM    6  N   UNL     1     -10.665  13.888  64.530  1.00  0.00    -0.405 NA 
HETATM    7  C   UNL     1     -12.058  13.636  64.126  1.00  0.00    -0.435 C  
BRANCH   6   8
HETATM    8  C   UNL     1     -10.563  15.296  64.976  1.00  0.00    -0.418 C  
BRANCH   8   9
HETATM    9  C   UNL     1      -9.438  15.557  65.987  1.00  0.00    -0.387 C  
BRANCH   9  10
HETATM   10  C   UNL     1      -9.699  16.717  66.992  1.00  0.00    -0.251 C  
HETATM   11  P   UNL     1      -8.090  17.555  67.227  1.00  0.00    -0.214 P  
HETATM   12  P   UNL     1     -10.425  16.106  68.566  1.00  0.00    -0.305 P  
HETATM   13  O   UNL     1     -10.666  17.634  66.373  1.00  0.00    -0.239 OA 
HETATM   14  O   UNL     1      -9.718  14.700  68.883  1.00  0.00    -0.216 OA 
HETATM   15  O   UNL     1     -10.508  16.946  69.794  1.00  0.00    -0.225 OA 
HETATM   16  O   UNL     1     -11.909  15.620  68.166  1.00  0.00    -0.286 OA 
HETATM   17  O   UNL     1      -8.420  18.416  65.844  1.00  0.00    -0.497 OA 
HETATM   18  O   UNL     1      -8.811  18.650  68.210  1.00  0.00    -0.307 OA 
HETATM   19  O   UNL     1      -6.728  18.264  67.424  1.00  0.00    -0.191 OA 
HETATM   20  H   UNL     1     -10.826  18.342  66.986  1.00  0.00     0.000 HD 
ENDBRANCH   9  10
ENDBRANCH   8   9
ENDBRANCH   6   8
ENDBRANCH   5   6
ENDBRANCH   4   5
ENDBRANCH   3   4
ENDBRANCH   2   3
TORSDOF 7
ENDMDL
MODEL       66
REMARK 921   NORMALIZED FREE ENERGY PREDICTED BY IDOCK:   -4.27 KCAL/MOL
REMARK 922        TOTAL FREE ENERGY PREDICTED BY IDOCK:   -6.70 KCAL/MOL
REMARK 923 INTER-LIGAND FREE ENERGY PREDICTED BY IDOCK:   -6.20 KCAL/MOL
REMARK 924 INTRA-LIGAND FREE ENERGY PREDICTED BY IDOCK:   -0.49 KCAL/MOL
REMARK 927      BINDING AFFINITY PREDICTED BY RF-SCORE:    0.00 PKD
ROOT
HETATM    1  C   UNL     1     -12.036  10.575  70.405  1.00  0.00    -0.425 C  
HETATM    2  C   UNL     1     -11.207  11.195  69.292  1.00  0.00    -0.331 C  
ENDROOT
BRANCH   2   3
HETATM    3  C   UNL     1     -11.822  12.504  68.805  1.00  0.00    -0.347 C  
BRANCH   3   4
HETATM    4  C   UNL     1     -11.899  12.539  67.279  1.00  0.00    -0.381 C  
BRANCH   4   5
HETATM    5  C   UNL     1     -11.828  13.991  66.781  1.00  0.00    -0.424 C  
BRANCH   5   6
HETATM    6  N   UNL     1     -10.782  14.244  65.765  1.00  0.00    -0.295 NA 
HETATM    7  C   UNL     1     -11.211  15.290  64.824  1.00  0.00    -0.396 C  
BRANCH   6   8
HETATM    8  C   UNL     1      -9.531  14.695  66.415  1.00  0.00    -0.299 C  
BRANCH   8   9
HETATM    9  C   UNL     1      -9.127  16.136  66.075  1.00  0.00    -0.354 C  
BRANCH   9  10
HETATM   10  C   UNL     1      -8.559  16.968  67.262  1.00  0.00    -0.195 C  
HETATM   11  P   UNL     1      -9.710  18.372  67.493  1.00  0.00    -0.321 P  
HETATM   12  P   UNL     1      -6.828  17.504  66.953  1.00  0.00    -0.228 P  
HETATM   13  O   UNL     1      -8.560  16.107  68.452  1.00  0.00    -0.176 OA 
HETATM   14  O   UNL     1      -6.732  17.865  65.391  1.00  0.00    -0.362 OA 
HETATM   15  O   UNL     1      -6.147  18.540  67.779  1.00  0.00    -0.185 OA 
HETATM   16  O   UNL     1      -5.967  16.144  67.007  1.00  0.00    -0.322 OA 
HETATM   17  O   UNL     1     -10.654  17.352  68.403  1.00  0.00    -0.367 OA 
HETATM   18  O   UNL     1      -8.826  18.876  68.778  1.00  0.00    -0.339 OA 
HETATM   19  O   UNL     1     -10.684  19.558  67.688  1.00  0.00    -0.457 OA 
HETATM   20  H   UNL     1      -8.213  16.614  69.176  1.00  0.00     0.000 HD 
ENDBRANCH   9  10
ENDBRANCH   8   9
ENDBRANCH   6   8
ENDBRANCH   5   6
ENDBRANCH   4   5
ENDBRANCH   3   4
ENDBRANCH   2   3
TORSDOF 7
ENDMDL
MODEL       67
REMARK 921   NORMALIZED FREE ENERGY PREDICTED BY IDOCK:   -4.27 KCAL/MOL
REMARK 922        TOTAL FREE ENERGY PREDICTED BY IDOCK:   -6.70 KCAL/MOL
REMARK 923 INTER-LIGAND FREE ENERGY PREDICTED BY IDOCK:   -5.99 KCAL/MOL
REMARK 924 INTRA-LIGAND FREE ENERGY PREDICTED BY IDOCK:   -0.70 KCAL/MOL
REMARK 927      BINDING AFFINITY PREDICTED BY RF-SCORE:    0.00 PKD
ROOT
HETATM    1  C   UNL     1     -12.245  14.026  64.092  1.00  0.00    -0.433 C  
HETATM    2  C   UNL     1     -12.162  12.550  63.743  1.00  0.00    -0.615 C  
ENDROOT
BRANCH   2   3
HETATM    3  C   UNL     1     -10.718  12.112  63.518  1.00  0.00    -0.509 C  
BRANCH   3   4
HETATM    4  C   UNL     1     -10.451  10.752  64.163  1.00  0.00    -0.309 C  
BRANCH   4   5
HETATM    5  C   UNL     1      -9.749  10.939  65.517  1.00  0.00    -0.233 C  
BRANCH   5   6
HETATM    6  N   UNL     1     -10.647  11.314  66.630  1.00  0.00    -0.252 NA 
HETATM    7  C   UNL     1     -10.847  10.178  67.544  1.00  0.00    -0.290 C  
BRANCH   6   8
HETATM    8  C   UNL     1     -10.066  12.433  67.407  1.00  0.00    -0.201 C  
BRANCH   8   9
HETATM    9  C   UNL     1     -10.987  13.653  67.542  1.00  0.00    -0.282 C  
BRANCH   9  10
HETATM   10  C   UNL     1     -10.472  14.776  68.490  1.00  0.00    -0.249 C  
HETATM   11  P   UNL     1     -11.888  15.224  69.559  1.00  0.00    -0.335 P  
HETATM   12  P   UNL     1      -9.802  16.207  67.551  1.00  0.00    -0.244 P  
HETATM   13  O   UNL     1      -9.382  14.214  69.297  1.00  0.00    -0.393 OA 
HETATM   14  O   UNL     1     -10.742  16.391  66.262  1.00  0.00    -0.266 OA 
HETATM   15  O   UNL     1      -9.513  17.523  68.188  1.00  0.00    -0.272 OA 
HETATM   16  O   UNL     1      -8.453  15.649  66.870  1.00  0.00    -0.206 OA 
HETATM   17  O   UNL     1     -11.467  13.942  70.528  1.00  0.00    -0.130 OA 
HETATM   18  O   UNL     1     -10.935  16.286  70.365  1.00  0.00    -0.337 OA 
HETATM   19  O   UNL     1     -13.086  15.602  70.463  1.00  0.00    -0.436 OA 
HETATM   20  H   UNL     1      -9.068  14.899  69.875  1.00  0.00     0.000 HD 
ENDBRANCH   9  10
ENDBRANCH   8   9
ENDBRANCH   6   8
ENDBRANCH   5   6
ENDBRANCH   4   5
ENDBRANCH   3   4
ENDBRANCH   2   3
TORSDOF 7
ENDMDL
MODEL       68
REMARK 921   NORMALIZED FREE ENERGY PREDICTED BY IDOCK:   -4.26 KCAL/MOL
REMARK 922        TOTAL FREE ENERGY PREDICTED BY IDOCK:   -6.69 KCAL/MOL
REMARK 923 INTER-LIGAND FREE ENERGY PREDICTED BY IDOCK:   -6.11 KCAL/MOL
REMARK 924 INTRA-LIGAND FREE ENERGY PREDICTED BY IDOCK:   -0.58 KCAL/MOL
REMARK 927      BINDING AFFINITY PREDICTED BY RF-SCORE:    0.00 PKD
ROOT
HETATM    1  C   UNL     1     -14.002  15.113  72.154  1.00  0.00    -0.635 C  
HETATM    2  C   UNL     1     -14.155  13.629  72.441  1.00  0.00    -0.586 C  
ENDROOT
BRANCH   2   3
HETATM    3  C   UNL     1     -13.061  12.815  71.755  1.00  0.00    -0.455 C  
BRANCH   3   4
HETATM    4  C   UNL     1     -13.318  11.316  71.905  1.00  0.00    -0.413 C  
BRANCH   4   5
HETATM    5  C   UNL     1     -12.595  10.543  70.791  1.00  0.00    -0.382 C  
BRANCH   5   6
HETATM    6  N   UNL     1     -11.340   9.883  71.213  1.00  0.00    -0.368 NA 
HETATM    7  C   UNL     1     -11.621   8.764  72.126  1.00  0.00    -0.364 C  
BRANCH   6   8
HETATM    8  C   UNL     1     -10.619   9.347  70.036  1.00  0.00    -0.235 C  
BRANCH   8   9
HETATM    9  C   UNL     1     -11.095   9.914  68.692  1.00  0.00    -0.182 C  
BRANCH   9  10
HETATM   10  C   UNL     1     -10.179  11.007  68.067  1.00  0.00    -0.179 C  
HETATM   11  P   UNL     1     -11.300  12.320  67.462  1.00  0.00    -0.362 P  
HETATM   12  P   UNL     1      -9.101  10.320  66.747  1.00  0.00    -0.145 P  
HETATM   13  O   UNL     1      -9.313  11.527  69.134  1.00  0.00    -0.405 OA 
HETATM   14  O   UNL     1      -9.979   9.233  65.956  1.00  0.00    -0.290 OA 
HETATM   15  O   UNL     1      -8.344  11.182  65.796  1.00  0.00    -0.140 OA 
HETATM   16  O   UNL     1      -8.062   9.367  67.527  1.00  0.00    -0.108 OA 
HETATM   17  O   UNL     1     -11.303  12.928  69.008  1.00  0.00    -0.261 OA 
HETATM   18  O   UNL     1     -10.000  13.206  67.000  1.00  0.00    -0.235 OA 
HETATM   19  O   UNL     1     -12.248  13.432  66.950  1.00  0.00    -0.365 OA 
HETATM   20  H   UNL     1      -8.754  12.193  68.752  1.00  0.00     0.000 HD 
ENDBRANCH   9  10
ENDBRANCH   8   9
ENDBRANCH   6   8
ENDBRANCH   5   6
ENDBRANCH   4   5
ENDBRANCH   3   4
ENDBRANCH   2   3
TORSDOF 7
ENDMDL
MODEL       69
REMARK 921   NORMALIZED FREE ENERGY PREDICTED BY IDOCK:   -4.25 KCAL/MOL
REMARK 922        TOTAL FREE ENERGY PREDICTED BY IDOCK:   -6.67 KCAL/MOL
REMARK 923 INTER-LIGAND FREE ENERGY PREDICTED BY IDOCK:   -6.09 KCAL/MOL
REMARK 924 INTRA-LIGAND FREE ENERGY PREDICTED BY IDOCK:   -0.58 KCAL/MOL
REMARK 927      BINDING AFFINITY PREDICTED BY RF-SCORE:    0.00 PKD
ROOT
HETATM    1  C   UNL     1     -13.917  15.230  71.603  1.00  0.00    -0.627 C  
HETATM    2  C   UNL     1     -13.746  13.889  72.295  1.00  0.00    -0.660 C  
ENDROOT
BRANCH   2   3
HETATM    3  C   UNL     1     -12.791  12.982  71.523  1.00  0.00    -0.386 C  
BRANCH   3   4
HETATM    4  C   UNL     1     -12.990  11.517  71.913  1.00  0.00    -0.453 C  
BRANCH   4   5
HETATM    5  C   UNL     1     -12.723  10.609  70.703  1.00  0.00    -0.359 C  
BRANCH   5   6
HETATM    6  N   UNL     1     -11.502  10.945  69.938  1.00  0.00    -0.296 NA 
HETATM    7  C   UNL     1     -10.656   9.755  69.757  1.00  0.00    -0.257 C  
BRANCH   6   8
HETATM    8  C   UNL     1     -11.860  11.463  68.598  1.00  0.00    -0.310 C  
BRANCH   8   9
HETATM    9  C   UNL     1     -10.710  11.433  67.582  1.00  0.00    -0.261 C  
BRANCH   9  10
HETATM   10  C   UNL     1      -9.777  12.679  67.592  1.00  0.00    -0.197 C  
HETATM   11  P   UNL     1     -10.258  13.683  66.140  1.00  0.00    -0.314 P  
HETATM   12  P   UNL     1      -8.002  12.203  67.578  1.00  0.00    -0.184 P  
HETATM   13  O   UNL     1     -10.037  13.421  68.833  1.00  0.00    -0.410 OA 
HETATM   14  O   UNL     1      -7.879  10.917  66.624  1.00  0.00    -0.133 OA 
HETATM   15  O   UNL     1      -6.910  13.177  67.297  1.00  0.00    -0.139 OA 
HETATM   16  O   UNL     1      -7.750  11.538  69.024  1.00  0.00    -0.113 OA 
HETATM   17  O   UNL     1     -11.464  14.333  67.081  1.00  0.00    -0.324 OA 
HETATM   18  O   UNL     1      -9.160  14.820  66.571  1.00  0.00    -0.265 OA 
HETATM   19  O   UNL     1     -10.666  14.532  64.911  1.00  0.00    -0.396 OA 
HETATM   20  H   UNL     1      -9.468  14.181  68.839  1.00  0.00     0.000 HD 
ENDBRANCH   9  10
ENDBRANCH   8   9
ENDBRANCH   6   8
ENDBRANCH   5   6
ENDBRANCH   4   5
ENDBRANCH   3   4
ENDBRANCH   2   3
TORSDOF 7
ENDMDL
MODEL       70
REMARK 921   NORMALIZED FREE ENERGY PREDICTED BY IDOCK:   -4.25 KCAL/MOL
REMARK 922        TOTAL FREE ENERGY PREDICTED BY IDOCK:   -6.67 KCAL/MOL
REMARK 923 INTER-LIGAND FREE ENERGY PREDICTED BY IDOCK:   -6.13 KCAL/MOL
REMARK 924 INTRA-LIGAND FREE ENERGY PREDICTED BY IDOCK:   -0.53 KCAL/MOL
REMARK 927      BINDING AFFINITY PREDICTED BY RF-SCORE:    0.00 PKD
ROOT
HETATM    1  C   UNL     1     -12.126  16.133  72.622  1.00  0.00    -0.652 C  
HETATM    2  C   UNL     1     -12.940  15.008  73.239  1.00  0.00    -0.642 C  
ENDROOT
BRANCH   2   3
HETATM    3  C   UNL     1     -13.839  14.340  72.202  1.00  0.00    -0.589 C  
BRANCH   3   4
HETATM    4  C   UNL     1     -13.627  12.826  72.188  1.00  0.00    -0.547 C  
BRANCH   4   5
HETATM    5  C   UNL     1     -12.742  12.429  70.996  1.00  0.00    -0.223 C  
BRANCH   5   6
HETATM    6  N   UNL     1     -12.246  11.036  71.033  1.00  0.00    -0.361 NA 
HETATM    7  C   UNL     1     -13.279  10.129  71.557  1.00  0.00    -0.399 C  
BRANCH   6   8
HETATM    8  C   UNL     1     -11.882  10.582  69.672  1.00  0.00    -0.234 C  
BRANCH   8   9
HETATM    9  C   UNL     1     -10.396  10.243  69.496  1.00  0.00    -0.267 C  
BRANCH   9  10
HETATM   10  C   UNL     1     -10.021   8.748  69.715  1.00  0.00    -0.190 C  
HETATM   11  P   UNL     1      -8.790   8.729  71.069  1.00  0.00    -0.241 P  
HETATM   12  P   UNL     1      -9.401   7.966  68.172  1.00  0.00    -0.143 P  
HETATM   13  O   UNL     1     -11.240   8.038  70.124  1.00  0.00    -0.367 OA 
HETATM   14  O   UNL     1      -8.523   9.077  67.415  1.00  0.00    -0.115 OA 
HETATM   15  O   UNL     1      -8.711   6.646  68.159  1.00  0.00    -0.119 OA 
HETATM   16  O   UNL     1     -10.693   7.889  67.211  1.00  0.00    -0.301 OA 
HETATM   17  O   UNL     1     -10.067   8.769  72.131  1.00  0.00    -0.320 OA 
HETATM   18  O   UNL     1      -8.755   7.091  71.003  1.00  0.00    -0.137 OA 
HETATM   19  O   UNL     1      -7.749   8.712  72.214  1.00  0.00    -0.287 OA 
HETATM   20  H   UNL     1     -11.012   7.126  70.258  1.00  0.00     0.000 HD 
ENDBRANCH   9  10
ENDBRANCH   8   9
ENDBRANCH   6   8
ENDBRANCH   5   6
ENDBRANCH   4   5
ENDBRANCH   3   4
ENDBRANCH   2   3
TORSDOF 7
ENDMDL
MODEL       71
REMARK 921   NORMALIZED FREE ENERGY PREDICTED BY IDOCK:   -4.23 KCAL/MOL
REMARK 922        TOTAL FREE ENERGY PREDICTED BY IDOCK:   -6.64 KCAL/MOL
REMARK 923 INTER-LIGAND FREE ENERGY PREDICTED BY IDOCK:   -6.29 KCAL/MOL
REMARK 924 INTRA-LIGAND FREE ENERGY PREDICTED BY IDOCK:   -0.35 KCAL/MOL
REMARK 927      BINDING AFFINITY PREDICTED BY RF-SCORE:    0.00 PKD
ROOT
HETATM    1  C   UNL     1     -11.852  12.706  63.375  1.00  0.00    -0.594 C  
HETATM    2  C   UNL     1     -12.478  12.655  64.759  1.00  0.00    -0.555 C  
ENDROOT
BRANCH   2   3
HETATM    3  C   UNL     1     -12.459  14.027  65.428  1.00  0.00    -0.520 C  
BRANCH   3   4
HETATM    4  C   UNL     1     -11.302  14.877  64.901  1.00  0.00    -0.415 C  
BRANCH   4   5
HETATM    5  C   UNL     1     -10.679  15.688  66.049  1.00  0.00    -0.317 C  
BRANCH   5   6
HETATM    6  N   UNL     1      -9.846  16.831  65.615  1.00  0.00    -0.572 NA 
HETATM    7  C   UNL     1     -10.481  18.107  65.980  1.00  0.00    -0.335 C  
BRANCH   6   8
HETATM    8  C   UNL     1      -8.517  16.776  66.265  1.00  0.00    -0.307 C  
BRANCH   8   9
HETATM    9  C   UNL     1      -7.714  18.080  66.170  1.00  0.00    -0.266 C  
BRANCH   9  10
HETATM   10  C   UNL     1      -6.668  18.303  67.301  1.00  0.00    -0.195 C  
HETATM   11  P   UNL     1      -6.418  16.671  68.088  1.00  0.00    -0.147 P  
HETATM   12  P   UNL     1      -7.213  19.596  68.489  1.00  0.00    -0.313 P  
HETATM   13  O   UNL     1      -5.422  18.763  66.672  1.00  0.00    -0.146 OA 
HETATM   14  O   UNL     1      -8.798  19.417  68.666  1.00  0.00    -0.369 OA 
HETATM   15  O   UNL     1      -6.552  19.807  69.808  1.00  0.00    -0.338 OA 
HETATM   16  O   UNL     1      -7.151  20.970  67.649  1.00  0.00    -0.327 OA 
HETATM   17  O   UNL     1      -5.329  16.336  66.878  1.00  0.00    -0.343 OA 
HETATM   18  O   UNL     1      -5.285  17.328  69.074  1.00  0.00    -0.147 OA 
HETATM   19  O   UNL     1      -6.206  15.289  68.754  1.00  0.00    -0.089 OA 
HETATM   20  H   UNL     1      -4.784  18.899  67.363  1.00  0.00     0.000 HD 
ENDBRANCH   9  10
ENDBRANCH   8   9
ENDBRANCH   6   8
ENDBRANCH   5   6
ENDBRANCH   4   5
ENDBRANCH   3   4
ENDBRANCH   2   3
TORSDOF 7
ENDMDL
MODEL       72
REMARK 921   NORMALIZED FREE ENERGY PREDICTED BY IDOCK:   -4.22 KCAL/MOL
REMARK 922        TOTAL FREE ENERGY PREDICTED BY IDOCK:   -6.62 KCAL/MOL
REMARK 923 INTER-LIGAND FREE ENERGY PREDICTED BY IDOCK:   -5.50 KCAL/MOL
REMARK 924 INTRA-LIGAND FREE ENERGY PREDICTED BY IDOCK:   -1.13 KCAL/MOL
REMARK 927      BINDING AFFINITY PREDICTED BY RF-SCORE:    0.00 PKD
ROOT
HETATM    1  C   UNL     1     -12.147  12.101  63.486  1.00  0.00    -0.649 C  
HETATM    2  C   UNL     1     -12.512  12.675  64.844  1.00  0.00    -0.564 C  
ENDROOT
BRANCH   2   3
HETATM    3  C   UNL     1     -12.113  14.145  64.951  1.00  0.00    -0.438 C  
BRANCH   3   4
HETATM    4  C   UNL     1     -11.604  14.473  66.355  1.00  0.00    -0.370 C  
BRANCH   4   5
HETATM    5  C   UNL     1     -12.205  13.494  67.376  1.00  0.00    -0.235 C  
BRANCH   5   6
HETATM    6  N   UNL     1     -11.517  13.469  68.685  1.00  0.00    -0.285 NA 
HETATM    7  C   UNL     1     -12.068  14.496  69.583  1.00  0.00    -0.323 C  
BRANCH   6   8
HETATM    8  C   UNL     1     -11.693  12.149  69.334  1.00  0.00    -0.329 C  
BRANCH   8   9
HETATM    9  C   UNL     1     -11.505  10.953  68.391  1.00  0.00    -0.374 C  
BRANCH   9  10
HETATM   10  C   UNL     1     -10.042  10.440  68.248  1.00  0.00    -0.153 C  
HETATM   11  P   UNL     1      -9.790  10.125  66.463  1.00  0.00    -0.235 P  
HETATM   12  P   UNL     1      -9.734   8.955  69.287  1.00  0.00    -0.173 P  
HETATM   13  O   UNL     1      -9.146  11.509  68.709  1.00  0.00    -0.316 OA 
HETATM   14  O   UNL     1     -11.074   8.072  69.234  1.00  0.00    -0.043 OA 
HETATM   15  O   UNL     1      -8.527   8.097  69.128  1.00  0.00    -0.132 OA 
HETATM   16  O   UNL     1      -9.789   9.504  70.802  1.00  0.00    -0.272 OA 
HETATM   17  O   UNL     1      -9.446  11.742  66.302  1.00  0.00    -0.214 OA 
HETATM   18  O   UNL     1      -8.232   9.713  66.763  1.00  0.00    -0.112 OA 
HETATM   19  O   UNL     1      -9.576   9.859  64.953  1.00  0.00    -0.281 OA 
HETATM   20  H   UNL     1      -8.254  11.195  68.621  1.00  0.00     0.000 HD 
ENDBRANCH   9  10
ENDBRANCH   8   9
ENDBRANCH   6   8
ENDBRANCH   5   6
ENDBRANCH   4   5
ENDBRANCH   3   4
ENDBRANCH   2   3
TORSDOF 7
ENDMDL
MODEL       73
REMARK 921   NORMALIZED FREE ENERGY PREDICTED BY IDOCK:   -4.21 KCAL/MOL
REMARK 922        TOTAL FREE ENERGY PREDICTED BY IDOCK:   -6.61 KCAL/MOL
REMARK 923 INTER-LIGAND FREE ENERGY PREDICTED BY IDOCK:   -6.02 KCAL/MOL
REMARK 924 INTRA-LIGAND FREE ENERGY PREDICTED BY IDOCK:   -0.59 KCAL/MOL
REMARK 927      BINDING AFFINITY PREDICTED BY RF-SCORE:    0.00 PKD
ROOT
HETATM    1  C   UNL     1     -12.249  14.504  64.513  1.00  0.00    -0.483 C  
HETATM    2  C   UNL     1     -12.480  13.026  64.777  1.00  0.00    -0.485 C  
ENDROOT
BRANCH   2   3
HETATM    3  C   UNL     1     -12.233  12.193  63.522  1.00  0.00    -0.670 C  
BRANCH   3   4
HETATM    4  C   UNL     1     -10.742  11.908  63.338  1.00  0.00    -0.476 C  
BRANCH   4   5
HETATM    5  C   UNL     1     -10.126  11.446  64.668  1.00  0.00    -0.280 C  
BRANCH   5   6
HETATM    6  N   UNL     1      -9.977   9.981  64.803  1.00  0.00    -0.278 NA 
HETATM    7  C   UNL     1      -8.850   9.494  63.992  1.00  0.00    -0.212 C  
BRANCH   6   8
HETATM    8  C   UNL     1      -9.719   9.617  66.215  1.00  0.00    -0.240 C  
BRANCH   8   9
HETATM    9  C   UNL     1      -9.259  10.787  67.094  1.00  0.00    -0.160 C  
BRANCH   9  10
HETATM   10  C   UNL     1      -9.649  10.686  68.598  1.00  0.00    -0.179 C  
HETATM   11  P   UNL     1      -9.825   8.901  68.956  1.00  0.00    -0.190 P  
HETATM   12  P   UNL     1     -11.171  11.646  68.973  1.00  0.00    -0.295 P  
HETATM   13  O   UNL     1      -8.548  11.258  69.384  1.00  0.00    -0.370 OA 
HETATM   14  O   UNL     1     -12.148  11.469  67.711  1.00  0.00    -0.626 OA 
HETATM   15  O   UNL     1     -11.924  11.495  70.250  1.00  0.00    -0.333 OA 
HETATM   16  O   UNL     1     -10.730  13.187  68.806  1.00  0.00    -0.249 OA 
HETATM   17  O   UNL     1      -8.179   8.858  69.179  1.00  0.00    -0.114 OA 
HETATM   18  O   UNL     1     -10.137   9.254  70.526  1.00  0.00    -0.217 OA 
HETATM   19  O   UNL     1      -9.973   7.390  69.259  1.00  0.00    -0.166 OA 
HETATM   20  H   UNL     1      -8.787  11.197  70.302  1.00  0.00     0.000 HD 
ENDBRANCH   9  10
ENDBRANCH   8   9
ENDBRANCH   6   8
ENDBRANCH   5   6
ENDBRANCH   4   5
ENDBRANCH   3   4
ENDBRANCH   2   3
TORSDOF 7
ENDMDL
MODEL       74
REMARK 921   NORMALIZED FREE ENERGY PREDICTED BY IDOCK:   -4.20 KCAL/MOL
REMARK 922        TOTAL FREE ENERGY PREDICTED BY IDOCK:   -6.61 KCAL/MOL
REMARK 923 INTER-LIGAND FREE ENERGY PREDICTED BY IDOCK:   -5.80 KCAL/MOL
REMARK 924 INTRA-LIGAND FREE ENERGY PREDICTED BY IDOCK:   -0.81 KCAL/MOL
REMARK 927      BINDING AFFINITY PREDICTED BY RF-SCORE:    0.00 PKD
ROOT
HETATM    1  C   UNL     1     -12.284  13.299  63.241  1.00  0.00    -0.387 C  
HETATM    2  C   UNL     1     -11.931  11.865  63.599  1.00  0.00    -0.578 C  
ENDROOT
BRANCH   2   3
HETATM    3  C   UNL     1     -10.437  11.712  63.871  1.00  0.00    -0.433 C  
BRANCH   3   4
HETATM    4  C   UNL     1     -10.154  10.442  64.673  1.00  0.00    -0.378 C  
BRANCH   4   5
HETATM    5  C   UNL     1      -9.540  10.804  66.034  1.00  0.00    -0.201 C  
BRANCH   5   6
HETATM    6  N   UNL     1     -10.373  11.699  66.867  1.00  0.00    -0.214 NA 
HETATM    7  C   UNL     1     -11.128  10.927  67.867  1.00  0.00    -0.302 C  
BRANCH   6   8
HETATM    8  C   UNL     1      -9.522  12.674  67.586  1.00  0.00    -0.189 C  
BRANCH   8   9
HETATM    9  C   UNL     1      -9.003  13.823  66.711  1.00  0.00    -0.202 C  
BRANCH   9  10
HETATM   10  C   UNL     1      -9.477  15.247  67.128  1.00  0.00    -0.214 C  
HETATM   11  P   UNL     1     -10.328  15.944  65.665  1.00  0.00    -0.376 P  
HETATM   12  P   UNL     1      -8.079  16.289  67.707  1.00  0.00    -0.156 P  
HETATM   13  O   UNL     1     -10.421  15.094  68.243  1.00  0.00    -0.234 OA 
HETATM   14  O   UNL     1      -6.820  15.928  66.778  1.00  0.00    -0.243 OA 
HETATM   15  O   UNL     1      -8.196  17.763  67.891  1.00  0.00    -0.227 OA 
HETATM   16  O   UNL     1      -7.630  15.623  69.105  1.00  0.00    -0.174 OA 
HETATM   17  O   UNL     1     -11.689  15.131  66.162  1.00  0.00    -0.174 OA 
HETATM   18  O   UNL     1     -10.687  17.292  66.527  1.00  0.00    -0.221 OA 
HETATM   19  O   UNL     1     -11.049  16.533  64.429  1.00  0.00    -0.894 OA 
HETATM   20  H   UNL     1     -10.710  15.962  68.497  1.00  0.00     0.000 HD 
ENDBRANCH   9  10
ENDBRANCH   8   9
ENDBRANCH   6   8
ENDBRANCH   5   6
ENDBRANCH   4   5
ENDBRANCH   3   4
ENDBRANCH   2   3
TORSDOF 7
ENDMDL
MODEL       75
REMARK 921   NORMALIZED FREE ENERGY PREDICTED BY IDOCK:   -4.20 KCAL/MOL
REMARK 922        TOTAL FREE ENERGY PREDICTED BY IDOCK:   -6.60 KCAL/MOL
REMARK 923 INTER-LIGAND FREE ENERGY PREDICTED BY IDOCK:   -6.25 KCAL/MOL
REMARK 924 INTRA-LIGAND FREE ENERGY PREDICTED BY IDOCK:   -0.35 KCAL/MOL
REMARK 927      BINDING AFFINITY PREDICTED BY RF-SCORE:    0.00 PKD
ROOT
HETATM    1  C   UNL     1     -14.043  15.117  72.194  1.00  0.00    -0.654 C  
HETATM    2  C   UNL     1     -13.901  13.616  72.381  1.00  0.00    -0.691 C  
ENDROOT
BRANCH   2   3
HETATM    3  C   UNL     1     -12.836  13.039  71.452  1.00  0.00    -0.385 C  
BRANCH   3   4
HETATM    4  C   UNL     1     -12.908  11.512  71.418  1.00  0.00    -0.489 C  
BRANCH   4   5
HETATM    5  C   UNL     1     -11.806  10.953  70.505  1.00  0.00    -0.360 C  
BRANCH   5   6
HETATM    6  N   UNL     1     -10.952   9.919  71.130  1.00  0.00    -0.302 NA 
HETATM    7  C   UNL     1     -11.774   8.856  71.728  1.00  0.00    -0.362 C  
BRANCH   6   8
HETATM    8  C   UNL     1     -10.065   9.302  70.118  1.00  0.00    -0.213 C  
BRANCH   8   9
HETATM    9  C   UNL     1      -9.578  10.269  69.031  1.00  0.00    -0.210 C  
BRANCH   9  10
HETATM   10  C   UNL     1      -9.920   9.859  67.569  1.00  0.00    -0.185 C  
HETATM   11  P   UNL     1      -8.400   9.102  66.887  1.00  0.00    -0.120 P  
HETATM   12  P   UNL     1     -10.514  11.289  66.579  1.00  0.00    -0.262 P  
HETATM   13  O   UNL     1     -11.002   8.867  67.625  1.00  0.00    -0.493 OA 
HETATM   14  O   UNL     1      -9.649  12.560  67.045  1.00  0.00    -0.205 OA 
HETATM   15  O   UNL     1     -10.635  11.246  65.095  1.00  0.00    -0.290 OA 
HETATM   16  O   UNL     1     -11.952  11.649  67.211  1.00  0.00    -0.627 OA 
HETATM   17  O   UNL     1      -8.874   7.680  67.606  1.00  0.00    -0.125 OA 
HETATM   18  O   UNL     1      -9.194   8.785  65.488  1.00  0.00    -0.203 OA 
HETATM   19  O   UNL     1      -7.114   8.461  66.311  1.00  0.00    -0.075 OA 
HETATM   20  H   UNL     1     -11.211   8.617  66.733  1.00  0.00     0.000 HD 
ENDBRANCH   9  10
ENDBRANCH   8   9
ENDBRANCH   6   8
ENDBRANCH   5   6
ENDBRANCH   4   5
ENDBRANCH   3   4
ENDBRANCH   2   3
TORSDOF 7
ENDMDL
MODEL       76
REMARK 921   NORMALIZED FREE ENERGY PREDICTED BY IDOCK:   -4.19 KCAL/MOL
REMARK 922        TOTAL FREE ENERGY PREDICTED BY IDOCK:   -6.58 KCAL/MOL
REMARK 923 INTER-LIGAND FREE ENERGY PREDICTED BY IDOCK:   -5.90 KCAL/MOL
REMARK 924 INTRA-LIGAND FREE ENERGY PREDICTED BY IDOCK:   -0.69 KCAL/MOL
REMARK 927      BINDING AFFINITY PREDICTED BY RF-SCORE:    0.00 PKD
ROOT
HETATM    1  C   UNL     1     -12.158  14.098  64.395  1.00  0.00    -0.486 C  
HETATM    2  C   UNL     1     -12.114  12.995  63.351  1.00  0.00    -0.591 C  
ENDROOT
BRANCH   2   3
HETATM    3  C   UNL     1     -11.409  11.752  63.886  1.00  0.00    -0.494 C  
BRANCH   3   4
HETATM    4  C   UNL     1     -10.939  11.965  65.325  1.00  0.00    -0.354 C  
BRANCH   4   5
HETATM    5  C   UNL     1     -10.083  10.773  65.782  1.00  0.00    -0.261 C  
BRANCH   5   6
HETATM    6  N   UNL     1      -9.042  11.107  66.778  1.00  0.00    -0.162 NA 
HETATM    7  C   UNL     1      -9.372  12.360  67.477  1.00  0.00    -0.181 C  
BRANCH   6   8
HETATM    8  C   UNL     1      -8.932  10.032  67.790  1.00  0.00    -0.131 C  
BRANCH   8   9
HETATM    9  C   UNL     1      -9.401  10.435  69.194  1.00  0.00    -0.211 C  
BRANCH   9  10
HETATM   10  C   UNL     1     -10.667   9.692  69.714  1.00  0.00    -0.245 C  
HETATM   11  P   UNL     1     -11.827  10.995  70.267  1.00  0.00    -0.383 P  
HETATM   12  P   UNL     1     -10.254   8.490  71.042  1.00  0.00    -0.236 P  
HETATM   13  O   UNL     1     -11.239   8.943  68.588  1.00  0.00    -0.428 OA 
HETATM   14  O   UNL     1      -9.101   9.167  71.932  1.00  0.00    -0.354 OA 
HETATM   15  O   UNL     1     -11.290   7.860  71.908  1.00  0.00    -0.253 OA 
HETATM   16  O   UNL     1      -9.423   7.330  70.294  1.00  0.00    -0.165 OA 
HETATM   17  O   UNL     1     -12.315  11.128  68.684  1.00  0.00    -0.549 OA 
HETATM   18  O   UNL     1     -12.937   9.844  70.626  1.00  0.00    -0.244 OA 
HETATM   19  O   UNL     1     -12.808  12.097  70.734  1.00  0.00    -0.168 OA 
HETATM   20  H   UNL     1     -12.011   8.490  68.906  1.00  0.00     0.000 HD 
ENDBRANCH   9  10
ENDBRANCH   8   9
ENDBRANCH   6   8
ENDBRANCH   5   6
ENDBRANCH   4   5
ENDBRANCH   3   4
ENDBRANCH   2   3
TORSDOF 7
ENDMDL
MODEL       77
REMARK 921   NORMALIZED FREE ENERGY PREDICTED BY IDOCK:   -4.18 KCAL/MOL
REMARK 922        TOTAL FREE ENERGY PREDICTED BY IDOCK:   -6.57 KCAL/MOL
REMARK 923 INTER-LIGAND FREE ENERGY PREDICTED BY IDOCK:   -6.05 KCAL/MOL
REMARK 924 INTRA-LIGAND FREE ENERGY PREDICTED BY IDOCK:   -0.52 KCAL/MOL
REMARK 927      BINDING AFFINITY PREDICTED BY RF-SCORE:    0.00 PKD
ROOT
HETATM    1  C   UNL     1     -11.718  11.661  67.718  1.00  0.00    -0.315 C  
HETATM    2  C   UNL     1     -11.030  11.934  66.391  1.00  0.00    -0.337 C  
ENDROOT
BRANCH   2   3
HETATM    3  C   UNL     1     -11.373  13.324  65.863  1.00  0.00    -0.333 C  
BRANCH   3   4
HETATM    4  C   UNL     1     -12.127  14.139  66.915  1.00  0.00    -0.466 C  
BRANCH   4   5
HETATM    5  C   UNL     1     -11.354  15.428  67.236  1.00  0.00    -0.220 C  
BRANCH   5   6
HETATM    6  N   UNL     1     -11.443  15.865  68.646  1.00  0.00    -0.382 NA 
HETATM    7  C   UNL     1     -11.845  14.747  69.514  1.00  0.00    -0.326 C  
BRANCH   6   8
HETATM    8  C   UNL     1     -10.129  16.362  69.115  1.00  0.00    -0.278 C  
BRANCH   8   9
HETATM    9  C   UNL     1      -9.911  17.866  68.904  1.00  0.00    -0.337 C  
BRANCH   9  10
HETATM   10  C   UNL     1      -8.759  18.243  67.928  1.00  0.00    -0.265 C  
HETATM   11  P   UNL     1      -7.473  19.048  68.951  1.00  0.00    -0.254 P  
HETATM   12  P   UNL     1      -9.351  19.309  66.552  1.00  0.00    -0.368 P  
HETATM   13  O   UNL     1      -8.242  16.998  67.346  1.00  0.00    -0.179 OA 
HETATM   14  O   UNL     1     -10.445  20.302  67.180  1.00  0.00    -0.352 OA 
HETATM   15  O   UNL     1      -8.424  20.044  65.647  1.00  0.00    -0.257 OA 
HETATM   16  O   UNL     1     -10.287  18.342  65.666  1.00  0.00    -0.607 OA 
HETATM   17  O   UNL     1      -6.922  17.526  69.325  1.00  0.00    -0.247 OA 
HETATM   18  O   UNL     1      -6.517  19.187  67.627  1.00  0.00    -0.209 OA 
HETATM   19  O   UNL     1      -6.385  19.729  69.816  1.00  0.00    -0.320 OA 
HETATM   20  H   UNL     1      -7.539  17.228  66.750  1.00  0.00     0.000 HD 
ENDBRANCH   9  10
ENDBRANCH   8   9
ENDBRANCH   6   8
ENDBRANCH   5   6
ENDBRANCH   4   5
ENDBRANCH   3   4
ENDBRANCH   2   3
TORSDOF 7
ENDMDL
MODEL       78
REMARK 921   NORMALIZED FREE ENERGY PREDICTED BY IDOCK:   -4.16 KCAL/MOL
REMARK 922        TOTAL FREE ENERGY PREDICTED BY IDOCK:   -6.55 KCAL/MOL
REMARK 923 INTER-LIGAND FREE ENERGY PREDICTED BY IDOCK:   -5.93 KCAL/MOL
REMARK 924 INTRA-LIGAND FREE ENERGY PREDICTED BY IDOCK:   -0.62 KCAL/MOL
REMARK 927      BINDING AFFINITY PREDICTED BY RF-SCORE:    0.00 PKD
ROOT
HETATM    1  C   UNL     1     -10.221  10.604  64.670  1.00  0.00    -0.404 C  
HETATM    2  C   UNL     1     -10.368  11.420  63.396  1.00  0.00    -0.458 C  
ENDROOT
BRANCH   2   3
HETATM    3  C   UNL     1     -11.377  12.551  63.574  1.00  0.00    -0.556 C  
BRANCH   3   4
HETATM    4  C   UNL     1     -12.176  12.374  64.866  1.00  0.00    -0.485 C  
BRANCH   4   5
HETATM    5  C   UNL     1     -12.559  13.747  65.440  1.00  0.00    -0.497 C  
BRANCH   5   6
HETATM    6  N   UNL     1     -12.140  13.968  66.841  1.00  0.00    -0.439 NA 
HETATM    7  C   UNL     1     -11.881  12.687  67.516  1.00  0.00    -0.334 C  
BRANCH   6   8
HETATM    8  C   UNL     1     -10.897  14.772  66.886  1.00  0.00    -0.316 C  
BRANCH   8   9
HETATM    9  C   UNL     1     -10.083  14.603  68.176  1.00  0.00    -0.224 C  
BRANCH   9  10
HETATM   10  C   UNL     1      -8.591  15.040  68.087  1.00  0.00    -0.156 C  
HETATM   11  P   UNL     1      -8.535  16.396  66.859  1.00  0.00    -0.279 P  
HETATM   12  P   UNL     1      -7.493  13.633  67.651  1.00  0.00    -0.160 P  
HETATM   13  O   UNL     1      -8.191  15.534  69.411  1.00  0.00    -0.239 OA 
HETATM   14  O   UNL     1      -8.297  12.733  66.592  1.00  0.00    -0.049 OA 
HETATM   15  O   UNL     1      -6.078  13.819  67.222  1.00  0.00    -0.321 OA 
HETATM   16  O   UNL     1      -7.523  12.679  68.949  1.00  0.00    -0.080 OA 
HETATM   17  O   UNL     1      -8.968  17.427  68.088  1.00  0.00    -0.245 OA 
HETATM   18  O   UNL     1      -6.928  16.568  67.135  1.00  0.00    -0.156 OA 
HETATM   19  O   UNL     1      -8.487  17.543  65.821  1.00  0.00    -0.530 OA 
HETATM   20  H   UNL     1      -7.281  15.801  69.356  1.00  0.00     0.000 HD 
ENDBRANCH   9  10
ENDBRANCH   8   9
ENDBRANCH   6   8
ENDBRANCH   5   6
ENDBRANCH   4   5
ENDBRANCH   3   4
ENDBRANCH   2   3
TORSDOF 7
ENDMDL
MODEL       79
REMARK 921   NORMALIZED FREE ENERGY PREDICTED BY IDOCK:   -4.14 KCAL/MOL
REMARK 922        TOTAL FREE ENERGY PREDICTED BY IDOCK:   -6.52 KCAL/MOL
REMARK 923 INTER-LIGAND FREE ENERGY PREDICTED BY IDOCK:   -6.06 KCAL/MOL
REMARK 924 INTRA-LIGAND FREE ENERGY PREDICTED BY IDOCK:   -0.45 KCAL/MOL
REMARK 927      BINDING AFFINITY PREDICTED BY RF-SCORE:    0.00 PKD
ROOT
HETATM    1  C   UNL     1      -9.956  10.691  68.466  1.00  0.00    -0.176 C  
HETATM    2  C   UNL     1     -10.778  10.234  67.272  1.00  0.00    -0.323 C  
ENDROOT
BRANCH   2   3
HETATM    3  C   UNL     1     -10.663  11.217  66.110  1.00  0.00    -0.285 C  
BRANCH   3   4
HETATM    4  C   UNL     1     -11.252  12.578  66.483  1.00  0.00    -0.356 C  
BRANCH   4   5
HETATM    5  C   UNL     1     -10.624  13.679  65.615  1.00  0.00    -0.293 C  
BRANCH   5   6
HETATM    6  N   UNL     1     -10.541  15.005  66.266  1.00  0.00    -0.299 NA 
HETATM    7  C   UNL     1     -10.906  14.911  67.688  1.00  0.00    -0.286 C  
BRANCH   6   8
HETATM    8  C   UNL     1      -9.162  15.537  66.179  1.00  0.00    -0.344 C  
BRANCH   8   9
HETATM    9  C   UNL     1      -8.768  16.460  67.340  1.00  0.00    -0.195 C  
BRANCH   9  10
HETATM   10  C   UNL     1      -8.468  17.936  66.947  1.00  0.00    -0.244 C  
HETATM   11  P   UNL     1      -7.370  18.595  68.254  1.00  0.00    -0.291 P  
HETATM   12  P   UNL     1     -10.011  18.915  66.747  1.00  0.00    -0.418 P  
HETATM   13  O   UNL     1      -7.771  17.921  65.654  1.00  0.00    -0.541 OA 
HETATM   14  O   UNL     1     -11.027  18.409  67.882  1.00  0.00    -0.289 OA 
HETATM   15  O   UNL     1     -10.015  20.403  66.657  1.00  0.00    -0.444 OA 
HETATM   16  O   UNL     1     -10.705  18.311  65.423  1.00  0.00    -0.610 OA 
HETATM   17  O   UNL     1      -6.100  17.912  67.428  1.00  0.00    -0.144 OA 
HETATM   18  O   UNL     1      -7.272  20.017  67.444  1.00  0.00    -0.239 OA 
HETATM   19  O   UNL     1      -6.441  19.152  69.359  1.00  0.00    -0.288 OA 
HETATM   20  H   UNL     1      -7.588  18.822  65.414  1.00  0.00     0.000 HD 
ENDBRANCH   9  10
ENDBRANCH   8   9
ENDBRANCH   6   8
ENDBRANCH   5   6
ENDBRANCH   4   5
ENDBRANCH   3   4
ENDBRANCH   2   3
TORSDOF 7
ENDMDL
MODEL       80
REMARK 921   NORMALIZED FREE ENERGY PREDICTED BY IDOCK:   -4.14 KCAL/MOL
REMARK 922        TOTAL FREE ENERGY PREDICTED BY IDOCK:   -6.51 KCAL/MOL
REMARK 923 INTER-LIGAND FREE ENERGY PREDICTED BY IDOCK:   -5.75 KCAL/MOL
REMARK 924 INTRA-LIGAND FREE ENERGY PREDICTED BY IDOCK:   -0.76 KCAL/MOL
REMARK 927      BINDING AFFINITY PREDICTED BY RF-SCORE:    0.00 PKD
ROOT
HETATM    1  C   UNL     1      -6.764  11.809  69.629  1.00  0.00    -0.034 C  
HETATM    2  C   UNL     1      -6.946  12.648  68.376  1.00  0.00    -0.094 C  
ENDROOT
BRANCH   2   3
HETATM    3  C   UNL     1      -5.987  13.836  68.358  1.00  0.00    -0.099 C  
BRANCH   3   4
HETATM    4  C   UNL     1      -6.582  15.008  67.577  1.00  0.00    -0.153 C  
BRANCH   4   5
HETATM    5  C   UNL     1      -8.049  15.221  67.982  1.00  0.00    -0.137 C  
BRANCH   5   6
HETATM    6  N   UNL     1      -8.706  16.376  67.334  1.00  0.00    -0.180 NA 
HETATM    7  C   UNL     1      -7.874  16.905  66.242  1.00  0.00    -0.311 C  
BRANCH   6   8
HETATM    8  C   UNL     1     -10.012  15.973  66.763  1.00  0.00    -0.258 C  
BRANCH   8   9
HETATM    9  C   UNL     1     -10.011  14.588  66.102  1.00  0.00    -0.330 C  
BRANCH   9  10
HETATM   10  C   UNL     1     -11.265  13.711  66.387  1.00  0.00    -0.308 C  
HETATM   11  P   UNL     1     -10.669  12.273  67.349  1.00  0.00    -0.247 P  
HETATM   12  P   UNL     1     -12.126  13.229  64.837  1.00  0.00    -0.445 P  
HETATM   13  O   UNL     1     -12.196  14.513  67.191  1.00  0.00    -0.552 OA 
HETATM   14  O   UNL     1     -10.983  12.947  63.745  1.00  0.00    -0.413 OA 
HETATM   15  O   UNL     1     -13.173  12.169  64.794  1.00  0.00    -0.567 OA 
HETATM   16  O   UNL     1     -12.753  14.604  64.277  1.00  0.00    -0.679 OA 
HETATM   17  O   UNL     1     -10.785  13.227  68.705  1.00  0.00    -0.247 OA 
HETATM   18  O   UNL     1     -12.210  11.726  67.471  1.00  0.00    -0.526 OA 
HETATM   19  O   UNL     1     -10.165  11.058  68.164  1.00  0.00    -0.172 OA 
HETATM   20  H   UNL     1     -12.962  13.978  67.365  1.00  0.00     0.000 HD 
ENDBRANCH   9  10
ENDBRANCH   8   9
ENDBRANCH   6   8
ENDBRANCH   5   6
ENDBRANCH   4   5
ENDBRANCH   3   4
ENDBRANCH   2   3
TORSDOF 7
ENDMDL
MODEL       81
REMARK 921   NORMALIZED FREE ENERGY PREDICTED BY IDOCK:   -4.13 KCAL/MOL
REMARK 922        TOTAL FREE ENERGY PREDICTED BY IDOCK:   -6.50 KCAL/MOL
REMARK 923 INTER-LIGAND FREE ENERGY PREDICTED BY IDOCK:   -5.70 KCAL/MOL
REMARK 924 INTRA-LIGAND FREE ENERGY PREDICTED BY IDOCK:   -0.80 KCAL/MOL
REMARK 927      BINDING AFFINITY PREDICTED BY RF-SCORE:    0.00 PKD
ROOT
HETATM    1  C   UNL     1      -9.138  10.584  62.397  1.00  0.00    -0.313 C  
HETATM    2  C   UNL     1      -8.144   9.924  63.338  1.00  0.00    -0.156 C  
ENDROOT
BRANCH   2   3
HETATM    3  C   UNL     1      -8.818   9.469  64.629  1.00  0.00    -0.250 C  
BRANCH   3   4
HETATM    4  C   UNL     1      -8.890  10.612  65.642  1.00  0.00    -0.201 C  
BRANCH   4   5
HETATM    5  C   UNL     1     -10.353  11.020  65.873  1.00  0.00    -0.257 C  
BRANCH   5   6
HETATM    6  N   UNL     1     -10.569  12.473  66.042  1.00  0.00    -0.258 NA 
HETATM    7  C   UNL     1     -10.776  13.124  64.739  1.00  0.00    -0.364 C  
BRANCH   6   8
HETATM    8  C   UNL     1     -11.765  12.723  66.877  1.00  0.00    -0.380 C  
BRANCH   8   9
HETATM    9  C   UNL     1     -11.903  14.172  67.366  1.00  0.00    -0.447 C  
BRANCH   9  10
HETATM   10  C   UNL     1     -10.978  14.565  68.555  1.00  0.00    -0.249 C  
HETATM   11  P   UNL     1     -12.090  15.117  69.899  1.00  0.00    -0.313 P  
HETATM   12  P   UNL     1      -9.751  15.845  68.069  1.00  0.00    -0.218 P  
HETATM   13  O   UNL     1     -10.240  13.363  68.964  1.00  0.00    -0.421 OA 
HETATM   14  O   UNL     1     -10.503  16.844  67.063  1.00  0.00    -0.314 OA 
HETATM   15  O   UNL     1      -8.943  16.604  69.065  1.00  0.00    -0.256 OA 
HETATM   16  O   UNL     1      -8.752  15.085  67.058  1.00  0.00    -0.206 OA 
HETATM   17  O   UNL     1     -12.265  13.517  70.310  1.00  0.00    -0.336 OA 
HETATM   18  O   UNL     1     -10.790  15.337  70.874  1.00  0.00    -0.301 OA 
HETATM   19  O   UNL     1     -13.030  15.583  71.037  1.00  0.00    -0.457 OA 
HETATM   20  H   UNL     1      -9.676  13.603  69.689  1.00  0.00     0.000 HD 
ENDBRANCH   9  10
ENDBRANCH   8   9
ENDBRANCH   6   8
ENDBRANCH   5   6
ENDBRANCH   4   5
ENDBRANCH   3   4
ENDBRANCH   2   3
TORSDOF 7
ENDMDL
MODEL       82
REMARK 921   NORMALIZED FREE ENERGY PREDICTED BY IDOCK:   -4.12 KCAL/MOL
REMARK 922        TOTAL FREE ENERGY PREDICTED BY IDOCK:   -6.49 KCAL/MOL
REMARK 923 INTER-LIGAND FREE ENERGY PREDICTED BY IDOCK:   -5.98 KCAL/MOL
REMARK 924 INTRA-LIGAND FREE ENERGY PREDICTED BY IDOCK:   -0.51 KCAL/MOL
REMARK 927      BINDING AFFINITY PREDICTED BY RF-SCORE:    0.00 PKD
ROOT
HETATM    1  C   UNL     1     -11.299   5.858  72.699  1.00  0.00    -0.337 C  
HETATM    2  C   UNL     1     -10.858   5.993  71.252  1.00  0.00    -0.331 C  
ENDROOT
BRANCH   2   3
HETATM    3  C   UNL     1     -11.584   7.140  70.554  1.00  0.00    -0.331 C  
BRANCH   3   4
HETATM    4  C   UNL     1     -11.031   8.493  71.002  1.00  0.00    -0.296 C  
BRANCH   4   5
HETATM    5  C   UNL     1     -12.135   9.311  71.691  1.00  0.00    -0.379 C  
BRANCH   5   6
HETATM    6  N   UNL     1     -12.623  10.468  70.910  1.00  0.00    -0.367 NA 
HETATM    7  C   UNL     1     -12.935  11.601  71.796  1.00  0.00    -0.377 C  
BRANCH   6   8
HETATM    8  C   UNL     1     -11.593  10.910  69.943  1.00  0.00    -0.331 C  
BRANCH   8   9
HETATM    9  C   UNL     1     -12.111  11.869  68.863  1.00  0.00    -0.213 C  
BRANCH   9  10
HETATM   10  C   UNL     1     -11.045  12.826  68.254  1.00  0.00    -0.257 C  
HETATM   11  P   UNL     1     -11.640  14.524  68.590  1.00  0.00    -0.333 P  
HETATM   12  P   UNL     1     -10.780  12.502  66.464  1.00  0.00    -0.255 P  
HETATM   13  O   UNL     1      -9.776  12.583  68.951  1.00  0.00    -0.411 OA 
HETATM   14  O   UNL     1     -12.217  12.142  65.845  1.00  0.00    -0.604 OA 
HETATM   15  O   UNL     1     -10.041  13.443  65.576  1.00  0.00    -0.295 OA 
HETATM   16  O   UNL     1     -10.057  11.063  66.417  1.00  0.00    -0.214 OA 
HETATM   17  O   UNL     1     -10.946  14.390  70.094  1.00  0.00    -0.105 OA 
HETATM   18  O   UNL     1     -10.283  15.129  67.898  1.00  0.00    -0.229 OA 
HETATM   19  O   UNL     1     -12.143  15.960  68.876  1.00  0.00    -0.315 OA 
HETATM   20  H   UNL     1      -9.126  13.167  68.579  1.00  0.00     0.000 HD 
ENDBRANCH   9  10
ENDBRANCH   8   9
ENDBRANCH   6   8
ENDBRANCH   5   6
ENDBRANCH   4   5
ENDBRANCH   3   4
ENDBRANCH   2   3
TORSDOF 7
ENDMDL
MODEL       83
REMARK 921   NORMALIZED FREE ENERGY PREDICTED BY IDOCK:   -4.12 KCAL/MOL
REMARK 922        TOTAL FREE ENERGY PREDICTED BY IDOCK:   -6.48 KCAL/MOL
REMARK 923 INTER-LIGAND FREE ENERGY PREDICTED BY IDOCK:   -5.57 KCAL/MOL
REMARK 924 INTRA-LIGAND FREE ENERGY PREDICTED BY IDOCK:   -0.92 KCAL/MOL
REMARK 927      BINDING AFFINITY PREDICTED BY RF-SCORE:    0.00 PKD
ROOT
HETATM    1  C   UNL     1     -10.077   9.804  70.413  1.00  0.00    -0.313 C  
HETATM    2  C   UNL     1     -10.635   8.978  69.266  1.00  0.00    -0.226 C  
ENDROOT
BRANCH   2   3
HETATM    3  C   UNL     1      -9.528   8.528  68.317  1.00  0.00    -0.143 C  
BRANCH   3   4
HETATM    4  C   UNL     1     -10.096   8.166  66.945  1.00  0.00    -0.367 C  
BRANCH   4   5
HETATM    5  C   UNL     1      -9.882   9.328  65.963  1.00  0.00    -0.293 C  
BRANCH   5   6
HETATM    6  N   UNL     1      -8.711  10.181  66.263  1.00  0.00    -0.139 NA 
HETATM    7  C   UNL     1      -7.633   9.949  65.289  1.00  0.00    -0.130 C  
BRANCH   6   8
HETATM    8  C   UNL     1      -9.086  11.612  66.202  1.00  0.00    -0.203 C  
BRANCH   8   9
HETATM    9  C   UNL     1      -9.091  12.322  67.562  1.00  0.00    -0.182 C  
BRANCH   9  10
HETATM   10  C   UNL     1     -10.272  13.309  67.796  1.00  0.00    -0.228 C  
HETATM   11  P   UNL     1     -11.539  12.887  66.546  1.00  0.00    -0.404 P  
HETATM   12  P   UNL     1      -9.726  15.061  67.700  1.00  0.00    -0.216 P  
HETATM   13  O   UNL     1     -10.791  13.070  69.149  1.00  0.00    -0.394 OA 
HETATM   14  O   UNL     1      -8.627  15.136  66.533  1.00  0.00    -0.270 OA 
HETATM   15  O   UNL     1     -10.684  16.198  67.599  1.00  0.00    -0.313 OA 
HETATM   16  O   UNL     1      -8.804  15.270  69.005  1.00  0.00    -0.196 OA 
HETATM   17  O   UNL     1     -12.065  11.702  67.586  1.00  0.00    -0.615 OA 
HETATM   18  O   UNL     1     -12.531  14.030  67.175  1.00  0.00    -0.293 OA 
HETATM   19  O   UNL     1     -12.611  12.529  65.488  1.00  0.00    -0.642 OA 
HETATM   20  H   UNL     1     -11.512  13.672  69.292  1.00  0.00     0.000 HD 
ENDBRANCH   9  10
ENDBRANCH   8   9
ENDBRANCH   6   8
ENDBRANCH   5   6
ENDBRANCH   4   5
ENDBRANCH   3   4
ENDBRANCH   2   3
TORSDOF 7
ENDMDL
MODEL       84
REMARK 921   NORMALIZED FREE ENERGY PREDICTED BY IDOCK:   -4.10 KCAL/MOL
REMARK 922        TOTAL FREE ENERGY PREDICTED BY IDOCK:   -6.46 KCAL/MOL
REMARK 923 INTER-LIGAND FREE ENERGY PREDICTED BY IDOCK:   -5.67 KCAL/MOL
REMARK 924 INTRA-LIGAND FREE ENERGY PREDICTED BY IDOCK:   -0.79 KCAL/MOL
REMARK 927      BINDING AFFINITY PREDICTED BY RF-SCORE:    0.00 PKD
ROOT
HETATM    1  C   UNL     1      -6.337  12.586  67.856  1.00  0.00    -0.103 C  
HETATM    2  C   UNL     1      -6.233  11.569  66.733  1.00  0.00    -0.140 C  
ENDROOT
BRANCH   2   3
HETATM    3  C   UNL     1      -6.038  10.157  67.279  1.00  0.00    -0.058 C  
BRANCH   3   4
HETATM    4  C   UNL     1      -6.701   9.121  66.369  1.00  0.00    -0.071 C  
BRANCH   4   5
HETATM    5  C   UNL     1      -7.796   9.789  65.522  1.00  0.00    -0.120 C  
BRANCH   5   6
HETATM    6  N   UNL     1      -9.178   9.423  65.901  1.00  0.00    -0.195 NA 
HETATM    7  C   UNL     1      -9.178   8.307  66.860  1.00  0.00    -0.158 C  
BRANCH   6   8
HETATM    8  C   UNL     1      -9.860  10.574  66.535  1.00  0.00    -0.206 C  
BRANCH   8   9
HETATM    9  C   UNL     1     -10.031  11.791  65.616  1.00  0.00    -0.271 C  
BRANCH   9  10
HETATM   10  C   UNL     1     -11.145  12.794  66.037  1.00  0.00    -0.285 C  
HETATM   11  P   UNL     1     -11.914  13.377  64.482  1.00  0.00    -0.440 P  
HETATM   12  P   UNL     1     -10.477  14.164  67.064  1.00  0.00    -0.274 P  
HETATM   13  O   UNL     1     -12.126  12.058  66.846  1.00  0.00    -0.608 OA 
HETATM   14  O   UNL     1      -9.033  14.526  66.463  1.00  0.00    -0.246 OA 
HETATM   15  O   UNL     1     -11.254  15.401  67.359  1.00  0.00    -0.328 OA 
HETATM   16  O   UNL     1     -10.064  13.463  68.455  1.00  0.00    -0.241 OA 
HETATM   17  O   UNL     1     -12.857  12.010  64.522  1.00  0.00    -0.495 OA 
HETATM   18  O   UNL     1     -12.980  14.268  65.352  1.00  0.00    -0.654 OA 
HETATM   19  O   UNL     1     -12.564  13.870  63.167  1.00  0.00    -0.775 OA 
HETATM   20  H   UNL     1     -12.806  12.670  67.102  1.00  0.00     0.000 HD 
ENDBRANCH   9  10
ENDBRANCH   8   9
ENDBRANCH   6   8
ENDBRANCH   5   6
ENDBRANCH   4   5
ENDBRANCH   3   4
ENDBRANCH   2   3
TORSDOF 7
ENDMDL
MODEL       85
REMARK 921   NORMALIZED FREE ENERGY PREDICTED BY IDOCK:   -4.10 KCAL/MOL
REMARK 922        TOTAL FREE ENERGY PREDICTED BY IDOCK:   -6.46 KCAL/MOL
REMARK 923 INTER-LIGAND FREE ENERGY PREDICTED BY IDOCK:   -5.95 KCAL/MOL
REMARK 924 INTRA-LIGAND FREE ENERGY PREDICTED BY IDOCK:   -0.51 KCAL/MOL
REMARK 927      BINDING AFFINITY PREDICTED BY RF-SCORE:    0.00 PKD
ROOT
HETATM    1  C   UNL     1     -13.106  15.482  71.875  1.00  0.00    -0.539 C  
HETATM    2  C   UNL     1     -12.095  14.674  71.079  1.00  0.00    -0.393 C  
ENDROOT
BRANCH   2   3
HETATM    3  C   UNL     1     -11.593  15.453  69.866  1.00  0.00    -0.342 C  
BRANCH   3   4
HETATM    4  C   UNL     1     -11.192  14.506  68.734  1.00  0.00    -0.281 C  
BRANCH   4   5
HETATM    5  C   UNL     1     -10.027  15.107  67.933  1.00  0.00    -0.221 C  
BRANCH   5   6
HETATM    6  N   UNL     1      -8.723  15.086  68.631  1.00  0.00    -0.168 NA 
HETATM    7  C   UNL     1      -8.031  13.808  68.405  1.00  0.00    -0.144 C  
BRANCH   6   8
HETATM    8  C   UNL     1      -7.853  16.175  68.131  1.00  0.00    -0.146 C  
BRANCH   8   9
HETATM    9  C   UNL     1      -8.375  16.869  66.866  1.00  0.00    -0.244 C  
BRANCH   9  10
HETATM   10  C   UNL     1      -8.274  18.422  66.867  1.00  0.00    -0.247 C  
HETATM   11  P   UNL     1      -7.151  18.855  68.245  1.00  0.00    -0.279 P  
HETATM   12  P   UNL     1      -9.927  19.213  67.014  1.00  0.00    -0.410 P  
HETATM   13  O   UNL     1      -7.689  18.833  65.584  1.00  0.00    -0.482 OA 
HETATM   14  O   UNL     1     -10.782  18.304  68.023  1.00  0.00    -0.368 OA 
HETATM   15  O   UNL     1     -10.102  20.660  67.326  1.00  0.00    -0.398 OA 
HETATM   16  O   UNL     1     -10.657  18.889  65.614  1.00  0.00    -0.575 OA 
HETATM   17  O   UNL     1      -5.886  18.578  67.203  1.00  0.00    -0.146 OA 
HETATM   18  O   UNL     1      -7.278  20.439  67.841  1.00  0.00    -0.299 OA 
HETATM   19  O   UNL     1      -6.200  19.221  69.410  1.00  0.00    -0.267 OA 
HETATM   20  H   UNL     1      -7.627  19.781  65.584  1.00  0.00     0.000 HD 
ENDBRANCH   9  10
ENDBRANCH   8   9
ENDBRANCH   6   8
ENDBRANCH   5   6
ENDBRANCH   4   5
ENDBRANCH   3   4
ENDBRANCH   2   3
TORSDOF 7
ENDMDL
MODEL       86
REMARK 921   NORMALIZED FREE ENERGY PREDICTED BY IDOCK:   -4.10 KCAL/MOL
REMARK 922        TOTAL FREE ENERGY PREDICTED BY IDOCK:   -6.46 KCAL/MOL
REMARK 923 INTER-LIGAND FREE ENERGY PREDICTED BY IDOCK:   -6.50 KCAL/MOL
REMARK 924 INTRA-LIGAND FREE ENERGY PREDICTED BY IDOCK:    0.05 KCAL/MOL
REMARK 927      BINDING AFFINITY PREDICTED BY RF-SCORE:    0.00 PKD
ROOT
HETATM    1  C   UNL     1     -10.557  10.008  70.103  1.00  0.00    -0.350 C  
HETATM    2  C   UNL     1     -11.591   9.938  71.213  1.00  0.00    -0.456 C  
ENDROOT
BRANCH   2   3
HETATM    3  C   UNL     1     -12.599  11.079  71.107  1.00  0.00    -0.522 C  
BRANCH   3   4
HETATM    4  C   UNL     1     -12.012  12.258  70.330  1.00  0.00    -0.373 C  
BRANCH   4   5
HETATM    5  C   UNL     1     -12.652  13.572  70.804  1.00  0.00    -0.309 C  
BRANCH   5   6
HETATM    6  N   UNL     1     -12.298  14.758  69.995  1.00  0.00    -0.328 NA 
HETATM    7  C   UNL     1     -11.858  15.865  70.857  1.00  0.00    -0.417 C  
BRANCH   6   8
HETATM    8  C   UNL     1     -11.194  14.434  69.062  1.00  0.00    -0.264 C  
BRANCH   8   9
HETATM    9  C   UNL     1     -11.176  15.285  67.785  1.00  0.00    -0.327 C  
BRANCH   9  10
HETATM   10  C   UNL     1      -9.765  15.577  67.197  1.00  0.00    -0.222 C  
HETATM   11  P   UNL     1      -8.592  15.414  68.592  1.00  0.00    -0.209 P  
HETATM   12  P   UNL     1      -9.691  17.225  66.387  1.00  0.00    -0.259 P  
HETATM   13  O   UNL     1      -9.488  14.558  66.176  1.00  0.00    -0.356 OA 
HETATM   14  O   UNL     1     -10.584  18.216  67.280  1.00  0.00    -0.393 OA 
HETATM   15  O   UNL     1      -8.407  17.874  65.999  1.00  0.00    -0.495 OA 
HETATM   16  O   UNL     1     -10.616  17.074  65.076  1.00  0.00    -0.703 OA 
HETATM   17  O   UNL     1      -8.590  13.778  68.303  1.00  0.00    -0.166 OA 
HETATM   18  O   UNL     1      -7.345  15.706  67.568  1.00  0.00    -0.149 OA 
HETATM   19  O   UNL     1      -7.600  15.275  69.772  1.00  0.00    -0.203 OA 
HETATM   20  H   UNL     1      -8.627  14.736  65.817  1.00  0.00     0.000 HD 
ENDBRANCH   9  10
ENDBRANCH   8   9
ENDBRANCH   6   8
ENDBRANCH   5   6
ENDBRANCH   4   5
ENDBRANCH   3   4
ENDBRANCH   2   3
TORSDOF 7
ENDMDL
MODEL       87
REMARK 921   NORMALIZED FREE ENERGY PREDICTED BY IDOCK:   -4.09 KCAL/MOL
REMARK 922        TOTAL FREE ENERGY PREDICTED BY IDOCK:   -6.44 KCAL/MOL
REMARK 923 INTER-LIGAND FREE ENERGY PREDICTED BY IDOCK:   -5.90 KCAL/MOL
REMARK 924 INTRA-LIGAND FREE ENERGY PREDICTED BY IDOCK:   -0.54 KCAL/MOL
REMARK 927      BINDING AFFINITY PREDICTED BY RF-SCORE:    0.00 PKD
ROOT
HETATM    1  C   UNL     1      -8.442  19.503  66.287  1.00  0.00    -0.370 C  
HETATM    2  C   UNL     1      -8.700  19.916  67.726  1.00  0.00    -0.377 C  
ENDROOT
BRANCH   2   3
HETATM    3  C   UNL     1      -9.739  19.014  68.386  1.00  0.00    -0.442 C  
BRANCH   3   4
HETATM    4  C   UNL     1     -10.564  18.269  67.335  1.00  0.00    -0.425 C  
BRANCH   4   5
HETATM    5  C   UNL     1     -10.765  16.807  67.763  1.00  0.00    -0.321 C  
BRANCH   5   6
HETATM    6  N   UNL     1     -10.539  15.814  66.690  1.00  0.00    -0.310 NA 
HETATM    7  C   UNL     1     -10.423  16.477  65.382  1.00  0.00    -0.269 C  
BRANCH   6   8
HETATM    8  C   UNL     1      -9.287  15.063  66.938  1.00  0.00    -0.241 C  
BRANCH   8   9
HETATM    9  C   UNL     1      -9.376  13.565  66.615  1.00  0.00    -0.254 C  
BRANCH   9  10
HETATM   10  C   UNL     1      -9.826  12.653  67.794  1.00  0.00    -0.212 C  
HETATM   11  P   UNL     1      -8.737  11.184  67.741  1.00  0.00    -0.140 P  
HETATM   12  P   UNL     1     -11.610  12.227  67.683  1.00  0.00    -0.297 P  
HETATM   13  O   UNL     1      -9.616  13.400  69.041  1.00  0.00    -0.401 OA 
HETATM   14  O   UNL     1     -11.936  12.017  66.125  1.00  0.00    -0.581 OA 
HETATM   15  O   UNL     1     -12.233  11.151  68.504  1.00  0.00    -0.600 OA 
HETATM   16  O   UNL     1     -12.377  13.614  67.973  1.00  0.00    -0.238 OA 
HETATM   17  O   UNL     1      -7.622  12.071  68.595  1.00  0.00    -0.122 OA 
HETATM   18  O   UNL     1      -9.468  10.603  69.088  1.00  0.00    -0.200 OA 
HETATM   19  O   UNL     1      -7.815   9.941  67.697  1.00  0.00    -0.097 OA 
HETATM   20  H   UNL     1      -9.891  12.843  69.760  1.00  0.00     0.000 HD 
ENDBRANCH   9  10
ENDBRANCH   8   9
ENDBRANCH   6   8
ENDBRANCH   5   6
ENDBRANCH   4   5
ENDBRANCH   3   4
ENDBRANCH   2   3
TORSDOF 7
ENDMDL
MODEL       88
REMARK 921   NORMALIZED FREE ENERGY PREDICTED BY IDOCK:   -4.08 KCAL/MOL
REMARK 922        TOTAL FREE ENERGY PREDICTED BY IDOCK:   -6.43 KCAL/MOL
REMARK 923 INTER-LIGAND FREE ENERGY PREDICTED BY IDOCK:   -6.03 KCAL/MOL
REMARK 924 INTRA-LIGAND FREE ENERGY PREDICTED BY IDOCK:   -0.39 KCAL/MOL
REMARK 927      BINDING AFFINITY PREDICTED BY RF-SCORE:    0.00 PKD
ROOT
HETATM    1  C   UNL     1     -10.880   6.495  66.897  1.00  0.00    -0.427 C  
HETATM    2  C   UNL     1     -10.390   7.926  67.046  1.00  0.00    -0.411 C  
ENDROOT
BRANCH   2   3
HETATM    3  C   UNL     1      -9.004   8.105  66.432  1.00  0.00    -0.207 C  
BRANCH   3   4
HETATM    4  C   UNL     1      -9.053   9.060  65.239  1.00  0.00    -0.226 C  
BRANCH   4   5
HETATM    5  C   UNL     1     -10.076  10.177  65.500  1.00  0.00    -0.268 C  
BRANCH   5   6
HETATM    6  N   UNL     1      -9.830  11.426  64.747  1.00  0.00    -0.250 NA 
HETATM    7  C   UNL     1     -10.042  11.216  63.306  1.00  0.00    -0.380 C  
BRANCH   6   8
HETATM    8  C   UNL     1     -10.755  12.490  65.198  1.00  0.00    -0.292 C  
BRANCH   8   9
HETATM    9  C   UNL     1     -10.147  13.466  66.214  1.00  0.00    -0.299 C  
BRANCH   9  10
HETATM   10  C   UNL     1     -11.099  13.914  67.361  1.00  0.00    -0.298 C  
HETATM   11  P   UNL     1     -10.378  15.451  68.044  1.00  0.00    -0.258 P  
HETATM   12  P   UNL     1     -11.308  12.598  68.627  1.00  0.00    -0.336 P  
HETATM   13  O   UNL     1     -12.415  14.187  66.769  1.00  0.00    -0.558 OA 
HETATM   14  O   UNL     1      -9.880  11.881  68.785  1.00  0.00    -0.169 OA 
HETATM   15  O   UNL     1     -11.924  12.853  69.960  1.00  0.00    -0.334 OA 
HETATM   16  O   UNL     1     -12.148  11.445  67.876  1.00  0.00    -0.646 OA 
HETATM   17  O   UNL     1     -11.150  16.269  66.821  1.00  0.00    -0.114 OA 
HETATM   18  O   UNL     1     -11.646  15.579  69.075  1.00  0.00    -0.322 OA 
HETATM   19  O   UNL     1      -9.769  16.752  68.621  1.00  0.00    -0.239 OA 
HETATM   20  H   UNL     1     -12.995  14.460  67.470  1.00  0.00     0.000 HD 
ENDBRANCH   9  10
ENDBRANCH   8   9
ENDBRANCH   6   8
ENDBRANCH   5   6
ENDBRANCH   4   5
ENDBRANCH   3   4
ENDBRANCH   2   3
TORSDOF 7
ENDMDL
MODEL       89
REMARK 921   NORMALIZED FREE ENERGY PREDICTED BY IDOCK:   -4.07 KCAL/MOL
REMARK 922        TOTAL FREE ENERGY PREDICTED BY IDOCK:   -6.42 KCAL/MOL
REMARK 923 INTER-LIGAND FREE ENERGY PREDICTED BY IDOCK:   -5.96 KCAL/MOL
REMARK 924 INTRA-LIGAND FREE ENERGY PREDICTED BY IDOCK:   -0.46 KCAL/MOL
REMARK 927      BINDING AFFINITY PREDICTED BY RF-SCORE:    0.00 PKD
ROOT
HETATM    1  C   UNL     1     -11.933  12.991  63.468  1.00  0.00    -0.615 C  
HETATM    2  C   UNL     1     -12.376  12.484  64.830  1.00  0.00    -0.544 C  
ENDROOT
BRANCH   2   3
HETATM    3  C   UNL     1     -11.794  13.335  65.955  1.00  0.00    -0.440 C  
BRANCH   3   4
HETATM    4  C   UNL     1     -10.846  12.512  66.829  1.00  0.00    -0.281 C  
BRANCH   4   5
HETATM    5  C   UNL     1     -11.653  11.643  67.807  1.00  0.00    -0.289 C  
BRANCH   5   6
HETATM    6  N   UNL     1     -11.337  11.865  69.234  1.00  0.00    -0.268 NA 
HETATM    7  C   UNL     1     -11.982  13.093  69.726  1.00  0.00    -0.314 C  
BRANCH   6   8
HETATM    8  C   UNL     1     -11.824  10.731  70.053  1.00  0.00    -0.344 C  
BRANCH   8   9
HETATM    9  C   UNL     1     -10.712   9.921  70.733  1.00  0.00    -0.350 C  
BRANCH   9  10
HETATM   10  C   UNL     1     -10.874   8.374  70.661  1.00  0.00    -0.231 C  
HETATM   11  P   UNL     1     -10.444   7.743  72.323  1.00  0.00    -0.296 P  
HETATM   12  P   UNL     1      -9.842   7.642  69.327  1.00  0.00    -0.175 P  
HETATM   13  O   UNL     1     -12.281   8.086  70.354  1.00  0.00    -0.464 OA 
HETATM   14  O   UNL     1      -8.465   8.468  69.306  1.00  0.00    -0.124 OA 
HETATM   15  O   UNL     1      -9.583   6.179  69.221  1.00  0.00    -0.132 OA 
HETATM   16  O   UNL     1     -10.526   8.152  67.960  1.00  0.00    -0.216 OA 
HETATM   17  O   UNL     1     -12.006   8.081  72.775  1.00  0.00    -0.337 OA 
HETATM   18  O   UNL     1     -10.801   6.221  71.830  1.00  0.00    -0.231 OA 
HETATM   19  O   UNL     1     -10.080   7.209  73.730  1.00  0.00    -0.307 OA 
HETATM   20  H   UNL     1     -12.379   7.142  70.310  1.00  0.00     0.000 HD 
ENDBRANCH   9  10
ENDBRANCH   8   9
ENDBRANCH   6   8
ENDBRANCH   5   6
ENDBRANCH   4   5
ENDBRANCH   3   4
ENDBRANCH   2   3
TORSDOF 7
ENDMDL
MODEL       90
REMARK 921   NORMALIZED FREE ENERGY PREDICTED BY IDOCK:   -4.07 KCAL/MOL
REMARK 922        TOTAL FREE ENERGY PREDICTED BY IDOCK:   -6.42 KCAL/MOL
REMARK 923 INTER-LIGAND FREE ENERGY PREDICTED BY IDOCK:   -5.93 KCAL/MOL
REMARK 924 INTRA-LIGAND FREE ENERGY PREDICTED BY IDOCK:   -0.49 KCAL/MOL
REMARK 927      BINDING AFFINITY PREDICTED BY RF-SCORE:    0.00 PKD
ROOT
HETATM    1  C   UNL     1      -8.266   6.861  70.414  1.00  0.00    -0.124 C  
HETATM    2  C   UNL     1      -9.403   7.793  70.032  1.00  0.00    -0.157 C  
ENDROOT
BRANCH   2   3
HETATM    3  C   UNL     1      -9.516   8.960  71.008  1.00  0.00    -0.318 C  
BRANCH   3   4
HETATM    4  C   UNL     1     -10.865   9.665  70.865  1.00  0.00    -0.409 C  
BRANCH   4   5
HETATM    5  C   UNL     1     -10.937  10.397  69.515  1.00  0.00    -0.262 C  
BRANCH   5   6
HETATM    6  N   UNL     1     -12.104  11.292  69.361  1.00  0.00    -0.331 NA 
HETATM    7  C   UNL     1     -12.383  12.008  70.616  1.00  0.00    -0.304 C  
BRANCH   6   8
HETATM    8  C   UNL     1     -11.846  12.298  68.305  1.00  0.00    -0.310 C  
BRANCH   8   9
HETATM    9  C   UNL     1     -10.391  12.342  67.819  1.00  0.00    -0.222 C  
BRANCH   9  10
HETATM   10  C   UNL     1     -10.202  12.646  66.304  1.00  0.00    -0.251 C  
HETATM   11  P   UNL     1     -11.819  13.261  65.707  1.00  0.00    -0.436 P  
HETATM   12  P   UNL     1      -9.612  11.171  65.380  1.00  0.00    -0.243 P  
HETATM   13  O   UNL     1      -9.181  13.695  66.182  1.00  0.00    -0.475 OA 
HETATM   14  O   UNL     1     -10.354   9.900  66.022  1.00  0.00    -0.224 OA 
HETATM   15  O   UNL     1      -9.622  11.095  63.892  1.00  0.00    -0.225 OA 
HETATM   16  O   UNL     1      -8.105  10.943  65.903  1.00  0.00    -0.160 OA 
HETATM   17  O   UNL     1     -11.371  14.761  66.264  1.00  0.00    -0.343 OA 
HETATM   18  O   UNL     1     -11.171  13.501  64.220  1.00  0.00    -0.377 OA 
HETATM   19  O   UNL     1     -13.186  13.782  65.202  1.00  0.00    -0.757 OA 
HETATM   20  H   UNL     1      -9.066  13.880  65.258  1.00  0.00     0.000 HD 
ENDBRANCH   9  10
ENDBRANCH   8   9
ENDBRANCH   6   8
ENDBRANCH   5   6
ENDBRANCH   4   5
ENDBRANCH   3   4
ENDBRANCH   2   3
TORSDOF 7
ENDMDL
MODEL       91
REMARK 921   NORMALIZED FREE ENERGY PREDICTED BY IDOCK:   -4.07 KCAL/MOL
REMARK 922        TOTAL FREE ENERGY PREDICTED BY IDOCK:   -6.41 KCAL/MOL
REMARK 923 INTER-LIGAND FREE ENERGY PREDICTED BY IDOCK:   -5.91 KCAL/MOL
REMARK 924 INTRA-LIGAND FREE ENERGY PREDICTED BY IDOCK:   -0.50 KCAL/MOL
REMARK 927      BINDING AFFINITY PREDICTED BY RF-SCORE:    0.00 PKD
ROOT
HETATM    1  C   UNL     1     -13.196  10.266  70.853  1.00  0.00    -0.351 C  
HETATM    2  C   UNL     1     -12.326  11.511  70.913  1.00  0.00    -0.460 C  
ENDROOT
BRANCH   2   3
HETATM    3  C   UNL     1     -13.128  12.728  71.366  1.00  0.00    -0.318 C  
BRANCH   3   4
HETATM    4  C   UNL     1     -12.969  13.887  70.381  1.00  0.00    -0.087 C  
BRANCH   4   5
HETATM    5  C   UNL     1     -11.667  14.649  70.672  1.00  0.00    -0.281 C  
BRANCH   5   6
HETATM    6  N   UNL     1     -10.866  14.983  69.474  1.00  0.00    -0.254 NA 
HETATM    7  C   UNL     1     -11.576  14.589  68.246  1.00  0.00    -0.329 C  
BRANCH   6   8
HETATM    8  C   UNL     1     -10.613  16.440  69.412  1.00  0.00    -0.317 C  
BRANCH   8   9
HETATM    9  C   UNL     1     -10.724  17.040  68.003  1.00  0.00    -0.365 C  
BRANCH   9  10
HETATM   10  C   UNL     1      -9.516  17.913  67.553  1.00  0.00    -0.258 C  
HETATM   11  P   UNL     1     -10.195  19.158  66.396  1.00  0.00    -0.491 P  
HETATM   12  P   UNL     1      -8.180  16.896  66.807  1.00  0.00    -0.297 P  
HETATM   13  O   UNL     1      -8.971  18.571  68.748  1.00  0.00    -0.310 OA 
HETATM   14  O   UNL     1      -8.902  15.741  65.957  1.00  0.00    -0.327 OA 
HETATM   15  O   UNL     1      -7.049  17.490  66.039  1.00  0.00    -0.295 OA 
HETATM   16  O   UNL     1      -7.584  16.044  68.038  1.00  0.00    -0.124 OA 
HETATM   17  O   UNL     1     -10.605  20.063  67.728  1.00  0.00    -0.357 OA 
HETATM   18  O   UNL     1      -8.708  19.833  66.261  1.00  0.00    -0.353 OA 
HETATM   19  O   UNL     1     -10.770  20.211  65.419  1.00  0.00    -0.337 OA 
HETATM   20  H   UNL     1      -8.234  19.103  68.473  1.00  0.00     0.000 HD 
ENDBRANCH   9  10
ENDBRANCH   8   9
ENDBRANCH   6   8
ENDBRANCH   5   6
ENDBRANCH   4   5
ENDBRANCH   3   4
ENDBRANCH   2   3
TORSDOF 7
ENDMDL
MODEL       92
REMARK 921   NORMALIZED FREE ENERGY PREDICTED BY IDOCK:   -4.03 KCAL/MOL
REMARK 922        TOTAL FREE ENERGY PREDICTED BY IDOCK:   -6.36 KCAL/MOL
REMARK 923 INTER-LIGAND FREE ENERGY PREDICTED BY IDOCK:   -6.09 KCAL/MOL
REMARK 924 INTRA-LIGAND FREE ENERGY PREDICTED BY IDOCK:   -0.27 KCAL/MOL
REMARK 927      BINDING AFFINITY PREDICTED BY RF-SCORE:    0.00 PKD
ROOT
HETATM    1  C   UNL     1     -10.230  19.978  66.293  1.00  0.00    -0.595 C  
HETATM    2  C   UNL     1     -10.935  19.409  67.513  1.00  0.00    -0.416 C  
ENDROOT
BRANCH   2   3
HETATM    3  C   UNL     1     -10.138  19.673  68.788  1.00  0.00    -0.532 C  
BRANCH   3   4
HETATM    4  C   UNL     1      -9.001  18.663  68.943  1.00  0.00    -0.215 C  
BRANCH   4   5
HETATM    5  C   UNL     1      -9.447  17.286  68.427  1.00  0.00    -0.283 C  
BRANCH   5   6
HETATM    6  N   UNL     1      -8.366  16.279  68.342  1.00  0.00    -0.182 NA 
HETATM    7  C   UNL     1      -7.411  16.446  69.448  1.00  0.00    -0.150 C  
BRANCH   6   8
HETATM    8  C   UNL     1      -8.928  14.912  68.421  1.00  0.00    -0.183 C  
BRANCH   8   9
HETATM    9  C   UNL     1     -10.131  14.669  67.500  1.00  0.00    -0.224 C  
BRANCH   9  10
HETATM   10  C   UNL     1     -11.358  13.985  68.171  1.00  0.00    -0.292 C  
HETATM   11  P   UNL     1     -11.307  14.472  69.934  1.00  0.00    -0.169 P  
HETATM   12  P   UNL     1     -11.341  12.163  67.930  1.00  0.00    -0.343 P  
HETATM   13  O   UNL     1     -12.570  14.515  67.531  1.00  0.00    -0.517 OA 
HETATM   14  O   UNL     1      -9.806  11.702  68.033  1.00  0.00    -0.179 OA 
HETATM   15  O   UNL     1     -12.224  11.241  68.698  1.00  0.00    -0.562 OA 
HETATM   16  O   UNL     1     -11.617  11.961  66.355  1.00  0.00    -0.451 OA 
HETATM   17  O   UNL     1     -12.082  15.874  69.493  1.00  0.00    -0.329 OA 
HETATM   18  O   UNL     1     -12.704  13.654  70.193  1.00  0.00    -0.205 OA 
HETATM   19  O   UNL     1     -11.264  14.885  71.426  1.00  0.00    -0.265 OA 
HETATM   20  H   UNL     1     -13.318  14.097  67.940  1.00  0.00     0.000 HD 
ENDBRANCH   9  10
ENDBRANCH   8   9
ENDBRANCH   6   8
ENDBRANCH   5   6
ENDBRANCH   4   5
ENDBRANCH   3   4
ENDBRANCH   2   3
TORSDOF 7
ENDMDL
MODEL       93
REMARK 921   NORMALIZED FREE ENERGY PREDICTED BY IDOCK:   -4.02 KCAL/MOL
REMARK 922        TOTAL FREE ENERGY PREDICTED BY IDOCK:   -6.35 KCAL/MOL
REMARK 923 INTER-LIGAND FREE ENERGY PREDICTED BY IDOCK:   -5.71 KCAL/MOL
REMARK 924 INTRA-LIGAND FREE ENERGY PREDICTED BY IDOCK:   -0.64 KCAL/MOL
REMARK 927      BINDING AFFINITY PREDICTED BY RF-SCORE:    0.00 PKD
ROOT
HETATM    1  C   UNL     1      -7.579  20.019  68.312  1.00  0.00    -0.258 C  
HETATM    2  C   UNL     1      -8.732  20.426  67.410  1.00  0.00    -0.415 C  
ENDROOT
BRANCH   2   3
HETATM    3  C   UNL     1      -8.966  19.394  66.309  1.00  0.00    -0.374 C  
BRANCH   3   4
HETATM    4  C   UNL     1     -10.444  19.012  66.223  1.00  0.00    -0.534 C  
BRANCH   4   5
HETATM    5  C   UNL     1     -10.746  17.857  67.191  1.00  0.00    -0.230 C  
BRANCH   5   6
HETATM    6  N   UNL     1      -9.658  16.865  67.326  1.00  0.00    -0.242 NA 
HETATM    7  C   UNL     1      -9.491  16.461  68.731  1.00  0.00    -0.247 C  
BRANCH   6   8
HETATM    8  C   UNL     1      -9.963  15.653  66.533  1.00  0.00    -0.273 C  
BRANCH   8   9
HETATM    9  C   UNL     1      -9.751  14.334  67.288  1.00  0.00    -0.234 C  
BRANCH   9  10
HETATM   10  C   UNL     1     -10.799  13.220  66.995  1.00  0.00    -0.269 C  
HETATM   11  P   UNL     1     -11.185  12.450  68.609  1.00  0.00    -0.314 P  
HETATM   12  P   UNL     1     -10.182  12.012  65.755  1.00  0.00    -0.257 P  
HETATM   13  O   UNL     1     -11.995  13.868  66.440  1.00  0.00    -0.390 OA 
HETATM   14  O   UNL     1      -8.617  11.808  66.052  1.00  0.00    -0.084 OA 
HETATM   15  O   UNL     1     -10.849  10.704  65.504  1.00  0.00    -0.092 OA 
HETATM   16  O   UNL     1     -10.125  12.843  64.375  1.00  0.00    -0.326 OA 
HETATM   17  O   UNL     1     -12.272  13.682  68.854  1.00  0.00    -0.336 OA 
HETATM   18  O   UNL     1     -12.284  11.480  67.876  1.00  0.00    -0.586 OA 
HETATM   19  O   UNL     1     -11.511  11.800  69.976  1.00  0.00    -0.250 OA 
HETATM   20  H   UNL     1     -12.634  13.188  66.261  1.00  0.00     0.000 HD 
ENDBRANCH   9  10
ENDBRANCH   8   9
ENDBRANCH   6   8
ENDBRANCH   5   6
ENDBRANCH   4   5
ENDBRANCH   3   4
ENDBRANCH   2   3
TORSDOF 7
ENDMDL
MODEL       94
REMARK 921   NORMALIZED FREE ENERGY PREDICTED BY IDOCK:   -4.02 KCAL/MOL
REMARK 922        TOTAL FREE ENERGY PREDICTED BY IDOCK:   -6.34 KCAL/MOL
REMARK 923 INTER-LIGAND FREE ENERGY PREDICTED BY IDOCK:   -6.33 KCAL/MOL
REMARK 924 INTRA-LIGAND FREE ENERGY PREDICTED BY IDOCK:   -0.01 KCAL/MOL
REMARK 927      BINDING AFFINITY PREDICTED BY RF-SCORE:    0.00 PKD
ROOT
HETATM    1  C   UNL     1     -12.956  15.570  73.152  1.00  0.00    -0.634 C  
HETATM    2  C   UNL     1     -14.255  15.387  72.385  1.00  0.00    -0.584 C  
ENDROOT
BRANCH   2   3
HETATM    3  C   UNL     1     -14.362  13.981  71.801  1.00  0.00    -0.375 C  
BRANCH   3   4
HETATM    4  C   UNL     1     -13.083  13.182  72.057  1.00  0.00    -0.476 C  
BRANCH   4   5
HETATM    5  C   UNL     1     -13.215  11.771  71.462  1.00  0.00    -0.192 C  
BRANCH   5   6
HETATM    6  N   UNL     1     -12.029  11.305  70.712  1.00  0.00    -0.327 NA 
HETATM    7  C   UNL     1     -11.989   9.835  70.661  1.00  0.00    -0.259 C  
BRANCH   6   8
HETATM    8  C   UNL     1     -12.065  11.813  69.322  1.00  0.00    -0.229 C  
BRANCH   8   9
HETATM    9  C   UNL     1     -11.160  13.027  69.070  1.00  0.00    -0.281 C  
BRANCH   9  10
HETATM   10  C   UNL     1     -11.328  13.707  67.680  1.00  0.00    -0.300 C  
HETATM   11  P   UNL     1     -10.507  12.602  66.474  1.00  0.00    -0.255 P  
HETATM   12  P   UNL     1     -10.644  15.413  67.669  1.00  0.00    -0.291 P  
HETATM   13  O   UNL     1     -12.766  13.794  67.396  1.00  0.00    -0.245 OA 
HETATM   14  O   UNL     1      -9.317  15.382  68.571  1.00  0.00    -0.187 OA 
HETATM   15  O   UNL     1     -10.412  16.179  66.412  1.00  0.00    -0.301 OA 
HETATM   16  O   UNL     1     -11.640  16.254  68.616  1.00  0.00    -0.355 OA 
HETATM   17  O   UNL     1     -11.917  11.723  66.433  1.00  0.00    -0.515 OA 
HETATM   18  O   UNL     1     -10.967  13.600  65.258  1.00  0.00    -0.294 OA 
HETATM   19  O   UNL     1      -9.814  11.667  65.454  1.00  0.00    -0.228 OA 
HETATM   20  H   UNL     1     -12.868  14.209  66.548  1.00  0.00     0.000 HD 
ENDBRANCH   9  10
ENDBRANCH   8   9
ENDBRANCH   6   8
ENDBRANCH   5   6
ENDBRANCH   4   5
ENDBRANCH   3   4
ENDBRANCH   2   3
TORSDOF 7
ENDMDL
MODEL       95
REMARK 921   NORMALIZED FREE ENERGY PREDICTED BY IDOCK:   -3.99 KCAL/MOL
REMARK 922        TOTAL FREE ENERGY PREDICTED BY IDOCK:   -6.31 KCAL/MOL
REMARK 923 INTER-LIGAND FREE ENERGY PREDICTED BY IDOCK:   -5.54 KCAL/MOL
REMARK 924 INTRA-LIGAND FREE ENERGY PREDICTED BY IDOCK:   -0.77 KCAL/MOL
REMARK 927      BINDING AFFINITY PREDICTED BY RF-SCORE:    0.00 PKD
ROOT
HETATM    1  C   UNL     1     -12.578  12.235  63.662  1.00  0.00    -0.599 C  
HETATM    2  C   UNL     1     -11.777  12.644  64.886  1.00  0.00    -0.399 C  
ENDROOT
BRANCH   2   3
HETATM    3  C   UNL     1     -12.416  13.833  65.598  1.00  0.00    -0.541 C  
BRANCH   3   4
HETATM    4  C   UNL     1     -11.433  14.482  66.573  1.00  0.00    -0.366 C  
BRANCH   4   5
HETATM    5  C   UNL     1      -9.989  14.242  66.102  1.00  0.00    -0.314 C  
BRANCH   5   6
HETATM    6  N   UNL     1      -9.031  13.935  67.185  1.00  0.00    -0.226 NA 
HETATM    7  C   UNL     1      -8.688  15.151  67.939  1.00  0.00    -0.157 C  
BRANCH   6   8
HETATM    8  C   UNL     1      -9.617  12.957  68.131  1.00  0.00    -0.223 C  
BRANCH   8   9
HETATM    9  C   UNL     1      -9.585  11.505  67.637  1.00  0.00    -0.176 C  
BRANCH   9  10
HETATM   10  C   UNL     1     -10.302  10.472  68.555  1.00  0.00    -0.179 C  
HETATM   11  P   UNL     1     -11.431  11.440  69.620  1.00  0.00    -0.293 P  
HETATM   12  P   UNL     1      -9.103   9.462  69.513  1.00  0.00    -0.192 P  
HETATM   13  O   UNL     1     -11.070   9.564  67.691  1.00  0.00    -0.481 OA 
HETATM   14  O   UNL     1      -7.901  10.444  69.925  1.00  0.00    -0.146 OA 
HETATM   15  O   UNL     1      -9.508   8.609  70.665  1.00  0.00    -0.164 OA 
HETATM   16  O   UNL     1      -8.378   8.538  68.409  1.00  0.00    -0.121 OA 
HETATM   17  O   UNL     1     -12.530  11.391  68.375  1.00  0.00    -0.379 OA 
HETATM   18  O   UNL     1     -11.973  10.050  70.298  1.00  0.00    -0.249 OA 
HETATM   19  O   UNL     1     -12.386  12.260  70.522  1.00  0.00    -0.329 OA 
HETATM   20  H   UNL     1     -11.507   8.934  68.251  1.00  0.00     0.000 HD 
ENDBRANCH   9  10
ENDBRANCH   8   9
ENDBRANCH   6   8
ENDBRANCH   5   6
ENDBRANCH   4   5
ENDBRANCH   3   4
ENDBRANCH   2   3
TORSDOF 7
ENDMDL
MODEL       96
REMARK 921   NORMALIZED FREE ENERGY PREDICTED BY IDOCK:   -3.98 KCAL/MOL
REMARK 922        TOTAL FREE ENERGY PREDICTED BY IDOCK:   -6.30 KCAL/MOL
REMARK 923 INTER-LIGAND FREE ENERGY PREDICTED BY IDOCK:   -5.80 KCAL/MOL
REMARK 924 INTRA-LIGAND FREE ENERGY PREDICTED BY IDOCK:   -0.50 KCAL/MOL
REMARK 927      BINDING AFFINITY PREDICTED BY RF-SCORE:    0.00 PKD
ROOT
HETATM    1  C   UNL     1     -12.467  16.059  73.618  1.00  0.00    -0.700 C  
HETATM    2  C   UNL     1     -13.430  15.223  72.793  1.00  0.00    -0.619 C  
ENDROOT
BRANCH   2   3
HETATM    3  C   UNL     1     -12.900  14.995  71.380  1.00  0.00    -0.432 C  
BRANCH   3   4
HETATM    4  C   UNL     1     -11.894  16.079  70.992  1.00  0.00    -0.435 C  
BRANCH   4   5
HETATM    5  C   UNL     1     -10.842  15.502  70.031  1.00  0.00    -0.318 C  
BRANCH   5   6
HETATM    6  N   UNL     1     -10.849  16.099  68.678  1.00  0.00    -0.292 NA 
HETATM    7  C   UNL     1      -9.988  17.292  68.631  1.00  0.00    -0.327 C  
BRANCH   6   8
HETATM    8  C   UNL     1     -10.342  15.127  67.683  1.00  0.00    -0.248 C  
BRANCH   8   9
HETATM    9  C   UNL     1      -9.901  13.784  68.281  1.00  0.00    -0.232 C  
BRANCH   9  10
HETATM   10  C   UNL     1      -9.245  12.790  67.278  1.00  0.00    -0.203 C  
HETATM   11  P   UNL     1     -10.188  11.229  67.424  1.00  0.00    -0.201 P  
HETATM   12  P   UNL     1      -7.449  12.576  67.607  1.00  0.00    -0.162 P  
HETATM   13  O   UNL     1      -9.394  13.353  65.930  1.00  0.00    -0.486 OA 
HETATM   14  O   UNL     1      -7.269  12.593  69.202  1.00  0.00    -0.043 OA 
HETATM   15  O   UNL     1      -6.644  11.482  66.995  1.00  0.00    -0.113 OA 
HETATM   16  O   UNL     1      -6.793  13.993  67.209  1.00  0.00    -0.214 OA 
HETATM   17  O   UNL     1     -11.287  11.880  66.362  1.00  0.00    -0.331 OA 
HETATM   18  O   UNL     1      -9.268  10.571  66.237  1.00  0.00    -0.161 OA 
HETATM   19  O   UNL     1     -10.986   9.908  67.546  1.00  0.00    -0.282 OA 
HETATM   20  H   UNL     1      -8.994  12.746  65.318  1.00  0.00     0.000 HD 
ENDBRANCH   9  10
ENDBRANCH   8   9
ENDBRANCH   6   8
ENDBRANCH   5   6
ENDBRANCH   4   5
ENDBRANCH   3   4
ENDBRANCH   2   3
TORSDOF 7
ENDMDL
MODEL       97
REMARK 921   NORMALIZED FREE ENERGY PREDICTED BY IDOCK:   -3.97 KCAL/MOL
REMARK 922        TOTAL FREE ENERGY PREDICTED BY IDOCK:   -6.27 KCAL/MOL
REMARK 923 INTER-LIGAND FREE ENERGY PREDICTED BY IDOCK:   -5.69 KCAL/MOL
REMARK 924 INTRA-LIGAND FREE ENERGY PREDICTED BY IDOCK:   -0.58 KCAL/MOL
REMARK 927      BINDING AFFINITY PREDICTED BY RF-SCORE:    0.00 PKD
ROOT
HETATM    1  C   UNL     1     -13.269  11.152  71.879  1.00  0.00    -0.488 C  
HETATM    2  C   UNL     1     -12.368  10.543  70.819  1.00  0.00    -0.474 C  
ENDROOT
BRANCH   2   3
HETATM    3  C   UNL     1     -12.031  11.555  69.727  1.00  0.00    -0.415 C  
BRANCH   3   4
HETATM    4  C   UNL     1     -11.419  10.863  68.509  1.00  0.00    -0.380 C  
BRANCH   4   5
HETATM    5  C   UNL     1      -9.886  10.920  68.585  1.00  0.00    -0.190 C  
BRANCH   5   6
HETATM    6  N   UNL     1      -9.240  11.671  67.487  1.00  0.00    -0.169 NA 
HETATM    7  C   UNL     1     -10.170  11.846  66.359  1.00  0.00    -0.209 C  
BRANCH   6   8
HETATM    8  C   UNL     1      -8.825  13.013  67.954  1.00  0.00    -0.193 C  
BRANCH   8   9
HETATM    9  C   UNL     1      -8.794  14.083  66.853  1.00  0.00    -0.212 C  
BRANCH   9  10
HETATM   10  C   UNL     1      -9.361  15.474  67.258  1.00  0.00    -0.212 C  
HETATM   11  P   UNL     1     -10.175  16.144  65.762  1.00  0.00    -0.335 P  
HETATM   12  P   UNL     1      -8.049  16.581  67.916  1.00  0.00    -0.170 P  
HETATM   13  O   UNL     1     -10.349  15.261  68.324  1.00  0.00    -0.229 OA 
HETATM   14  O   UNL     1      -6.730  16.295  67.047  1.00  0.00    -0.191 OA 
HETATM   15  O   UNL     1      -8.252  18.045  68.107  1.00  0.00    -0.255 OA 
HETATM   16  O   UNL     1      -7.635  15.923  69.328  1.00  0.00    -0.204 OA 
HETATM   17  O   UNL     1     -11.515  15.256  66.184  1.00  0.00    -0.237 OA 
HETATM   18  O   UNL     1     -10.645  17.461  66.616  1.00  0.00    -0.281 OA 
HETATM   19  O   UNL     1     -10.864  16.710  64.497  1.00  0.00    -0.847 OA 
HETATM   20  H   UNL     1     -10.695  16.110  68.571  1.00  0.00     0.000 HD 
ENDBRANCH   9  10
ENDBRANCH   8   9
ENDBRANCH   6   8
ENDBRANCH   5   6
ENDBRANCH   4   5
ENDBRANCH   3   4
ENDBRANCH   2   3
TORSDOF 7
ENDMDL
MODEL       98
REMARK 921   NORMALIZED FREE ENERGY PREDICTED BY IDOCK:   -3.96 KCAL/MOL
REMARK 922        TOTAL FREE ENERGY PREDICTED BY IDOCK:   -6.27 KCAL/MOL
REMARK 923 INTER-LIGAND FREE ENERGY PREDICTED BY IDOCK:   -5.69 KCAL/MOL
REMARK 924 INTRA-LIGAND FREE ENERGY PREDICTED BY IDOCK:   -0.58 KCAL/MOL
REMARK 927      BINDING AFFINITY PREDICTED BY RF-SCORE:    0.00 PKD
ROOT
HETATM    1  C   UNL     1     -10.011  20.157  66.431  1.00  0.00    -0.573 C  
HETATM    2  C   UNL     1     -10.886  19.608  67.544  1.00  0.00    -0.463 C  
ENDROOT
BRANCH   2   3
HETATM    3  C   UNL     1     -10.065  19.288  68.790  1.00  0.00    -0.477 C  
BRANCH   3   4
HETATM    4  C   UNL     1      -8.719  18.667  68.415  1.00  0.00    -0.361 C  
BRANCH   4   5
HETATM    5  C   UNL     1      -8.924  17.229  67.913  1.00  0.00    -0.235 C  
BRANCH   5   6
HETATM    6  N   UNL     1      -8.568  17.015  66.493  1.00  0.00    -0.249 NA 
HETATM    7  C   UNL     1      -7.137  17.274  66.270  1.00  0.00    -0.276 C  
BRANCH   6   8
HETATM    8  C   UNL     1      -8.851  15.617  66.096  1.00  0.00    -0.276 C  
BRANCH   8   9
HETATM    9  C   UNL     1      -9.900  14.913  66.968  1.00  0.00    -0.239 C  
BRANCH   9  10
HETATM   10  C   UNL     1      -9.527  13.474  67.429  1.00  0.00    -0.225 C  
HETATM   11  P   UNL     1      -7.702  13.376  67.358  1.00  0.00    -0.028 P  
HETATM   12  P   UNL     1     -10.354  12.193  66.402  1.00  0.00    -0.232 P  
HETATM   13  O   UNL     1      -9.993  13.314  68.813  1.00  0.00    -0.394 OA 
HETATM   14  O   UNL     1     -10.364  12.749  64.896  1.00  0.00    -0.298 OA 
HETATM   15  O   UNL     1      -9.959  10.757  66.434  1.00  0.00    -0.201 OA 
HETATM   16  O   UNL     1     -11.915  12.314  66.783  1.00  0.00    -0.586 OA 
HETATM   17  O   UNL     1      -7.679  14.076  68.865  1.00  0.00    -0.130 OA 
HETATM   18  O   UNL     1      -7.767  11.849  67.949  1.00  0.00    -0.114 OA 
HETATM   19  O   UNL     1      -6.157  13.294  67.298  1.00  0.00    -0.328 OA 
HETATM   20  H   UNL     1      -9.766  12.435  69.094  1.00  0.00     0.000 HD 
ENDBRANCH   9  10
ENDBRANCH   8   9
ENDBRANCH   6   8
ENDBRANCH   5   6
ENDBRANCH   4   5
ENDBRANCH   3   4
ENDBRANCH   2   3
TORSDOF 7
ENDMDL
MODEL       99
REMARK 921   NORMALIZED FREE ENERGY PREDICTED BY IDOCK:   -3.96 KCAL/MOL
REMARK 922        TOTAL FREE ENERGY PREDICTED BY IDOCK:   -6.26 KCAL/MOL
REMARK 923 INTER-LIGAND FREE ENERGY PREDICTED BY IDOCK:   -5.68 KCAL/MOL
REMARK 924 INTRA-LIGAND FREE ENERGY PREDICTED BY IDOCK:   -0.59 KCAL/MOL
REMARK 927      BINDING AFFINITY PREDICTED BY RF-SCORE:    0.00 PKD
ROOT
HETATM    1  C   UNL     1      -9.292  11.020  68.518  1.00  0.00    -0.188 C  
HETATM    2  C   UNL     1     -10.480  10.205  69.001  1.00  0.00    -0.239 C  
ENDROOT
BRANCH   2   3
HETATM    3  C   UNL     1     -11.659  11.103  69.364  1.00  0.00    -0.388 C  
BRANCH   3   4
HETATM    4  C   UNL     1     -11.466  12.513  68.806  1.00  0.00    -0.353 C  
BRANCH   4   5
HETATM    5  C   UNL     1     -12.213  13.533  69.680  1.00  0.00    -0.247 C  
BRANCH   5   6
HETATM    6  N   UNL     1     -12.055  14.941  69.257  1.00  0.00    -0.281 NA 
HETATM    7  C   UNL     1     -11.900  15.822  70.425  1.00  0.00    -0.368 C  
BRANCH   6   8
HETATM    8  C   UNL     1     -10.854  15.091  68.404  1.00  0.00    -0.256 C  
BRANCH   8   9
HETATM    9  C   UNL     1      -9.737  15.937  69.031  1.00  0.00    -0.243 C  
BRANCH   9  10
HETATM   10  C   UNL     1      -8.868  16.747  68.025  1.00  0.00    -0.216 C  
HETATM   11  P   UNL     1      -9.884  16.932  66.515  1.00  0.00    -0.323 P  
HETATM   12  P   UNL     1      -7.253  15.931  67.706  1.00  0.00    -0.180 P  
HETATM   13  O   UNL     1      -8.601  18.061  68.624  1.00  0.00    -0.303 OA 
HETATM   14  O   UNL     1      -7.535  14.350  67.679  1.00  0.00    -0.145 OA 
HETATM   15  O   UNL     1      -6.357  16.329  66.584  1.00  0.00    -0.281 OA 
HETATM   16  O   UNL     1      -6.446  16.074  69.094  1.00  0.00    -0.137 OA 
HETATM   17  O   UNL     1     -10.604  18.238  67.248  1.00  0.00    -0.398 OA 
HETATM   18  O   UNL     1      -8.695  17.832  65.834  1.00  0.00    -0.514 OA 
HETATM   19  O   UNL     1     -10.744  17.089  65.237  1.00  0.00    -0.616 OA 
HETATM   20  H   UNL     1      -8.071  18.556  68.010  1.00  0.00     0.000 HD 
ENDBRANCH   9  10
ENDBRANCH   8   9
ENDBRANCH   6   8
ENDBRANCH   5   6
ENDBRANCH   4   5
ENDBRANCH   3   4
ENDBRANCH   2   3
TORSDOF 7
ENDMDL
MODEL      100
REMARK 921   NORMALIZED FREE ENERGY PREDICTED BY IDOCK:   -3.96 KCAL/MOL
REMARK 922        TOTAL FREE ENERGY PREDICTED BY IDOCK:   -6.26 KCAL/MOL
REMARK 923 INTER-LIGAND FREE ENERGY PREDICTED BY IDOCK:   -5.51 KCAL/MOL
REMARK 924 INTRA-LIGAND FREE ENERGY PREDICTED BY IDOCK:   -0.76 KCAL/MOL
REMARK 927      BINDING AFFINITY PREDICTED BY RF-SCORE:    0.00 PKD
ROOT
HETATM    1  C   UNL     1     -12.887  15.538  71.958  1.00  0.00    -0.500 C  
HETATM    2  C   UNL     1     -12.876  14.601  70.762  1.00  0.00    -0.418 C  
ENDROOT
BRANCH   2   3
HETATM    3  C   UNL     1     -11.800  14.999  69.755  1.00  0.00    -0.357 C  
BRANCH   3   4
HETATM    4  C   UNL     1     -11.937  14.196  68.461  1.00  0.00    -0.367 C  
BRANCH   4   5
HETATM    5  C   UNL     1     -10.682  14.378  67.593  1.00  0.00    -0.263 C  
BRANCH   5   6
HETATM    6  N   UNL     1      -9.406  14.094  68.286  1.00  0.00    -0.199 NA 
HETATM    7  C   UNL     1      -9.118  12.652  68.279  1.00  0.00    -0.181 C  
BRANCH   6   8
HETATM    8  C   UNL     1      -8.287  14.790  67.612  1.00  0.00    -0.170 C  
BRANCH   8   9
HETATM    9  C   UNL     1      -8.705  16.037  66.820  1.00  0.00    -0.287 C  
BRANCH   9  10
HETATM   10  C   UNL     1      -8.563  17.389  67.580  1.00  0.00    -0.217 C  
HETATM   11  P   UNL     1      -9.594  18.593  66.667  1.00  0.00    -0.352 P  
HETATM   12  P   UNL     1      -6.807  17.911  67.721  1.00  0.00    -0.196 P  
HETATM   13  O   UNL     1      -9.088  17.194  68.938  1.00  0.00    -0.260 OA 
HETATM   14  O   UNL     1      -6.094  17.503  66.341  1.00  0.00    -0.188 OA 
HETATM   15  O   UNL     1      -6.406  19.284  68.139  1.00  0.00    -0.217 OA 
HETATM   16  O   UNL     1      -6.147  16.844  68.734  1.00  0.00    -0.144 OA 
HETATM   17  O   UNL     1     -10.895  18.020  67.527  1.00  0.00    -0.379 OA 
HETATM   18  O   UNL     1      -9.226  19.740  67.778  1.00  0.00    -0.321 OA 
HETATM   19  O   UNL     1     -10.467  19.611  65.894  1.00  0.00    -0.494 OA 
HETATM   20  H   UNL     1      -9.001  18.019  69.402  1.00  0.00     0.000 HD 
ENDBRANCH   9  10
ENDBRANCH   8   9
ENDBRANCH   6   8
ENDBRANCH   5   6
ENDBRANCH   4   5
ENDBRANCH   3   4
ENDBRANCH   2   3
TORSDOF 7
ENDMDL
MODEL      101
REMARK 921   NORMALIZED FREE ENERGY PREDICTED BY IDOCK:   -3.96 KCAL/MOL
REMARK 922        TOTAL FREE ENERGY PREDICTED BY IDOCK:   -6.26 KCAL/MOL
REMARK 923 INTER-LIGAND FREE ENERGY PREDICTED BY IDOCK:   -5.82 KCAL/MOL
REMARK 924 INTRA-LIGAND FREE ENERGY PREDICTED BY IDOCK:   -0.44 KCAL/MOL
REMARK 927      BINDING AFFINITY PREDICTED BY RF-SCORE:    0.00 PKD
ROOT
HETATM    1  C   UNL     1     -12.163  14.663  64.248  1.00  0.00    -0.432 C  
HETATM    2  C   UNL     1     -12.119  13.216  63.787  1.00  0.00    -0.563 C  
ENDROOT
BRANCH   2   3
HETATM    3  C   UNL     1     -12.015  12.259  64.971  1.00  0.00    -0.413 C  
BRANCH   3   4
HETATM    4  C   UNL     1     -10.565  12.111  65.431  1.00  0.00    -0.309 C  
BRANCH   4   5
HETATM    5  C   UNL     1     -10.494  12.124  66.966  1.00  0.00    -0.220 C  
BRANCH   5   6
HETATM    6  N   UNL     1      -9.750  13.266  67.539  1.00  0.00    -0.219 NA 
HETATM    7  C   UNL     1      -8.591  12.796  68.315  1.00  0.00    -0.166 C  
BRANCH   6   8
HETATM    8  C   UNL     1      -9.253  14.151  66.462  1.00  0.00    -0.224 C  
BRANCH   8   9
HETATM    9  C   UNL     1      -8.267  15.228  66.934  1.00  0.00    -0.263 C  
BRANCH   9  10
HETATM   10  C   UNL     1      -8.845  16.671  67.019  1.00  0.00    -0.199 C  
HETATM   11  P   UNL     1      -7.401  17.787  67.148  1.00  0.00    -0.201 P  
HETATM   12  P   UNL     1     -10.019  16.853  68.422  1.00  0.00    -0.311 P  
HETATM   13  O   UNL     1      -9.582  16.931  65.776  1.00  0.00    -0.515 OA 
HETATM   14  O   UNL     1      -9.427  15.980  69.632  1.00  0.00    -0.226 OA 
HETATM   15  O   UNL     1     -10.493  18.180  68.908  1.00  0.00    -0.282 OA 
HETATM   16  O   UNL     1     -11.296  15.966  67.999  1.00  0.00    -0.342 OA 
HETATM   17  O   UNL     1      -7.293  17.718  65.492  1.00  0.00    -0.489 OA 
HETATM   18  O   UNL     1      -8.409  19.080  67.137  1.00  0.00    -0.270 OA 
HETATM   19  O   UNL     1      -6.180  18.732  67.256  1.00  0.00    -0.177 OA 
HETATM   20  H   UNL     1      -9.935  17.812  65.828  1.00  0.00     0.000 HD 
ENDBRANCH   9  10
ENDBRANCH   8   9
ENDBRANCH   6   8
ENDBRANCH   5   6
ENDBRANCH   4   5
ENDBRANCH   3   4
ENDBRANCH   2   3
TORSDOF 7
ENDMDL
MODEL      102
REMARK 921   NORMALIZED FREE ENERGY PREDICTED BY IDOCK:   -3.94 KCAL/MOL
REMARK 922        TOTAL FREE ENERGY PREDICTED BY IDOCK:   -6.23 KCAL/MOL
REMARK 923 INTER-LIGAND FREE ENERGY PREDICTED BY IDOCK:   -5.71 KCAL/MOL
REMARK 924 INTRA-LIGAND FREE ENERGY PREDICTED BY IDOCK:   -0.52 KCAL/MOL
REMARK 927      BINDING AFFINITY PREDICTED BY RF-SCORE:    0.00 PKD
ROOT
HETATM    1  C   UNL     1     -12.644  15.752  71.864  1.00  0.00    -0.522 C  
HETATM    2  C   UNL     1     -13.228  14.351  71.941  1.00  0.00    -0.444 C  
ENDROOT
BRANCH   2   3
HETATM    3  C   UNL     1     -12.489  13.390  71.015  1.00  0.00    -0.437 C  
BRANCH   3   4
HETATM    4  C   UNL     1     -12.047  14.095  69.732  1.00  0.00    -0.409 C  
BRANCH   4   5
HETATM    5  C   UNL     1     -11.166  13.158  68.892  1.00  0.00    -0.277 C  
BRANCH   5   6
HETATM    6  N   UNL     1     -11.914  12.193  68.057  1.00  0.00    -0.492 NA 
HETATM    7  C   UNL     1     -11.769  12.516  66.629  1.00  0.00    -0.387 C  
BRANCH   6   8
HETATM    8  C   UNL     1     -11.402  10.820  68.272  1.00  0.00    -0.309 C  
BRANCH   8   9
HETATM    9  C   UNL     1     -10.817  10.576  69.669  1.00  0.00    -0.320 C  
BRANCH   9  10
HETATM   10  C   UNL     1     -10.377   9.112  69.963  1.00  0.00    -0.207 C  
HETATM   11  P   UNL     1     -10.981   8.731  71.648  1.00  0.00    -0.368 P  
HETATM   12  P   UNL     1      -8.560   8.897  69.788  1.00  0.00    -0.152 P  
HETATM   13  O   UNL     1     -11.033   8.243  68.977  1.00  0.00    -0.427 OA 
HETATM   14  O   UNL     1      -7.883  10.237  70.355  1.00  0.00    -0.153 OA 
HETATM   15  O   UNL     1      -7.841   7.690  70.283  1.00  0.00    -0.090 OA 
HETATM   16  O   UNL     1      -8.284   9.058  68.208  1.00  0.00    -0.114 OA 
HETATM   17  O   UNL     1     -12.447   8.361  70.958  1.00  0.00    -0.228 OA 
HETATM   18  O   UNL     1     -10.404   7.204  71.501  1.00  0.00    -0.202 OA 
HETATM   19  O   UNL     1     -11.493   8.409  73.073  1.00  0.00    -0.167 OA 
HETATM   20  H   UNL     1     -10.765   7.350  69.156  1.00  0.00     0.000 HD 
ENDBRANCH   9  10
ENDBRANCH   8   9
ENDBRANCH   6   8
ENDBRANCH   5   6
ENDBRANCH   4   5
ENDBRANCH   3   4
ENDBRANCH   2   3
TORSDOF 7
ENDMDL
MODEL      103
REMARK 921   NORMALIZED FREE ENERGY PREDICTED BY IDOCK:   -3.93 KCAL/MOL
REMARK 922        TOTAL FREE ENERGY PREDICTED BY IDOCK:   -6.21 KCAL/MOL
REMARK 923 INTER-LIGAND FREE ENERGY PREDICTED BY IDOCK:   -5.99 KCAL/MOL
REMARK 924 INTRA-LIGAND FREE ENERGY PREDICTED BY IDOCK:   -0.23 KCAL/MOL
REMARK 927      BINDING AFFINITY PREDICTED BY RF-SCORE:    0.00 PKD
ROOT
HETATM    1  C   UNL     1      -8.091   4.919  65.985  1.00  0.00    -0.108 C  
HETATM    2  C   UNL     1      -8.653   5.777  67.107  1.00  0.00    -0.109 C  
ENDROOT
BRANCH   2   3
HETATM    3  C   UNL     1      -9.604   6.843  66.569  1.00  0.00    -0.197 C  
BRANCH   3   4
HETATM    4  C   UNL     1      -9.403   8.173  67.295  1.00  0.00    -0.174 C  
BRANCH   4   5
HETATM    5  C   UNL     1     -10.428   9.204  66.798  1.00  0.00    -0.196 C  
BRANCH   5   6
HETATM    6  N   UNL     1     -10.321  10.536  67.434  1.00  0.00    -0.210 NA 
HETATM    7  C   UNL     1      -8.923  10.839  67.776  1.00  0.00    -0.137 C  
BRANCH   6   8
HETATM    8  C   UNL     1     -10.808  11.587  66.512  1.00  0.00    -0.288 C  
BRANCH   8   9
HETATM    9  C   UNL     1     -11.299  12.862  67.212  1.00  0.00    -0.356 C  
BRANCH   9  10
HETATM   10  C   UNL     1     -11.697  14.032  66.266  1.00  0.00    -0.387 C  
HETATM   11  P   UNL     1     -11.747  13.324  64.579  1.00  0.00    -0.425 P  
HETATM   12  P   UNL     1     -10.540  15.452  66.413  1.00  0.00    -0.305 P  
HETATM   13  O   UNL     1     -13.033  14.494  66.665  1.00  0.00    -0.175 OA 
HETATM   14  O   UNL     1      -9.073  14.830  66.610  1.00  0.00    -0.254 OA 
HETATM   15  O   UNL     1     -10.512  16.573  65.432  1.00  0.00    -0.543 OA 
HETATM   16  O   UNL     1     -10.819  16.051  67.882  1.00  0.00    -0.316 OA 
HETATM   17  O   UNL     1     -13.291  12.813  64.919  1.00  0.00    -0.736 OA 
HETATM   18  O   UNL     1     -12.239  14.774  63.993  1.00  0.00    -0.577 OA 
HETATM   19  O   UNL     1     -11.790  12.725  63.153  1.00  0.00    -0.493 OA 
HETATM   20  H   UNL     1     -13.276  15.208  66.087  1.00  0.00     0.000 HD 
ENDBRANCH   9  10
ENDBRANCH   8   9
ENDBRANCH   6   8
ENDBRANCH   5   6
ENDBRANCH   4   5
ENDBRANCH   3   4
ENDBRANCH   2   3
TORSDOF 7
ENDMDL
MODEL      104
REMARK 921   NORMALIZED FREE ENERGY PREDICTED BY IDOCK:   -3.91 KCAL/MOL
REMARK 922        TOTAL FREE ENERGY PREDICTED BY IDOCK:   -6.20 KCAL/MOL
REMARK 923 INTER-LIGAND FREE ENERGY PREDICTED BY IDOCK:   -5.53 KCAL/MOL
REMARK 924 INTRA-LIGAND FREE ENERGY PREDICTED BY IDOCK:   -0.66 KCAL/MOL
REMARK 927      BINDING AFFINITY PREDICTED BY RF-SCORE:    0.00 PKD
ROOT
HETATM    1  C   UNL     1     -10.098  15.497  65.394  1.00  0.00    -0.387 C  
HETATM    2  C   UNL     1     -11.438  14.959  65.866  1.00  0.00    -0.276 C  
ENDROOT
BRANCH   2   3
HETATM    3  C   UNL     1     -12.136  14.162  64.767  1.00  0.00    -0.454 C  
BRANCH   3   4
HETATM    4  C   UNL     1     -12.472  12.749  65.244  1.00  0.00    -0.528 C  
BRANCH   4   5
HETATM    5  C   UNL     1     -12.002  12.557  66.695  1.00  0.00    -0.281 C  
BRANCH   5   6
HETATM    6  N   UNL     1     -11.352  11.256  66.965  1.00  0.00    -0.429 NA 
HETATM    7  C   UNL     1      -9.969  11.250  66.465  1.00  0.00    -0.212 C  
BRANCH   6   8
HETATM    8  C   UNL     1     -11.316  10.991  68.422  1.00  0.00    -0.295 C  
BRANCH   8   9
HETATM    9  C   UNL     1     -10.022  10.326  68.910  1.00  0.00    -0.209 C  
BRANCH   9  10
HETATM   10  C   UNL     1     -10.181   8.878  69.457  1.00  0.00    -0.204 C  
HETATM   11  P   UNL     1      -9.170   8.799  70.980  1.00  0.00    -0.261 P  
HETATM   12  P   UNL     1      -9.694   7.619  68.209  1.00  0.00    -0.166 P  
HETATM   13  O   UNL     1     -11.600   8.674  69.776  1.00  0.00    -0.436 OA 
HETATM   14  O   UNL     1      -8.429   8.218  67.423  1.00  0.00    -0.123 OA 
HETATM   15  O   UNL     1      -9.475   6.186  68.553  1.00  0.00    -0.120 OA 
HETATM   16  O   UNL     1     -10.834   7.715  67.073  1.00  0.00    -0.334 OA 
HETATM   17  O   UNL     1     -10.467   9.456  71.786  1.00  0.00    -0.282 OA 
HETATM   18  O   UNL     1      -9.665   7.255  71.220  1.00  0.00    -0.167 OA 
HETATM   19  O   UNL     1      -8.316   8.733  72.270  1.00  0.00    -0.367 OA 
HETATM   20  H   UNL     1     -11.697   7.790  70.109  1.00  0.00     0.000 HD 
ENDBRANCH   9  10
ENDBRANCH   8   9
ENDBRANCH   6   8
ENDBRANCH   5   6
ENDBRANCH   4   5
ENDBRANCH   3   4
ENDBRANCH   2   3
TORSDOF 7
ENDMDL
MODEL      105
REMARK 921   NORMALIZED FREE ENERGY PREDICTED BY IDOCK:   -3.90 KCAL/MOL
REMARK 922        TOTAL FREE ENERGY PREDICTED BY IDOCK:   -6.18 KCAL/MOL
REMARK 923 INTER-LIGAND FREE ENERGY PREDICTED BY IDOCK:   -5.64 KCAL/MOL
REMARK 924 INTRA-LIGAND FREE ENERGY PREDICTED BY IDOCK:   -0.54 KCAL/MOL
REMARK 927      BINDING AFFINITY PREDICTED BY RF-SCORE:    0.00 PKD
ROOT
HETATM    1  C   UNL     1     -12.450   8.342  71.845  1.00  0.00    -0.390 C  
HETATM    2  C   UNL     1     -13.399   9.455  72.258  1.00  0.00    -0.539 C  
ENDROOT
BRANCH   2   3
HETATM    3  C   UNL     1     -12.978  10.794  71.660  1.00  0.00    -0.581 C  
BRANCH   3   4
HETATM    4  C   UNL     1     -12.526  10.628  70.208  1.00  0.00    -0.381 C  
BRANCH   4   5
HETATM    5  C   UNL     1     -11.557  11.757  69.826  1.00  0.00    -0.299 C  
BRANCH   5   6
HETATM    6  N   UNL     1     -12.159  12.841  69.019  1.00  0.00    -0.219 NA 
HETATM    7  C   UNL     1     -12.115  14.119  69.747  1.00  0.00    -0.354 C  
BRANCH   6   8
HETATM    8  C   UNL     1     -11.420  13.010  67.748  1.00  0.00    -0.316 C  
BRANCH   8   9
HETATM    9  C   UNL     1     -11.790  11.990  66.662  1.00  0.00    -0.239 C  
BRANCH   9  10
HETATM   10  C   UNL     1     -10.604  11.482  65.791  1.00  0.00    -0.263 C  
HETATM   11  P   UNL     1      -9.087  11.815  66.758  1.00  0.00    -0.199 P  
HETATM   12  P   UNL     1     -10.586  12.276  64.134  1.00  0.00    -0.450 P  
HETATM   13  O   UNL     1     -10.779  10.036  65.599  1.00  0.00     0.032 OA 
HETATM   14  O   UNL     1     -11.036  13.802  64.351  1.00  0.00    -0.379 OA 
HETATM   15  O   UNL     1      -9.416  12.194  63.215  1.00  0.00    -0.269 OA 
HETATM   16  O   UNL     1     -11.881  11.677  63.384  1.00  0.00    -0.415 OA 
HETATM   17  O   UNL     1      -9.370  10.385  67.556  1.00  0.00    -0.147 OA 
HETATM   18  O   UNL     1      -8.191  11.107  65.583  1.00  0.00    -0.088 OA 
HETATM   19  O   UNL     1      -7.804  12.097  67.577  1.00  0.00    -0.141 OA 
HETATM   20  H   UNL     1     -10.055   9.726  65.067  1.00  0.00     0.000 HD 
ENDBRANCH   9  10
ENDBRANCH   8   9
ENDBRANCH   6   8
ENDBRANCH   5   6
ENDBRANCH   4   5
ENDBRANCH   3   4
ENDBRANCH   2   3
TORSDOF 7
ENDMDL
MODEL      106
REMARK 921   NORMALIZED FREE ENERGY PREDICTED BY IDOCK:   -3.89 KCAL/MOL
REMARK 922        TOTAL FREE ENERGY PREDICTED BY IDOCK:   -6.16 KCAL/MOL
REMARK 923 INTER-LIGAND FREE ENERGY PREDICTED BY IDOCK:   -5.42 KCAL/MOL
REMARK 924 INTRA-LIGAND FREE ENERGY PREDICTED BY IDOCK:   -0.75 KCAL/MOL
REMARK 927      BINDING AFFINITY PREDICTED BY RF-SCORE:    0.00 PKD
ROOT
HETATM    1  C   UNL     1     -11.960  13.291  63.496  1.00  0.00    -0.537 C  
HETATM    2  C   UNL     1     -11.746  11.787  63.485  1.00  0.00    -0.485 C  
ENDROOT
BRANCH   2   3
HETATM    3  C   UNL     1     -10.306  11.428  63.842  1.00  0.00    -0.434 C  
BRANCH   3   4
HETATM    4  C   UNL     1     -10.219  10.853  65.256  1.00  0.00    -0.351 C  
BRANCH   4   5
HETATM    5  C   UNL     1      -9.214  11.663  66.092  1.00  0.00    -0.219 C  
BRANCH   5   6
HETATM    6  N   UNL     1      -9.783  12.282  67.309  1.00  0.00    -0.193 NA 
HETATM    7  C   UNL     1     -10.438  11.270  68.152  1.00  0.00    -0.189 C  
BRANCH   6   8
HETATM    8  C   UNL     1      -8.714  12.924  68.107  1.00  0.00    -0.190 C  
BRANCH   8   9
HETATM    9  C   UNL     1      -9.099  14.289  68.695  1.00  0.00    -0.160 C  
BRANCH   9  10
HETATM   10  C   UNL     1      -8.908  15.504  67.740  1.00  0.00    -0.172 C  
HETATM   11  P   UNL     1      -7.764  16.646  68.598  1.00  0.00    -0.242 P  
HETATM   12  P   UNL     1     -10.513  16.289  67.308  1.00  0.00    -0.259 P  
HETATM   13  O   UNL     1      -8.299  15.007  66.500  1.00  0.00    -0.405 OA 
HETATM   14  O   UNL     1     -11.421  16.238  68.630  1.00  0.00    -0.367 OA 
HETATM   15  O   UNL     1     -10.605  17.625  66.654  1.00  0.00    -0.305 OA 
HETATM   16  O   UNL     1     -11.258  15.202  66.381  1.00  0.00    -0.339 OA 
HETATM   17  O   UNL     1      -6.516  15.728  67.997  1.00  0.00    -0.116 OA 
HETATM   18  O   UNL     1      -7.799  17.644  67.298  1.00  0.00    -0.199 OA 
HETATM   19  O   UNL     1      -6.795  17.611  69.323  1.00  0.00    -0.252 OA 
HETATM   20  H   UNL     1      -8.183  15.748  65.918  1.00  0.00     0.000 HD 
ENDBRANCH   9  10
ENDBRANCH   8   9
ENDBRANCH   6   8
ENDBRANCH   5   6
ENDBRANCH   4   5
ENDBRANCH   3   4
ENDBRANCH   2   3
TORSDOF 7
ENDMDL
MODEL      107
REMARK 921   NORMALIZED FREE ENERGY PREDICTED BY IDOCK:   -3.88 KCAL/MOL
REMARK 922        TOTAL FREE ENERGY PREDICTED BY IDOCK:   -6.15 KCAL/MOL
REMARK 923 INTER-LIGAND FREE ENERGY PREDICTED BY IDOCK:   -5.53 KCAL/MOL
REMARK 924 INTRA-LIGAND FREE ENERGY PREDICTED BY IDOCK:   -0.62 KCAL/MOL
REMARK 927      BINDING AFFINITY PREDICTED BY RF-SCORE:    0.00 PKD
ROOT
HETATM    1  C   UNL     1     -10.266  15.603  67.502  1.00  0.00    -0.263 C  
HETATM    2  C   UNL     1      -9.974  14.604  68.610  1.00  0.00    -0.234 C  
ENDROOT
BRANCH   2   3
HETATM    3  C   UNL     1     -10.203  13.170  68.139  1.00  0.00    -0.239 C  
BRANCH   3   4
HETATM    4  C   UNL     1     -11.687  12.805  68.197  1.00  0.00    -0.392 C  
BRANCH   4   5
HETATM    5  C   UNL     1     -11.869  11.452  68.902  1.00  0.00    -0.347 C  
BRANCH   5   6
HETATM    6  N   UNL     1     -11.806  11.513  70.378  1.00  0.00    -0.348 NA 
HETATM    7  C   UNL     1     -12.535  12.687  70.883  1.00  0.00    -0.278 C  
BRANCH   6   8
HETATM    8  C   UNL     1     -12.418  10.301  70.970  1.00  0.00    -0.384 C  
BRANCH   8   9
HETATM    9  C   UNL     1     -11.431   9.400  71.723  1.00  0.00    -0.413 C  
BRANCH   9  10
HETATM   10  C   UNL     1     -10.863   8.202  70.906  1.00  0.00    -0.230 C  
HETATM   11  P   UNL     1     -11.321   6.694  71.835  1.00  0.00    -0.310 P  
HETATM   12  P   UNL     1      -9.052   8.357  70.638  1.00  0.00    -0.177 P  
HETATM   13  O   UNL     1     -11.517   8.210  69.591  1.00  0.00    -0.440 OA 
HETATM   14  O   UNL     1      -8.440   8.978  71.986  1.00  0.00    -0.368 OA 
HETATM   15  O   UNL     1      -8.212   7.229  70.146  1.00  0.00    -0.129 OA 
HETATM   16  O   UNL     1      -8.896   9.603  69.628  1.00  0.00    -0.168 OA 
HETATM   17  O   UNL     1     -12.798   6.765  71.077  1.00  0.00    -0.290 OA 
HETATM   18  O   UNL     1     -10.642   5.773  70.661  1.00  0.00    -0.244 OA 
HETATM   19  O   UNL     1     -11.709   5.418  72.621  1.00  0.00    -0.271 OA 
HETATM   20  H   UNL     1     -11.171   7.479  69.092  1.00  0.00     0.000 HD 
ENDBRANCH   9  10
ENDBRANCH   8   9
ENDBRANCH   6   8
ENDBRANCH   5   6
ENDBRANCH   4   5
ENDBRANCH   3   4
ENDBRANCH   2   3
TORSDOF 7
ENDMDL
MODEL      108
REMARK 921   NORMALIZED FREE ENERGY PREDICTED BY IDOCK:   -3.87 KCAL/MOL
REMARK 922        TOTAL FREE ENERGY PREDICTED BY IDOCK:   -6.14 KCAL/MOL
REMARK 923 INTER-LIGAND FREE ENERGY PREDICTED BY IDOCK:   -5.49 KCAL/MOL
REMARK 924 INTRA-LIGAND FREE ENERGY PREDICTED BY IDOCK:   -0.65 KCAL/MOL
REMARK 927      BINDING AFFINITY PREDICTED BY RF-SCORE:    0.00 PKD
ROOT
HETATM    1  C   UNL     1      -7.701  19.719  65.843  1.00  0.00    -0.328 C  
HETATM    2  C   UNL     1      -9.134  19.960  66.288  1.00  0.00    -0.436 C  
ENDROOT
BRANCH   2   3
HETATM    3  C   UNL     1      -9.937  18.663  66.300  1.00  0.00    -0.398 C  
BRANCH   3   4
HETATM    4  C   UNL     1     -10.718  18.514  67.607  1.00  0.00    -0.405 C  
BRANCH   4   5
HETATM    5  C   UNL     1     -10.138  17.360  68.438  1.00  0.00    -0.347 C  
BRANCH   5   6
HETATM    6  N   UNL     1      -8.717  17.054  68.163  1.00  0.00    -0.225 NA 
HETATM    7  C   UNL     1      -7.836  17.815  69.062  1.00  0.00    -0.097 C  
BRANCH   6   8
HETATM    8  C   UNL     1      -8.451  15.612  68.369  1.00  0.00    -0.164 C  
BRANCH   8   9
HETATM    9  C   UNL     1      -8.842  14.722  67.181  1.00  0.00    -0.234 C  
BRANCH   9  10
HETATM   10  C   UNL     1      -9.633  13.431  67.546  1.00  0.00    -0.221 C  
HETATM   11  P   UNL     1      -8.564  12.029  67.059  1.00  0.00    -0.172 P  
HETATM   12  P   UNL     1     -11.283  13.390  66.737  1.00  0.00    -0.333 P  
HETATM   13  O   UNL     1      -9.842  13.432  69.000  1.00  0.00    -0.413 OA 
HETATM   14  O   UNL     1     -11.091  14.019  65.272  1.00  0.00    -0.304 OA 
HETATM   15  O   UNL     1     -12.120  12.159  66.679  1.00  0.00    -0.622 OA 
HETATM   16  O   UNL     1     -12.120  14.558  67.466  1.00  0.00    -0.366 OA 
HETATM   17  O   UNL     1      -7.792  12.205  68.520  1.00  0.00    -0.134 OA 
HETATM   18  O   UNL     1      -9.679  10.983  67.651  1.00  0.00    -0.166 OA 
HETATM   19  O   UNL     1      -7.659  10.842  66.647  1.00  0.00    -0.121 OA 
HETATM   20  H   UNL     1     -10.325  12.645  69.223  1.00  0.00     0.000 HD 
ENDBRANCH   9  10
ENDBRANCH   8   9
ENDBRANCH   6   8
ENDBRANCH   5   6
ENDBRANCH   4   5
ENDBRANCH   3   4
ENDBRANCH   2   3
TORSDOF 7
ENDMDL
MODEL      109
REMARK 921   NORMALIZED FREE ENERGY PREDICTED BY IDOCK:   -3.86 KCAL/MOL
REMARK 922        TOTAL FREE ENERGY PREDICTED BY IDOCK:   -6.13 KCAL/MOL
REMARK 923 INTER-LIGAND FREE ENERGY PREDICTED BY IDOCK:   -5.34 KCAL/MOL
REMARK 924 INTRA-LIGAND FREE ENERGY PREDICTED BY IDOCK:   -0.79 KCAL/MOL
REMARK 927      BINDING AFFINITY PREDICTED BY RF-SCORE:    0.00 PKD
ROOT
HETATM    1  C   UNL     1      -7.001  19.128  65.693  1.00  0.00    -0.293 C  
HETATM    2  C   UNL     1      -6.859  20.439  66.449  1.00  0.00    -0.290 C  
ENDROOT
BRANCH   2   3
HETATM    3  C   UNL     1      -8.080  20.712  67.322  1.00  0.00    -0.315 C  
BRANCH   3   4
HETATM    4  C   UNL     1      -9.352  20.167  66.671  1.00  0.00    -0.490 C  
BRANCH   4   5
HETATM    5  C   UNL     1     -10.245  19.506  67.733  1.00  0.00    -0.429 C  
BRANCH   5   6
HETATM    6  N   UNL     1     -10.897  18.252  67.297  1.00  0.00    -0.325 NA 
HETATM    7  C   UNL     1     -10.771  18.078  65.842  1.00  0.00    -0.116 C  
BRANCH   6   8
HETATM    8  C   UNL     1     -10.265  17.087  67.957  1.00  0.00    -0.319 C  
BRANCH   8   9
HETATM    9  C   UNL     1      -9.247  16.342  67.082  1.00  0.00    -0.225 C  
BRANCH   9  10
HETATM   10  C   UNL     1      -9.356  14.790  67.105  1.00  0.00    -0.224 C  
HETATM   11  P   UNL     1     -11.045  14.410  67.699  1.00  0.00    -0.327 P  
HETATM   12  P   UNL     1      -8.044  14.029  68.143  1.00  0.00    -0.175 P  
HETATM   13  O   UNL     1      -9.179  14.309  65.728  1.00  0.00    -0.515 OA 
HETATM   14  O   UNL     1      -7.838  14.998  69.407  1.00  0.00    -0.190 OA 
HETATM   15  O   UNL     1      -8.082  12.602  68.571  1.00  0.00    -0.143 OA 
HETATM   16  O   UNL     1      -6.679  14.293  67.328  1.00  0.00    -0.259 OA 
HETATM   17  O   UNL     1     -11.562  14.620  66.134  1.00  0.00    -0.360 OA 
HETATM   18  O   UNL     1     -10.747  12.811  67.501  1.00  0.00    -0.225 OA 
HETATM   19  O   UNL     1     -12.474  14.090  68.200  1.00  0.00    -0.116 OA 
HETATM   20  H   UNL     1      -9.246  13.362  65.743  1.00  0.00     0.000 HD 
ENDBRANCH   9  10
ENDBRANCH   8   9
ENDBRANCH   6   8
ENDBRANCH   5   6
ENDBRANCH   4   5
ENDBRANCH   3   4
ENDBRANCH   2   3
TORSDOF 7
ENDMDL
MODEL      110
REMARK 921   NORMALIZED FREE ENERGY PREDICTED BY IDOCK:   -3.86 KCAL/MOL
REMARK 922        TOTAL FREE ENERGY PREDICTED BY IDOCK:   -6.12 KCAL/MOL
REMARK 923 INTER-LIGAND FREE ENERGY PREDICTED BY IDOCK:   -5.71 KCAL/MOL
REMARK 924 INTRA-LIGAND FREE ENERGY PREDICTED BY IDOCK:   -0.42 KCAL/MOL
REMARK 927      BINDING AFFINITY PREDICTED BY RF-SCORE:    0.00 PKD
ROOT
HETATM    1  C   UNL     1     -12.124  14.345  64.481  1.00  0.00    -0.498 C  
HETATM    2  C   UNL     1     -12.204  12.844  64.705  1.00  0.00    -0.499 C  
ENDROOT
BRANCH   2   3
HETATM    3  C   UNL     1     -11.456  12.079  63.617  1.00  0.00    -0.556 C  
BRANCH   3   4
HETATM    4  C   UNL     1     -10.426  11.127  64.226  1.00  0.00    -0.427 C  
BRANCH   4   5
HETATM    5  C   UNL     1     -10.453  11.234  65.759  1.00  0.00    -0.254 C  
BRANCH   5   6
HETATM    6  N   UNL     1     -10.660   9.950  66.464  1.00  0.00    -0.137 NA 
HETATM    7  C   UNL     1      -9.578   9.003  66.150  1.00  0.00    -0.272 C  
BRANCH   6   8
HETATM    8  C   UNL     1     -10.675  10.162  67.929  1.00  0.00    -0.269 C  
BRANCH   8   9
HETATM    9  C   UNL     1     -10.501   8.880  68.754  1.00  0.00    -0.223 C  
BRANCH   9  10
HETATM   10  C   UNL     1     -10.275   9.093  70.280  1.00  0.00    -0.214 C  
HETATM   11  P   UNL     1      -8.643   8.358  70.657  1.00  0.00    -0.165 P  
HETATM   12  P   UNL     1     -11.636   8.367  71.279  1.00  0.00    -0.300 P  
HETATM   13  O   UNL     1     -10.253  10.541  70.529  1.00  0.00    -0.310 OA 
HETATM   14  O   UNL     1     -12.062   7.001  70.551  1.00  0.00    -0.313 OA 
HETATM   15  O   UNL     1     -11.537   8.174  72.753  1.00  0.00    -0.411 OA 
HETATM   16  O   UNL     1     -12.913   9.296  70.959  1.00  0.00    -0.243 OA 
HETATM   17  O   UNL     1      -7.965   9.790  70.156  1.00  0.00    -0.167 OA 
HETATM   18  O   UNL     1      -8.790   8.847  72.214  1.00  0.00    -0.397 OA 
HETATM   19  O   UNL     1      -7.261   7.737  70.975  1.00  0.00    -0.053 OA 
HETATM   20  H   UNL     1     -10.115  10.671  71.460  1.00  0.00     0.000 HD 
ENDBRANCH   9  10
ENDBRANCH   8   9
ENDBRANCH   6   8
ENDBRANCH   5   6
ENDBRANCH   4   5
ENDBRANCH   3   4
ENDBRANCH   2   3
TORSDOF 7
ENDMDL
MODEL      111
REMARK 921   NORMALIZED FREE ENERGY PREDICTED BY IDOCK:   -3.86 KCAL/MOL
REMARK 922        TOTAL FREE ENERGY PREDICTED BY IDOCK:   -6.12 KCAL/MOL
REMARK 923 INTER-LIGAND FREE ENERGY PREDICTED BY IDOCK:   -5.59 KCAL/MOL
REMARK 924 INTRA-LIGAND FREE ENERGY PREDICTED BY IDOCK:   -0.53 KCAL/MOL
REMARK 927      BINDING AFFINITY PREDICTED BY RF-SCORE:    0.00 PKD
ROOT
HETATM    1  C   UNL     1     -12.188  15.184  73.290  1.00  0.00    -0.540 C  
HETATM    2  C   UNL     1     -12.058  16.174  72.145  1.00  0.00    -0.593 C  
ENDROOT
BRANCH   2   3
HETATM    3  C   UNL     1     -12.031  15.463  70.795  1.00  0.00    -0.402 C  
BRANCH   3   4
HETATM    4  C   UNL     1     -12.188  13.952  70.969  1.00  0.00    -0.421 C  
BRANCH   4   5
HETATM    5  C   UNL     1     -12.155  13.258  69.598  1.00  0.00    -0.270 C  
BRANCH   5   6
HETATM    6  N   UNL     1     -10.824  12.757  69.193  1.00  0.00    -0.138 NA 
HETATM    7  C   UNL     1     -10.911  11.362  68.731  1.00  0.00    -0.208 C  
BRANCH   6   8
HETATM    8  C   UNL     1     -10.281  13.575  68.085  1.00  0.00    -0.249 C  
BRANCH   8   9
HETATM    9  C   UNL     1      -9.398  14.745  68.539  1.00  0.00    -0.199 C  
BRANCH   9  10
HETATM   10  C   UNL     1      -8.699  15.537  67.395  1.00  0.00    -0.178 C  
HETATM   11  P   UNL     1      -7.094  16.096  68.075  1.00  0.00    -0.148 P  
HETATM   12  P   UNL     1      -9.742  16.924  66.790  1.00  0.00    -0.294 P  
HETATM   13  O   UNL     1      -8.484  14.610  66.277  1.00  0.00    -0.377 OA 
HETATM   14  O   UNL     1     -10.479  17.540  68.076  1.00  0.00    -0.356 OA 
HETATM   15  O   UNL     1      -9.213  18.007  65.913  1.00  0.00    -0.520 OA 
HETATM   16  O   UNL     1     -10.977  16.205  66.044  1.00  0.00    -0.204 OA 
HETATM   17  O   UNL     1      -6.489  14.601  67.675  1.00  0.00    -0.167 OA 
HETATM   18  O   UNL     1      -6.718  16.756  66.622  1.00  0.00    -0.215 OA 
HETATM   19  O   UNL     1      -5.737  16.568  68.649  1.00  0.00    -0.115 OA 
HETATM   20  H   UNL     1      -8.058  15.094  65.579  1.00  0.00     0.000 HD 
ENDBRANCH   9  10
ENDBRANCH   8   9
ENDBRANCH   6   8
ENDBRANCH   5   6
ENDBRANCH   4   5
ENDBRANCH   3   4
ENDBRANCH   2   3
TORSDOF 7
ENDMDL
MODEL      112
REMARK 921   NORMALIZED FREE ENERGY PREDICTED BY IDOCK:   -3.86 KCAL/MOL
REMARK 922        TOTAL FREE ENERGY PREDICTED BY IDOCK:   -6.11 KCAL/MOL
REMARK 923 INTER-LIGAND FREE ENERGY PREDICTED BY IDOCK:   -5.68 KCAL/MOL
REMARK 924 INTRA-LIGAND FREE ENERGY PREDICTED BY IDOCK:   -0.43 KCAL/MOL
REMARK 927      BINDING AFFINITY PREDICTED BY RF-SCORE:    0.00 PKD
ROOT
HETATM    1  C   UNL     1      -8.123   9.981  64.893  1.00  0.00    -0.154 C  
HETATM    2  C   UNL     1      -9.633  10.047  65.048  1.00  0.00    -0.362 C  
ENDROOT
BRANCH   2   3
HETATM    3  C   UNL     1     -10.229  11.169  64.201  1.00  0.00    -0.405 C  
BRANCH   3   4
HETATM    4  C   UNL     1     -10.203  12.498  64.956  1.00  0.00    -0.301 C  
BRANCH   4   5
HETATM    5  C   UNL     1     -11.056  13.540  64.216  1.00  0.00    -0.351 C  
BRANCH   5   6
HETATM    6  N   UNL     1     -11.602  14.613  65.075  1.00  0.00    -0.371 NA 
HETATM    7  C   UNL     1     -12.443  14.049  66.143  1.00  0.00    -0.430 C  
BRANCH   6   8
HETATM    8  C   UNL     1     -10.502  15.375  65.710  1.00  0.00    -0.355 C  
BRANCH   8   9
HETATM    9  C   UNL     1     -10.878  16.032  67.045  1.00  0.00    -0.227 C  
BRANCH   9  10
HETATM   10  C   UNL     1      -9.700  16.691  67.821  1.00  0.00    -0.240 C  
HETATM   11  P   UNL     1      -8.563  17.351  66.547  1.00  0.00    -0.239 P  
HETATM   12  P   UNL     1      -8.885  15.503  68.962  1.00  0.00    -0.269 P  
HETATM   13  O   UNL     1     -10.254  17.786  68.627  1.00  0.00    -0.355 OA 
HETATM   14  O   UNL     1      -8.869  14.083  68.212  1.00  0.00    -0.175 OA 
HETATM   15  O   UNL     1      -7.569  15.777  69.604  1.00  0.00    -0.199 OA 
HETATM   16  O   UNL     1      -9.980  15.230  70.112  1.00  0.00    -0.216 OA 
HETATM   17  O   UNL     1      -9.534  18.698  66.485  1.00  0.00    -0.306 OA 
HETATM   18  O   UNL     1      -7.606  17.962  67.729  1.00  0.00    -0.208 OA 
HETATM   19  O   UNL     1      -7.603  17.910  65.470  1.00  0.00    -0.518 OA 
HETATM   20  H   UNL     1      -9.535  18.188  69.100  1.00  0.00     0.000 HD 
ENDBRANCH   9  10
ENDBRANCH   8   9
ENDBRANCH   6   8
ENDBRANCH   5   6
ENDBRANCH   4   5
ENDBRANCH   3   4
ENDBRANCH   2   3
TORSDOF 7
ENDMDL
MODEL      113
REMARK 921   NORMALIZED FREE ENERGY PREDICTED BY IDOCK:   -3.84 KCAL/MOL
REMARK 922        TOTAL FREE ENERGY PREDICTED BY IDOCK:   -6.10 KCAL/MOL
REMARK 923 INTER-LIGAND FREE ENERGY PREDICTED BY IDOCK:   -5.39 KCAL/MOL
REMARK 924 INTRA-LIGAND FREE ENERGY PREDICTED BY IDOCK:   -0.70 KCAL/MOL
REMARK 927      BINDING AFFINITY PREDICTED BY RF-SCORE:    0.00 PKD
ROOT
HETATM    1  C   UNL     1     -12.187  13.424  63.331  1.00  0.00    -0.419 C  
HETATM    2  C   UNL     1     -11.982  11.971  63.728  1.00  0.00    -0.588 C  
ENDROOT
BRANCH   2   3
HETATM    3  C   UNL     1     -10.499  11.627  63.829  1.00  0.00    -0.454 C  
BRANCH   3   4
HETATM    4  C   UNL     1     -10.266  10.495  64.829  1.00  0.00    -0.373 C  
BRANCH   4   5
HETATM    5  C   UNL     1      -8.819  10.538  65.347  1.00  0.00    -0.187 C  
BRANCH   5   6
HETATM    6  N   UNL     1      -8.691  10.532  66.820  1.00  0.00    -0.131 NA 
HETATM    7  C   UNL     1      -7.876   9.391  67.267  1.00  0.00    -0.099 C  
BRANCH   6   8
HETATM    8  C   UNL     1      -8.036  11.775  67.286  1.00  0.00    -0.161 C  
BRANCH   8   9
HETATM    9  C   UNL     1      -8.751  13.064  66.856  1.00  0.00    -0.158 C  
BRANCH   9  10
HETATM   10  C   UNL     1      -9.742  13.657  67.900  1.00  0.00    -0.234 C  
HETATM   11  P   UNL     1     -11.342  13.838  67.032  1.00  0.00    -0.361 P  
HETATM   12  P   UNL     1      -9.125  15.239  68.603  1.00  0.00    -0.215 P  
HETATM   13  O   UNL     1      -9.864  12.690  68.999  1.00  0.00    -0.410 OA 
HETATM   14  O   UNL     1      -8.407  16.027  67.403  1.00  0.00    -0.155 OA 
HETATM   15  O   UNL     1      -9.989  16.158  69.397  1.00  0.00    -0.238 OA 
HETATM   16  O   UNL     1      -7.853  14.817  69.497  1.00  0.00    -0.140 OA 
HETATM   17  O   UNL     1     -11.627  12.238  67.380  1.00  0.00    -0.328 OA 
HETATM   18  O   UNL     1     -12.027  14.373  68.422  1.00  0.00    -0.331 OA 
HETATM   19  O   UNL     1     -12.697  13.990  66.298  1.00  0.00    -0.414 OA 
HETATM   20  H   UNL     1     -10.468  13.052  69.636  1.00  0.00     0.000 HD 
ENDBRANCH   9  10
ENDBRANCH   8   9
ENDBRANCH   6   8
ENDBRANCH   5   6
ENDBRANCH   4   5
ENDBRANCH   3   4
ENDBRANCH   2   3
TORSDOF 7
ENDMDL
MODEL      114
REMARK 921   NORMALIZED FREE ENERGY PREDICTED BY IDOCK:   -3.84 KCAL/MOL
REMARK 922        TOTAL FREE ENERGY PREDICTED BY IDOCK:   -6.09 KCAL/MOL
REMARK 923 INTER-LIGAND FREE ENERGY PREDICTED BY IDOCK:   -5.59 KCAL/MOL
REMARK 924 INTRA-LIGAND FREE ENERGY PREDICTED BY IDOCK:   -0.49 KCAL/MOL
REMARK 927      BINDING AFFINITY PREDICTED BY RF-SCORE:    0.00 PKD
ROOT
HETATM    1  C   UNL     1     -12.767  13.734  65.476  1.00  0.00    -0.530 C  
HETATM    2  C   UNL     1     -11.928  14.107  66.686  1.00  0.00    -0.470 C  
ENDROOT
BRANCH   2   3
HETATM    3  C   UNL     1     -10.750  14.994  66.294  1.00  0.00    -0.322 C  
BRANCH   3   4
HETATM    4  C   UNL     1      -9.443  14.458  66.878  1.00  0.00    -0.268 C  
BRANCH   4   5
HETATM    5  C   UNL     1      -9.474  14.551  68.412  1.00  0.00    -0.209 C  
BRANCH   5   6
HETATM    6  N   UNL     1      -8.395  15.373  69.002  1.00  0.00    -0.205 NA 
HETATM    7  C   UNL     1      -7.271  14.526  69.432  1.00  0.00    -0.120 C  
BRANCH   6   8
HETATM    8  C   UNL     1      -7.885  16.345  68.009  1.00  0.00    -0.155 C  
BRANCH   8   9
HETATM    9  C   UNL     1      -8.057  17.814  68.418  1.00  0.00    -0.297 C  
BRANCH   9  10
HETATM   10  C   UNL     1      -6.867  18.751  68.056  1.00  0.00    -0.229 C  
HETATM   11  P   UNL     1      -6.507  19.717  69.568  1.00  0.00    -0.318 P  
HETATM   12  P   UNL     1      -7.251  19.810  66.604  1.00  0.00    -0.256 P  
HETATM   13  O   UNL     1      -5.721  17.902  67.708  1.00  0.00    -0.145 OA 
HETATM   14  O   UNL     1      -8.797  20.223  66.732  1.00  0.00    -0.317 OA 
HETATM   15  O   UNL     1      -6.418  20.986  66.222  1.00  0.00    -0.256 OA 
HETATM   16  O   UNL     1      -7.308  18.786  65.361  1.00  0.00    -0.491 OA 
HETATM   17  O   UNL     1      -5.592  18.430  70.083  1.00  0.00    -0.229 OA 
HETATM   18  O   UNL     1      -5.253  20.440  68.798  1.00  0.00    -0.204 OA 
HETATM   19  O   UNL     1      -6.202  20.534  70.847  1.00  0.00    -0.572 OA 
HETATM   20  H   UNL     1      -4.995  18.474  67.487  1.00  0.00     0.000 HD 
ENDBRANCH   9  10
ENDBRANCH   8   9
ENDBRANCH   6   8
ENDBRANCH   5   6
ENDBRANCH   4   5
ENDBRANCH   3   4
ENDBRANCH   2   3
TORSDOF 7
ENDMDL
MODEL      115
REMARK 921   NORMALIZED FREE ENERGY PREDICTED BY IDOCK:   -3.83 KCAL/MOL
REMARK 922        TOTAL FREE ENERGY PREDICTED BY IDOCK:   -6.08 KCAL/MOL
REMARK 923 INTER-LIGAND FREE ENERGY PREDICTED BY IDOCK:   -5.44 KCAL/MOL
REMARK 924 INTRA-LIGAND FREE ENERGY PREDICTED BY IDOCK:   -0.64 KCAL/MOL
REMARK 927      BINDING AFFINITY PREDICTED BY RF-SCORE:    0.00 PKD
ROOT
HETATM    1  C   UNL     1     -11.384  12.000  66.611  1.00  0.00    -0.399 C  
HETATM    2  C   UNL     1     -10.098  12.593  66.059  1.00  0.00    -0.274 C  
ENDROOT
BRANCH   2   3
HETATM    3  C   UNL     1     -10.290  14.051  65.650  1.00  0.00    -0.342 C  
BRANCH   3   4
HETATM    4  C   UNL     1     -11.234  14.771  66.614  1.00  0.00    -0.346 C  
BRANCH   4   5
HETATM    5  C   UNL     1     -10.663  16.151  66.977  1.00  0.00    -0.254 C  
BRANCH   5   6
HETATM    6  N   UNL     1     -10.978  16.607  68.348  1.00  0.00    -0.357 NA 
HETATM    7  C   UNL     1     -11.470  15.490  69.169  1.00  0.00    -0.348 C  
BRANCH   6   8
HETATM    8  C   UNL     1      -9.767  17.158  68.998  1.00  0.00    -0.212 C  
BRANCH   8   9
HETATM    9  C   UNL     1      -8.959  18.119  68.116  1.00  0.00    -0.298 C  
BRANCH   9  10
HETATM   10  C   UNL     1      -7.414  17.932  68.167  1.00  0.00    -0.250 C  
HETATM   11  P   UNL     1      -6.702  19.617  68.213  1.00  0.00    -0.297 P  
HETATM   12  P   UNL     1      -6.801  16.934  66.751  1.00  0.00    -0.222 P  
HETATM   13  O   UNL     1      -7.092  17.208  69.404  1.00  0.00    -0.215 OA 
HETATM   14  O   UNL     1      -7.677  17.360  65.475  1.00  0.00    -0.312 OA 
HETATM   15  O   UNL     1      -5.357  16.843  66.395  1.00  0.00    -0.350 OA 
HETATM   16  O   UNL     1      -7.364  15.450  67.028  1.00  0.00    -0.196 OA 
HETATM   17  O   UNL     1      -6.955  19.599  69.856  1.00  0.00    -0.252 OA 
HETATM   18  O   UNL     1      -5.200  18.971  68.329  1.00  0.00    -0.179 OA 
HETATM   19  O   UNL     1      -6.100  21.042  68.253  1.00  0.00    -0.337 OA 
HETATM   20  H   UNL     1      -6.150  17.094  69.435  1.00  0.00     0.000 HD 
ENDBRANCH   9  10
ENDBRANCH   8   9
ENDBRANCH   6   8
ENDBRANCH   5   6
ENDBRANCH   4   5
ENDBRANCH   3   4
ENDBRANCH   2   3
TORSDOF 7
ENDMDL
MODEL      116
REMARK 921   NORMALIZED FREE ENERGY PREDICTED BY IDOCK:   -3.83 KCAL/MOL
REMARK 922        TOTAL FREE ENERGY PREDICTED BY IDOCK:   -6.07 KCAL/MOL
REMARK 923 INTER-LIGAND FREE ENERGY PREDICTED BY IDOCK:   -5.36 KCAL/MOL
REMARK 924 INTRA-LIGAND FREE ENERGY PREDICTED BY IDOCK:   -0.72 KCAL/MOL
REMARK 927      BINDING AFFINITY PREDICTED BY RF-SCORE:    0.00 PKD
ROOT
HETATM    1  C   UNL     1      -6.559  20.325  65.039  1.00  0.00    -0.331 C  
HETATM    2  C   UNL     1      -6.263  21.024  66.355  1.00  0.00    -0.330 C  
ENDROOT
BRANCH   2   3
HETATM    3  C   UNL     1      -7.060  20.408  67.502  1.00  0.00    -0.349 C  
BRANCH   3   4
HETATM    4  C   UNL     1      -8.187  19.521  66.973  1.00  0.00    -0.308 C  
BRANCH   4   5
HETATM    5  C   UNL     1      -8.078  18.113  67.579  1.00  0.00    -0.238 C  
BRANCH   5   6
HETATM    6  N   UNL     1      -9.158  17.185  67.179  1.00  0.00    -0.224 NA 
HETATM    7  C   UNL     1     -10.160  17.875  66.352  1.00  0.00    -0.369 C  
BRANCH   6   8
HETATM    8  C   UNL     1      -8.606  16.061  66.390  1.00  0.00    -0.334 C  
BRANCH   8   9
HETATM    9  C   UNL     1      -9.577  14.888  66.196  1.00  0.00    -0.340 C  
BRANCH   9  10
HETATM   10  C   UNL     1      -9.751  13.955  67.429  1.00  0.00    -0.234 C  
HETATM   11  P   UNL     1      -9.076  12.328  66.931  1.00  0.00    -0.205 P  
HETATM   12  P   UNL     1     -11.503  13.866  67.977  1.00  0.00    -0.347 P  
HETATM   13  O   UNL     1      -8.961  14.519  68.531  1.00  0.00    -0.180 OA 
HETATM   14  O   UNL     1     -12.401  13.880  66.646  1.00  0.00    -0.435 OA 
HETATM   15  O   UNL     1     -11.996  12.839  68.937  1.00  0.00    -0.300 OA 
HETATM   16  O   UNL     1     -11.816  15.331  68.572  1.00  0.00    -0.338 OA 
HETATM   17  O   UNL     1      -7.574  12.910  67.337  1.00  0.00    -0.157 OA 
HETATM   18  O   UNL     1      -9.378  11.751  68.436  1.00  0.00    -0.191 OA 
HETATM   19  O   UNL     1      -8.505  10.952  66.510  1.00  0.00    -0.147 OA 
HETATM   20  H   UNL     1      -9.067  13.949  69.284  1.00  0.00     0.000 HD 
ENDBRANCH   9  10
ENDBRANCH   8   9
ENDBRANCH   6   8
ENDBRANCH   5   6
ENDBRANCH   4   5
ENDBRANCH   3   4
ENDBRANCH   2   3
TORSDOF 7
ENDMDL
MODEL      117
REMARK 921   NORMALIZED FREE ENERGY PREDICTED BY IDOCK:   -3.81 KCAL/MOL
REMARK 922        TOTAL FREE ENERGY PREDICTED BY IDOCK:   -6.05 KCAL/MOL
REMARK 923 INTER-LIGAND FREE ENERGY PREDICTED BY IDOCK:   -5.51 KCAL/MOL
REMARK 924 INTRA-LIGAND FREE ENERGY PREDICTED BY IDOCK:   -0.54 KCAL/MOL
REMARK 927      BINDING AFFINITY PREDICTED BY RF-SCORE:    0.00 PKD
ROOT
HETATM    1  C   UNL     1     -11.103   7.942  70.168  1.00  0.00    -0.204 C  
HETATM    2  C   UNL     1     -10.479   8.722  69.023  1.00  0.00    -0.220 C  
ENDROOT
BRANCH   2   3
HETATM    3  C   UNL     1     -10.265  10.185  69.399  1.00  0.00    -0.246 C  
BRANCH   3   4
HETATM    4  C   UNL     1     -11.339  11.075  68.771  1.00  0.00    -0.349 C  
BRANCH   4   5
HETATM    5  C   UNL     1     -11.135  11.152  67.250  1.00  0.00    -0.302 C  
BRANCH   5   6
HETATM    6  N   UNL     1      -9.966  11.951  66.823  1.00  0.00    -0.194 NA 
HETATM    7  C   UNL     1      -9.251  11.284  65.724  1.00  0.00    -0.219 C  
BRANCH   6   8
HETATM    8  C   UNL     1     -10.399  13.285  66.348  1.00  0.00    -0.286 C  
BRANCH   8   9
HETATM    9  C   UNL     1      -9.317  14.369  66.439  1.00  0.00    -0.284 C  
BRANCH   9  10
HETATM   10  C   UNL     1      -9.669  15.589  67.340  1.00  0.00    -0.218 C  
HETATM   11  P   UNL     1     -11.135  15.091  68.315  1.00  0.00    -0.314 P  
HETATM   12  P   UNL     1      -9.951  17.111  66.348  1.00  0.00    -0.298 P  
HETATM   13  O   UNL     1      -8.525  15.833  68.228  1.00  0.00    -0.159 OA 
HETATM   14  O   UNL     1     -10.710  16.652  65.010  1.00  0.00    -0.677 OA 
HETATM   15  O   UNL     1     -10.576  18.338  66.917  1.00  0.00    -0.379 OA 
HETATM   16  O   UNL     1      -8.498  17.488  65.763  1.00  0.00    -0.530 OA 
HETATM   17  O   UNL     1     -10.088  14.359  69.378  1.00  0.00    -0.098 OA 
HETATM   18  O   UNL     1     -11.094  16.531  69.098  1.00  0.00    -0.311 OA 
HETATM   19  O   UNL     1     -12.375  14.669  69.141  1.00  0.00    -0.220 OA 
HETATM   20  H   UNL     1      -8.740  16.577  68.777  1.00  0.00     0.000 HD 
ENDBRANCH   9  10
ENDBRANCH   8   9
ENDBRANCH   6   8
ENDBRANCH   5   6
ENDBRANCH   4   5
ENDBRANCH   3   4
ENDBRANCH   2   3
TORSDOF 7
ENDMDL
MODEL      118
REMARK 921   NORMALIZED FREE ENERGY PREDICTED BY IDOCK:   -3.79 KCAL/MOL
REMARK 922        TOTAL FREE ENERGY PREDICTED BY IDOCK:   -6.02 KCAL/MOL
REMARK 923 INTER-LIGAND FREE ENERGY PREDICTED BY IDOCK:   -5.18 KCAL/MOL
REMARK 924 INTRA-LIGAND FREE ENERGY PREDICTED BY IDOCK:   -0.84 KCAL/MOL
REMARK 927      BINDING AFFINITY PREDICTED BY RF-SCORE:    0.00 PKD
ROOT
HETATM    1  C   UNL     1     -12.204   6.909  71.339  1.00  0.00    -0.418 C  
HETATM    2  C   UNL     1     -11.916   8.071  72.274  1.00  0.00    -0.412 C  
ENDROOT
BRANCH   2   3
HETATM    3  C   UNL     1     -12.153   9.412  71.584  1.00  0.00    -0.462 C  
BRANCH   3   4
HETATM    4  C   UNL     1     -10.917   9.850  70.798  1.00  0.00    -0.407 C  
BRANCH   4   5
HETATM    5  C   UNL     1     -11.267  10.001  69.309  1.00  0.00    -0.166 C  
BRANCH   5   6
HETATM    6  N   UNL     1     -10.180  10.558  68.474  1.00  0.00    -0.166 NA 
HETATM    7  C   UNL     1      -9.274   9.492  68.018  1.00  0.00    -0.129 C  
BRANCH   6   8
HETATM    8  C   UNL     1     -10.741  11.228  67.279  1.00  0.00    -0.251 C  
BRANCH   8   9
HETATM    9  C   UNL     1     -11.762  12.329  67.593  1.00  0.00    -0.403 C  
BRANCH   9  10
HETATM   10  C   UNL     1     -11.162  13.662  68.129  1.00  0.00    -0.275 C  
HETATM   11  P   UNL     1     -12.346  14.283  69.379  1.00  0.00     0.057 P  
HETATM   12  P   UNL     1     -10.855  14.866  66.774  1.00  0.00    -0.326 P  
HETATM   13  O   UNL     1      -9.873  13.350  68.759  1.00  0.00    -0.392 OA 
HETATM   14  O   UNL     1     -12.067  14.705  65.734  1.00  0.00    -0.304 OA 
HETATM   15  O   UNL     1     -10.560  16.304  67.027  1.00  0.00    -0.314 OA 
HETATM   16  O   UNL     1      -9.640  14.224  65.931  1.00  0.00    -0.274 OA 
HETATM   17  O   UNL     1     -11.602  13.279  70.474  1.00  0.00    -0.094 OA 
HETATM   18  O   UNL     1     -11.345  15.543  69.690  1.00  0.00    -0.268 OA 
HETATM   19  O   UNL     1     -13.347  14.807  70.437  1.00  0.00    -0.180 OA 
HETATM   20  H   UNL     1      -9.507  14.163  69.086  1.00  0.00     0.000 HD 
ENDBRANCH   9  10
ENDBRANCH   8   9
ENDBRANCH   6   8
ENDBRANCH   5   6
ENDBRANCH   4   5
ENDBRANCH   3   4
ENDBRANCH   2   3
TORSDOF 7
ENDMDL
MODEL      119
REMARK 921   NORMALIZED FREE ENERGY PREDICTED BY IDOCK:   -3.78 KCAL/MOL
REMARK 922        TOTAL FREE ENERGY PREDICTED BY IDOCK:   -6.01 KCAL/MOL
REMARK 923 INTER-LIGAND FREE ENERGY PREDICTED BY IDOCK:   -5.27 KCAL/MOL
REMARK 924 INTRA-LIGAND FREE ENERGY PREDICTED BY IDOCK:   -0.74 KCAL/MOL
REMARK 927      BINDING AFFINITY PREDICTED BY RF-SCORE:    0.00 PKD
ROOT
HETATM    1  C   UNL     1     -10.147  11.776  63.304  1.00  0.00    -0.448 C  
HETATM    2  C   UNL     1     -11.473  11.849  64.043  1.00  0.00    -0.480 C  
ENDROOT
BRANCH   2   3
HETATM    3  C   UNL     1     -12.016  13.274  64.070  1.00  0.00    -0.525 C  
BRANCH   3   4
HETATM    4  C   UNL     1     -12.118  13.795  65.504  1.00  0.00    -0.434 C  
BRANCH   4   5
HETATM    5  C   UNL     1     -12.027  12.625  66.496  1.00  0.00    -0.331 C  
BRANCH   5   6
HETATM    6  N   UNL     1     -11.211  12.899  67.699  1.00  0.00    -0.263 NA 
HETATM    7  C   UNL     1     -11.888  13.865  68.579  1.00  0.00    -0.366 C  
BRANCH   6   8
HETATM    8  C   UNL     1     -10.991  11.652  68.467  1.00  0.00    -0.220 C  
BRANCH   8   9
HETATM    9  C   UNL     1     -11.182  10.367  67.652  1.00  0.00    -0.287 C  
BRANCH   9  10
HETATM   10  C   UNL     1     -10.208   9.204  68.000  1.00  0.00    -0.211 C  
HETATM   11  P   UNL     1      -9.713   9.465  69.743  1.00  0.00    -0.229 P  
HETATM   12  P   UNL     1      -8.776   9.145  66.850  1.00  0.00    -0.125 P  
HETATM   13  O   UNL     1     -10.950   7.943  67.864  1.00  0.00    -0.475 OA 
HETATM   14  O   UNL     1      -8.381  10.668  66.530  1.00  0.00    -0.133 OA 
HETATM   15  O   UNL     1      -7.559   8.328  67.120  1.00  0.00    -0.091 OA 
HETATM   16  O   UNL     1      -9.409   8.689  65.439  1.00  0.00    -0.117 OA 
HETATM   17  O   UNL     1     -11.113   8.684  70.180  1.00  0.00    -0.248 OA 
HETATM   18  O   UNL     1      -8.831   8.083  69.691  1.00  0.00    -0.139 OA 
HETATM   19  O   UNL     1      -9.294   9.685  71.217  1.00  0.00    -0.152 OA 
HETATM   20  H   UNL     1     -10.355   7.234  68.077  1.00  0.00     0.000 HD 
ENDBRANCH   9  10
ENDBRANCH   8   9
ENDBRANCH   6   8
ENDBRANCH   5   6
ENDBRANCH   4   5
ENDBRANCH   3   4
ENDBRANCH   2   3
TORSDOF 7
ENDMDL
MODEL      120
REMARK 921   NORMALIZED FREE ENERGY PREDICTED BY IDOCK:   -3.74 KCAL/MOL
REMARK 922        TOTAL FREE ENERGY PREDICTED BY IDOCK:   -5.96 KCAL/MOL
REMARK 923 INTER-LIGAND FREE ENERGY PREDICTED BY IDOCK:   -5.71 KCAL/MOL
REMARK 924 INTRA-LIGAND FREE ENERGY PREDICTED BY IDOCK:   -0.24 KCAL/MOL
REMARK 927      BINDING AFFINITY PREDICTED BY RF-SCORE:    0.00 PKD
ROOT
HETATM    1  C   UNL     1      -6.951  18.551  66.012  1.00  0.00    -0.310 C  
HETATM    2  C   UNL     1      -6.461  19.853  66.623  1.00  0.00    -0.210 C  
ENDROOT
BRANCH   2   3
HETATM    3  C   UNL     1      -7.581  20.572  67.370  1.00  0.00    -0.380 C  
BRANCH   3   4
HETATM    4  C   UNL     1      -8.950  20.173  66.820  1.00  0.00    -0.431 C  
BRANCH   4   5
HETATM    5  C   UNL     1      -9.868  19.721  67.967  1.00  0.00    -0.417 C  
BRANCH   5   6
HETATM    6  N   UNL     1     -10.673  18.515  67.675  1.00  0.00    -0.412 NA 
HETATM    7  C   UNL     1     -10.501  18.100  66.274  1.00  0.00    -0.361 C  
BRANCH   6   8
HETATM    8  C   UNL     1     -10.251  17.392  68.542  1.00  0.00    -0.369 C  
BRANCH   8   9
HETATM    9  C   UNL     1     -11.069  16.107  68.353  1.00  0.00    -0.359 C  
BRANCH   9  10
HETATM   10  C   UNL     1     -10.236  14.802  68.197  1.00  0.00    -0.228 C  
HETATM   11  P   UNL     1      -8.487  15.328  68.091  1.00  0.00    -0.161 P  
HETATM   12  P   UNL     1     -10.777  13.817  66.743  1.00  0.00    -0.278 P  
HETATM   13  O   UNL     1     -10.452  13.988  69.401  1.00  0.00    -0.429 OA 
HETATM   14  O   UNL     1     -11.143  14.869  65.586  1.00  0.00    -0.331 OA 
HETATM   15  O   UNL     1      -9.978  12.685  66.195  1.00  0.00    -0.252 OA 
HETATM   16  O   UNL     1     -12.242  13.277  67.142  1.00  0.00    -0.335 OA 
HETATM   17  O   UNL     1      -8.476  15.370  69.752  1.00  0.00    -0.209 OA 
HETATM   18  O   UNL     1      -8.026  13.757  68.020  1.00  0.00    -0.129 OA 
HETATM   19  O   UNL     1      -7.007  15.774  68.002  1.00  0.00    -0.111 OA 
HETATM   20  H   UNL     1      -9.943  13.191  69.305  1.00  0.00     0.000 HD 
ENDBRANCH   9  10
ENDBRANCH   8   9
ENDBRANCH   6   8
ENDBRANCH   5   6
ENDBRANCH   4   5
ENDBRANCH   3   4
ENDBRANCH   2   3
TORSDOF 7
ENDMDL
MODEL      121
REMARK 921   NORMALIZED FREE ENERGY PREDICTED BY IDOCK:   -3.74 KCAL/MOL
REMARK 922        TOTAL FREE ENERGY PREDICTED BY IDOCK:   -5.96 KCAL/MOL
REMARK 923 INTER-LIGAND FREE ENERGY PREDICTED BY IDOCK:   -5.46 KCAL/MOL
REMARK 924 INTRA-LIGAND FREE ENERGY PREDICTED BY IDOCK:   -0.50 KCAL/MOL
REMARK 927      BINDING AFFINITY PREDICTED BY RF-SCORE:    0.00 PKD
ROOT
HETATM    1  C   UNL     1     -10.740  14.885  65.102  1.00  0.00    -0.429 C  
HETATM    2  C   UNL     1     -11.722  14.280  66.092  1.00  0.00    -0.397 C  
ENDROOT
BRANCH   2   3
HETATM    3  C   UNL     1     -11.862  12.774  65.886  1.00  0.00    -0.490 C  
BRANCH   3   4
HETATM    4  C   UNL     1     -11.768  12.028  67.217  1.00  0.00    -0.339 C  
BRANCH   4   5
HETATM    5  C   UNL     1     -10.768  10.867  67.101  1.00  0.00    -0.270 C  
BRANCH   5   6
HETATM    6  N   UNL     1      -9.888  10.690  68.276  1.00  0.00    -0.158 NA 
HETATM    7  C   UNL     1      -9.152  11.930  68.568  1.00  0.00    -0.123 C  
BRANCH   6   8
HETATM    8  C   UNL     1     -10.689  10.339  69.471  1.00  0.00    -0.249 C  
BRANCH   8   9
HETATM    9  C   UNL     1     -10.050   9.269  70.367  1.00  0.00    -0.287 C  
BRANCH   9  10
HETATM   10  C   UNL     1     -10.864   7.951  70.518  1.00  0.00    -0.241 C  
HETATM   11  P   UNL     1     -10.664   7.429  72.260  1.00  0.00    -0.274 P  
HETATM   12  P   UNL     1     -10.315   6.670  69.319  1.00  0.00    -0.234 P  
HETATM   13  O   UNL     1     -12.272   8.260  70.236  1.00  0.00    -0.341 OA 
HETATM   14  O   UNL     1      -8.720   6.808  69.198  1.00  0.00    -0.130 OA 
HETATM   15  O   UNL     1     -10.716   5.239  69.430  1.00  0.00    -0.233 OA 
HETATM   16  O   UNL     1     -10.782   7.233  67.883  1.00  0.00    -0.213 OA 
HETATM   17  O   UNL     1     -11.905   8.469  72.636  1.00  0.00    -0.369 OA 
HETATM   18  O   UNL     1     -11.665   6.160  71.987  1.00  0.00    -0.312 OA 
HETATM   19  O   UNL     1     -10.496   6.988  73.734  1.00  0.00    -0.364 OA 
HETATM   20  H   UNL     1     -12.768   7.456  70.328  1.00  0.00     0.000 HD 
ENDBRANCH   9  10
ENDBRANCH   8   9
ENDBRANCH   6   8
ENDBRANCH   5   6
ENDBRANCH   4   5
ENDBRANCH   3   4
ENDBRANCH   2   3
TORSDOF 7
ENDMDL
MODEL      122
REMARK 921   NORMALIZED FREE ENERGY PREDICTED BY IDOCK:   -3.74 KCAL/MOL
REMARK 922        TOTAL FREE ENERGY PREDICTED BY IDOCK:   -5.95 KCAL/MOL
REMARK 923 INTER-LIGAND FREE ENERGY PREDICTED BY IDOCK:   -5.13 KCAL/MOL
REMARK 924 INTRA-LIGAND FREE ENERGY PREDICTED BY IDOCK:   -0.83 KCAL/MOL
REMARK 927      BINDING AFFINITY PREDICTED BY RF-SCORE:    0.00 PKD
ROOT
HETATM    1  C   UNL     1     -12.168  13.473  63.548  1.00  0.00    -0.410 C  
HETATM    2  C   UNL     1     -12.017  11.969  63.701  1.00  0.00    -0.612 C  
ENDROOT
BRANCH   2   3
HETATM    3  C   UNL     1     -10.571  11.530  63.487  1.00  0.00    -0.487 C  
BRANCH   3   4
HETATM    4  C   UNL     1     -10.083  10.665  64.649  1.00  0.00    -0.417 C  
BRANCH   4   5
HETATM    5  C   UNL     1     -10.537  11.273  65.985  1.00  0.00    -0.258 C  
BRANCH   5   6
HETATM    6  N   UNL     1      -9.444  11.531  66.948  1.00  0.00    -0.179 NA 
HETATM    7  C   UNL     1      -9.054  12.950  66.927  1.00  0.00    -0.224 C  
BRANCH   6   8
HETATM    8  C   UNL     1      -9.878  11.194  68.323  1.00  0.00    -0.189 C  
BRANCH   8   9
HETATM    9  C   UNL     1     -10.757   9.939  68.417  1.00  0.00    -0.271 C  
BRANCH   9  10
HETATM   10  C   UNL     1     -10.012   8.630  68.812  1.00  0.00    -0.183 C  
HETATM   11  P   UNL     1     -10.649   7.330  67.693  1.00  0.00    -0.215 P  
HETATM   12  P   UNL     1     -10.244   8.223  70.589  1.00  0.00    -0.201 P  
HETATM   13  O   UNL     1      -8.578   8.845  68.580  1.00  0.00    -0.131 OA 
HETATM   14  O   UNL     1     -11.755   8.619  70.958  1.00  0.00    -0.281 OA 
HETATM   15  O   UNL     1      -9.889   6.895  71.164  1.00  0.00    -0.177 OA 
HETATM   16  O   UNL     1      -9.426   9.368  71.376  1.00  0.00    -0.254 OA 
HETATM   17  O   UNL     1      -9.540   7.855  66.572  1.00  0.00    -0.203 OA 
HETATM   18  O   UNL     1      -9.615   6.252  68.370  1.00  0.00    -0.121 OA 
HETATM   19  O   UNL     1     -11.187   6.229  66.747  1.00  0.00    -0.310 OA 
HETATM   20  H   UNL     1      -8.124   8.047  68.821  1.00  0.00     0.000 HD 
ENDBRANCH   9  10
ENDBRANCH   8   9
ENDBRANCH   6   8
ENDBRANCH   5   6
ENDBRANCH   4   5
ENDBRANCH   3   4
ENDBRANCH   2   3
TORSDOF 7
ENDMDL
MODEL      123
REMARK 921   NORMALIZED FREE ENERGY PREDICTED BY IDOCK:   -3.73 KCAL/MOL
REMARK 922        TOTAL FREE ENERGY PREDICTED BY IDOCK:   -5.94 KCAL/MOL
REMARK 923 INTER-LIGAND FREE ENERGY PREDICTED BY IDOCK:   -5.25 KCAL/MOL
REMARK 924 INTRA-LIGAND FREE ENERGY PREDICTED BY IDOCK:   -0.68 KCAL/MOL
REMARK 927      BINDING AFFINITY PREDICTED BY RF-SCORE:    0.00 PKD
ROOT
HETATM    1  C   UNL     1     -13.040  10.593  71.425  1.00  0.00    -0.499 C  
HETATM    2  C   UNL     1     -12.644   9.183  71.831  1.00  0.00    -0.463 C  
ENDROOT
BRANCH   2   3
HETATM    3  C   UNL     1     -11.169   8.917  71.548  1.00  0.00    -0.396 C  
BRANCH   3   4
HETATM    4  C   UNL     1     -10.999   8.034  70.310  1.00  0.00    -0.242 C  
BRANCH   4   5
HETATM    5  C   UNL     1     -10.015   8.688  69.328  1.00  0.00    -0.195 C  
BRANCH   5   6
HETATM    6  N   UNL     1      -9.526  10.022  69.740  1.00  0.00    -0.223 NA 
HETATM    7  C   UNL     1      -8.056  10.051  69.773  1.00  0.00    -0.177 C  
BRANCH   6   8
HETATM    8  C   UNL     1      -9.987  11.057  68.787  1.00  0.00    -0.207 C  
BRANCH   8   9
HETATM    9  C   UNL     1      -9.732  10.715  67.313  1.00  0.00    -0.195 C  
BRANCH   9  10
HETATM   10  C   UNL     1      -9.396  11.926  66.395  1.00  0.00    -0.226 C  
HETATM   11  P   UNL     1      -8.865  13.275  67.512  1.00  0.00    -0.232 P  
HETATM   12  P   UNL     1     -10.821  12.394  65.334  1.00  0.00    -0.309 P  
HETATM   13  O   UNL     1      -8.289  11.527  65.515  1.00  0.00    -0.374 OA 
HETATM   14  O   UNL     1     -12.141  12.201  66.227  1.00  0.00    -0.626 OA 
HETATM   15  O   UNL     1     -10.876  13.678  64.579  1.00  0.00    -0.390 OA 
HETATM   16  O   UNL     1     -10.972  11.172  64.295  1.00  0.00    -0.341 OA 
HETATM   17  O   UNL     1      -7.350  12.592  67.496  1.00  0.00    -0.127 OA 
HETATM   18  O   UNL     1      -8.567  14.226  66.210  1.00  0.00     0.129 OA 
HETATM   19  O   UNL     1      -8.415  14.415  68.457  1.00  0.00    -0.162 OA 
HETATM   20  H   UNL     1      -8.084  12.266  64.955  1.00  0.00     0.000 HD 
ENDBRANCH   9  10
ENDBRANCH   8   9
ENDBRANCH   6   8
ENDBRANCH   5   6
ENDBRANCH   4   5
ENDBRANCH   3   4
ENDBRANCH   2   3
TORSDOF 7
ENDMDL
MODEL      124
REMARK 921   NORMALIZED FREE ENERGY PREDICTED BY IDOCK:   -3.72 KCAL/MOL
REMARK 922        TOTAL FREE ENERGY PREDICTED BY IDOCK:   -5.92 KCAL/MOL
REMARK 923 INTER-LIGAND FREE ENERGY PREDICTED BY IDOCK:   -5.86 KCAL/MOL
REMARK 924 INTRA-LIGAND FREE ENERGY PREDICTED BY IDOCK:   -0.06 KCAL/MOL
REMARK 927      BINDING AFFINITY PREDICTED BY RF-SCORE:    0.00 PKD
ROOT
HETATM    1  C   UNL     1      -7.092  20.252  66.780  1.00  0.00    -0.299 C  
HETATM    2  C   UNL     1      -6.445  20.515  68.130  1.00  0.00    -0.340 C  
ENDROOT
BRANCH   2   3
HETATM    3  C   UNL     1      -6.928  19.519  69.181  1.00  0.00    -0.392 C  
BRANCH   3   4
HETATM    4  C   UNL     1      -7.841  18.464  68.557  1.00  0.00    -0.325 C  
BRANCH   4   5
HETATM    5  C   UNL     1      -7.316  17.056  68.880  1.00  0.00    -0.245 C  
BRANCH   5   6
HETATM    6  N   UNL     1      -6.930  16.256  67.697  1.00  0.00    -0.132 NA 
HETATM    7  C   UNL     1      -5.655  15.561  67.932  1.00  0.00    -0.137 C  
BRANCH   6   8
HETATM    8  C   UNL     1      -7.963  15.236  67.404  1.00  0.00    -0.186 C  
BRANCH   8   9
HETATM    9  C   UNL     1      -8.904  15.605  66.250  1.00  0.00    -0.364 C  
BRANCH   9  10
HETATM   10  C   UNL     1     -10.416  15.341  66.512  1.00  0.00    -0.298 C  
HETATM   11  P   UNL     1     -10.487  14.014  67.770  1.00  0.00    -0.240 P  
HETATM   12  P   UNL     1     -11.311  14.910  64.965  1.00  0.00    -0.373 P  
HETATM   13  O   UNL     1     -11.001  16.579  67.043  1.00  0.00    -0.177 OA 
HETATM   14  O   UNL     1     -10.312  14.004  64.094  1.00  0.00    -0.131 OA 
HETATM   15  O   UNL     1     -12.685  14.335  64.964  1.00  0.00    -0.625 OA 
HETATM   16  O   UNL     1     -11.315  16.274  64.107  1.00  0.00    -0.788 OA 
HETATM   17  O   UNL     1     -10.294  15.196  68.921  1.00  0.00    -0.227 OA 
HETATM   18  O   UNL     1     -12.123  14.121  67.779  1.00  0.00    -0.367 OA 
HETATM   19  O   UNL     1     -10.547  12.892  68.834  1.00  0.00    -0.213 OA 
HETATM   20  H   UNL     1     -11.923  16.418  67.202  1.00  0.00     0.000 HD 
ENDBRANCH   9  10
ENDBRANCH   8   9
ENDBRANCH   6   8
ENDBRANCH   5   6
ENDBRANCH   4   5
ENDBRANCH   3   4
ENDBRANCH   2   3
TORSDOF 7
ENDMDL
MODEL      125
REMARK 921   NORMALIZED FREE ENERGY PREDICTED BY IDOCK:   -3.71 KCAL/MOL
REMARK 922        TOTAL FREE ENERGY PREDICTED BY IDOCK:   -5.91 KCAL/MOL
REMARK 923 INTER-LIGAND FREE ENERGY PREDICTED BY IDOCK:   -5.34 KCAL/MOL
REMARK 924 INTRA-LIGAND FREE ENERGY PREDICTED BY IDOCK:   -0.57 KCAL/MOL
REMARK 927      BINDING AFFINITY PREDICTED BY RF-SCORE:    0.00 PKD
ROOT
HETATM    1  C   UNL     1      -8.673   7.098  71.975  1.00  0.00    -0.130 C  
HETATM    2  C   UNL     1      -9.588   8.257  72.333  1.00  0.00    -0.364 C  
ENDROOT
BRANCH   2   3
HETATM    3  C   UNL     1     -10.933   7.760  72.858  1.00  0.00    -0.467 C  
BRANCH   3   4
HETATM    4  C   UNL     1     -12.091   8.455  72.141  1.00  0.00    -0.435 C  
BRANCH   4   5
HETATM    5  C   UNL     1     -11.558   9.603  71.270  1.00  0.00    -0.393 C  
BRANCH   5   6
HETATM    6  N   UNL     1     -12.605  10.450  70.657  1.00  0.00    -0.344 NA 
HETATM    7  C   UNL     1     -12.987  11.545  71.563  1.00  0.00    -0.380 C  
BRANCH   6   8
HETATM    8  C   UNL     1     -12.112  11.047  69.395  1.00  0.00    -0.318 C  
BRANCH   8   9
HETATM    9  C   UNL     1     -10.590  10.977  69.216  1.00  0.00    -0.236 C  
BRANCH   9  10
HETATM   10  C   UNL     1     -10.018  11.810  68.032  1.00  0.00    -0.188 C  
HETATM   11  P   UNL     1     -11.242  13.130  67.705  1.00  0.00    -0.314 P  
HETATM   12  P   UNL     1      -9.683  10.762  66.560  1.00  0.00    -0.211 P  
HETATM   13  O   UNL     1      -8.743  12.393  68.472  1.00  0.00    -0.298 OA 
HETATM   14  O   UNL     1     -10.864   9.677  66.491  1.00  0.00    -0.038 OA 
HETATM   15  O   UNL     1      -9.409  11.333  65.211  1.00  0.00    -0.219 OA 
HETATM   16  O   UNL     1      -8.439   9.835  66.997  1.00  0.00    -0.117 OA 
HETATM   17  O   UNL     1     -10.519  13.999  68.923  1.00  0.00    -0.236 OA 
HETATM   18  O   UNL     1     -10.262  13.740  66.541  1.00  0.00    -0.272 OA 
HETATM   19  O   UNL     1     -12.277  14.247  67.429  1.00  0.00    -0.378 OA 
HETATM   20  H   UNL     1      -8.394  12.901  67.749  1.00  0.00     0.000 HD 
ENDBRANCH   9  10
ENDBRANCH   8   9
ENDBRANCH   6   8
ENDBRANCH   5   6
ENDBRANCH   4   5
ENDBRANCH   3   4
ENDBRANCH   2   3
TORSDOF 7
ENDMDL
MODEL      126
REMARK 921   NORMALIZED FREE ENERGY PREDICTED BY IDOCK:   -3.71 KCAL/MOL
REMARK 922        TOTAL FREE ENERGY PREDICTED BY IDOCK:   -5.90 KCAL/MOL
REMARK 923 INTER-LIGAND FREE ENERGY PREDICTED BY IDOCK:   -5.37 KCAL/MOL
REMARK 924 INTRA-LIGAND FREE ENERGY PREDICTED BY IDOCK:   -0.54 KCAL/MOL
REMARK 927      BINDING AFFINITY PREDICTED BY RF-SCORE:    0.00 PKD
ROOT
HETATM    1  C   UNL     1     -11.383   5.716  72.793  1.00  0.00    -0.350 C  
HETATM    2  C   UNL     1     -11.015   5.888  71.329  1.00  0.00    -0.325 C  
ENDROOT
BRANCH   2   3
HETATM    3  C   UNL     1     -11.814   7.018  70.685  1.00  0.00    -0.377 C  
BRANCH   3   4
HETATM    4  C   UNL     1     -11.428   8.372  71.281  1.00  0.00    -0.325 C  
BRANCH   4   5
HETATM    5  C   UNL     1     -12.689   9.136  71.714  1.00  0.00    -0.373 C  
BRANCH   5   6
HETATM    6  N   UNL     1     -12.946  10.380  70.956  1.00  0.00    -0.388 NA 
HETATM    7  C   UNL     1     -13.177  11.509  71.871  1.00  0.00    -0.374 C  
BRANCH   6   8
HETATM    8  C   UNL     1     -11.785  10.711  70.099  1.00  0.00    -0.332 C  
BRANCH   8   9
HETATM    9  C   UNL     1     -12.158  11.275  68.722  1.00  0.00    -0.258 C  
BRANCH   9  10
HETATM   10  C   UNL     1     -10.970  11.838  67.887  1.00  0.00    -0.221 C  
HETATM   11  P   UNL     1      -9.475  10.969  68.485  1.00  0.00    -0.182 P  
HETATM   12  P   UNL     1     -10.841  13.666  68.031  1.00  0.00    -0.262 P  
HETATM   13  O   UNL     1     -11.221  11.512  66.477  1.00  0.00    -0.310 OA 
HETATM   14  O   UNL     1     -11.210  14.034  69.550  1.00  0.00    -0.245 OA 
HETATM   15  O   UNL     1      -9.643  14.427  67.578  1.00  0.00    -0.209 OA 
HETATM   16  O   UNL     1     -12.139  14.226  67.256  1.00  0.00    -0.411 OA 
HETATM   17  O   UNL     1      -9.872   9.731  67.450  1.00  0.00    -0.160 OA 
HETATM   18  O   UNL     1      -8.576  11.761  67.366  1.00  0.00    -0.148 OA 
HETATM   19  O   UNL     1      -8.211  10.232  68.990  1.00  0.00    -0.118 OA 
HETATM   20  H   UNL     1     -10.496  11.856  65.968  1.00  0.00     0.000 HD 
ENDBRANCH   9  10
ENDBRANCH   8   9
ENDBRANCH   6   8
ENDBRANCH   5   6
ENDBRANCH   4   5
ENDBRANCH   3   4
ENDBRANCH   2   3
TORSDOF 7
ENDMDL
MODEL      127
REMARK 921   NORMALIZED FREE ENERGY PREDICTED BY IDOCK:   -3.68 KCAL/MOL
REMARK 922        TOTAL FREE ENERGY PREDICTED BY IDOCK:   -5.86 KCAL/MOL
REMARK 923 INTER-LIGAND FREE ENERGY PREDICTED BY IDOCK:   -5.64 KCAL/MOL
REMARK 924 INTRA-LIGAND FREE ENERGY PREDICTED BY IDOCK:   -0.23 KCAL/MOL
REMARK 927      BINDING AFFINITY PREDICTED BY RF-SCORE:    0.00 PKD
ROOT
HETATM    1  C   UNL     1      -6.929   4.419  65.267  1.00  0.00    -0.058 C  
HETATM    2  C   UNL     1      -8.219   5.181  65.523  1.00  0.00    -0.121 C  
ENDROOT
BRANCH   2   3
HETATM    3  C   UNL     1      -8.196   6.552  64.852  1.00  0.00    -0.097 C  
BRANCH   3   4
HETATM    4  C   UNL     1      -7.767   7.638  65.839  1.00  0.00    -0.098 C  
BRANCH   4   5
HETATM    5  C   UNL     1      -8.958   8.551  66.169  1.00  0.00    -0.179 C  
BRANCH   5   6
HETATM    6  N   UNL     1      -8.835   9.934  65.659  1.00  0.00    -0.150 NA 
HETATM    7  C   UNL     1      -9.589  10.098  64.406  1.00  0.00    -0.302 C  
BRANCH   6   8
HETATM    8  C   UNL     1      -9.370  10.897  66.648  1.00  0.00    -0.171 C  
BRANCH   8   9
HETATM    9  C   UNL     1     -10.789  11.394  66.340  1.00  0.00    -0.323 C  
BRANCH   9  10
HETATM   10  C   UNL     1     -10.927  12.930  66.126  1.00  0.00    -0.281 C  
HETATM   11  P   UNL     1     -11.655  13.592  67.668  1.00  0.00    -0.383 P  
HETATM   12  P   UNL     1     -11.928  13.323  64.635  1.00  0.00    -0.443 P  
HETATM   13  O   UNL     1      -9.579  13.475  65.923  1.00  0.00    -0.449 OA 
HETATM   14  O   UNL     1     -13.105  12.233  64.571  1.00  0.00    -0.791 OA 
HETATM   15  O   UNL     1     -12.455  14.689  64.357  1.00  0.00    -0.624 OA 
HETATM   16  O   UNL     1     -11.009  12.856  63.396  1.00  0.00    -0.310 OA 
HETATM   17  O   UNL     1     -10.116  13.620  68.295  1.00  0.00    -0.229 OA 
HETATM   18  O   UNL     1     -11.550  15.110  67.058  1.00  0.00    -0.295 OA 
HETATM   19  O   UNL     1     -12.270  14.153  68.974  1.00  0.00    -0.332 OA 
HETATM   20  H   UNL     1      -9.663  14.412  65.792  1.00  0.00     0.000 HD 
ENDBRANCH   9  10
ENDBRANCH   8   9
ENDBRANCH   6   8
ENDBRANCH   5   6
ENDBRANCH   4   5
ENDBRANCH   3   4
ENDBRANCH   2   3
TORSDOF 7
ENDMDL
MODEL      128
REMARK 921   NORMALIZED FREE ENERGY PREDICTED BY IDOCK:   -3.67 KCAL/MOL
REMARK 922        TOTAL FREE ENERGY PREDICTED BY IDOCK:   -5.85 KCAL/MOL
REMARK 923 INTER-LIGAND FREE ENERGY PREDICTED BY IDOCK:   -5.39 KCAL/MOL
REMARK 924 INTRA-LIGAND FREE ENERGY PREDICTED BY IDOCK:   -0.46 KCAL/MOL
REMARK 927      BINDING AFFINITY PREDICTED BY RF-SCORE:    0.00 PKD
ROOT
HETATM    1  C   UNL     1     -10.650  19.803  65.801  1.00  0.00    -0.522 C  
HETATM    2  C   UNL     1      -9.800  19.970  67.049  1.00  0.00    -0.566 C  
ENDROOT
BRANCH   2   3
HETATM    3  C   UNL     1      -8.346  19.587  66.787  1.00  0.00    -0.324 C  
BRANCH   3   4
HETATM    4  C   UNL     1      -7.606  19.317  68.097  1.00  0.00    -0.325 C  
BRANCH   4   5
HETATM    5  C   UNL     1      -7.667  17.820  68.438  1.00  0.00    -0.278 C  
BRANCH   5   6
HETATM    6  N   UNL     1      -7.727  16.922  67.264  1.00  0.00    -0.161 NA 
HETATM    7  C   UNL     1      -6.387  16.418  66.924  1.00  0.00    -0.074 C  
BRANCH   6   8
HETATM    8  C   UNL     1      -8.598  15.759  67.549  1.00  0.00    -0.166 C  
BRANCH   8   9
HETATM    9  C   UNL     1      -9.266  15.152  66.308  1.00  0.00    -0.336 C  
BRANCH   9  10
HETATM   10  C   UNL     1     -10.426  14.153  66.596  1.00  0.00    -0.278 C  
HETATM   11  P   UNL     1     -10.796  14.309  68.381  1.00  0.00    -0.272 P  
HETATM   12  P   UNL     1      -9.987  12.438  66.102  1.00  0.00    -0.254 P  
HETATM   13  O   UNL     1     -11.584  14.572  65.796  1.00  0.00    -0.347 OA 
HETATM   14  O   UNL     1      -8.435  12.240  66.461  1.00  0.00    -0.115 OA 
HETATM   15  O   UNL     1     -10.784  11.251  66.521  1.00  0.00    -0.257 OA 
HETATM   16  O   UNL     1      -9.926  12.484  64.492  1.00  0.00    -0.253 OA 
HETATM   17  O   UNL     1     -11.752  15.612  67.993  1.00  0.00    -0.306 OA 
HETATM   18  O   UNL     1     -12.016  13.227  68.214  1.00  0.00    -0.342 OA 
HETATM   19  O   UNL     1     -11.110  14.441  69.891  1.00  0.00    -0.216 OA 
HETATM   20  H   UNL     1     -12.291  13.963  65.971  1.00  0.00     0.000 HD 
ENDBRANCH   9  10
ENDBRANCH   8   9
ENDBRANCH   6   8
ENDBRANCH   5   6
ENDBRANCH   4   5
ENDBRANCH   3   4
ENDBRANCH   2   3
TORSDOF 7
ENDMDL
MODEL      129
REMARK 921   NORMALIZED FREE ENERGY PREDICTED BY IDOCK:   -3.66 KCAL/MOL
REMARK 922        TOTAL FREE ENERGY PREDICTED BY IDOCK:   -5.84 KCAL/MOL
REMARK 923 INTER-LIGAND FREE ENERGY PREDICTED BY IDOCK:   -5.40 KCAL/MOL
REMARK 924 INTRA-LIGAND FREE ENERGY PREDICTED BY IDOCK:   -0.44 KCAL/MOL
REMARK 927      BINDING AFFINITY PREDICTED BY RF-SCORE:    0.00 PKD
ROOT
HETATM    1  C   UNL     1     -10.678   9.776  67.809  1.00  0.00    -0.329 C  
HETATM    2  C   UNL     1     -11.471  11.073  67.803  1.00  0.00    -0.339 C  
ENDROOT
BRANCH   2   3
HETATM    3  C   UNL     1     -10.927  12.061  68.831  1.00  0.00    -0.277 C  
BRANCH   3   4
HETATM    4  C   UNL     1     -11.795  13.318  68.895  1.00  0.00    -0.367 C  
BRANCH   4   5
HETATM    5  C   UNL     1     -11.236  14.392  67.947  1.00  0.00    -0.286 C  
BRANCH   5   6
HETATM    6  N   UNL     1     -11.243  15.764  68.499  1.00  0.00    -0.335 NA 
HETATM    7  C   UNL     1     -10.480  15.825  69.755  1.00  0.00    -0.317 C  
BRANCH   6   8
HETATM    8  C   UNL     1     -10.626  16.708  67.539  1.00  0.00    -0.311 C  
BRANCH   8   9
HETATM    9  C   UNL     1      -9.400  17.453  68.086  1.00  0.00    -0.277 C  
BRANCH   9  10
HETATM   10  C   UNL     1      -8.155  17.467  67.151  1.00  0.00    -0.210 C  
HETATM   11  P   UNL     1      -7.004  16.213  67.823  1.00  0.00    -0.172 P  
HETATM   12  P   UNL     1      -7.405  19.141  67.040  1.00  0.00    -0.218 P  
HETATM   13  O   UNL     1      -8.603  17.081  65.807  1.00  0.00    -0.517 OA 
HETATM   14  O   UNL     1      -7.518  19.793  68.503  1.00  0.00    -0.326 OA 
HETATM   15  O   UNL     1      -6.056  19.382  66.456  1.00  0.00    -0.166 OA 
HETATM   16  O   UNL     1      -8.489  20.017  66.230  1.00  0.00    -0.336 OA 
HETATM   17  O   UNL     1      -7.870  15.074  66.978  1.00  0.00    -0.209 OA 
HETATM   18  O   UNL     1      -5.973  16.507  66.583  1.00  0.00    -0.319 OA 
HETATM   19  O   UNL     1      -6.031  15.152  68.390  1.00  0.00    -0.092 OA 
HETATM   20  H   UNL     1      -7.843  17.090  65.236  1.00  0.00     0.000 HD 
ENDBRANCH   9  10
ENDBRANCH   8   9
ENDBRANCH   6   8
ENDBRANCH   5   6
ENDBRANCH   4   5
ENDBRANCH   3   4
ENDBRANCH   2   3
TORSDOF 7
ENDMDL
MODEL      130
REMARK 921   NORMALIZED FREE ENERGY PREDICTED BY IDOCK:   -3.66 KCAL/MOL
REMARK 922        TOTAL FREE ENERGY PREDICTED BY IDOCK:   -5.84 KCAL/MOL
REMARK 923 INTER-LIGAND FREE ENERGY PREDICTED BY IDOCK:   -5.64 KCAL/MOL
REMARK 924 INTRA-LIGAND FREE ENERGY PREDICTED BY IDOCK:   -0.20 KCAL/MOL
REMARK 927      BINDING AFFINITY PREDICTED BY RF-SCORE:    0.00 PKD
ROOT
HETATM    1  C   UNL     1     -10.602   5.180  66.271  1.00  0.00    -0.325 C  
HETATM    2  C   UNL     1     -10.796   6.505  66.990  1.00  0.00    -0.465 C  
ENDROOT
BRANCH   2   3
HETATM    3  C   UNL     1      -9.761   7.535  66.547  1.00  0.00    -0.238 C  
BRANCH   3   4
HETATM    4  C   UNL     1      -9.952   8.858  67.289  1.00  0.00    -0.277 C  
BRANCH   4   5
HETATM    5  C   UNL     1     -10.385   8.590  68.739  1.00  0.00    -0.213 C  
BRANCH   5   6
HETATM    6  N   UNL     1     -11.193   9.669  69.350  1.00  0.00    -0.139 NA 
HETATM    7  C   UNL     1     -10.855   9.830  70.773  1.00  0.00    -0.333 C  
BRANCH   6   8
HETATM    8  C   UNL     1     -10.935  10.956  68.667  1.00  0.00    -0.227 C  
BRANCH   8   9
HETATM    9  C   UNL     1     -11.809  12.118  69.159  1.00  0.00    -0.361 C  
BRANCH   9  10
HETATM   10  C   UNL     1     -11.291  13.542  68.799  1.00  0.00    -0.290 C  
HETATM   11  P   UNL     1     -12.357  14.713  69.715  1.00  0.00    -0.147 P  
HETATM   12  P   UNL     1     -11.301  13.833  66.984  1.00  0.00    -0.361 P  
HETATM   13  O   UNL     1      -9.902  13.643  69.266  1.00  0.00    -0.392 OA 
HETATM   14  O   UNL     1     -12.618  13.114  66.411  1.00  0.00    -0.332 OA 
HETATM   15  O   UNL     1     -11.134  15.187  66.385  1.00  0.00    -0.339 OA 
HETATM   16  O   UNL     1     -10.149  12.863  66.412  1.00  0.00    -0.257 OA 
HETATM   17  O   UNL     1     -11.367  14.472  71.028  1.00  0.00    -0.171 OA 
HETATM   18  O   UNL     1     -11.467  15.963  69.137  1.00  0.00    -0.338 OA 
HETATM   19  O   UNL     1     -13.258  15.705  70.491  1.00  0.00    -0.434 OA 
HETATM   20  H   UNL     1      -9.587  14.512  69.046  1.00  0.00     0.000 HD 
ENDBRANCH   9  10
ENDBRANCH   8   9
ENDBRANCH   6   8
ENDBRANCH   5   6
ENDBRANCH   4   5
ENDBRANCH   3   4
ENDBRANCH   2   3
TORSDOF 7
ENDMDL
MODEL      131
REMARK 921   NORMALIZED FREE ENERGY PREDICTED BY IDOCK:   -3.66 KCAL/MOL
REMARK 922        TOTAL FREE ENERGY PREDICTED BY IDOCK:   -5.84 KCAL/MOL
REMARK 923 INTER-LIGAND FREE ENERGY PREDICTED BY IDOCK:   -5.50 KCAL/MOL
REMARK 924 INTRA-LIGAND FREE ENERGY PREDICTED BY IDOCK:   -0.33 KCAL/MOL
REMARK 927      BINDING AFFINITY PREDICTED BY RF-SCORE:    0.00 PKD
ROOT
HETATM    1  C   UNL     1     -10.489  19.805  66.100  1.00  0.00    -0.613 C  
HETATM    2  C   UNL     1      -9.713  18.970  67.105  1.00  0.00    -0.372 C  
ENDROOT
BRANCH   2   3
HETATM    3  C   UNL     1      -8.216  18.990  66.804  1.00  0.00    -0.288 C  
BRANCH   3   4
HETATM    4  C   UNL     1      -7.776  17.689  66.133  1.00  0.00    -0.293 C  
BRANCH   4   5
HETATM    5  C   UNL     1      -8.835  16.598  66.352  1.00  0.00    -0.302 C  
BRANCH   5   6
HETATM    6  N   UNL     1      -8.288  15.264  66.682  1.00  0.00    -0.237 NA 
HETATM    7  C   UNL     1      -7.870  15.206  68.092  1.00  0.00    -0.125 C  
BRANCH   6   8
HETATM    8  C   UNL     1      -9.312  14.217  66.463  1.00  0.00    -0.271 C  
BRANCH   8   9
HETATM    9  C   UNL     1      -9.174  12.996  67.382  1.00  0.00    -0.208 C  
BRANCH   9  10
HETATM   10  C   UNL     1     -10.371  12.001  67.355  1.00  0.00    -0.207 C  
HETATM   11  P   UNL     1     -11.267  12.247  68.932  1.00  0.00    -0.282 P  
HETATM   12  P   UNL     1      -9.813  10.268  67.111  1.00  0.00    -0.202 P  
HETATM   13  O   UNL     1     -11.229  12.365  66.220  1.00  0.00    -0.286 OA 
HETATM   14  O   UNL     1      -8.445  10.105  67.936  1.00  0.00    -0.117 OA 
HETATM   15  O   UNL     1     -10.706   9.095  67.331  1.00  0.00    -0.277 OA 
HETATM   16  O   UNL     1      -9.264  10.229  65.596  1.00  0.00    -0.165 OA 
HETATM   17  O   UNL     1     -12.052  13.517  68.203  1.00  0.00    -0.346 OA 
HETATM   18  O   UNL     1     -12.384  11.144  68.460  1.00  0.00    -0.561 OA 
HETATM   19  O   UNL     1     -12.025  12.455  70.266  1.00  0.00    -0.349 OA 
HETATM   20  H   UNL     1     -11.959  11.758  66.204  1.00  0.00     0.000 HD 
ENDBRANCH   9  10
ENDBRANCH   8   9
ENDBRANCH   6   8
ENDBRANCH   5   6
ENDBRANCH   4   5
ENDBRANCH   3   4
ENDBRANCH   2   3
TORSDOF 7
ENDMDL
MODEL      132
REMARK 921   NORMALIZED FREE ENERGY PREDICTED BY IDOCK:   -3.65 KCAL/MOL
REMARK 922        TOTAL FREE ENERGY PREDICTED BY IDOCK:   -5.83 KCAL/MOL
REMARK 923 INTER-LIGAND FREE ENERGY PREDICTED BY IDOCK:   -5.02 KCAL/MOL
REMARK 924 INTRA-LIGAND FREE ENERGY PREDICTED BY IDOCK:   -0.81 KCAL/MOL
REMARK 927      BINDING AFFINITY PREDICTED BY RF-SCORE:    0.00 PKD
ROOT
HETATM    1  C   UNL     1     -12.230  13.537  70.532  1.00  0.00    -0.433 C  
HETATM    2  C   UNL     1     -11.927  14.338  69.277  1.00  0.00    -0.375 C  
ENDROOT
BRANCH   2   3
HETATM    3  C   UNL     1     -11.968  13.457  68.032  1.00  0.00    -0.357 C  
BRANCH   3   4
HETATM    4  C   UNL     1     -10.595  13.390  67.362  1.00  0.00    -0.254 C  
BRANCH   4   5
HETATM    5  C   UNL     1      -9.748  12.281  68.006  1.00  0.00    -0.205 C  
BRANCH   5   6
HETATM    6  N   UNL     1     -10.309  10.920  67.871  1.00  0.00    -0.180 NA 
HETATM    7  C   UNL     1     -10.387  10.525  66.456  1.00  0.00    -0.233 C  
BRANCH   6   8
HETATM    8  C   UNL     1      -9.455   9.938  68.576  1.00  0.00    -0.146 C  
BRANCH   8   9
HETATM    9  C   UNL     1      -9.690   9.869  70.091  1.00  0.00    -0.255 C  
BRANCH   9  10
HETATM   10  C   UNL     1     -10.781   8.860  70.553  1.00  0.00    -0.230 C  
HETATM   11  P   UNL     1     -12.051   9.850  71.421  1.00  0.00    -0.397 P  
HETATM   12  P   UNL     1     -10.076   7.524  71.600  1.00  0.00    -0.181 P  
HETATM   13  O   UNL     1     -11.352   8.239  69.350  1.00  0.00    -0.425 OA 
HETATM   14  O   UNL     1      -8.947   8.206  72.515  1.00  0.00    -0.176 OA 
HETATM   15  O   UNL     1     -10.923   6.599  72.405  1.00  0.00    -0.226 OA 
HETATM   16  O   UNL     1      -9.169   6.655  70.590  1.00  0.00    -0.158 OA 
HETATM   17  O   UNL     1     -12.707  10.179  69.930  1.00  0.00    -0.000 OA 
HETATM   18  O   UNL     1     -12.949   8.496  71.637  1.00  0.00    -0.328 OA 
HETATM   19  O   UNL     1     -13.127  10.688  72.154  1.00  0.00    -0.460 OA 
HETATM   20  H   UNL     1     -12.018   7.623  69.632  1.00  0.00     0.000 HD 
ENDBRANCH   9  10
ENDBRANCH   8   9
ENDBRANCH   6   8
ENDBRANCH   5   6
ENDBRANCH   4   5
ENDBRANCH   3   4
ENDBRANCH   2   3
TORSDOF 7
ENDMDL
MODEL      133
REMARK 921   NORMALIZED FREE ENERGY PREDICTED BY IDOCK:   -3.65 KCAL/MOL
REMARK 922        TOTAL FREE ENERGY PREDICTED BY IDOCK:   -5.83 KCAL/MOL
REMARK 923 INTER-LIGAND FREE ENERGY PREDICTED BY IDOCK:   -5.14 KCAL/MOL
REMARK 924 INTRA-LIGAND FREE ENERGY PREDICTED BY IDOCK:   -0.69 KCAL/MOL
REMARK 927      BINDING AFFINITY PREDICTED BY RF-SCORE:    0.00 PKD
ROOT
HETATM    1  C   UNL     1      -7.205  15.913  67.186  1.00  0.00    -0.254 C  
HETATM    2  C   UNL     1      -8.673  15.655  67.481  1.00  0.00    -0.189 C  
ENDROOT
BRANCH   2   3
HETATM    3  C   UNL     1      -9.236  16.694  68.447  1.00  0.00    -0.225 C  
BRANCH   3   4
HETATM    4  C   UNL     1     -10.758  16.580  68.548  1.00  0.00    -0.336 C  
BRANCH   4   5
HETATM    5  C   UNL     1     -11.139  15.345  69.379  1.00  0.00    -0.282 C  
BRANCH   5   6
HETATM    6  N   UNL     1     -12.157  14.472  68.756  1.00  0.00    -0.265 NA 
HETATM    7  C   UNL     1     -12.055  14.517  67.289  1.00  0.00    -0.264 C  
BRANCH   6   8
HETATM    8  C   UNL     1     -11.967  13.069  69.187  1.00  0.00    -0.271 C  
BRANCH   8   9
HETATM    9  C   UNL     1     -10.630  12.451  68.754  1.00  0.00    -0.213 C  
BRANCH   9  10
HETATM   10  C   UNL     1     -10.711  10.990  68.224  1.00  0.00    -0.196 C  
HETATM   11  P   UNL     1      -9.807   9.961  69.438  1.00  0.00    -0.242 P  
HETATM   12  P   UNL     1     -10.038  10.844  66.520  1.00  0.00    -0.235 P  
HETATM   13  O   UNL     1     -12.128  10.606  68.186  1.00  0.00    -0.797 OA 
HETATM   14  O   UNL     1      -8.772  11.828  66.441  1.00  0.00    -0.193 OA 
HETATM   15  O   UNL     1      -9.729   9.531  65.886  1.00  0.00    -0.245 OA 
HETATM   16  O   UNL     1     -11.098  11.633  65.598  1.00  0.00    -0.300 OA 
HETATM   17  O   UNL     1     -11.205   9.921  70.335  1.00  0.00    -0.266 OA 
HETATM   18  O   UNL     1     -10.192   8.620  68.578  1.00  0.00    -0.187 OA 
HETATM   19  O   UNL     1      -9.043   9.091  70.466  1.00  0.00    -0.181 OA 
HETATM   20  H   UNL     1     -12.177   9.714  67.862  1.00  0.00     0.000 HD 
ENDBRANCH   9  10
ENDBRANCH   8   9
ENDBRANCH   6   8
ENDBRANCH   5   6
ENDBRANCH   4   5
ENDBRANCH   3   4
ENDBRANCH   2   3
TORSDOF 7
ENDMDL
MODEL      134
REMARK 921   NORMALIZED FREE ENERGY PREDICTED BY IDOCK:   -3.65 KCAL/MOL
REMARK 922        TOTAL FREE ENERGY PREDICTED BY IDOCK:   -5.82 KCAL/MOL
REMARK 923 INTER-LIGAND FREE ENERGY PREDICTED BY IDOCK:   -5.28 KCAL/MOL
REMARK 924 INTRA-LIGAND FREE ENERGY PREDICTED BY IDOCK:   -0.54 KCAL/MOL
REMARK 927      BINDING AFFINITY PREDICTED BY RF-SCORE:    0.00 PKD
ROOT
HETATM    1  C   UNL     1      -7.868   9.926  64.077  1.00  0.00    -0.145 C  
HETATM    2  C   UNL     1      -9.230  10.041  63.414  1.00  0.00    -0.317 C  
ENDROOT
BRANCH   2   3
HETATM    3  C   UNL     1     -10.170  10.928  64.227  1.00  0.00    -0.430 C  
BRANCH   3   4
HETATM    4  C   UNL     1     -10.698  12.086  63.380  1.00  0.00    -0.475 C  
BRANCH   4   5
HETATM    5  C   UNL     1     -11.453  13.087  64.270  1.00  0.00    -0.381 C  
BRANCH   5   6
HETATM    6  N   UNL     1     -10.768  14.385  64.456  1.00  0.00    -0.319 NA 
HETATM    7  C   UNL     1     -11.741  15.454  64.726  1.00  0.00    -0.232 C  
BRANCH   6   8
HETATM    8  C   UNL     1      -9.833  14.314  65.602  1.00  0.00    -0.271 C  
BRANCH   8   9
HETATM    9  C   UNL     1     -10.495  14.523  66.971  1.00  0.00    -0.268 C  
BRANCH   9  10
HETATM   10  C   UNL     1      -9.966  13.609  68.115  1.00  0.00    -0.246 C  
HETATM   11  P   UNL     1      -8.424  12.852  67.485  1.00  0.00    -0.208 P  
HETATM   12  P   UNL     1     -11.218  12.365  68.627  1.00  0.00    -0.314 P  
HETATM   13  O   UNL     1      -9.678  14.465  69.273  1.00  0.00    -0.408 OA 
HETATM   14  O   UNL     1     -11.972  11.894  67.290  1.00  0.00    -0.605 OA 
HETATM   15  O   UNL     1     -10.884  11.194  69.487  1.00  0.00    -0.239 OA 
HETATM   16  O   UNL     1     -12.375  13.227  69.345  1.00  0.00    -0.210 OA 
HETATM   17  O   UNL     1      -7.637  14.235  67.961  1.00  0.00    -0.115 OA 
HETATM   18  O   UNL     1      -8.211  12.104  68.928  1.00  0.00     0.000 OA 
HETATM   19  O   UNL     1      -7.119  12.212  66.952  1.00  0.00    -0.100 OA 
HETATM   20  H   UNL     1      -9.356  13.907  69.971  1.00  0.00     0.000 HD 
ENDBRANCH   9  10
ENDBRANCH   8   9
ENDBRANCH   6   8
ENDBRANCH   5   6
ENDBRANCH   4   5
ENDBRANCH   3   4
ENDBRANCH   2   3
TORSDOF 7
ENDMDL
MODEL      135
REMARK 921   NORMALIZED FREE ENERGY PREDICTED BY IDOCK:   -3.64 KCAL/MOL
REMARK 922        TOTAL FREE ENERGY PREDICTED BY IDOCK:   -5.81 KCAL/MOL
REMARK 923 INTER-LIGAND FREE ENERGY PREDICTED BY IDOCK:   -4.90 KCAL/MOL
REMARK 924 INTRA-LIGAND FREE ENERGY PREDICTED BY IDOCK:   -0.91 KCAL/MOL
REMARK 927      BINDING AFFINITY PREDICTED BY RF-SCORE:    0.00 PKD
ROOT
HETATM    1  C   UNL     1     -13.006  10.635  71.504  1.00  0.00    -0.566 C  
HETATM    2  C   UNL     1     -12.504   9.315  72.065  1.00  0.00    -0.451 C  
ENDROOT
BRANCH   2   3
HETATM    3  C   UNL     1     -13.363   8.147  71.590  1.00  0.00    -0.358 C  
BRANCH   3   4
HETATM    4  C   UNL     1     -12.564   6.843  71.593  1.00  0.00    -0.410 C  
BRANCH   4   5
HETATM    5  C   UNL     1     -11.072   7.140  71.808  1.00  0.00    -0.236 C  
BRANCH   5   6
HETATM    6  N   UNL     1     -10.204   6.804  70.658  1.00  0.00    -0.195 NA 
HETATM    7  C   UNL     1     -10.931   5.980  69.679  1.00  0.00    -0.400 C  
BRANCH   6   8
HETATM    8  C   UNL     1      -9.753   8.038  69.974  1.00  0.00    -0.173 C  
BRANCH   8   9
HETATM    9  C   UNL     1     -10.592   8.424  68.749  1.00  0.00    -0.154 C  
BRANCH   9  10
HETATM   10  C   UNL     1      -9.787   8.959  67.529  1.00  0.00    -0.184 C  
HETATM   11  P   UNL     1      -8.068   8.376  67.764  1.00  0.00    -0.124 P  
HETATM   12  P   UNL     1      -9.909  10.787  67.380  1.00  0.00    -0.185 P  
HETATM   13  O   UNL     1     -10.366   8.366  66.317  1.00  0.00    -0.418 OA 
HETATM   14  O   UNL     1      -9.893  11.372  68.875  1.00  0.00    -0.191 OA 
HETATM   15  O   UNL     1      -9.017  11.583  66.491  1.00  0.00    -0.179 OA 
HETATM   16  O   UNL     1     -11.441  11.057  66.961  1.00  0.00    -0.415 OA 
HETATM   17  O   UNL     1      -8.539   6.940  67.072  1.00  0.00    -0.119 OA 
HETATM   18  O   UNL     1      -7.650   9.054  66.331  1.00  0.00    -0.091 OA 
HETATM   19  O   UNL     1      -6.614   7.882  67.961  1.00  0.00    -0.053 OA 
HETATM   20  H   UNL     1      -9.874   8.693  65.573  1.00  0.00     0.000 HD 
ENDBRANCH   9  10
ENDBRANCH   8   9
ENDBRANCH   6   8
ENDBRANCH   5   6
ENDBRANCH   4   5
ENDBRANCH   3   4
ENDBRANCH   2   3
TORSDOF 7
ENDMDL
MODEL      136
REMARK 921   NORMALIZED FREE ENERGY PREDICTED BY IDOCK:   -3.63 KCAL/MOL
REMARK 922        TOTAL FREE ENERGY PREDICTED BY IDOCK:   -5.79 KCAL/MOL
REMARK 923 INTER-LIGAND FREE ENERGY PREDICTED BY IDOCK:   -5.74 KCAL/MOL
REMARK 924 INTRA-LIGAND FREE ENERGY PREDICTED BY IDOCK:   -0.05 KCAL/MOL
REMARK 927      BINDING AFFINITY PREDICTED BY RF-SCORE:    0.00 PKD
ROOT
HETATM    1  C   UNL     1      -6.468  20.077  66.078  1.00  0.00    -0.231 C  
HETATM    2  C   UNL     1      -6.165  19.814  67.543  1.00  0.00    -0.216 C  
ENDROOT
BRANCH   2   3
HETATM    3  C   UNL     1      -7.094  18.750  68.121  1.00  0.00    -0.269 C  
BRANCH   3   4
HETATM    4  C   UNL     1      -6.422  17.377  68.120  1.00  0.00    -0.168 C  
BRANCH   4   5
HETATM    5  C   UNL     1      -7.043  16.488  67.031  1.00  0.00    -0.212 C  
BRANCH   5   6
HETATM    6  N   UNL     1      -8.458  16.124  67.264  1.00  0.00    -0.172 NA 
HETATM    7  C   UNL     1      -9.299  16.549  66.134  1.00  0.00    -0.304 C  
BRANCH   6   8
HETATM    8  C   UNL     1      -8.595  14.657  67.413  1.00  0.00    -0.199 C  
BRANCH   8   9
HETATM    9  C   UNL     1      -9.288  13.965  66.232  1.00  0.00    -0.180 C  
BRANCH   9  10
HETATM   10  C   UNL     1     -10.710  13.403  66.527  1.00  0.00    -0.286 C  
HETATM   11  P   UNL     1     -10.455  11.774  67.319  1.00  0.00    -0.230 P  
HETATM   12  P   UNL     1     -11.736  13.308  65.005  1.00  0.00    -0.380 P  
HETATM   13  O   UNL     1     -11.369  14.326  67.460  1.00  0.00    -0.297 OA 
HETATM   14  O   UNL     1     -10.753  12.862  63.817  1.00  0.00    -0.397 OA 
HETATM   15  O   UNL     1     -13.018  12.550  64.945  1.00  0.00    -0.821 OA 
HETATM   16  O   UNL     1     -12.018  14.844  64.610  1.00  0.00    -0.428 OA 
HETATM   17  O   UNL     1     -10.262  12.585  68.757  1.00  0.00    -0.188 OA 
HETATM   18  O   UNL     1     -12.076  11.616  67.501  1.00  0.00    -0.611 OA 
HETATM   19  O   UNL     1     -10.238  10.395  67.990  1.00  0.00    -0.158 OA 
HETATM   20  H   UNL     1     -12.236  13.983  67.641  1.00  0.00     0.000 HD 
ENDBRANCH   9  10
ENDBRANCH   8   9
ENDBRANCH   6   8
ENDBRANCH   5   6
ENDBRANCH   4   5
ENDBRANCH   3   4
ENDBRANCH   2   3
TORSDOF 7
ENDMDL
MODEL      137
REMARK 921   NORMALIZED FREE ENERGY PREDICTED BY IDOCK:   -3.62 KCAL/MOL
REMARK 922        TOTAL FREE ENERGY PREDICTED BY IDOCK:   -5.79 KCAL/MOL
REMARK 923 INTER-LIGAND FREE ENERGY PREDICTED BY IDOCK:   -5.38 KCAL/MOL
REMARK 924 INTRA-LIGAND FREE ENERGY PREDICTED BY IDOCK:   -0.41 KCAL/MOL
REMARK 927      BINDING AFFINITY PREDICTED BY RF-SCORE:    0.00 PKD
ROOT
HETATM    1  C   UNL     1     -10.651  19.834  65.599  1.00  0.00    -0.456 C  
HETATM    2  C   UNL     1     -10.270  19.505  67.032  1.00  0.00    -0.540 C  
ENDROOT
BRANCH   2   3
HETATM    3  C   UNL     1      -8.845  18.965  67.118  1.00  0.00    -0.298 C  
BRANCH   3   4
HETATM    4  C   UNL     1      -8.641  18.158  68.401  1.00  0.00    -0.310 C  
BRANCH   4   5
HETATM    5  C   UNL     1      -9.153  16.722  68.206  1.00  0.00    -0.228 C  
BRANCH   5   6
HETATM    6  N   UNL     1      -8.585  16.018  67.037  1.00  0.00    -0.193 NA 
HETATM    7  C   UNL     1      -7.130  15.856  67.181  1.00  0.00    -0.204 C  
BRANCH   6   8
HETATM    8  C   UNL     1      -9.187  14.671  66.904  1.00  0.00    -0.249 C  
BRANCH   8   9
HETATM    9  C   UNL     1      -9.235  13.870  68.212  1.00  0.00    -0.207 C  
BRANCH   9  10
HETATM   10  C   UNL     1      -9.786  12.419  68.086  1.00  0.00    -0.214 C  
HETATM   11  P   UNL     1      -9.515  11.925  66.345  1.00  0.00    -0.227 P  
HETATM   12  P   UNL     1     -11.548  12.312  68.596  1.00  0.00    -0.343 P  
HETATM   13  O   UNL     1      -9.001  11.564  68.986  1.00  0.00    -0.378 OA 
HETATM   14  O   UNL     1     -12.257  13.659  68.083  1.00  0.00    -0.322 OA 
HETATM   15  O   UNL     1     -12.399  11.123  68.308  1.00  0.00    -0.532 OA 
HETATM   16  O   UNL     1     -11.525  12.564  70.187  1.00  0.00    -0.130 OA 
HETATM   17  O   UNL     1      -7.967  11.508  66.781  1.00  0.00    -0.156 OA 
HETATM   18  O   UNL     1     -10.124  10.440  66.680  1.00  0.00    -0.208 OA 
HETATM   19  O   UNL     1      -9.286  11.506  64.872  1.00  0.00    -0.180 OA 
HETATM   20  H   UNL     1      -9.338  10.679  68.910  1.00  0.00     0.000 HD 
ENDBRANCH   9  10
ENDBRANCH   8   9
ENDBRANCH   6   8
ENDBRANCH   5   6
ENDBRANCH   4   5
ENDBRANCH   3   4
ENDBRANCH   2   3
TORSDOF 7
ENDMDL
MODEL      138
REMARK 921   NORMALIZED FREE ENERGY PREDICTED BY IDOCK:   -3.62 KCAL/MOL
REMARK 922        TOTAL FREE ENERGY PREDICTED BY IDOCK:   -5.78 KCAL/MOL
REMARK 923 INTER-LIGAND FREE ENERGY PREDICTED BY IDOCK:   -5.38 KCAL/MOL
REMARK 924 INTRA-LIGAND FREE ENERGY PREDICTED BY IDOCK:   -0.41 KCAL/MOL
REMARK 927      BINDING AFFINITY PREDICTED BY RF-SCORE:    0.00 PKD
ROOT
HETATM    1  C   UNL     1     -11.320   6.590  70.907  1.00  0.00    -0.393 C  
HETATM    2  C   UNL     1     -11.069   7.903  70.185  1.00  0.00    -0.204 C  
ENDROOT
BRANCH   2   3
HETATM    3  C   UNL     1     -10.394   8.920  71.102  1.00  0.00    -0.338 C  
BRANCH   3   4
HETATM    4  C   UNL     1      -8.923   9.104  70.727  1.00  0.00    -0.296 C  
BRANCH   4   5
HETATM    5  C   UNL     1      -8.809   9.673  69.304  1.00  0.00    -0.164 C  
BRANCH   5   6
HETATM    6  N   UNL     1      -7.930  10.856  69.182  1.00  0.00    -0.138 NA 
HETATM    7  C   UNL     1      -6.518  10.451  69.099  1.00  0.00    -0.048 C  
BRANCH   6   8
HETATM    8  C   UNL     1      -8.262  11.621  67.959  1.00  0.00    -0.146 C  
BRANCH   8   9
HETATM    9  C   UNL     1      -9.313  12.720  68.166  1.00  0.00    -0.214 C  
BRANCH   9  10
HETATM   10  C   UNL     1     -10.046  13.195  66.878  1.00  0.00    -0.245 C  
HETATM   11  P   UNL     1     -10.463  14.955  67.153  1.00  0.00    -0.280 P  
HETATM   12  P   UNL     1     -11.519  12.159  66.508  1.00  0.00    -0.301 P  
HETATM   13  O   UNL     1      -9.107  13.063  65.756  1.00  0.00    -0.426 OA 
HETATM   14  O   UNL     1     -12.192  11.799  67.920  1.00  0.00    -0.538 OA 
HETATM   15  O   UNL     1     -12.554  12.558  65.514  1.00  0.00    -0.642 OA 
HETATM   16  O   UNL     1     -10.911  10.728  66.084  1.00  0.00    -0.115 OA 
HETATM   17  O   UNL     1      -8.922  15.322  66.649  1.00  0.00    -0.250 OA 
HETATM   18  O   UNL     1     -11.092  15.035  65.642  1.00  0.00    -0.337 OA 
HETATM   19  O   UNL     1     -10.815  16.445  67.386  1.00  0.00    -0.302 OA 
HETATM   20  H   UNL     1      -9.554  13.353  64.970  1.00  0.00     0.000 HD 
ENDBRANCH   9  10
ENDBRANCH   8   9
ENDBRANCH   6   8
ENDBRANCH   5   6
ENDBRANCH   4   5
ENDBRANCH   3   4
ENDBRANCH   2   3
TORSDOF 7
ENDMDL
MODEL      139
REMARK 921   NORMALIZED FREE ENERGY PREDICTED BY IDOCK:   -3.62 KCAL/MOL
REMARK 922        TOTAL FREE ENERGY PREDICTED BY IDOCK:   -5.78 KCAL/MOL
REMARK 923 INTER-LIGAND FREE ENERGY PREDICTED BY IDOCK:   -5.28 KCAL/MOL
REMARK 924 INTRA-LIGAND FREE ENERGY PREDICTED BY IDOCK:   -0.49 KCAL/MOL
REMARK 927      BINDING AFFINITY PREDICTED BY RF-SCORE:    0.00 PKD
ROOT
HETATM    1  C   UNL     1     -11.846  16.015  71.837  1.00  0.00    -0.619 C  
HETATM    2  C   UNL     1     -12.807  15.248  70.944  1.00  0.00    -0.511 C  
ENDROOT
BRANCH   2   3
HETATM    3  C   UNL     1     -12.061  14.471  69.863  1.00  0.00    -0.389 C  
BRANCH   3   4
HETATM    4  C   UNL     1     -11.845  15.333  68.619  1.00  0.00    -0.329 C  
BRANCH   4   5
HETATM    5  C   UNL     1     -10.362  15.315  68.216  1.00  0.00    -0.234 C  
BRANCH   5   6
HETATM    6  N   UNL     1     -10.100  14.802  66.854  1.00  0.00    -0.243 NA 
HETATM    7  C   UNL     1      -9.429  15.823  66.033  1.00  0.00    -0.357 C  
BRANCH   6   8
HETATM    8  C   UNL     1      -9.225  13.610  66.911  1.00  0.00    -0.250 C  
BRANCH   8   9
HETATM    9  C   UNL     1      -9.302  12.833  68.232  1.00  0.00    -0.194 C  
BRANCH   9  10
HETATM   10  C   UNL     1      -9.162  11.288  68.108  1.00  0.00    -0.170 C  
HETATM   11  P   UNL     1      -8.003  10.996  66.722  1.00  0.00    -0.159 P  
HETATM   12  P   UNL     1     -10.790  10.472  67.864  1.00  0.00    -0.313 P  
HETATM   13  O   UNL     1      -8.589  10.789  69.365  1.00  0.00    -0.347 OA 
HETATM   14  O   UNL     1     -11.651  11.439  66.915  1.00  0.00    -0.492 OA 
HETATM   15  O   UNL     1     -10.923   9.052  67.432  1.00  0.00    -0.152 OA 
HETATM   16  O   UNL     1     -11.554  10.663  69.270  1.00  0.00    -0.266 OA 
HETATM   17  O   UNL     1      -6.765  11.218  67.807  1.00  0.00    -0.065 OA 
HETATM   18  O   UNL     1      -8.096   9.382  66.993  1.00  0.00    -0.105 OA 
HETATM   19  O   UNL     1      -7.022  10.749  65.550  1.00  0.00    -0.090 OA 
HETATM   20  H   UNL     1      -8.503   9.846  69.289  1.00  0.00     0.000 HD 
ENDBRANCH   9  10
ENDBRANCH   8   9
ENDBRANCH   6   8
ENDBRANCH   5   6
ENDBRANCH   4   5
ENDBRANCH   3   4
ENDBRANCH   2   3
TORSDOF 7
ENDMDL
MODEL      140
REMARK 921   NORMALIZED FREE ENERGY PREDICTED BY IDOCK:   -3.61 KCAL/MOL
REMARK 922        TOTAL FREE ENERGY PREDICTED BY IDOCK:   -5.77 KCAL/MOL
REMARK 923 INTER-LIGAND FREE ENERGY PREDICTED BY IDOCK:   -5.03 KCAL/MOL
REMARK 924 INTRA-LIGAND FREE ENERGY PREDICTED BY IDOCK:   -0.74 KCAL/MOL
REMARK 927      BINDING AFFINITY PREDICTED BY RF-SCORE:    0.00 PKD
ROOT
HETATM    1  C   UNL     1     -10.691  14.814  64.876  1.00  0.00    -0.438 C  
HETATM    2  C   UNL     1     -12.137  14.500  64.530  1.00  0.00    -0.501 C  
ENDROOT
BRANCH   2   3
HETATM    3  C   UNL     1     -12.890  13.949  65.738  1.00  0.00    -0.437 C  
BRANCH   3   4
HETATM    4  C   UNL     1     -11.920  13.520  66.839  1.00  0.00    -0.447 C  
BRANCH   4   5
HETATM    5  C   UNL     1     -11.956  11.993  67.007  1.00  0.00    -0.023 C  
BRANCH   5   6
HETATM    6  N   UNL     1     -10.962  11.454  67.961  1.00  0.00    -0.219 NA 
HETATM    7  C   UNL     1      -9.870  12.416  68.176  1.00  0.00    -0.213 C  
BRANCH   6   8
HETATM    8  C   UNL     1     -11.599  11.183  69.270  1.00  0.00    -0.318 C  
BRANCH   8   9
HETATM    9  C   UNL     1     -10.670  10.527  70.300  1.00  0.00    -0.165 C  
BRANCH   9  10
HETATM   10  C   UNL     1     -10.473   8.991  70.139  1.00  0.00    -0.214 C  
HETATM   11  P   UNL     1     -10.943   8.249  71.744  1.00  0.00    -0.327 P  
HETATM   12  P   UNL     1      -8.756   8.573  69.632  1.00  0.00    -0.135 P  
HETATM   13  O   UNL     1     -11.382   8.533  69.080  1.00  0.00    -0.304 OA 
HETATM   14  O   UNL     1      -7.788   9.591  70.408  1.00  0.00    -0.147 OA 
HETATM   15  O   UNL     1      -8.217   7.185  69.684  1.00  0.00    -0.127 OA 
HETATM   16  O   UNL     1      -8.635   9.124  68.123  1.00  0.00    -0.127 OA 
HETATM   17  O   UNL     1     -12.520   8.300  71.222  1.00  0.00    -0.303 OA 
HETATM   18  O   UNL     1     -10.672   6.756  71.125  1.00  0.00    -0.222 OA 
HETATM   19  O   UNL     1     -11.342   7.622  73.102  1.00  0.00    -0.360 OA 
HETATM   20  H   UNL     1     -11.261   7.596  68.981  1.00  0.00     0.000 HD 
ENDBRANCH   9  10
ENDBRANCH   8   9
ENDBRANCH   6   8
ENDBRANCH   5   6
ENDBRANCH   4   5
ENDBRANCH   3   4
ENDBRANCH   2   3
TORSDOF 7
ENDMDL
MODEL      141
REMARK 921   NORMALIZED FREE ENERGY PREDICTED BY IDOCK:   -3.61 KCAL/MOL
REMARK 922        TOTAL FREE ENERGY PREDICTED BY IDOCK:   -5.77 KCAL/MOL
REMARK 923 INTER-LIGAND FREE ENERGY PREDICTED BY IDOCK:   -5.33 KCAL/MOL
REMARK 924 INTRA-LIGAND FREE ENERGY PREDICTED BY IDOCK:   -0.44 KCAL/MOL
REMARK 927      BINDING AFFINITY PREDICTED BY RF-SCORE:    0.00 PKD
ROOT
HETATM    1  C   UNL     1      -7.472  20.190  67.141  1.00  0.00    -0.326 C  
HETATM    2  C   UNL     1      -8.931  20.534  67.385  1.00  0.00    -0.420 C  
ENDROOT
BRANCH   2   3
HETATM    3  C   UNL     1      -9.810  20.081  66.222  1.00  0.00    -0.576 C  
BRANCH   3   4
HETATM    4  C   UNL     1     -10.562  18.797  66.571  1.00  0.00    -0.436 C  
BRANCH   4   5
HETATM    5  C   UNL     1      -9.569  17.638  66.754  1.00  0.00    -0.294 C  
BRANCH   5   6
HETATM    6  N   UNL     1      -9.794  16.819  67.965  1.00  0.00    -0.258 NA 
HETATM    7  C   UNL     1     -10.292  17.651  69.072  1.00  0.00    -0.272 C  
BRANCH   6   8
HETATM    8  C   UNL     1     -10.797  15.764  67.695  1.00  0.00    -0.310 C  
BRANCH   8   9
HETATM    9  C   UNL     1     -10.431  14.386  68.262  1.00  0.00    -0.245 C  
BRANCH   9  10
HETATM   10  C   UNL     1      -9.875  13.364  67.227  1.00  0.00    -0.233 C  
HETATM   11  P   UNL     1     -10.806  11.812  67.498  1.00  0.00    -0.272 P  
HETATM   12  P   UNL     1      -8.057  13.147  67.391  1.00  0.00    -0.126 P  
HETATM   13  O   UNL     1     -10.148  13.895  65.885  1.00  0.00    -0.300 OA 
HETATM   14  O   UNL     1      -7.728  13.201  68.961  1.00  0.00     0.014 OA 
HETATM   15  O   UNL     1      -7.317  12.034  66.732  1.00  0.00    -0.088 OA 
HETATM   16  O   UNL     1      -7.436  14.550  66.898  1.00  0.00     0.045 OA 
HETATM   17  O   UNL     1     -11.998  12.445  66.528  1.00  0.00    -0.564 OA 
HETATM   18  O   UNL     1     -10.004  11.121  66.247  1.00  0.00    -0.206 OA 
HETATM   19  O   UNL     1     -11.594  10.500  67.727  1.00  0.00    -0.462 OA 
HETATM   20  H   UNL     1      -9.809  13.272  65.254  1.00  0.00     0.000 HD 
ENDBRANCH   9  10
ENDBRANCH   8   9
ENDBRANCH   6   8
ENDBRANCH   5   6
ENDBRANCH   4   5
ENDBRANCH   3   4
ENDBRANCH   2   3
TORSDOF 7
ENDMDL
MODEL      142
REMARK 921   NORMALIZED FREE ENERGY PREDICTED BY IDOCK:   -3.60 KCAL/MOL
REMARK 922        TOTAL FREE ENERGY PREDICTED BY IDOCK:   -5.76 KCAL/MOL
REMARK 923 INTER-LIGAND FREE ENERGY PREDICTED BY IDOCK:   -5.32 KCAL/MOL
REMARK 924 INTRA-LIGAND FREE ENERGY PREDICTED BY IDOCK:   -0.44 KCAL/MOL
REMARK 927      BINDING AFFINITY PREDICTED BY RF-SCORE:    0.00 PKD
ROOT
HETATM    1  C   UNL     1     -10.317  11.353  66.113  1.00  0.00    -0.294 C  
HETATM    2  C   UNL     1     -11.576  12.200  66.165  1.00  0.00    -0.418 C  
ENDROOT
BRANCH   2   3
HETATM    3  C   UNL     1     -11.905  12.619  67.596  1.00  0.00    -0.390 C  
BRANCH   3   4
HETATM    4  C   UNL     1     -11.813  11.428  68.550  1.00  0.00    -0.364 C  
BRANCH   4   5
HETATM    5  C   UNL     1     -12.002  11.899  70.001  1.00  0.00    -0.332 C  
BRANCH   5   6
HETATM    6  N   UNL     1     -12.059  10.811  71.000  1.00  0.00    -0.352 NA 
HETATM    7  C   UNL     1     -13.338  10.089  70.913  1.00  0.00    -0.219 C  
BRANCH   6   8
HETATM    8  C   UNL     1     -10.965   9.840  70.768  1.00  0.00    -0.336 C  
BRANCH   8   9
HETATM    9  C   UNL     1     -10.690   8.904  71.953  1.00  0.00    -0.426 C  
BRANCH   9  10
HETATM   10  C   UNL     1      -9.760   7.694  71.646  1.00  0.00    -0.161 C  
HETATM   11  P   UNL     1     -10.605   6.221  72.327  1.00  0.00    -0.234 P  
HETATM   12  P   UNL     1      -8.074   7.937  72.339  1.00  0.00    -0.154 P  
HETATM   13  O   UNL     1      -9.638   7.584  70.187  1.00  0.00    -0.168 OA 
HETATM   14  O   UNL     1      -8.261   8.674  73.753  1.00  0.00    -0.388 OA 
HETATM   15  O   UNL     1      -7.080   6.832  72.444  1.00  0.00    -0.070 OA 
HETATM   16  O   UNL     1      -7.441   9.127  71.455  1.00  0.00    -0.280 OA 
HETATM   17  O   UNL     1     -11.477   6.160  70.914  1.00  0.00    -0.315 OA 
HETATM   18  O   UNL     1      -9.399   5.272  71.750  1.00  0.00    -0.143 OA 
HETATM   19  O   UNL     1     -11.320   4.975  72.902  1.00  0.00    -0.278 OA 
HETATM   20  H   UNL     1      -9.070   6.846  70.000  1.00  0.00     0.000 HD 
ENDBRANCH   9  10
ENDBRANCH   8   9
ENDBRANCH   6   8
ENDBRANCH   5   6
ENDBRANCH   4   5
ENDBRANCH   3   4
ENDBRANCH   2   3
TORSDOF 7
ENDMDL
MODEL      143
REMARK 921   NORMALIZED FREE ENERGY PREDICTED BY IDOCK:   -3.59 KCAL/MOL
REMARK 922        TOTAL FREE ENERGY PREDICTED BY IDOCK:   -5.74 KCAL/MOL
REMARK 923 INTER-LIGAND FREE ENERGY PREDICTED BY IDOCK:   -5.11 KCAL/MOL
REMARK 924 INTRA-LIGAND FREE ENERGY PREDICTED BY IDOCK:   -0.63 KCAL/MOL
REMARK 927      BINDING AFFINITY PREDICTED BY RF-SCORE:    0.00 PKD
ROOT
HETATM    1  C   UNL     1     -12.601  13.829  65.253  1.00  0.00    -0.510 C  
HETATM    2  C   UNL     1     -11.335  13.110  64.820  1.00  0.00    -0.352 C  
ENDROOT
BRANCH   2   3
HETATM    3  C   UNL     1     -11.005  11.952  65.759  1.00  0.00    -0.359 C  
BRANCH   3   4
HETATM    4  C   UNL     1     -11.462  12.257  67.186  1.00  0.00    -0.419 C  
BRANCH   4   5
HETATM    5  C   UNL     1     -10.376  11.836  68.188  1.00  0.00    -0.200 C  
BRANCH   5   6
HETATM    6  N   UNL     1     -10.888  11.399  69.505  1.00  0.00    -0.165 NA 
HETATM    7  C   UNL     1     -11.917  12.328  69.998  1.00  0.00    -0.304 C  
BRANCH   6   8
HETATM    8  C   UNL     1     -11.495  10.053  69.402  1.00  0.00    -0.083 C  
BRANCH   8   9
HETATM    9  C   UNL     1     -10.490   8.898  69.508  1.00  0.00    -0.229 C  
BRANCH   9  10
HETATM   10  C   UNL     1     -10.425   8.194  70.895  1.00  0.00    -0.202 C  
HETATM   11  P   UNL     1      -8.673   7.730  71.145  1.00  0.00    -0.142 P  
HETATM   12  P   UNL     1     -11.567   6.757  70.985  1.00  0.00    -0.369 P  
HETATM   13  O   UNL     1     -10.845   9.170  71.910  1.00  0.00    -0.359 OA 
HETATM   14  O   UNL     1     -11.529   6.049  69.545  1.00  0.00    -0.384 OA 
HETATM   15  O   UNL     1     -11.501   5.743  72.075  1.00  0.00    -0.266 OA 
HETATM   16  O   UNL     1     -13.041   7.409  70.968  1.00  0.00    -0.259 OA 
HETATM   17  O   UNL     1      -8.419   9.277  71.698  1.00  0.00    -0.304 OA 
HETATM   18  O   UNL     1      -9.048   7.145  72.630  1.00  0.00    -0.132 OA 
HETATM   19  O   UNL     1      -7.191   7.339  71.357  1.00  0.00    -0.073 OA 
HETATM   20  H   UNL     1     -10.805   8.740  72.757  1.00  0.00     0.000 HD 
ENDBRANCH   9  10
ENDBRANCH   8   9
ENDBRANCH   6   8
ENDBRANCH   5   6
ENDBRANCH   4   5
ENDBRANCH   3   4
ENDBRANCH   2   3
TORSDOF 7
ENDMDL
MODEL      144
REMARK 921   NORMALIZED FREE ENERGY PREDICTED BY IDOCK:   -3.58 KCAL/MOL
REMARK 922        TOTAL FREE ENERGY PREDICTED BY IDOCK:   -5.73 KCAL/MOL
REMARK 923 INTER-LIGAND FREE ENERGY PREDICTED BY IDOCK:   -5.11 KCAL/MOL
REMARK 924 INTRA-LIGAND FREE ENERGY PREDICTED BY IDOCK:   -0.61 KCAL/MOL
REMARK 927      BINDING AFFINITY PREDICTED BY RF-SCORE:    0.00 PKD
ROOT
HETATM    1  C   UNL     1     -12.249  13.286  70.549  1.00  0.00    -0.416 C  
HETATM    2  C   UNL     1     -12.135  14.244  69.376  1.00  0.00    -0.361 C  
ENDROOT
BRANCH   2   3
HETATM    3  C   UNL     1     -12.051  13.492  68.050  1.00  0.00    -0.298 C  
BRANCH   3   4
HETATM    4  C   UNL     1     -10.730  13.784  67.337  1.00  0.00    -0.279 C  
BRANCH   4   5
HETATM    5  C   UNL     1      -9.684  12.723  67.713  1.00  0.00    -0.207 C  
BRANCH   5   6
HETATM    6  N   UNL     1      -9.963  11.369  67.188  1.00  0.00    -0.190 NA 
HETATM    7  C   UNL     1      -9.952  11.367  65.716  1.00  0.00    -0.230 C  
BRANCH   6   8
HETATM    8  C   UNL     1      -8.935  10.412  67.657  1.00  0.00    -0.138 C  
BRANCH   8   9
HETATM    9  C   UNL     1      -9.156   9.899  69.086  1.00  0.00    -0.175 C  
BRANCH   9  10
HETATM   10  C   UNL     1     -10.386   8.964  69.278  1.00  0.00    -0.213 C  
HETATM   11  P   UNL     1     -10.494   8.631  71.074  1.00  0.00    -0.260 P  
HETATM   12  P   UNL     1     -10.242   7.432  68.273  1.00  0.00    -0.183 P  
HETATM   13  O   UNL     1     -11.577   9.694  68.822  1.00  0.00    -0.433 OA 
HETATM   14  O   UNL     1      -8.695   7.005  68.306  1.00  0.00    -0.128 OA 
HETATM   15  O   UNL     1     -11.123   6.248  68.479  1.00  0.00    -0.334 OA 
HETATM   16  O   UNL     1     -10.389   7.933  66.748  1.00  0.00    -0.309 OA 
HETATM   17  O   UNL     1     -11.316  10.068  71.216  1.00  0.00    -0.357 OA 
HETATM   18  O   UNL     1     -11.855   7.753  70.822  1.00  0.00    -0.271 OA 
HETATM   19  O   UNL     1     -10.586   8.351  72.593  1.00  0.00    -0.332 OA 
HETATM   20  H   UNL     1     -12.327   9.124  68.938  1.00  0.00     0.000 HD 
ENDBRANCH   9  10
ENDBRANCH   8   9
ENDBRANCH   6   8
ENDBRANCH   5   6
ENDBRANCH   4   5
ENDBRANCH   3   4
ENDBRANCH   2   3
TORSDOF 7
ENDMDL
MODEL      145
REMARK 921   NORMALIZED FREE ENERGY PREDICTED BY IDOCK:   -3.56 KCAL/MOL
REMARK 922        TOTAL FREE ENERGY PREDICTED BY IDOCK:   -5.70 KCAL/MOL
REMARK 923 INTER-LIGAND FREE ENERGY PREDICTED BY IDOCK:   -4.99 KCAL/MOL
REMARK 924 INTRA-LIGAND FREE ENERGY PREDICTED BY IDOCK:   -0.71 KCAL/MOL
REMARK 927      BINDING AFFINITY PREDICTED BY RF-SCORE:    0.00 PKD
ROOT
HETATM    1  C   UNL     1     -12.729  13.540  64.486  1.00  0.00    -0.165 C  
HETATM    2  C   UNL     1     -12.249  12.130  64.186  1.00  0.00    -0.509 C  
ENDROOT
BRANCH   2   3
HETATM    3  C   UNL     1     -10.724  12.052  64.184  1.00  0.00    -0.405 C  
BRANCH   3   4
HETATM    4  C   UNL     1     -10.234  10.906  65.070  1.00  0.00    -0.367 C  
BRANCH   4   5
HETATM    5  C   UNL     1     -10.077  11.391  66.520  1.00  0.00    -0.215 C  
BRANCH   5   6
HETATM    6  N   UNL     1     -11.298  11.268  67.346  1.00  0.00    -0.436 NA 
HETATM    7  C   UNL     1     -11.119  10.250  68.393  1.00  0.00    -0.247 C  
BRANCH   6   8
HETATM    8  C   UNL     1     -11.605  12.558  68.006  1.00  0.00    -0.342 C  
BRANCH   8   9
HETATM    9  C   UNL     1     -10.367  13.368  68.414  1.00  0.00    -0.253 C  
BRANCH   9  10
HETATM   10  C   UNL     1     -10.439  14.894  68.111  1.00  0.00    -0.242 C  
HETATM   11  P   UNL     1      -8.749  15.391  67.615  1.00  0.00    -0.180 P  
HETATM   12  P   UNL     1     -11.071  15.846  69.551  1.00  0.00    -0.366 P  
HETATM   13  O   UNL     1     -11.375  15.084  66.996  1.00  0.00    -0.346 OA 
HETATM   14  O   UNL     1     -10.461  15.153  70.864  1.00  0.00    -0.073 OA 
HETATM   15  O   UNL     1     -10.973  17.330  69.640  1.00  0.00     0.042 OA 
HETATM   16  O   UNL     1     -12.620  15.418  69.670  1.00  0.00    -0.200 OA 
HETATM   17  O   UNL     1      -9.126  14.870  66.083  1.00  0.00    -0.266 OA 
HETATM   18  O   UNL     1      -9.285  16.916  67.345  1.00  0.00    -0.219 OA 
HETATM   19  O   UNL     1      -7.320  15.811  67.194  1.00  0.00    -0.202 OA 
HETATM   20  H   UNL     1     -11.419  16.015  66.811  1.00  0.00     0.000 HD 
ENDBRANCH   9  10
ENDBRANCH   8   9
ENDBRANCH   6   8
ENDBRANCH   5   6
ENDBRANCH   4   5
ENDBRANCH   3   4
ENDBRANCH   2   3
TORSDOF 7
ENDMDL
MODEL      146
REMARK 921   NORMALIZED FREE ENERGY PREDICTED BY IDOCK:   -3.56 KCAL/MOL
REMARK 922        TOTAL FREE ENERGY PREDICTED BY IDOCK:   -5.69 KCAL/MOL
REMARK 923 INTER-LIGAND FREE ENERGY PREDICTED BY IDOCK:   -5.29 KCAL/MOL
REMARK 924 INTRA-LIGAND FREE ENERGY PREDICTED BY IDOCK:   -0.40 KCAL/MOL
REMARK 927      BINDING AFFINITY PREDICTED BY RF-SCORE:    0.00 PKD
ROOT
HETATM    1  C   UNL     1      -7.382   9.679  64.327  1.00  0.00    -0.122 C  
HETATM    2  C   UNL     1      -8.681   9.577  63.545  1.00  0.00    -0.235 C  
ENDROOT
BRANCH   2   3
HETATM    3  C   UNL     1      -9.777  10.431  64.176  1.00  0.00    -0.387 C  
BRANCH   3   4
HETATM    4  C   UNL     1     -10.039  11.688  63.345  1.00  0.00    -0.468 C  
BRANCH   4   5
HETATM    5  C   UNL     1     -11.227  12.467  63.929  1.00  0.00    -0.436 C  
BRANCH   5   6
HETATM    6  N   UNL     1     -10.931  13.874  64.277  1.00  0.00    -0.291 NA 
HETATM    7  C   UNL     1     -12.174  14.644  64.442  1.00  0.00    -0.452 C  
BRANCH   6   8
HETATM    8  C   UNL     1     -10.175  13.942  65.549  1.00  0.00    -0.331 C  
BRANCH   8   9
HETATM    9  C   UNL     1      -9.734  15.358  65.945  1.00  0.00    -0.392 C  
BRANCH   9  10
HETATM   10  C   UNL     1      -9.237  15.516  67.412  1.00  0.00    -0.202 C  
HETATM   11  P   UNL     1      -8.369  13.958  67.822  1.00  0.00    -0.207 P  
HETATM   12  P   UNL     1     -10.619  15.890  68.564  1.00  0.00    -0.295 P  
HETATM   13  O   UNL     1      -8.300  16.646  67.447  1.00  0.00    -0.168 OA 
HETATM   14  O   UNL     1     -11.881  15.033  68.062  1.00  0.00    -0.335 OA 
HETATM   15  O   UNL     1     -10.478  15.808  70.045  1.00  0.00    -0.295 OA 
HETATM   16  O   UNL     1     -11.085  17.381  68.167  1.00  0.00    -0.259 OA 
HETATM   17  O   UNL     1      -7.024  14.601  67.090  1.00  0.00    -0.207 OA 
HETATM   18  O   UNL     1      -7.990  14.566  69.297  1.00  0.00    -0.099 OA 
HETATM   19  O   UNL     1      -7.634  12.640  68.169  1.00  0.00    -0.111 OA 
HETATM   20  H   UNL     1      -7.997  16.743  68.342  1.00  0.00     0.000 HD 
ENDBRANCH   9  10
ENDBRANCH   8   9
ENDBRANCH   6   8
ENDBRANCH   5   6
ENDBRANCH   4   5
ENDBRANCH   3   4
ENDBRANCH   2   3
TORSDOF 7
ENDMDL
MODEL      147
REMARK 921   NORMALIZED FREE ENERGY PREDICTED BY IDOCK:   -3.54 KCAL/MOL
REMARK 922        TOTAL FREE ENERGY PREDICTED BY IDOCK:   -5.67 KCAL/MOL
REMARK 923 INTER-LIGAND FREE ENERGY PREDICTED BY IDOCK:   -5.10 KCAL/MOL
REMARK 924 INTRA-LIGAND FREE ENERGY PREDICTED BY IDOCK:   -0.56 KCAL/MOL
REMARK 927      BINDING AFFINITY PREDICTED BY RF-SCORE:    0.00 PKD
ROOT
HETATM    1  C   UNL     1      -7.804  11.051  68.853  1.00  0.00    -0.138 C  
HETATM    2  C   UNL     1      -8.354  11.770  67.633  1.00  0.00    -0.145 C  
ENDROOT
BRANCH   2   3
HETATM    3  C   UNL     1      -9.880  11.789  67.640  1.00  0.00    -0.192 C  
BRANCH   3   4
HETATM    4  C   UNL     1     -10.422  12.663  66.509  1.00  0.00    -0.264 C  
BRANCH   4   5
HETATM    5  C   UNL     1      -9.945  14.113  66.689  1.00  0.00    -0.277 C  
BRANCH   5   6
HETATM    6  N   UNL     1     -10.273  15.014  65.563  1.00  0.00    -0.351 NA 
HETATM    7  C   UNL     1     -11.552  14.631  64.944  1.00  0.00    -0.405 C  
BRANCH   6   8
HETATM    8  C   UNL     1     -10.392  16.411  66.038  1.00  0.00    -0.352 C  
BRANCH   8   9
HETATM    9  C   UNL     1     -10.206  16.580  67.552  1.00  0.00    -0.283 C  
BRANCH   9  10
HETATM   10  C   UNL     1      -9.438  17.861  67.991  1.00  0.00    -0.279 C  
HETATM   11  P   UNL     1      -9.698  19.088  66.659  1.00  0.00    -0.382 P  
HETATM   12  P   UNL     1      -7.661  17.516  68.310  1.00  0.00    -0.257 P  
HETATM   13  O   UNL     1     -10.039  18.335  69.245  1.00  0.00    -0.339 OA 
HETATM   14  O   UNL     1      -7.196  16.446  67.208  1.00  0.00    -0.140 OA 
HETATM   15  O   UNL     1      -6.646  18.596  68.462  1.00  0.00    -0.222 OA 
HETATM   16  O   UNL     1      -7.658  16.607  69.641  1.00  0.00     0.002 OA 
HETATM   17  O   UNL     1     -11.142  19.466  67.390  1.00  0.00    -0.445 OA 
HETATM   18  O   UNL     1      -8.849  20.194  67.521  1.00  0.00    -0.334 OA 
HETATM   19  O   UNL     1      -9.919  20.126  65.532  1.00  0.00    -0.301 OA 
HETATM   20  H   UNL     1      -9.570  19.116  69.513  1.00  0.00     0.000 HD 
ENDBRANCH   9  10
ENDBRANCH   8   9
ENDBRANCH   6   8
ENDBRANCH   5   6
ENDBRANCH   4   5
ENDBRANCH   3   4
ENDBRANCH   2   3
TORSDOF 7
ENDMDL
MODEL      148
REMARK 921   NORMALIZED FREE ENERGY PREDICTED BY IDOCK:   -3.52 KCAL/MOL
REMARK 922        TOTAL FREE ENERGY PREDICTED BY IDOCK:   -5.64 KCAL/MOL
REMARK 923 INTER-LIGAND FREE ENERGY PREDICTED BY IDOCK:   -5.19 KCAL/MOL
REMARK 924 INTRA-LIGAND FREE ENERGY PREDICTED BY IDOCK:   -0.45 KCAL/MOL
REMARK 927      BINDING AFFINITY PREDICTED BY RF-SCORE:    0.00 PKD
ROOT
HETATM    1  C   UNL     1     -14.035  15.426  72.454  1.00  0.00    -0.657 C  
HETATM    2  C   UNL     1     -12.882  14.792  71.694  1.00  0.00    -0.405 C  
ENDROOT
BRANCH   2   3
HETATM    3  C   UNL     1     -12.514  15.609  70.459  1.00  0.00    -0.440 C  
BRANCH   3   4
HETATM    4  C   UNL     1     -12.215  14.698  69.268  1.00  0.00    -0.247 C  
BRANCH   4   5
HETATM    5  C   UNL     1     -11.467  15.484  68.179  1.00  0.00    -0.326 C  
BRANCH   5   6
HETATM    6  N   UNL     1     -10.022  15.186  68.086  1.00  0.00    -0.219 NA 
HETATM    7  C   UNL     1      -9.250  16.064  68.980  1.00  0.00    -0.244 C  
BRANCH   6   8
HETATM    8  C   UNL     1      -9.758  13.783  68.479  1.00  0.00    -0.193 C  
BRANCH   8   9
HETATM    9  C   UNL     1      -9.759  12.790  67.309  1.00  0.00    -0.206 C  
BRANCH   9  10
HETATM   10  C   UNL     1      -9.892  11.290  67.706  1.00  0.00    -0.173 C  
HETATM   11  P   UNL     1     -10.946  11.255  69.202  1.00  0.00    -0.229 P  
HETATM   12  P   UNL     1      -8.251  10.505  67.967  1.00  0.00    -0.117 P  
HETATM   13  O   UNL     1     -10.556  10.592  66.598  1.00  0.00    -0.243 OA 
HETATM   14  O   UNL     1      -7.321  11.608  68.672  1.00  0.00    -0.098 OA 
HETATM   15  O   UNL     1      -8.089   9.178  68.625  1.00  0.00    -0.100 OA 
HETATM   16  O   UNL     1      -7.593  10.443  66.497  1.00  0.00    -0.108 OA 
HETATM   17  O   UNL     1     -12.260  11.306  68.187  1.00  0.00    -0.622 OA 
HETATM   18  O   UNL     1     -10.875   9.618  69.204  1.00  0.00    -0.220 OA 
HETATM   19  O   UNL     1     -11.838  11.226  70.467  1.00  0.00    -0.338 OA 
HETATM   20  H   UNL     1     -10.638   9.677  66.840  1.00  0.00     0.000 HD 
ENDBRANCH   9  10
ENDBRANCH   8   9
ENDBRANCH   6   8
ENDBRANCH   5   6
ENDBRANCH   4   5
ENDBRANCH   3   4
ENDBRANCH   2   3
TORSDOF 7
ENDMDL
MODEL      149
REMARK 921   NORMALIZED FREE ENERGY PREDICTED BY IDOCK:   -3.49 KCAL/MOL
REMARK 922        TOTAL FREE ENERGY PREDICTED BY IDOCK:   -5.60 KCAL/MOL
REMARK 923 INTER-LIGAND FREE ENERGY PREDICTED BY IDOCK:   -4.86 KCAL/MOL
REMARK 924 INTRA-LIGAND FREE ENERGY PREDICTED BY IDOCK:   -0.74 KCAL/MOL
REMARK 927      BINDING AFFINITY PREDICTED BY RF-SCORE:    0.00 PKD
ROOT
HETATM    1  C   UNL     1     -10.464  15.022  65.318  1.00  0.00    -0.428 C  
HETATM    2  C   UNL     1     -10.698  13.522  65.258  1.00  0.00    -0.328 C  
ENDROOT
BRANCH   2   3
HETATM    3  C   UNL     1     -11.063  13.074  63.846  1.00  0.00    -0.411 C  
BRANCH   3   4
HETATM    4  C   UNL     1     -10.672  11.613  63.616  1.00  0.00    -0.500 C  
BRANCH   4   5
HETATM    5  C   UNL     1      -9.767  11.125  64.758  1.00  0.00    -0.257 C  
BRANCH   5   6
HETATM    6  N   UNL     1      -9.675   9.655  64.887  1.00  0.00    -0.204 NA 
HETATM    7  C   UNL     1      -8.465   9.148  64.220  1.00  0.00    -0.187 C  
BRANCH   6   8
HETATM    8  C   UNL     1      -9.612   9.265  66.313  1.00  0.00    -0.248 C  
BRANCH   8   9
HETATM    9  C   UNL     1     -10.314  10.242  67.266  1.00  0.00    -0.284 C  
BRANCH   9  10
HETATM   10  C   UNL     1      -9.591  10.486  68.624  1.00  0.00    -0.171 C  
HETATM   11  P   UNL     1      -7.821  10.131  68.325  1.00  0.00    -0.096 P  
HETATM   12  P   UNL     1     -10.309   9.463  69.972  1.00  0.00    -0.273 P  
HETATM   13  O   UNL     1      -9.775  11.899  68.980  1.00  0.00    -0.409 OA 
HETATM   14  O   UNL     1     -10.683   8.044  69.322  1.00  0.00    -0.209 OA 
HETATM   15  O   UNL     1      -9.637   9.283  71.290  1.00  0.00    -0.271 OA 
HETATM   16  O   UNL     1     -11.776  10.086  70.215  1.00  0.00    -0.258 OA 
HETATM   17  O   UNL     1      -7.683  11.683  67.748  1.00  0.00    -0.114 OA 
HETATM   18  O   UNL     1      -7.482  10.559  69.870  1.00  0.00    -0.155 OA 
HETATM   19  O   UNL     1      -6.324   9.832  68.072  1.00  0.00    -0.055 OA 
HETATM   20  H   UNL     1      -9.334  12.047  69.808  1.00  0.00     0.000 HD 
ENDBRANCH   9  10
ENDBRANCH   8   9
ENDBRANCH   6   8
ENDBRANCH   5   6
ENDBRANCH   4   5
ENDBRANCH   3   4
ENDBRANCH   2   3
TORSDOF 7
ENDMDL
MODEL      150
REMARK 921   NORMALIZED FREE ENERGY PREDICTED BY IDOCK:   -3.48 KCAL/MOL
REMARK 922        TOTAL FREE ENERGY PREDICTED BY IDOCK:   -5.58 KCAL/MOL
REMARK 923 INTER-LIGAND FREE ENERGY PREDICTED BY IDOCK:   -4.84 KCAL/MOL
REMARK 924 INTRA-LIGAND FREE ENERGY PREDICTED BY IDOCK:   -0.74 KCAL/MOL
REMARK 927      BINDING AFFINITY PREDICTED BY RF-SCORE:    0.00 PKD
ROOT
HETATM    1  C   UNL     1     -10.253   6.894  70.905  1.00  0.00    -0.214 C  
HETATM    2  C   UNL     1     -10.767   7.476  69.598  1.00  0.00    -0.236 C  
ENDROOT
BRANCH   2   3
HETATM    3  C   UNL     1      -9.631   7.693  68.602  1.00  0.00    -0.152 C  
BRANCH   3   4
HETATM    4  C   UNL     1     -10.126   7.533  67.164  1.00  0.00    -0.317 C  
BRANCH   4   5
HETATM    5  C   UNL     1     -10.138   8.897  66.456  1.00  0.00    -0.286 C  
BRANCH   5   6
HETATM    6  N   UNL     1      -8.938   9.727  66.696  1.00  0.00    -0.141 NA 
HETATM    7  C   UNL     1      -7.849   9.345  65.784  1.00  0.00    -0.099 C  
BRANCH   6   8
HETATM    8  C   UNL     1      -9.247  11.157  66.470  1.00  0.00    -0.179 C  
BRANCH   8   9
HETATM    9  C   UNL     1     -10.691  11.552  66.811  1.00  0.00    -0.311 C  
BRANCH   9  10
HETATM   10  C   UNL     1     -10.853  12.491  68.043  1.00  0.00    -0.225 C  
HETATM   11  P   UNL     1     -11.951  11.608  69.210  1.00  0.00    -0.230 P  
HETATM   12  P   UNL     1     -11.498  14.143  67.561  1.00  0.00    -0.380 P  
HETATM   13  O   UNL     1      -9.523  12.680  68.638  1.00  0.00    -0.378 OA 
HETATM   14  O   UNL     1     -12.571  13.894  66.393  1.00  0.00    -0.413 OA 
HETATM   15  O   UNL     1     -12.015  15.126  68.555  1.00  0.00    -0.304 OA 
HETATM   16  O   UNL     1     -10.295  14.822  66.733  1.00  0.00    -0.262 OA 
HETATM   17  O   UNL     1     -10.604  10.803  69.754  1.00  0.00    -0.226 OA 
HETATM   18  O   UNL     1     -11.784  12.835  70.284  1.00  0.00    -0.246 OA 
HETATM   19  O   UNL     1     -12.880  10.861  70.198  1.00  0.00    -0.244 OA 
HETATM   20  H   UNL     1      -9.622  13.253  69.389  1.00  0.00     0.000 HD 
ENDBRANCH   9  10
ENDBRANCH   8   9
ENDBRANCH   6   8
ENDBRANCH   5   6
ENDBRANCH   4   5
ENDBRANCH   3   4
ENDBRANCH   2   3
TORSDOF 7
ENDMDL
MODEL      151
REMARK 921   NORMALIZED FREE ENERGY PREDICTED BY IDOCK:   -3.47 KCAL/MOL
REMARK 922        TOTAL FREE ENERGY PREDICTED BY IDOCK:   -5.57 KCAL/MOL
REMARK 923 INTER-LIGAND FREE ENERGY PREDICTED BY IDOCK:   -5.29 KCAL/MOL
REMARK 924 INTRA-LIGAND FREE ENERGY PREDICTED BY IDOCK:   -0.28 KCAL/MOL
REMARK 927      BINDING AFFINITY PREDICTED BY RF-SCORE:    0.00 PKD
ROOT
HETATM    1  C   UNL     1     -10.635  17.113  67.643  1.00  0.00    -0.343 C  
HETATM    2  C   UNL     1      -9.697  16.074  68.235  1.00  0.00    -0.214 C  
ENDROOT
BRANCH   2   3
HETATM    3  C   UNL     1     -10.112  14.660  67.837  1.00  0.00    -0.225 C  
BRANCH   3   4
HETATM    4  C   UNL     1     -11.578  14.402  68.184  1.00  0.00    -0.360 C  
BRANCH   4   5
HETATM    5  C   UNL     1     -11.812  12.898  68.397  1.00  0.00    -0.318 C  
BRANCH   5   6
HETATM    6  N   UNL     1     -11.561  12.424  69.775  1.00  0.00    -0.267 NA 
HETATM    7  C   UNL     1     -12.314  13.229  70.749  1.00  0.00    -0.344 C  
BRANCH   6   8
HETATM    8  C   UNL     1     -11.985  11.012  69.920  1.00  0.00    -0.351 C  
BRANCH   8   9
HETATM    9  C   UNL     1     -11.433  10.313  71.169  1.00  0.00    -0.319 C  
BRANCH   9  10
HETATM   10  C   UNL     1     -10.566   9.048  70.899  1.00  0.00    -0.250 C  
HETATM   11  P   UNL     1     -10.356   8.959  69.083  1.00  0.00    -0.199 P  
HETATM   12  P   UNL     1     -11.329   7.534  71.607  1.00  0.00    -0.272 P  
HETATM   13  O   UNL     1      -9.266   9.250  71.553  1.00  0.00    -0.305 OA 
HETATM   14  O   UNL     1     -12.914   7.677  71.397  1.00  0.00    -0.339 OA 
HETATM   15  O   UNL     1     -10.869   6.161  71.255  1.00  0.00    -0.245 OA 
HETATM   16  O   UNL     1     -11.212   7.730  73.202  1.00  0.00    -0.402 OA 
HETATM   17  O   UNL     1      -9.095  10.028  69.251  1.00  0.00    -0.174 OA 
HETATM   18  O   UNL     1      -9.402   7.638  69.266  1.00  0.00    -0.149 OA 
HETATM   19  O   UNL     1     -10.177   8.884  67.547  1.00  0.00    -0.213 OA 
HETATM   20  H   UNL     1      -8.738   8.478  71.388  1.00  0.00     0.000 HD 
ENDBRANCH   9  10
ENDBRANCH   8   9
ENDBRANCH   6   8
ENDBRANCH   5   6
ENDBRANCH   4   5
ENDBRANCH   3   4
ENDBRANCH   2   3
TORSDOF 7
ENDMDL
MODEL      152
REMARK 921   NORMALIZED FREE ENERGY PREDICTED BY IDOCK:   -3.46 KCAL/MOL
REMARK 922        TOTAL FREE ENERGY PREDICTED BY IDOCK:   -5.56 KCAL/MOL
REMARK 923 INTER-LIGAND FREE ENERGY PREDICTED BY IDOCK:   -5.06 KCAL/MOL
REMARK 924 INTRA-LIGAND FREE ENERGY PREDICTED BY IDOCK:   -0.50 KCAL/MOL
REMARK 927      BINDING AFFINITY PREDICTED BY RF-SCORE:    0.00 PKD
ROOT
HETATM    1  C   UNL     1     -10.341  16.874  65.970  1.00  0.00    -0.335 C  
HETATM    2  C   UNL     1     -10.807  15.723  65.095  1.00  0.00    -0.444 C  
ENDROOT
BRANCH   2   3
HETATM    3  C   UNL     1     -11.232  14.522  65.936  1.00  0.00    -0.331 C  
BRANCH   3   4
HETATM    4  C   UNL     1     -10.742  14.663  67.377  1.00  0.00    -0.280 C  
BRANCH   4   5
HETATM    5  C   UNL     1     -10.261  13.302  67.905  1.00  0.00    -0.233 C  
BRANCH   5   6
HETATM    6  N   UNL     1     -10.919  12.132  67.283  1.00  0.00    -0.247 NA 
HETATM    7  C   UNL     1      -9.930  11.268  66.619  1.00  0.00    -0.209 C  
BRANCH   6   8
HETATM    8  C   UNL     1     -11.616  11.326  68.312  1.00  0.00    -0.300 C  
BRANCH   8   9
HETATM    9  C   UNL     1     -11.159   9.863  68.384  1.00  0.00    -0.193 C  
BRANCH   9  10
HETATM   10  C   UNL     1     -11.029   9.274  69.820  1.00  0.00    -0.196 C  
HETATM   11  P   UNL     1     -12.010  10.372  70.907  1.00  0.00    -0.380 P  
HETATM   12  P   UNL     1      -9.273   9.131  70.342  1.00  0.00    -0.266 P  
HETATM   13  O   UNL     1     -11.609   7.925  69.802  1.00  0.00    -0.443 OA 
HETATM   14  O   UNL     1      -8.514  10.419  69.759  1.00  0.00    -0.122 OA 
HETATM   15  O   UNL     1      -8.872   8.874  71.754  1.00  0.00    -0.308 OA 
HETATM   16  O   UNL     1      -8.667   7.967  69.407  1.00  0.00    -0.136 OA 
HETATM   17  O   UNL     1     -13.350   9.499  70.457  1.00  0.00     0.068 OA 
HETATM   18  O   UNL     1     -11.670   9.400  72.182  1.00  0.00    -0.290 OA 
HETATM   19  O   UNL     1     -12.840  11.301  71.826  1.00  0.00    -0.416 OA 
HETATM   20  H   UNL     1     -11.529   7.565  70.678  1.00  0.00     0.000 HD 
ENDBRANCH   9  10
ENDBRANCH   8   9
ENDBRANCH   6   8
ENDBRANCH   5   6
ENDBRANCH   4   5
ENDBRANCH   3   4
ENDBRANCH   2   3
TORSDOF 7
ENDMDL
MODEL      153
REMARK 921   NORMALIZED FREE ENERGY PREDICTED BY IDOCK:   -3.46 KCAL/MOL
REMARK 922        TOTAL FREE ENERGY PREDICTED BY IDOCK:   -5.56 KCAL/MOL
REMARK 923 INTER-LIGAND FREE ENERGY PREDICTED BY IDOCK:   -5.07 KCAL/MOL
REMARK 924 INTRA-LIGAND FREE ENERGY PREDICTED BY IDOCK:   -0.49 KCAL/MOL
REMARK 927      BINDING AFFINITY PREDICTED BY RF-SCORE:    0.00 PKD
ROOT
HETATM    1  C   UNL     1     -10.430  15.925  65.650  1.00  0.00    -0.411 C  
HETATM    2  C   UNL     1     -10.844  14.705  64.844  1.00  0.00    -0.436 C  
ENDROOT
BRANCH   2   3
HETATM    3  C   UNL     1     -12.167  14.131  65.346  1.00  0.00    -0.441 C  
BRANCH   3   4
HETATM    4  C   UNL     1     -12.332  12.675  64.910  1.00  0.00    -0.563 C  
BRANCH   4   5
HETATM    5  C   UNL     1     -11.123  11.847  65.372  1.00  0.00    -0.306 C  
BRANCH   5   6
HETATM    6  N   UNL     1     -10.650  10.846  64.390  1.00  0.00    -0.339 NA 
HETATM    7  C   UNL     1      -9.962  11.501  63.267  1.00  0.00    -0.409 C  
BRANCH   6   8
HETATM    8  C   UNL     1      -9.699   9.907  65.028  1.00  0.00    -0.288 C  
BRANCH   8   9
HETATM    9  C   UNL     1     -10.094   9.477  66.448  1.00  0.00    -0.328 C  
BRANCH   9  10
HETATM   10  C   UNL     1      -9.198   8.374  67.084  1.00  0.00    -0.143 C  
HETATM   11  P   UNL     1     -10.319   7.327  68.083  1.00  0.00    -0.182 P  
HETATM   12  P   UNL     1      -7.824   9.095  68.069  1.00  0.00    -0.100 P  
HETATM   13  O   UNL     1      -8.609   7.591  65.990  1.00  0.00    -0.140 OA 
HETATM   14  O   UNL     1      -8.416  10.395  68.802  1.00  0.00    -0.116 OA 
HETATM   15  O   UNL     1      -6.997   8.287  69.009  1.00  0.00    -0.058 OA 
HETATM   16  O   UNL     1      -6.855   9.774  66.975  1.00  0.00    -0.081 OA 
HETATM   17  O   UNL     1     -10.677   6.505  66.684  1.00  0.00    -0.252 OA 
HETATM   18  O   UNL     1      -9.057   6.351  68.461  1.00  0.00    -0.127 OA 
HETATM   19  O   UNL     1     -11.267   6.442  68.927  1.00  0.00    -0.343 OA 
HETATM   20  H   UNL     1      -8.063   6.918  66.378  1.00  0.00     0.000 HD 
ENDBRANCH   9  10
ENDBRANCH   8   9
ENDBRANCH   6   8
ENDBRANCH   5   6
ENDBRANCH   4   5
ENDBRANCH   3   4
ENDBRANCH   2   3
TORSDOF 7
ENDMDL
MODEL      154
REMARK 921   NORMALIZED FREE ENERGY PREDICTED BY IDOCK:   -3.46 KCAL/MOL
REMARK 922        TOTAL FREE ENERGY PREDICTED BY IDOCK:   -5.56 KCAL/MOL
REMARK 923 INTER-LIGAND FREE ENERGY PREDICTED BY IDOCK:   -4.96 KCAL/MOL
REMARK 924 INTRA-LIGAND FREE ENERGY PREDICTED BY IDOCK:   -0.60 KCAL/MOL
REMARK 927      BINDING AFFINITY PREDICTED BY RF-SCORE:    0.00 PKD
ROOT
HETATM    1  C   UNL     1     -12.586  11.971  63.404  1.00  0.00    -0.592 C  
HETATM    2  C   UNL     1     -11.487  11.984  64.453  1.00  0.00    -0.413 C  
ENDROOT
BRANCH   2   3
HETATM    3  C   UNL     1     -11.642  13.166  65.406  1.00  0.00    -0.362 C  
BRANCH   3   4
HETATM    4  C   UNL     1     -11.785  12.690  66.852  1.00  0.00    -0.453 C  
BRANCH   4   5
HETATM    5  C   UNL     1     -10.435  12.172  67.371  1.00  0.00    -0.213 C  
BRANCH   5   6
HETATM    6  N   UNL     1     -10.534  11.164  68.450  1.00  0.00    -0.180 NA 
HETATM    7  C   UNL     1     -11.521  11.578  69.460  1.00  0.00    -0.311 C  
BRANCH   6   8
HETATM    8  C   UNL     1     -10.961   9.859  67.897  1.00  0.00    -0.223 C  
BRANCH   8   9
HETATM    9  C   UNL     1     -10.090   9.347  66.742  1.00  0.00    -0.325 C  
BRANCH   9  10
HETATM   10  C   UNL     1      -9.343   8.008  67.013  1.00  0.00    -0.156 C  
HETATM   11  P   UNL     1     -10.426   7.040  68.126  1.00  0.00    -0.192 P  
HETATM   12  P   UNL     1      -7.667   8.291  67.712  1.00  0.00    -0.104 P  
HETATM   13  O   UNL     1      -9.186   7.317  65.726  1.00  0.00    -0.378 OA 
HETATM   14  O   UNL     1      -7.791   9.542  68.710  1.00  0.00    -0.082 OA 
HETATM   15  O   UNL     1      -6.856   7.202  68.326  1.00  0.00    -0.068 OA 
HETATM   16  O   UNL     1      -6.829   8.946  66.501  1.00  0.00    -0.076 OA 
HETATM   17  O   UNL     1     -11.245   6.537  66.771  1.00  0.00    -0.334 OA 
HETATM   18  O   UNL     1      -9.357   5.798  68.074  1.00  0.00    -0.109 OA 
HETATM   19  O   UNL     1     -11.342   6.222  69.067  1.00  0.00    -0.390 OA 
HETATM   20  H   UNL     1      -8.730   6.500  65.891  1.00  0.00     0.000 HD 
ENDBRANCH   9  10
ENDBRANCH   8   9
ENDBRANCH   6   8
ENDBRANCH   5   6
ENDBRANCH   4   5
ENDBRANCH   3   4
ENDBRANCH   2   3
TORSDOF 7
ENDMDL
MODEL      155
REMARK 921   NORMALIZED FREE ENERGY PREDICTED BY IDOCK:   -3.46 KCAL/MOL
REMARK 922        TOTAL FREE ENERGY PREDICTED BY IDOCK:   -5.56 KCAL/MOL
REMARK 923 INTER-LIGAND FREE ENERGY PREDICTED BY IDOCK:   -5.00 KCAL/MOL
REMARK 924 INTRA-LIGAND FREE ENERGY PREDICTED BY IDOCK:   -0.56 KCAL/MOL
REMARK 927      BINDING AFFINITY PREDICTED BY RF-SCORE:    0.00 PKD
ROOT
HETATM    1  C   UNL     1      -5.277  18.909  64.764  1.00  0.00    -0.227 C  
HETATM    2  C   UNL     1      -5.872  19.920  65.730  1.00  0.00    -0.197 C  
ENDROOT
BRANCH   2   3
HETATM    3  C   UNL     1      -7.283  19.522  66.152  1.00  0.00    -0.283 C  
BRANCH   3   4
HETATM    4  C   UNL     1      -7.386  19.398  67.673  1.00  0.00    -0.277 C  
BRANCH   4   5
HETATM    5  C   UNL     1      -7.594  17.927  68.068  1.00  0.00    -0.238 C  
BRANCH   5   6
HETATM    6  N   UNL     1      -7.281  16.952  67.001  1.00  0.00    -0.177 NA 
HETATM    7  C   UNL     1      -6.026  16.242  67.295  1.00  0.00    -0.140 C  
BRANCH   6   8
HETATM    8  C   UNL     1      -8.363  15.947  66.889  1.00  0.00    -0.246 C  
BRANCH   8   9
HETATM    9  C   UNL     1      -8.706  15.239  68.207  1.00  0.00    -0.165 C  
BRANCH   9  10
HETATM   10  C   UNL     1     -10.151  14.667  68.301  1.00  0.00    -0.228 C  
HETATM   11  P   UNL     1     -10.824  14.712  66.600  1.00  0.00    -0.323 P  
HETATM   12  P   UNL     1     -11.179  15.603  69.503  1.00  0.00    -0.378 P  
HETATM   13  O   UNL     1     -10.052  13.280  68.774  1.00  0.00    -0.379 OA 
HETATM   14  O   UNL     1     -10.763  17.147  69.358  1.00  0.00    -0.288 OA 
HETATM   15  O   UNL     1     -12.660  15.458  69.580  1.00  0.00    -0.200 OA 
HETATM   16  O   UNL     1     -10.544  15.248  70.941  1.00  0.00    -0.209 OA 
HETATM   17  O   UNL     1     -10.056  13.262  66.337  1.00  0.00    -0.276 OA 
HETATM   18  O   UNL     1     -12.204  14.007  67.135  1.00  0.00    -0.419 OA 
HETATM   19  O   UNL     1     -11.393  14.749  65.161  1.00  0.00    -0.350 OA 
HETATM   20  H   UNL     1     -10.933  12.931  68.831  1.00  0.00     0.000 HD 
ENDBRANCH   9  10
ENDBRANCH   8   9
ENDBRANCH   6   8
ENDBRANCH   5   6
ENDBRANCH   4   5
ENDBRANCH   3   4
ENDBRANCH   2   3
TORSDOF 7
ENDMDL
MODEL      156
REMARK 921   NORMALIZED FREE ENERGY PREDICTED BY IDOCK:   -3.45 KCAL/MOL
REMARK 922        TOTAL FREE ENERGY PREDICTED BY IDOCK:   -5.55 KCAL/MOL
REMARK 923 INTER-LIGAND FREE ENERGY PREDICTED BY IDOCK:   -5.22 KCAL/MOL
REMARK 924 INTRA-LIGAND FREE ENERGY PREDICTED BY IDOCK:   -0.32 KCAL/MOL
REMARK 927      BINDING AFFINITY PREDICTED BY RF-SCORE:    0.00 PKD
ROOT
HETATM    1  C   UNL     1     -10.944  13.008  64.690  1.00  0.00    -0.364 C  
HETATM    2  C   UNL     1     -10.178  12.149  63.697  1.00  0.00    -0.459 C  
ENDROOT
BRANCH   2   3
HETATM    3  C   UNL     1     -10.161  10.685  64.127  1.00  0.00    -0.365 C  
BRANCH   3   4
HETATM    4  C   UNL     1     -10.076  10.561  65.648  1.00  0.00    -0.333 C  
BRANCH   4   5
HETATM    5  C   UNL     1      -9.593   9.154  66.035  1.00  0.00    -0.272 C  
BRANCH   5   6
HETATM    6  N   UNL     1     -10.383   8.504  67.104  1.00  0.00    -0.289 NA 
HETATM    7  C   UNL     1     -10.526   7.063  66.842  1.00  0.00    -0.286 C  
BRANCH   6   8
HETATM    8  C   UNL     1      -9.712   8.669  68.414  1.00  0.00    -0.162 C  
BRANCH   8   9
HETATM    9  C   UNL     1     -10.666   8.971  69.577  1.00  0.00    -0.215 C  
BRANCH   9  10
HETATM   10  C   UNL     1     -10.377   8.197  70.896  1.00  0.00    -0.190 C  
HETATM   11  P   UNL     1      -8.626   7.675  70.802  1.00  0.00    -0.136 P  
HETATM   12  P   UNL     1     -11.533   6.787  71.127  1.00  0.00    -0.351 P  
HETATM   13  O   UNL     1     -10.572   9.130  72.014  1.00  0.00    -0.333 OA 
HETATM   14  O   UNL     1     -11.779   6.152  69.673  1.00  0.00    -0.331 OA 
HETATM   15  O   UNL     1     -11.306   5.717  72.140  1.00  0.00    -0.280 OA 
HETATM   16  O   UNL     1     -12.962   7.477  71.407  1.00  0.00    -0.351 OA 
HETATM   17  O   UNL     1      -8.223   9.184  71.369  1.00  0.00    -0.316 OA 
HETATM   18  O   UNL     1      -8.746   7.025  72.302  1.00  0.00    -0.125 OA 
HETATM   19  O   UNL     1      -7.144   7.235  70.723  1.00  0.00    -0.062 OA 
HETATM   20  H   UNL     1     -10.396   8.657  72.818  1.00  0.00     0.000 HD 
ENDBRANCH   9  10
ENDBRANCH   8   9
ENDBRANCH   6   8
ENDBRANCH   5   6
ENDBRANCH   4   5
ENDBRANCH   3   4
ENDBRANCH   2   3
TORSDOF 7
ENDMDL
MODEL      157
REMARK 921   NORMALIZED FREE ENERGY PREDICTED BY IDOCK:   -3.43 KCAL/MOL
REMARK 922        TOTAL FREE ENERGY PREDICTED BY IDOCK:   -5.52 KCAL/MOL
REMARK 923 INTER-LIGAND FREE ENERGY PREDICTED BY IDOCK:   -5.08 KCAL/MOL
REMARK 924 INTRA-LIGAND FREE ENERGY PREDICTED BY IDOCK:   -0.43 KCAL/MOL
REMARK 927      BINDING AFFINITY PREDICTED BY RF-SCORE:    0.00 PKD
ROOT
HETATM    1  C   UNL     1     -10.462  15.459  65.080  1.00  0.00    -0.439 C  
HETATM    2  C   UNL     1     -11.529  14.635  65.781  1.00  0.00    -0.338 C  
ENDROOT
BRANCH   2   3
HETATM    3  C   UNL     1     -11.537  13.194  65.280  1.00  0.00    -0.350 C  
BRANCH   3   4
HETATM    4  C   UNL     1     -11.734  12.212  66.436  1.00  0.00    -0.394 C  
BRANCH   4   5
HETATM    5  C   UNL     1     -10.606  11.168  66.437  1.00  0.00    -0.261 C  
BRANCH   5   6
HETATM    6  N   UNL     1      -9.945  10.977  67.746  1.00  0.00    -0.171 NA 
HETATM    7  C   UNL     1      -9.713  12.271  68.407  1.00  0.00    -0.191 C  
BRANCH   6   8
HETATM    8  C   UNL     1     -10.792  10.151  68.637  1.00  0.00    -0.235 C  
BRANCH   8   9
HETATM    9  C   UNL     1     -10.045   9.541  69.831  1.00  0.00    -0.262 C  
BRANCH   9  10
HETATM   10  C   UNL     1     -10.304   8.026  70.077  1.00  0.00    -0.218 C  
HETATM   11  P   UNL     1     -10.770   7.322  68.453  1.00  0.00    -0.004 P  
HETATM   12  P   UNL     1     -11.583   7.754  71.369  1.00  0.00    -0.293 P  
HETATM   13  O   UNL     1      -9.049   7.429  70.550  1.00  0.00    -0.155 OA 
HETATM   14  O   UNL     1     -12.690   8.900  71.167  1.00  0.00    -0.267 OA 
HETATM   15  O   UNL     1     -12.227   6.430  71.598  1.00  0.00    -0.327 OA 
HETATM   16  O   UNL     1     -10.885   8.239  72.738  1.00  0.00    -0.347 OA 
HETATM   17  O   UNL     1      -9.146   7.192  68.127  1.00  0.00    -0.134 OA 
HETATM   18  O   UNL     1     -10.863   5.834  69.133  1.00  0.00    -0.304 OA 
HETATM   19  O   UNL     1     -11.163   6.727  67.079  1.00  0.00    -0.393 OA 
HETATM   20  H   UNL     1      -9.207   6.505  70.701  1.00  0.00     0.000 HD 
ENDBRANCH   9  10
ENDBRANCH   8   9
ENDBRANCH   6   8
ENDBRANCH   5   6
ENDBRANCH   4   5
ENDBRANCH   3   4
ENDBRANCH   2   3
TORSDOF 7
ENDMDL
MODEL      158
REMARK 921   NORMALIZED FREE ENERGY PREDICTED BY IDOCK:   -3.42 KCAL/MOL
REMARK 922        TOTAL FREE ENERGY PREDICTED BY IDOCK:   -5.51 KCAL/MOL
REMARK 923 INTER-LIGAND FREE ENERGY PREDICTED BY IDOCK:   -4.74 KCAL/MOL
REMARK 924 INTRA-LIGAND FREE ENERGY PREDICTED BY IDOCK:   -0.77 KCAL/MOL
REMARK 927      BINDING AFFINITY PREDICTED BY RF-SCORE:    0.00 PKD
ROOT
HETATM    1  C   UNL     1     -13.130  10.804  71.269  1.00  0.00    -0.427 C  
HETATM    2  C   UNL     1     -12.161   9.772  71.822  1.00  0.00    -0.449 C  
ENDROOT
BRANCH   2   3
HETATM    3  C   UNL     1     -12.825   8.404  71.958  1.00  0.00    -0.389 C  
BRANCH   3   4
HETATM    4  C   UNL     1     -11.812   7.280  71.740  1.00  0.00    -0.330 C  
BRANCH   4   5
HETATM    5  C   UNL     1     -10.385   7.808  71.954  1.00  0.00    -0.207 C  
BRANCH   5   6
HETATM    6  N   UNL     1      -9.478   7.618  70.801  1.00  0.00    -0.162 NA 
HETATM    7  C   UNL     1     -10.069   6.695  69.819  1.00  0.00    -0.182 C  
BRANCH   6   8
HETATM    8  C   UNL     1      -9.226   8.910  70.124  1.00  0.00    -0.180 C  
BRANCH   8   9
HETATM    9  C   UNL     1     -10.177   9.206  68.956  1.00  0.00    -0.219 C  
BRANCH   9  10
HETATM   10  C   UNL     1      -9.558  10.018  67.781  1.00  0.00    -0.148 C  
HETATM   11  P   UNL     1     -10.876  11.147  67.197  1.00  0.00    -0.271 P  
HETATM   12  P   UNL     1      -8.918   8.919  66.455  1.00  0.00    -0.184 P  
HETATM   13  O   UNL     1      -8.428  10.788  68.316  1.00  0.00    -0.120 OA 
HETATM   14  O   UNL     1      -9.946   7.691  66.340  1.00  0.00    -0.182 OA 
HETATM   15  O   UNL     1      -8.541   9.422  65.104  1.00  0.00    -0.146 OA 
HETATM   16  O   UNL     1      -7.642   8.189  67.115  1.00  0.00    -0.093 OA 
HETATM   17  O   UNL     1     -10.422  12.185  68.412  1.00  0.00    -0.219 OA 
HETATM   18  O   UNL     1      -9.832  11.791  66.110  1.00  0.00    -0.216 OA 
HETATM   19  O   UNL     1     -11.990  12.102  66.704  1.00  0.00    -0.616 OA 
HETATM   20  H   UNL     1      -8.050  11.283  67.599  1.00  0.00     0.000 HD 
ENDBRANCH   9  10
ENDBRANCH   8   9
ENDBRANCH   6   8
ENDBRANCH   5   6
ENDBRANCH   4   5
ENDBRANCH   3   4
ENDBRANCH   2   3
TORSDOF 7
ENDMDL
MODEL      159
REMARK 921   NORMALIZED FREE ENERGY PREDICTED BY IDOCK:   -3.40 KCAL/MOL
REMARK 922        TOTAL FREE ENERGY PREDICTED BY IDOCK:   -5.47 KCAL/MOL
REMARK 923 INTER-LIGAND FREE ENERGY PREDICTED BY IDOCK:   -5.09 KCAL/MOL
REMARK 924 INTRA-LIGAND FREE ENERGY PREDICTED BY IDOCK:   -0.38 KCAL/MOL
REMARK 927      BINDING AFFINITY PREDICTED BY RF-SCORE:    0.00 PKD
ROOT
HETATM    1  C   UNL     1      -9.510   3.374  68.282  1.00  0.00    -0.210 C  
HETATM    2  C   UNL     1      -9.862   4.408  69.339  1.00  0.00    -0.239 C  
ENDROOT
BRANCH   2   3
HETATM    3  C   UNL     1      -9.561   5.823  68.853  1.00  0.00    -0.163 C  
BRANCH   3   4
HETATM    4  C   UNL     1     -10.848   6.558  68.477  1.00  0.00    -0.353 C  
BRANCH   4   5
HETATM    5  C   UNL     1     -10.754   7.078  67.034  1.00  0.00    -0.353 C  
BRANCH   5   6
HETATM    6  N   UNL     1      -9.977   8.327  66.877  1.00  0.00    -0.246 NA 
HETATM    7  C   UNL     1      -9.088   8.245  65.707  1.00  0.00    -0.114 C  
BRANCH   6   8
HETATM    8  C   UNL     1     -10.886   9.479  66.685  1.00  0.00     0.088 C  
BRANCH   8   9
HETATM    9  C   UNL     1     -10.179  10.779  66.275  1.00  0.00    -0.301 C  
BRANCH   9  10
HETATM   10  C   UNL     1     -10.612  12.051  67.061  1.00  0.00    -0.227 C  
HETATM   11  P   UNL     1     -11.494  11.451  68.547  1.00  0.00    -0.326 P  
HETATM   12  P   UNL     1     -11.634  13.176  66.027  1.00  0.00    -0.392 P  
HETATM   13  O   UNL     1      -9.393  12.773  67.447  1.00  0.00    -0.182 OA 
HETATM   14  O   UNL     1     -12.571  12.241  65.118  1.00  0.00    -0.585 OA 
HETATM   15  O   UNL     1     -12.413  14.310  66.600  1.00  0.00    -0.407 OA 
HETATM   16  O   UNL     1     -10.611  13.752  64.923  1.00  0.00    -0.365 OA 
HETATM   17  O   UNL     1     -10.007  11.273  69.267  1.00  0.00    -0.105 OA 
HETATM   18  O   UNL     1     -11.675  12.999  69.055  1.00  0.00    -0.290 OA 
HETATM   19  O   UNL     1     -12.239  10.943  69.806  1.00  0.00    -0.326 OA 
HETATM   20  H   UNL     1      -9.658  13.549  67.927  1.00  0.00     0.000 HD 
ENDBRANCH   9  10
ENDBRANCH   8   9
ENDBRANCH   6   8
ENDBRANCH   5   6
ENDBRANCH   4   5
ENDBRANCH   3   4
ENDBRANCH   2   3
TORSDOF 7
ENDMDL
MODEL      160
REMARK 921   NORMALIZED FREE ENERGY PREDICTED BY IDOCK:   -3.40 KCAL/MOL
REMARK 922        TOTAL FREE ENERGY PREDICTED BY IDOCK:   -5.47 KCAL/MOL
REMARK 923 INTER-LIGAND FREE ENERGY PREDICTED BY IDOCK:   -5.11 KCAL/MOL
REMARK 924 INTRA-LIGAND FREE ENERGY PREDICTED BY IDOCK:   -0.36 KCAL/MOL
REMARK 927      BINDING AFFINITY PREDICTED BY RF-SCORE:    0.00 PKD
ROOT
HETATM    1  C   UNL     1     -10.535  19.797  66.128  1.00  0.00    -0.613 C  
HETATM    2  C   UNL     1      -9.982  20.114  67.508  1.00  0.00    -0.571 C  
ENDROOT
BRANCH   2   3
HETATM    3  C   UNL     1      -9.822  18.849  68.346  1.00  0.00    -0.435 C  
BRANCH   3   4
HETATM    4  C   UNL     1     -10.253  17.611  67.558  1.00  0.00    -0.348 C  
BRANCH   4   5
HETATM    5  C   UNL     1     -10.025  16.345  68.399  1.00  0.00    -0.238 C  
BRANCH   5   6
HETATM    6  N   UNL     1      -8.854  15.538  67.993  1.00  0.00    -0.164 NA 
HETATM    7  C   UNL     1      -7.679  15.875  68.813  1.00  0.00    -0.181 C  
BRANCH   6   8
HETATM    8  C   UNL     1      -9.137  14.095  68.166  1.00  0.00    -0.193 C  
BRANCH   8   9
HETATM    9  C   UNL     1      -8.219  13.170  67.356  1.00  0.00    -0.187 C  
BRANCH   9  10
HETATM   10  C   UNL     1      -8.854  11.820  66.913  1.00  0.00    -0.191 C  
HETATM   11  P   UNL     1     -10.665  12.054  67.021  1.00  0.00    -0.266 P  
HETATM   12  P   UNL     1      -8.251  10.415  67.933  1.00  0.00    -0.107 P  
HETATM   13  O   UNL     1      -8.454  11.573  65.521  1.00  0.00    -0.385 OA 
HETATM   14  O   UNL     1      -8.109  10.965  69.434  1.00  0.00    -0.103 OA 
HETATM   15  O   UNL     1      -8.899   9.073  67.919  1.00  0.00    -0.128 OA 
HETATM   16  O   UNL     1      -6.702  10.250  67.519  1.00  0.00    -0.070 OA 
HETATM   17  O   UNL     1     -10.593  12.740  65.510  1.00  0.00    -0.271 OA 
HETATM   18  O   UNL     1     -10.888  10.537  66.440  1.00  0.00    -0.146 OA 
HETATM   19  O   UNL     1     -12.198  12.252  67.112  1.00  0.00    -0.506 OA 
HETATM   20  H   UNL     1      -8.841  10.749  65.251  1.00  0.00     0.000 HD 
ENDBRANCH   9  10
ENDBRANCH   8   9
ENDBRANCH   6   8
ENDBRANCH   5   6
ENDBRANCH   4   5
ENDBRANCH   3   4
ENDBRANCH   2   3
TORSDOF 7
ENDMDL
MODEL      161
REMARK 921   NORMALIZED FREE ENERGY PREDICTED BY IDOCK:   -3.38 KCAL/MOL
REMARK 922        TOTAL FREE ENERGY PREDICTED BY IDOCK:   -5.44 KCAL/MOL
REMARK 923 INTER-LIGAND FREE ENERGY PREDICTED BY IDOCK:   -5.43 KCAL/MOL
REMARK 924 INTRA-LIGAND FREE ENERGY PREDICTED BY IDOCK:   -0.01 KCAL/MOL
REMARK 927      BINDING AFFINITY PREDICTED BY RF-SCORE:    0.00 PKD
ROOT
HETATM    1  C   UNL     1     -12.545  11.872  63.997  1.00  0.00    -0.388 C  
HETATM    2  C   UNL     1     -11.042  11.700  63.865  1.00  0.00    -0.477 C  
ENDROOT
BRANCH   2   3
HETATM    3  C   UNL     1     -10.309  13.018  64.102  1.00  0.00    -0.345 C  
BRANCH   3   4
HETATM    4  C   UNL     1     -10.442  13.465  65.558  1.00  0.00    -0.297 C  
BRANCH   4   5
HETATM    5  C   UNL     1     -10.563  14.995  65.631  1.00  0.00    -0.346 C  
BRANCH   5   6
HETATM    6  N   UNL     1      -9.620  15.644  66.568  1.00  0.00    -0.251 NA 
HETATM    7  C   UNL     1      -8.687  14.658  67.135  1.00  0.00    -0.222 C  
BRANCH   6   8
HETATM    8  C   UNL     1      -8.826  16.679  65.867  1.00  0.00    -0.086 C  
BRANCH   8   9
HETATM    9  C   UNL     1      -9.239  18.120  66.196  1.00  0.00    -0.136 C  
BRANCH   9  10
HETATM   10  C   UNL     1      -8.139  18.991  66.872  1.00  0.00    -0.265 C  
HETATM   11  P   UNL     1      -6.565  18.543  66.054  1.00  0.00    -0.293 P  
HETATM   12  P   UNL     1      -8.096  18.742  68.692  1.00  0.00    -0.266 P  
HETATM   13  O   UNL     1      -8.465  20.400  66.615  1.00  0.00    -0.487 OA 
HETATM   14  O   UNL     1      -8.383  17.184  68.950  1.00  0.00    -0.252 OA 
HETATM   15  O   UNL     1      -6.972  19.222  69.544  1.00  0.00    -0.294 OA 
HETATM   16  O   UNL     1      -9.469  19.399  69.223  1.00  0.00    -0.319 OA 
HETATM   17  O   UNL     1      -6.964  19.626  64.858  1.00  0.00    -0.366 OA 
HETATM   18  O   UNL     1      -5.784  19.665  66.959  1.00  0.00    -0.174 OA 
HETATM   19  O   UNL     1      -5.234  18.165  65.361  1.00  0.00    -0.164 OA 
HETATM   20  H   UNL     1      -7.795  20.931  67.028  1.00  0.00     0.000 HD 
ENDBRANCH   9  10
ENDBRANCH   8   9
ENDBRANCH   6   8
ENDBRANCH   5   6
ENDBRANCH   4   5
ENDBRANCH   3   4
ENDBRANCH   2   3
TORSDOF 7
ENDMDL
MODEL      162
REMARK 921   NORMALIZED FREE ENERGY PREDICTED BY IDOCK:   -3.37 KCAL/MOL
REMARK 922        TOTAL FREE ENERGY PREDICTED BY IDOCK:   -5.43 KCAL/MOL
REMARK 923 INTER-LIGAND FREE ENERGY PREDICTED BY IDOCK:   -5.01 KCAL/MOL
REMARK 924 INTRA-LIGAND FREE ENERGY PREDICTED BY IDOCK:   -0.42 KCAL/MOL
REMARK 927      BINDING AFFINITY PREDICTED BY RF-SCORE:    0.00 PKD
ROOT
HETATM    1  C   UNL     1      -9.626  10.422  64.067  1.00  0.00    -0.376 C  
HETATM    2  C   UNL     1     -10.587  11.599  64.080  1.00  0.00    -0.426 C  
ENDROOT
BRANCH   2   3
HETATM    3  C   UNL     1     -10.732  12.182  65.483  1.00  0.00    -0.321 C  
BRANCH   3   4
HETATM    4  C   UNL     1     -10.799  11.073  66.533  1.00  0.00    -0.269 C  
BRANCH   4   5
HETATM    5  C   UNL     1      -9.848  11.391  67.697  1.00  0.00    -0.176 C  
BRANCH   5   6
HETATM    6  N   UNL     1     -10.420  11.161  69.041  1.00  0.00    -0.213 NA 
HETATM    7  C   UNL     1     -11.889  11.106  68.980  1.00  0.00    -0.348 C  
BRANCH   6   8
HETATM    8  C   UNL     1      -9.934   9.877  69.596  1.00  0.00    -0.231 C  
BRANCH   8   9
HETATM    9  C   UNL     1     -10.834   9.281  70.687  1.00  0.00    -0.339 C  
BRANCH   9  10
HETATM   10  C   UNL     1     -10.286   7.997  71.376  1.00  0.00    -0.196 C  
HETATM   11  P   UNL     1      -8.484   7.980  71.053  1.00  0.00    -0.143 P  
HETATM   12  P   UNL     1     -11.136   6.483  70.773  1.00  0.00    -0.343 P  
HETATM   13  O   UNL     1     -10.545   8.118  72.816  1.00  0.00    -0.332 OA 
HETATM   14  O   UNL     1     -11.395   6.697  69.203  1.00  0.00    -0.264 OA 
HETATM   15  O   UNL     1     -10.623   5.110  71.043  1.00  0.00    -0.212 OA 
HETATM   16  O   UNL     1     -12.635   6.603  71.351  1.00  0.00    -0.325 OA 
HETATM   17  O   UNL     1      -8.315   8.991  72.361  1.00  0.00    -0.342 OA 
HETATM   18  O   UNL     1      -8.344   6.616  71.952  1.00  0.00    -0.114 OA 
HETATM   19  O   UNL     1      -6.961   7.966  70.781  1.00  0.00    -0.044 OA 
HETATM   20  H   UNL     1     -10.210   7.334  73.237  1.00  0.00     0.000 HD 
ENDBRANCH   9  10
ENDBRANCH   8   9
ENDBRANCH   6   8
ENDBRANCH   5   6
ENDBRANCH   4   5
ENDBRANCH   3   4
ENDBRANCH   2   3
TORSDOF 7
ENDMDL
MODEL      163
REMARK 921   NORMALIZED FREE ENERGY PREDICTED BY IDOCK:   -3.36 KCAL/MOL
REMARK 922        TOTAL FREE ENERGY PREDICTED BY IDOCK:   -5.42 KCAL/MOL
REMARK 923 INTER-LIGAND FREE ENERGY PREDICTED BY IDOCK:   -4.94 KCAL/MOL
REMARK 924 INTRA-LIGAND FREE ENERGY PREDICTED BY IDOCK:   -0.48 KCAL/MOL
REMARK 927      BINDING AFFINITY PREDICTED BY RF-SCORE:    0.00 PKD
ROOT
HETATM    1  C   UNL     1     -13.662  13.824  72.294  1.00  0.00    -0.673 C  
HETATM    2  C   UNL     1     -13.216  14.442  70.979  1.00  0.00    -0.395 C  
ENDROOT
BRANCH   2   3
HETATM    3  C   UNL     1     -12.130  13.603  70.312  1.00  0.00    -0.427 C  
BRANCH   3   4
HETATM    4  C   UNL     1     -12.149  13.789  68.794  1.00  0.00    -0.344 C  
BRANCH   4   5
HETATM    5  C   UNL     1     -11.925  15.268  68.441  1.00  0.00    -0.163 C  
BRANCH   5   6
HETATM    6  N   UNL     1     -10.789  15.518  67.528  1.00  0.00    -0.302 NA 
HETATM    7  C   UNL     1     -11.252  15.620  66.135  1.00  0.00    -0.036 C  
BRANCH   6   8
HETATM    8  C   UNL     1     -10.113  16.788  67.882  1.00  0.00    -0.284 C  
BRANCH   8   9
HETATM    9  C   UNL     1      -9.085  16.661  69.014  1.00  0.00    -0.209 C  
BRANCH   9  10
HETATM   10  C   UNL     1      -7.595  16.634  68.563  1.00  0.00    -0.212 C  
HETATM   11  P   UNL     1      -7.558  17.382  66.894  1.00  0.00    -0.266 P  
HETATM   12  P   UNL     1      -6.902  14.932  68.601  1.00  0.00    -0.124 P  
HETATM   13  O   UNL     1      -6.828  17.456  69.508  1.00  0.00    -0.207 OA 
HETATM   14  O   UNL     1      -8.073  13.948  68.113  1.00  0.00    -0.130 OA 
HETATM   15  O   UNL     1      -5.607  14.576  67.955  1.00  0.00    -0.123 OA 
HETATM   16  O   UNL     1      -6.823  14.562  70.168  1.00  0.00    -0.142 OA 
HETATM   17  O   UNL     1      -7.510  18.866  67.641  1.00  0.00    -0.224 OA 
HETATM   18  O   UNL     1      -5.927  17.222  66.866  1.00  0.00    -0.143 OA 
HETATM   19  O   UNL     1      -7.527  18.016  65.482  1.00  0.00    -0.538 OA 
HETATM   20  H   UNL     1      -5.919  17.440  69.233  1.00  0.00     0.000 HD 
ENDBRANCH   9  10
ENDBRANCH   8   9
ENDBRANCH   6   8
ENDBRANCH   5   6
ENDBRANCH   4   5
ENDBRANCH   3   4
ENDBRANCH   2   3
TORSDOF 7
ENDMDL
MODEL      164
REMARK 921   NORMALIZED FREE ENERGY PREDICTED BY IDOCK:   -3.36 KCAL/MOL
REMARK 922        TOTAL FREE ENERGY PREDICTED BY IDOCK:   -5.42 KCAL/MOL
REMARK 923 INTER-LIGAND FREE ENERGY PREDICTED BY IDOCK:   -5.39 KCAL/MOL
REMARK 924 INTRA-LIGAND FREE ENERGY PREDICTED BY IDOCK:   -0.03 KCAL/MOL
REMARK 927      BINDING AFFINITY PREDICTED BY RF-SCORE:    0.00 PKD
ROOT
HETATM    1  C   UNL     1     -10.542  19.980  66.029  1.00  0.00    -0.472 C  
HETATM    2  C   UNL     1     -10.655  19.183  67.317  1.00  0.00    -0.573 C  
ENDROOT
BRANCH   2   3
HETATM    3  C   UNL     1      -9.286  18.961  67.955  1.00  0.00    -0.349 C  
BRANCH   3   4
HETATM    4  C   UNL     1      -8.753  17.564  67.637  1.00  0.00    -0.223 C  
BRANCH   4   5
HETATM    5  C   UNL     1      -9.920  16.574  67.499  1.00  0.00    -0.255 C  
BRANCH   5   6
HETATM    6  N   UNL     1      -9.789  15.349  68.317  1.00  0.00    -0.211 NA 
HETATM    7  C   UNL     1     -10.281  15.580  69.685  1.00  0.00    -0.286 C  
BRANCH   6   8
HETATM    8  C   UNL     1     -10.579  14.246  67.724  1.00  0.00    -0.253 C  
BRANCH   8   9
HETATM    9  C   UNL     1     -10.511  12.928  68.508  1.00  0.00    -0.260 C  
BRANCH   9  10
HETATM   10  C   UNL     1     -10.768  11.640  67.672  1.00  0.00    -0.207 C  
HETATM   11  P   UNL     1     -10.606  10.240  68.838  1.00  0.00    -0.250 P  
HETATM   12  P   UNL     1      -9.623  11.516  66.240  1.00  0.00    -0.230 P  
HETATM   13  O   UNL     1     -12.139  11.713  67.150  1.00  0.00    -0.575 OA 
HETATM   14  O   UNL     1      -8.202  12.072  66.739  1.00  0.00    -0.171 OA 
HETATM   15  O   UNL     1      -9.454  10.264  65.450  1.00  0.00    -0.194 OA 
HETATM   16  O   UNL     1     -10.084  12.701  65.249  1.00  0.00    -0.284 OA 
HETATM   17  O   UNL     1     -12.187  10.512  69.270  1.00  0.00    -0.213 OA 
HETATM   18  O   UNL     1     -11.000   9.200  67.633  1.00  0.00    -0.173 OA 
HETATM   19  O   UNL     1     -10.469   9.055  69.825  1.00  0.00    -0.207 OA 
HETATM   20  H   UNL     1     -12.296  10.927  66.640  1.00  0.00     0.000 HD 
ENDBRANCH   9  10
ENDBRANCH   8   9
ENDBRANCH   6   8
ENDBRANCH   5   6
ENDBRANCH   4   5
ENDBRANCH   3   4
ENDBRANCH   2   3
TORSDOF 7
ENDMDL
MODEL      165
REMARK 921   NORMALIZED FREE ENERGY PREDICTED BY IDOCK:   -3.36 KCAL/MOL
REMARK 922        TOTAL FREE ENERGY PREDICTED BY IDOCK:   -5.42 KCAL/MOL
REMARK 923 INTER-LIGAND FREE ENERGY PREDICTED BY IDOCK:   -5.08 KCAL/MOL
REMARK 924 INTRA-LIGAND FREE ENERGY PREDICTED BY IDOCK:   -0.34 KCAL/MOL
REMARK 927      BINDING AFFINITY PREDICTED BY RF-SCORE:    0.00 PKD
ROOT
HETATM    1  C   UNL     1      -9.453  13.751  66.349  1.00  0.00    -0.259 C  
HETATM    2  C   UNL     1     -10.903  14.080  66.033  1.00  0.00    -0.295 C  
ENDROOT
BRANCH   2   3
HETATM    3  C   UNL     1     -11.824  13.686  67.184  1.00  0.00    -0.435 C  
BRANCH   3   4
HETATM    4  C   UNL     1     -11.049  12.961  68.284  1.00  0.00    -0.294 C  
BRANCH   4   5
HETATM    5  C   UNL     1     -11.755  11.645  68.646  1.00  0.00    -0.325 C  
BRANCH   5   6
HETATM    6  N   UNL     1     -10.848  10.495  68.851  1.00  0.00    -0.219 NA 
HETATM    7  C   UNL     1      -9.454  10.947  68.987  1.00  0.00    -0.146 C  
BRANCH   6   8
HETATM    8  C   UNL     1     -11.215   9.762  70.084  1.00  0.00    -0.272 C  
BRANCH   8   9
HETATM    9  C   UNL     1     -10.024   9.151  70.834  1.00  0.00    -0.357 C  
BRANCH   9  10
HETATM   10  C   UNL     1     -10.070   7.605  71.013  1.00  0.00    -0.189 C  
HETATM   11  P   UNL     1     -10.751   6.936  69.452  1.00  0.00    -0.241 P  
HETATM   12  P   UNL     1     -11.050   7.118  72.489  1.00  0.00    -0.296 P  
HETATM   13  O   UNL     1      -8.691   7.137  71.210  1.00  0.00    -0.128 OA 
HETATM   14  O   UNL     1     -12.290   8.133  72.573  1.00  0.00    -0.323 OA 
HETATM   15  O   UNL     1     -11.494   5.717  72.734  1.00  0.00    -0.299 OA 
HETATM   16  O   UNL     1     -10.165   7.611  73.743  1.00  0.00    -0.289 OA 
HETATM   17  O   UNL     1      -9.211   7.015  68.832  1.00  0.00    -0.138 OA 
HETATM   18  O   UNL     1     -10.556   5.413  70.029  1.00  0.00    -0.305 OA 
HETATM   19  O   UNL     1     -11.326   6.369  68.131  1.00  0.00    -0.266 OA 
HETATM   20  H   UNL     1      -8.719   6.194  71.319  1.00  0.00     0.000 HD 
ENDBRANCH   9  10
ENDBRANCH   8   9
ENDBRANCH   6   8
ENDBRANCH   5   6
ENDBRANCH   4   5
ENDBRANCH   3   4
ENDBRANCH   2   3
TORSDOF 7
ENDMDL
MODEL      166
REMARK 921   NORMALIZED FREE ENERGY PREDICTED BY IDOCK:   -3.34 KCAL/MOL
REMARK 922        TOTAL FREE ENERGY PREDICTED BY IDOCK:   -5.39 KCAL/MOL
REMARK 923 INTER-LIGAND FREE ENERGY PREDICTED BY IDOCK:   -4.82 KCAL/MOL
REMARK 924 INTRA-LIGAND FREE ENERGY PREDICTED BY IDOCK:   -0.57 KCAL/MOL
REMARK 927      BINDING AFFINITY PREDICTED BY RF-SCORE:    0.00 PKD
ROOT
HETATM    1  C   UNL     1      -9.593   4.938  66.860  1.00  0.00    -0.171 C  
HETATM    2  C   UNL     1     -10.387   6.233  66.897  1.00  0.00    -0.306 C  
ENDROOT
BRANCH   2   3
HETATM    3  C   UNL     1     -10.837   6.568  68.316  1.00  0.00    -0.359 C  
BRANCH   3   4
HETATM    4  C   UNL     1      -9.779   7.397  69.045  1.00  0.00    -0.160 C  
BRANCH   4   5
HETATM    5  C   UNL     1      -9.770   8.835  68.503  1.00  0.00    -0.162 C  
BRANCH   5   6
HETATM    6  N   UNL     1     -10.857   9.695  69.020  1.00  0.00    -0.211 NA 
HETATM    7  C   UNL     1     -10.776   9.814  70.484  1.00  0.00    -0.317 C  
BRANCH   6   8
HETATM    8  C   UNL     1     -10.756  11.055  68.441  1.00  0.00    -0.203 C  
BRANCH   8   9
HETATM    9  C   UNL     1      -9.419  11.348  67.748  1.00  0.00    -0.167 C  
BRANCH   9  10
HETATM   10  C   UNL     1      -9.520  12.141  66.411  1.00  0.00    -0.233 C  
HETATM   11  P   UNL     1     -11.124  13.021  66.466  1.00  0.00    -0.309 P  
HETATM   12  P   UNL     1      -9.358  11.038  64.950  1.00  0.00    -0.164 P  
HETATM   13  O   UNL     1      -8.411  13.103  66.378  1.00  0.00    -0.400 OA 
HETATM   14  O   UNL     1     -10.117   9.672  65.319  1.00  0.00    -0.237 OA 
HETATM   15  O   UNL     1      -9.699  11.478  63.568  1.00  0.00    -0.304 OA 
HETATM   16  O   UNL     1      -7.821  10.553  64.979  1.00  0.00    -0.134 OA 
HETATM   17  O   UNL     1     -10.358  14.209  67.340  1.00  0.00    -0.253 OA 
HETATM   18  O   UNL     1     -10.784  13.715  65.020  1.00  0.00    -0.323 OA 
HETATM   19  O   UNL     1     -12.480  13.766  66.512  1.00  0.00    -0.404 OA 
HETATM   20  H   UNL     1      -8.473  13.587  65.563  1.00  0.00     0.000 HD 
ENDBRANCH   9  10
ENDBRANCH   8   9
ENDBRANCH   6   8
ENDBRANCH   5   6
ENDBRANCH   4   5
ENDBRANCH   3   4
ENDBRANCH   2   3
TORSDOF 7
ENDMDL
MODEL      167
REMARK 921   NORMALIZED FREE ENERGY PREDICTED BY IDOCK:   -3.33 KCAL/MOL
REMARK 922        TOTAL FREE ENERGY PREDICTED BY IDOCK:   -5.37 KCAL/MOL
REMARK 923 INTER-LIGAND FREE ENERGY PREDICTED BY IDOCK:   -5.25 KCAL/MOL
REMARK 924 INTRA-LIGAND FREE ENERGY PREDICTED BY IDOCK:   -0.12 KCAL/MOL
REMARK 927      BINDING AFFINITY PREDICTED BY RF-SCORE:    0.00 PKD
ROOT
HETATM    1  C   UNL     1     -12.467  15.586  70.712  1.00  0.00    -0.491 C  
HETATM    2  C   UNL     1     -12.907  15.209  72.117  1.00  0.00    -0.426 C  
ENDROOT
BRANCH   2   3
HETATM    3  C   UNL     1     -13.102  13.702  72.253  1.00  0.00    -0.491 C  
BRANCH   3   4
HETATM    4  C   UNL     1     -12.630  12.973  70.995  1.00  0.00    -0.386 C  
BRANCH   4   5
HETATM    5  C   UNL     1     -12.718  11.453  71.203  1.00  0.00    -0.377 C  
BRANCH   5   6
HETATM    6  N   UNL     1     -12.164  10.646  70.094  1.00  0.00    -0.316 NA 
HETATM    7  C   UNL     1     -11.973  11.473  68.892  1.00  0.00    -0.299 C  
BRANCH   6   8
HETATM    8  C   UNL     1     -10.850  10.078  70.475  1.00  0.00    -0.314 C  
BRANCH   8   9
HETATM    9  C   UNL     1     -10.884   8.581  70.813  1.00  0.00    -0.268 C  
BRANCH   9  10
HETATM   10  C   UNL     1      -9.580   7.795  70.489  1.00  0.00    -0.167 C  
HETATM   11  P   UNL     1      -9.988   6.025  70.713  1.00  0.00    -0.205 P  
HETATM   12  P   UNL     1      -8.174   8.344  71.538  1.00  0.00    -0.161 P  
HETATM   13  O   UNL     1      -9.232   8.065  69.088  1.00  0.00    -0.151 OA 
HETATM   14  O   UNL     1      -8.778   8.647  72.994  1.00  0.00    -0.380 OA 
HETATM   15  O   UNL     1      -6.900   7.577  71.643  1.00  0.00    -0.052 OA 
HETATM   16  O   UNL     1      -7.845   9.836  71.025  1.00  0.00    -0.267 OA 
HETATM   17  O   UNL     1     -10.594   6.045  69.166  1.00  0.00    -0.230 OA 
HETATM   18  O   UNL     1      -8.474   5.622  70.232  1.00  0.00    -0.119 OA 
HETATM   19  O   UNL     1     -10.334   4.528  70.902  1.00  0.00    -0.148 OA 
HETATM   20  H   UNL     1      -8.436   7.585  68.891  1.00  0.00     0.000 HD 
ENDBRANCH   9  10
ENDBRANCH   8   9
ENDBRANCH   6   8
ENDBRANCH   5   6
ENDBRANCH   4   5
ENDBRANCH   3   4
ENDBRANCH   2   3
TORSDOF 7
ENDMDL
MODEL      168
REMARK 921   NORMALIZED FREE ENERGY PREDICTED BY IDOCK:   -3.31 KCAL/MOL
REMARK 922        TOTAL FREE ENERGY PREDICTED BY IDOCK:   -5.35 KCAL/MOL
REMARK 923 INTER-LIGAND FREE ENERGY PREDICTED BY IDOCK:   -5.88 KCAL/MOL
REMARK 924 INTRA-LIGAND FREE ENERGY PREDICTED BY IDOCK:    0.53 KCAL/MOL
REMARK 927      BINDING AFFINITY PREDICTED BY RF-SCORE:    0.00 PKD
ROOT
HETATM    1  C   UNL     1     -12.351  15.889  71.561  1.00  0.00    -0.503 C  
HETATM    2  C   UNL     1     -13.155  15.489  72.787  1.00  0.00    -0.579 C  
ENDROOT
BRANCH   2   3
HETATM    3  C   UNL     1     -13.629  14.041  72.693  1.00  0.00    -0.623 C  
BRANCH   3   4
HETATM    4  C   UNL     1     -12.822  13.268  71.649  1.00  0.00    -0.397 C  
BRANCH   4   5
HETATM    5  C   UNL     1     -13.260  11.794  71.632  1.00  0.00    -0.266 C  
BRANCH   5   6
HETATM    6  N   UNL     1     -12.580  10.962  70.615  1.00  0.00    -0.345 NA 
HETATM    7  C   UNL     1     -11.667  11.777  69.799  1.00  0.00    -0.335 C  
BRANCH   6   8
HETATM    8  C   UNL     1     -11.787   9.896  71.269  1.00  0.00    -0.395 C  
BRANCH   8   9
HETATM    9  C   UNL     1     -12.162   8.473  70.834  1.00  0.00    -0.110 C  
BRANCH   9  10
HETATM   10  C   UNL     1     -10.997   7.440  70.853  1.00  0.00    -0.253 C  
HETATM   11  P   UNL     1     -10.567   7.195  72.615  1.00  0.00    -0.309 P  
HETATM   12  P   UNL     1      -9.571   8.002  69.840  1.00  0.00    -0.172 P  
HETATM   13  O   UNL     1     -11.501   6.189  70.272  1.00  0.00    -0.375 OA 
HETATM   14  O   UNL     1      -9.453   9.589  70.052  1.00  0.00    -0.200 OA 
HETATM   15  O   UNL     1      -8.229   7.357  69.911  1.00  0.00    -0.127 OA 
HETATM   16  O   UNL     1     -10.102   7.934  68.320  1.00  0.00    -0.182 OA 
HETATM   17  O   UNL     1     -11.808   6.092  72.688  1.00  0.00    -0.214 OA 
HETATM   18  O   UNL     1      -9.453   6.075  72.180  1.00  0.00    -0.149 OA 
HETATM   19  O   UNL     1     -10.205   6.988  74.105  1.00  0.00    -0.345 OA 
HETATM   20  H   UNL     1     -10.790   5.559  70.284  1.00  0.00     0.000 HD 
ENDBRANCH   9  10
ENDBRANCH   8   9
ENDBRANCH   6   8
ENDBRANCH   5   6
ENDBRANCH   4   5
ENDBRANCH   3   4
ENDBRANCH   2   3
TORSDOF 7
ENDMDL
MODEL      169
REMARK 921   NORMALIZED FREE ENERGY PREDICTED BY IDOCK:   -3.31 KCAL/MOL
REMARK 922        TOTAL FREE ENERGY PREDICTED BY IDOCK:   -5.34 KCAL/MOL
REMARK 923 INTER-LIGAND FREE ENERGY PREDICTED BY IDOCK:   -4.71 KCAL/MOL
REMARK 924 INTRA-LIGAND FREE ENERGY PREDICTED BY IDOCK:   -0.64 KCAL/MOL
REMARK 927      BINDING AFFINITY PREDICTED BY RF-SCORE:    0.00 PKD
ROOT
HETATM    1  C   UNL     1     -10.770  14.611  64.661  1.00  0.00    -0.309 C  
HETATM    2  C   UNL     1     -11.928  13.730  64.225  1.00  0.00    -0.481 C  
ENDROOT
BRANCH   2   3
HETATM    3  C   UNL     1     -12.629  13.100  65.426  1.00  0.00    -0.512 C  
BRANCH   3   4
HETATM    4  C   UNL     1     -12.054  13.634  66.738  1.00  0.00    -0.445 C  
BRANCH   4   5
HETATM    5  C   UNL     1     -11.578  12.466  67.617  1.00  0.00    -0.357 C  
BRANCH   5   6
HETATM    6  N   UNL     1     -10.913  11.370  66.880  1.00  0.00    -0.288 NA 
HETATM    7  C   UNL     1      -9.504  11.700  66.614  1.00  0.00    -0.201 C  
BRANCH   6   8
HETATM    8  C   UNL     1     -10.952  10.119  67.671  1.00  0.00    -0.268 C  
BRANCH   8   9
HETATM    9  C   UNL     1     -10.319   8.910  66.970  1.00  0.00    -0.340 C  
BRANCH   9  10
HETATM   10  C   UNL     1      -9.450   7.991  67.878  1.00  0.00    -0.145 C  
HETATM   11  P   UNL     1      -7.863   7.762  66.996  1.00  0.00    -0.115 P  
HETATM   12  P   UNL     1     -10.297   6.403  68.252  1.00  0.00    -0.245 P  
HETATM   13  O   UNL     1      -9.231   8.697  69.147  1.00  0.00    -0.151 OA 
HETATM   14  O   UNL     1     -11.079   5.975  66.917  1.00  0.00    -0.303 OA 
HETATM   15  O   UNL     1      -9.591   5.236  68.851  1.00  0.00    -0.121 OA 
HETATM   16  O   UNL     1     -11.527   6.816  69.208  1.00  0.00    -0.203 OA 
HETATM   17  O   UNL     1      -7.374   9.207  67.654  1.00  0.00    -0.086 OA 
HETATM   18  O   UNL     1      -7.300   6.875  68.254  1.00  0.00    -0.091 OA 
HETATM   19  O   UNL     1      -6.521   7.569  66.250  1.00  0.00    -0.047 OA 
HETATM   20  H   UNL     1      -8.701   8.136  69.701  1.00  0.00     0.000 HD 
ENDBRANCH   9  10
ENDBRANCH   8   9
ENDBRANCH   6   8
ENDBRANCH   5   6
ENDBRANCH   4   5
ENDBRANCH   3   4
ENDBRANCH   2   3
TORSDOF 7
ENDMDL
MODEL      170
REMARK 921   NORMALIZED FREE ENERGY PREDICTED BY IDOCK:   -3.30 KCAL/MOL
REMARK 922        TOTAL FREE ENERGY PREDICTED BY IDOCK:   -5.33 KCAL/MOL
REMARK 923 INTER-LIGAND FREE ENERGY PREDICTED BY IDOCK:   -5.04 KCAL/MOL
REMARK 924 INTRA-LIGAND FREE ENERGY PREDICTED BY IDOCK:   -0.29 KCAL/MOL
REMARK 927      BINDING AFFINITY PREDICTED BY RF-SCORE:    0.00 PKD
ROOT
HETATM    1  C   UNL     1     -10.071  11.044  68.164  1.00  0.00    -0.195 C  
HETATM    2  C   UNL     1     -11.531  11.011  68.581  1.00  0.00    -0.375 C  
ENDROOT
BRANCH   2   3
HETATM    3  C   UNL     1     -11.855  12.136  69.561  1.00  0.00    -0.386 C  
BRANCH   3   4
HETATM    4  C   UNL     1     -12.700  11.621  70.726  1.00  0.00    -0.291 C  
BRANCH   4   5
HETATM    5  C   UNL     1     -12.823  10.091  70.652  1.00  0.00    -0.192 C  
BRANCH   5   6
HETATM    6  N   UNL     1     -13.260   9.446  71.910  1.00  0.00    -0.398 NA 
HETATM    7  C   UNL     1     -14.391   8.538  71.665  1.00  0.00    -0.413 C  
BRANCH   6   8
HETATM    8  C   UNL     1     -12.153   8.655  72.494  1.00  0.00    -0.298 C  
BRANCH   8   9
HETATM    9  C   UNL     1     -10.812   8.812  71.765  1.00  0.00    -0.416 C  
BRANCH   9  10
HETATM   10  C   UNL     1      -9.794   7.653  71.982  1.00  0.00    -0.167 C  
HETATM   11  P   UNL     1      -8.332   8.067  70.963  1.00  0.00    -0.130 P  
HETATM   12  P   UNL     1     -10.522   6.019  71.561  1.00  0.00    -0.243 P  
HETATM   13  O   UNL     1      -9.435   7.636  73.406  1.00  0.00    -0.225 OA 
HETATM   14  O   UNL     1     -11.458   6.250  70.277  1.00  0.00    -0.378 OA 
HETATM   15  O   UNL     1      -9.698   4.788  71.401  1.00  0.00    -0.157 OA 
HETATM   16  O   UNL     1     -11.628   5.761  72.704  1.00  0.00    -0.300 OA 
HETATM   17  O   UNL     1      -7.816   9.019  72.223  1.00  0.00    -0.353 OA 
HETATM   18  O   UNL     1      -7.572   6.727  71.522  1.00  0.00    -0.086 OA 
HETATM   19  O   UNL     1      -7.095   8.418  70.101  1.00  0.00    -0.042 OA 
HETATM   20  H   UNL     1      -8.815   6.929  73.538  1.00  0.00     0.000 HD 
ENDBRANCH   9  10
ENDBRANCH   8   9
ENDBRANCH   6   8
ENDBRANCH   5   6
ENDBRANCH   4   5
ENDBRANCH   3   4
ENDBRANCH   2   3
TORSDOF 7
ENDMDL
MODEL      171
REMARK 921   NORMALIZED FREE ENERGY PREDICTED BY IDOCK:   -3.29 KCAL/MOL
REMARK 922        TOTAL FREE ENERGY PREDICTED BY IDOCK:   -5.32 KCAL/MOL
REMARK 923 INTER-LIGAND FREE ENERGY PREDICTED BY IDOCK:   -4.50 KCAL/MOL
REMARK 924 INTRA-LIGAND FREE ENERGY PREDICTED BY IDOCK:   -0.82 KCAL/MOL
REMARK 927      BINDING AFFINITY PREDICTED BY RF-SCORE:    0.00 PKD
ROOT
HETATM    1  C   UNL     1     -11.159  11.918  65.389  1.00  0.00    -0.360 C  
HETATM    2  C   UNL     1     -10.742  11.035  66.553  1.00  0.00    -0.298 C  
ENDROOT
BRANCH   2   3
HETATM    3  C   UNL     1     -10.063   9.758  66.067  1.00  0.00    -0.322 C  
BRANCH   3   4
HETATM    4  C   UNL     1     -10.397   8.578  66.980  1.00  0.00    -0.379 C  
BRANCH   4   5
HETATM    5  C   UNL     1      -9.172   7.661  67.126  1.00  0.00    -0.132 C  
BRANCH   5   6
HETATM    6  N   UNL     1      -9.237   6.723  68.268  1.00  0.00    -0.124 NA 
HETATM    7  C   UNL     1      -9.094   5.333  67.808  1.00  0.00    -0.110 C  
BRANCH   6   8
HETATM    8  C   UNL     1      -8.146   7.005  69.229  1.00  0.00    -0.120 C  
BRANCH   8   9
HETATM    9  C   UNL     1      -8.473   8.102  70.250  1.00  0.00    -0.126 C  
BRANCH   9  10
HETATM   10  C   UNL     1      -9.377   7.661  71.438  1.00  0.00    -0.140 C  
HETATM   11  P   UNL     1     -10.741   8.879  71.515  1.00  0.00    -0.373 P  
HETATM   12  P   UNL     1      -8.431   7.546  73.009  1.00  0.00    -0.162 P  
HETATM   13  O   UNL     1      -9.903   6.325  71.127  1.00  0.00    -0.178 OA 
HETATM   14  O   UNL     1      -7.376   8.756  73.001  1.00  0.00    -0.349 OA 
HETATM   15  O   UNL     1      -9.091   7.428  74.340  1.00  0.00    -0.211 OA 
HETATM   16  O   UNL     1      -7.451   6.284  72.800  1.00  0.00    -0.094 OA 
HETATM   17  O   UNL     1     -11.507   7.984  70.343  1.00  0.00    -0.241 OA 
HETATM   18  O   UNL     1     -11.413   8.037  72.750  1.00  0.00    -0.402 OA 
HETATM   19  O   UNL     1     -11.895   9.908  71.579  1.00  0.00    -0.381 OA 
HETATM   20  H   UNL     1     -10.454   6.056  71.852  1.00  0.00     0.000 HD 
ENDBRANCH   9  10
ENDBRANCH   8   9
ENDBRANCH   6   8
ENDBRANCH   5   6
ENDBRANCH   4   5
ENDBRANCH   3   4
ENDBRANCH   2   3
TORSDOF 7
ENDMDL
MODEL      172
REMARK 921   NORMALIZED FREE ENERGY PREDICTED BY IDOCK:   -3.28 KCAL/MOL
REMARK 922        TOTAL FREE ENERGY PREDICTED BY IDOCK:   -5.31 KCAL/MOL
REMARK 923 INTER-LIGAND FREE ENERGY PREDICTED BY IDOCK:   -4.83 KCAL/MOL
REMARK 924 INTRA-LIGAND FREE ENERGY PREDICTED BY IDOCK:   -0.47 KCAL/MOL
REMARK 927      BINDING AFFINITY PREDICTED BY RF-SCORE:    0.00 PKD
ROOT
HETATM    1  C   UNL     1     -11.111   7.887  72.744  1.00  0.00    -0.462 C  
HETATM    2  C   UNL     1      -9.700   7.895  72.181  1.00  0.00    -0.257 C  
ENDROOT
BRANCH   2   3
HETATM    3  C   UNL     1      -9.546   8.945  71.084  1.00  0.00    -0.342 C  
BRANCH   3   4
HETATM    4  C   UNL     1     -10.450   8.630  69.892  1.00  0.00    -0.221 C  
BRANCH   4   5
HETATM    5  C   UNL     1      -9.707   7.735  68.889  1.00  0.00    -0.160 C  
BRANCH   5   6
HETATM    6  N   UNL     1     -10.052   7.979  67.472  1.00  0.00    -0.199 NA 
HETATM    7  C   UNL     1     -10.871   6.879  66.938  1.00  0.00    -0.310 C  
BRANCH   6   8
HETATM    8  C   UNL     1     -10.824   9.235  67.338  1.00  0.00    -0.095 C  
BRANCH   8   9
HETATM    9  C   UNL     1     -10.512  10.035  66.066  1.00  0.00    -0.145 C  
BRANCH   9  10
HETATM   10  C   UNL     1     -10.696  11.576  66.186  1.00  0.00    -0.274 C  
HETATM   11  P   UNL     1     -11.194  12.156  64.523  1.00  0.00    -0.356 P  
HETATM   12  P   UNL     1      -9.174  12.400  66.805  1.00  0.00    -0.192 P  
HETATM   13  O   UNL     1     -11.771  11.824  67.155  1.00  0.00    -0.547 OA 
HETATM   14  O   UNL     1      -7.932  11.628  66.142  1.00  0.00    -0.002 OA 
HETATM   15  O   UNL     1      -8.975  13.875  66.743  1.00  0.00    -0.237 OA 
HETATM   16  O   UNL     1      -9.050  11.920  68.339  1.00  0.00    -0.187 OA 
HETATM   17  O   UNL     1     -12.752  11.741  64.926  1.00  0.00    -0.106 OA 
HETATM   18  O   UNL     1     -11.335  13.682  65.105  1.00  0.00    -0.299 OA 
HETATM   19  O   UNL     1     -11.616  12.647  63.117  1.00  0.00    -0.442 OA 
HETATM   20  H   UNL     1     -11.884  12.764  67.228  1.00  0.00     0.000 HD 
ENDBRANCH   9  10
ENDBRANCH   8   9
ENDBRANCH   6   8
ENDBRANCH   5   6
ENDBRANCH   4   5
ENDBRANCH   3   4
ENDBRANCH   2   3
TORSDOF 7
ENDMDL
MODEL      173
REMARK 921   NORMALIZED FREE ENERGY PREDICTED BY IDOCK:   -3.27 KCAL/MOL
REMARK 922        TOTAL FREE ENERGY PREDICTED BY IDOCK:   -5.28 KCAL/MOL
REMARK 923 INTER-LIGAND FREE ENERGY PREDICTED BY IDOCK:   -4.84 KCAL/MOL
REMARK 924 INTRA-LIGAND FREE ENERGY PREDICTED BY IDOCK:   -0.44 KCAL/MOL
REMARK 927      BINDING AFFINITY PREDICTED BY RF-SCORE:    0.00 PKD
ROOT
HETATM    1  C   UNL     1     -10.929  16.288  70.038  1.00  0.00    -0.356 C  
HETATM    2  C   UNL     1     -12.102  15.564  70.676  1.00  0.00    -0.430 C  
ENDROOT
BRANCH   2   3
HETATM    3  C   UNL     1     -12.400  14.250  69.958  1.00  0.00    -0.403 C  
BRANCH   3   4
HETATM    4  C   UNL     1     -11.593  14.137  68.665  1.00  0.00    -0.352 C  
BRANCH   4   5
HETATM    5  C   UNL     1     -11.721  12.719  68.086  1.00  0.00    -0.345 C  
BRANCH   5   6
HETATM    6  N   UNL     1     -10.433  12.033  67.844  1.00  0.00    -0.197 NA 
HETATM    7  C   UNL     1      -9.304  12.953  68.056  1.00  0.00    -0.213 C  
BRANCH   6   8
HETATM    8  C   UNL     1     -10.275  10.890  68.772  1.00  0.00    -0.196 C  
BRANCH   8   9
HETATM    9  C   UNL     1     -10.900   9.581  68.272  1.00  0.00    -0.194 C  
BRANCH   9  10
HETATM   10  C   UNL     1     -10.277   8.278  68.855  1.00  0.00    -0.210 C  
HETATM   11  P   UNL     1      -9.661   8.716  70.522  1.00  0.00    -0.206 P  
HETATM   12  P   UNL     1      -8.965   7.600  67.762  1.00  0.00    -0.130 P  
HETATM   13  O   UNL     1     -11.347   7.277  68.953  1.00  0.00    -0.447 OA 
HETATM   14  O   UNL     1      -8.172   8.860  67.160  1.00  0.00    -0.103 OA 
HETATM   15  O   UNL     1      -8.016   6.540  68.205  1.00  0.00    -0.107 OA 
HETATM   16  O   UNL     1      -9.754   7.082  66.456  1.00  0.00    -0.177 OA 
HETATM   17  O   UNL     1     -11.205   8.460  71.079  1.00  0.00    -0.254 OA 
HETATM   18  O   UNL     1      -9.204   7.158  70.753  1.00  0.00    -0.156 OA 
HETATM   19  O   UNL     1      -9.140   9.085  71.932  1.00  0.00    -0.365 OA 
HETATM   20  H   UNL     1     -10.967   6.483  69.309  1.00  0.00     0.000 HD 
ENDBRANCH   9  10
ENDBRANCH   8   9
ENDBRANCH   6   8
ENDBRANCH   5   6
ENDBRANCH   4   5
ENDBRANCH   3   4
ENDBRANCH   2   3
TORSDOF 7
ENDMDL
MODEL      174
REMARK 921   NORMALIZED FREE ENERGY PREDICTED BY IDOCK:   -3.25 KCAL/MOL
REMARK 922        TOTAL FREE ENERGY PREDICTED BY IDOCK:   -5.26 KCAL/MOL
REMARK 923 INTER-LIGAND FREE ENERGY PREDICTED BY IDOCK:   -4.91 KCAL/MOL
REMARK 924 INTRA-LIGAND FREE ENERGY PREDICTED BY IDOCK:   -0.35 KCAL/MOL
REMARK 927      BINDING AFFINITY PREDICTED BY RF-SCORE:    0.00 PKD
ROOT
HETATM    1  C   UNL     1     -12.380  15.561  71.483  1.00  0.00    -0.465 C  
HETATM    2  C   UNL     1     -13.213  15.076  72.657  1.00  0.00    -0.528 C  
ENDROOT
BRANCH   2   3
HETATM    3  C   UNL     1     -13.582  13.603  72.506  1.00  0.00    -0.675 C  
BRANCH   3   4
HETATM    4  C   UNL     1     -12.812  12.961  71.352  1.00  0.00    -0.377 C  
BRANCH   4   5
HETATM    5  C   UNL     1     -12.720  11.441  71.561  1.00  0.00    -0.357 C  
BRANCH   5   6
HETATM    6  N   UNL     1     -12.402  10.669  70.341  1.00  0.00    -0.323 NA 
HETATM    7  C   UNL     1     -12.148  11.569  69.205  1.00  0.00    -0.263 C  
BRANCH   6   8
HETATM    8  C   UNL     1     -11.190   9.845  70.554  1.00  0.00    -0.330 C  
BRANCH   8   9
HETATM    9  C   UNL     1     -10.558   9.306  69.263  1.00  0.00    -0.234 C  
BRANCH   9  10
HETATM   10  C   UNL     1      -9.011   9.140  69.296  1.00  0.00    -0.145 C  
HETATM   11  P   UNL     1      -8.553   9.008  71.062  1.00  0.00    -0.113 P  
HETATM   12  P   UNL     1      -8.158  10.523  68.436  1.00  0.00    -0.133 P  
HETATM   13  O   UNL     1      -8.680   7.896  68.589  1.00  0.00    -0.128 OA 
HETATM   14  O   UNL     1      -8.990  11.855  68.771  1.00  0.00    -0.087 OA 
HETATM   15  O   UNL     1      -6.694  10.769  68.562  1.00  0.00    -0.055 OA 
HETATM   16  O   UNL     1      -8.521  10.318  66.880  1.00  0.00    -0.125 OA 
HETATM   17  O   UNL     1      -8.921   7.391  70.960  1.00  0.00    -0.149 OA 
HETATM   18  O   UNL     1      -6.987   8.790  70.633  1.00  0.00    -0.041 OA 
HETATM   19  O   UNL     1      -8.167   8.896  72.557  1.00  0.00    -0.384 OA 
HETATM   20  H   UNL     1      -7.736   7.795  68.609  1.00  0.00     0.000 HD 
ENDBRANCH   9  10
ENDBRANCH   8   9
ENDBRANCH   6   8
ENDBRANCH   5   6
ENDBRANCH   4   5
ENDBRANCH   3   4
ENDBRANCH   2   3
TORSDOF 7
ENDMDL
MODEL      175
REMARK 921   NORMALIZED FREE ENERGY PREDICTED BY IDOCK:   -3.25 KCAL/MOL
REMARK 922        TOTAL FREE ENERGY PREDICTED BY IDOCK:   -5.26 KCAL/MOL
REMARK 923 INTER-LIGAND FREE ENERGY PREDICTED BY IDOCK:   -4.71 KCAL/MOL
REMARK 924 INTRA-LIGAND FREE ENERGY PREDICTED BY IDOCK:   -0.55 KCAL/MOL
REMARK 927      BINDING AFFINITY PREDICTED BY RF-SCORE:    0.00 PKD
ROOT
HETATM    1  C   UNL     1      -8.670  16.438  66.367  1.00  0.00    -0.355 C  
HETATM    2  C   UNL     1      -9.831  15.462  66.449  1.00  0.00    -0.301 C  
ENDROOT
BRANCH   2   3
HETATM    3  C   UNL     1     -10.477  15.481  67.832  1.00  0.00    -0.266 C  
BRANCH   3   4
HETATM    4  C   UNL     1     -11.644  14.497  67.905  1.00  0.00    -0.371 C  
BRANCH   4   5
HETATM    5  C   UNL     1     -11.185  13.182  68.555  1.00  0.00    -0.272 C  
BRANCH   5   6
HETATM    6  N   UNL     1     -11.785  11.963  67.971  1.00  0.00    -0.460 NA 
HETATM    7  C   UNL     1     -11.060  11.555  66.757  1.00  0.00    -0.302 C  
BRANCH   6   8
HETATM    8  C   UNL     1     -11.726  10.844  68.939  1.00  0.00    -0.306 C  
BRANCH   8   9
HETATM    9  C   UNL     1     -10.970   9.609  68.431  1.00  0.00    -0.161 C  
BRANCH   9  10
HETATM   10  C   UNL     1      -9.803   9.121  69.339  1.00  0.00    -0.172 C  
HETATM   11  P   UNL     1      -8.522   8.468  68.208  1.00  0.00    -0.135 P  
HETATM   12  P   UNL     1     -10.370   7.882  70.572  1.00  0.00    -0.212 P  
HETATM   13  O   UNL     1      -9.290  10.287  70.072  1.00  0.00    -0.400 OA 
HETATM   14  O   UNL     1     -11.462   6.966  69.833  1.00  0.00    -0.288 OA 
HETATM   15  O   UNL     1      -9.426   7.045  71.365  1.00  0.00    -0.159 OA 
HETATM   16  O   UNL     1     -11.304   8.717  71.585  1.00  0.00    -0.265 OA 
HETATM   17  O   UNL     1      -7.989  10.031  68.027  1.00  0.00    -0.100 OA 
HETATM   18  O   UNL     1      -7.549   8.170  69.493  1.00  0.00    -0.094 OA 
HETATM   19  O   UNL     1      -7.438   7.916  67.251  1.00  0.00    -0.089 OA 
HETATM   20  H   UNL     1      -8.578   9.989  70.625  1.00  0.00     0.000 HD 
ENDBRANCH   9  10
ENDBRANCH   8   9
ENDBRANCH   6   8
ENDBRANCH   5   6
ENDBRANCH   4   5
ENDBRANCH   3   4
ENDBRANCH   2   3
TORSDOF 7
ENDMDL
MODEL      176
REMARK 921   NORMALIZED FREE ENERGY PREDICTED BY IDOCK:   -3.25 KCAL/MOL
REMARK 922        TOTAL FREE ENERGY PREDICTED BY IDOCK:   -5.26 KCAL/MOL
REMARK 923 INTER-LIGAND FREE ENERGY PREDICTED BY IDOCK:   -4.54 KCAL/MOL
REMARK 924 INTRA-LIGAND FREE ENERGY PREDICTED BY IDOCK:   -0.71 KCAL/MOL
REMARK 927      BINDING AFFINITY PREDICTED BY RF-SCORE:    0.00 PKD
ROOT
HETATM    1  C   UNL     1      -8.950   4.491  64.260  1.00  0.00    -0.150 C  
HETATM    2  C   UNL     1      -9.151   5.098  65.638  1.00  0.00    -0.161 C  
ENDROOT
BRANCH   2   3
HETATM    3  C   UNL     1      -8.557   6.502  65.719  1.00  0.00    -0.149 C  
BRANCH   3   4
HETATM    4  C   UNL     1      -9.101   7.257  66.932  1.00  0.00    -0.162 C  
BRANCH   4   5
HETATM    5  C   UNL     1      -7.953   7.611  67.890  1.00  0.00    -0.118 C  
BRANCH   5   6
HETATM    6  N   UNL     1      -8.337   7.669  69.317  1.00  0.00    -0.133 NA 
HETATM    7  C   UNL     1      -7.159   7.489  70.181  1.00  0.00    -0.060 C  
BRANCH   6   8
HETATM    8  C   UNL     1      -8.943   8.982  69.635  1.00  0.00    -0.153 C  
BRANCH   8   9
HETATM    9  C   UNL     1      -9.746   9.006  70.943  1.00  0.00    -0.329 C  
BRANCH   9  10
HETATM   10  C   UNL     1     -11.234   8.564  70.822  1.00  0.00    -0.257 C  
HETATM   11  P   UNL     1     -12.230   9.966  71.447  1.00  0.00    -0.424 P  
HETATM   12  P   UNL     1     -11.555   6.997  71.726  1.00  0.00    -0.313 P  
HETATM   13  O   UNL     1     -11.516   8.332  69.399  1.00  0.00    -0.326 OA 
HETATM   14  O   UNL     1     -10.674   7.051  73.066  1.00  0.00    -0.254 OA 
HETATM   15  O   UNL     1     -12.931   6.502  72.016  1.00  0.00    -0.244 OA 
HETATM   16  O   UNL     1     -10.764   5.874  70.883  1.00  0.00    -0.247 OA 
HETATM   17  O   UNL     1     -12.102  10.637  69.932  1.00  0.00    -0.303 OA 
HETATM   18  O   UNL     1     -13.601   9.143  71.084  1.00  0.00    -0.268 OA 
HETATM   19  O   UNL     1     -13.073  11.152  71.975  1.00  0.00    -0.492 OA 
HETATM   20  H   UNL     1     -12.424   8.062  69.325  1.00  0.00     0.000 HD 
ENDBRANCH   9  10
ENDBRANCH   8   9
ENDBRANCH   6   8
ENDBRANCH   5   6
ENDBRANCH   4   5
ENDBRANCH   3   4
ENDBRANCH   2   3
TORSDOF 7
ENDMDL
MODEL      177
REMARK 921   NORMALIZED FREE ENERGY PREDICTED BY IDOCK:   -3.24 KCAL/MOL
REMARK 922        TOTAL FREE ENERGY PREDICTED BY IDOCK:   -5.25 KCAL/MOL
REMARK 923 INTER-LIGAND FREE ENERGY PREDICTED BY IDOCK:   -4.61 KCAL/MOL
REMARK 924 INTRA-LIGAND FREE ENERGY PREDICTED BY IDOCK:   -0.63 KCAL/MOL
REMARK 927      BINDING AFFINITY PREDICTED BY RF-SCORE:    0.00 PKD
ROOT
HETATM    1  C   UNL     1     -12.050  14.775  64.313  1.00  0.00    -0.415 C  
HETATM    2  C   UNL     1     -10.670  14.315  64.752  1.00  0.00    -0.435 C  
ENDROOT
BRANCH   2   3
HETATM    3  C   UNL     1      -9.916  15.429  65.472  1.00  0.00    -0.379 C  
BRANCH   3   4
HETATM    4  C   UNL     1      -9.058  14.866  66.606  1.00  0.00    -0.309 C  
BRANCH   4   5
HETATM    5  C   UNL     1      -9.766  15.070  67.954  1.00  0.00    -0.212 C  
BRANCH   5   6
HETATM    6  N   UNL     1     -10.391  13.851  68.512  1.00  0.00    -0.241 NA 
HETATM    7  C   UNL     1     -11.852  13.886  68.335  1.00  0.00    -0.374 C  
BRANCH   6   8
HETATM    8  C   UNL     1      -9.874  12.646  67.826  1.00  0.00    -0.212 C  
BRANCH   8   9
HETATM    9  C   UNL     1      -8.957  11.771  68.693  1.00  0.00    -0.069 C  
BRANCH   9  10
HETATM   10  C   UNL     1      -9.073  10.238  68.451  1.00  0.00    -0.136 C  
HETATM   11  P   UNL     1      -9.624  10.040  66.717  1.00  0.00    -0.200 P  
HETATM   12  P   UNL     1     -10.207   9.440  69.658  1.00  0.00    -0.244 P  
HETATM   13  O   UNL     1      -7.737   9.655  68.631  1.00  0.00    -0.079 OA 
HETATM   14  O   UNL     1     -11.414  10.469  69.904  1.00  0.00    -0.264 OA 
HETATM   15  O   UNL     1     -10.721   8.052  69.483  1.00  0.00    -0.230 OA 
HETATM   16  O   UNL     1      -9.430   9.536  71.066  1.00  0.00    -0.221 OA 
HETATM   17  O   UNL     1      -8.030  10.189  66.271  1.00  0.00    -0.112 OA 
HETATM   18  O   UNL     1      -9.539   8.412  66.883  1.00  0.00    -0.170 OA 
HETATM   19  O   UNL     1     -10.090   9.873  65.250  1.00  0.00    -0.313 OA 
HETATM   20  H   UNL     1      -7.808   8.719  68.483  1.00  0.00     0.000 HD 
ENDBRANCH   9  10
ENDBRANCH   8   9
ENDBRANCH   6   8
ENDBRANCH   5   6
ENDBRANCH   4   5
ENDBRANCH   3   4
ENDBRANCH   2   3
TORSDOF 7
ENDMDL
MODEL      178
REMARK 921   NORMALIZED FREE ENERGY PREDICTED BY IDOCK:   -3.24 KCAL/MOL
REMARK 922        TOTAL FREE ENERGY PREDICTED BY IDOCK:   -5.25 KCAL/MOL
REMARK 923 INTER-LIGAND FREE ENERGY PREDICTED BY IDOCK:   -4.84 KCAL/MOL
REMARK 924 INTRA-LIGAND FREE ENERGY PREDICTED BY IDOCK:   -0.41 KCAL/MOL
REMARK 927      BINDING AFFINITY PREDICTED BY RF-SCORE:    0.00 PKD
ROOT
HETATM    1  C   UNL     1     -12.162  12.256  63.515  1.00  0.00    -0.669 C  
HETATM    2  C   UNL     1     -11.356  11.501  64.558  1.00  0.00    -0.250 C  
ENDROOT
BRANCH   2   3
HETATM    3  C   UNL     1     -11.255  12.291  65.860  1.00  0.00    -0.381 C  
BRANCH   3   4
HETATM    4  C   UNL     1     -11.062  11.356  67.055  1.00  0.00    -0.364 C  
BRANCH   4   5
HETATM    5  C   UNL     1     -11.668  11.986  68.319  1.00  0.00    -0.334 C  
BRANCH   5   6
HETATM    6  N   UNL     1     -11.317  11.297  69.580  1.00  0.00    -0.273 NA 
HETATM    7  C   UNL     1     -12.477  11.239  70.483  1.00  0.00    -0.310 C  
BRANCH   6   8
HETATM    8  C   UNL     1     -10.878   9.910  69.304  1.00  0.00    -0.227 C  
BRANCH   8   9
HETATM    9  C   UNL     1      -9.976   9.306  70.389  1.00  0.00    -0.287 C  
BRANCH   9  10
HETATM   10  C   UNL     1      -9.456   7.868  70.100  1.00  0.00    -0.160 C  
HETATM   11  P   UNL     1      -9.223   7.768  68.288  1.00  0.00    -0.138 P  
HETATM   12  P   UNL     1     -10.603   6.585  70.746  1.00  0.00    -0.256 P  
HETATM   13  O   UNL     1      -8.168   7.712  70.790  1.00  0.00    -0.106 OA 
HETATM   14  O   UNL     1     -12.091   7.137  70.505  1.00  0.00    -0.268 OA 
HETATM   15  O   UNL     1     -10.502   5.149  70.364  1.00  0.00    -0.267 OA 
HETATM   16  O   UNL     1     -10.486   6.708  72.349  1.00  0.00    -0.200 OA 
HETATM   17  O   UNL     1      -7.735   8.472  68.515  1.00  0.00    -0.100 OA 
HETATM   18  O   UNL     1      -8.647   6.243  68.453  1.00  0.00    -0.114 OA 
HETATM   19  O   UNL     1      -9.025   7.685  66.755  1.00  0.00    -0.131 OA 
HETATM   20  H   UNL     1      -7.851   6.834  70.614  1.00  0.00     0.000 HD 
ENDBRANCH   9  10
ENDBRANCH   8   9
ENDBRANCH   6   8
ENDBRANCH   5   6
ENDBRANCH   4   5
ENDBRANCH   3   4
ENDBRANCH   2   3
TORSDOF 7
ENDMDL
MODEL      179
REMARK 921   NORMALIZED FREE ENERGY PREDICTED BY IDOCK:   -3.22 KCAL/MOL
REMARK 922        TOTAL FREE ENERGY PREDICTED BY IDOCK:   -5.22 KCAL/MOL
REMARK 923 INTER-LIGAND FREE ENERGY PREDICTED BY IDOCK:   -4.18 KCAL/MOL
REMARK 924 INTRA-LIGAND FREE ENERGY PREDICTED BY IDOCK:   -1.03 KCAL/MOL
REMARK 927      BINDING AFFINITY PREDICTED BY RF-SCORE:    0.00 PKD
ROOT
HETATM    1  C   UNL     1      -5.889  10.410  70.253  1.00  0.00    -0.082 C  
HETATM    2  C   UNL     1      -6.203  11.744  69.596  1.00  0.00    -0.128 C  
ENDROOT
BRANCH   2   3
HETATM    3  C   UNL     1      -5.717  12.912  70.450  1.00  0.00    -0.171 C  
BRANCH   3   4
HETATM    4  C   UNL     1      -5.402  14.131  69.582  1.00  0.00    -0.092 C  
BRANCH   4   5
HETATM    5  C   UNL     1      -6.587  15.109  69.597  1.00  0.00    -0.173 C  
BRANCH   5   6
HETATM    6  N   UNL     1      -6.936  15.675  68.277  1.00  0.00    -0.110 NA 
HETATM    7  C   UNL     1      -5.749  16.252  67.626  1.00  0.00    -0.146 C  
BRANCH   6   8
HETATM    8  C   UNL     1      -7.479  14.621  67.391  1.00  0.00    -0.186 C  
BRANCH   8   9
HETATM    9  C   UNL     1      -8.748  13.941  67.923  1.00  0.00    -0.184 C  
BRANCH   9  10
HETATM   10  C   UNL     1     -10.076  14.713  67.669  1.00  0.00    -0.228 C  
HETATM   11  P   UNL     1     -10.912  14.830  69.292  1.00  0.00    -0.268 P  
HETATM   12  P   UNL     1     -11.108  13.891  66.389  1.00  0.00    -0.322 P  
HETATM   13  O   UNL     1      -9.726  16.052  67.177  1.00  0.00    -0.224 OA 
HETATM   14  O   UNL     1     -10.942  12.310  66.611  1.00  0.00    -0.255 OA 
HETATM   15  O   UNL     1     -12.537  14.246  66.158  1.00  0.00    -0.436 OA 
HETATM   16  O   UNL     1     -10.290  14.096  65.016  1.00  0.00    -0.389 OA 
HETATM   17  O   UNL     1      -9.967  16.162  69.599  1.00  0.00    -0.245 OA 
HETATM   18  O   UNL     1     -12.113  15.707  68.602  1.00  0.00    -0.270 OA 
HETATM   19  O   UNL     1     -11.618  14.930  70.666  1.00  0.00    -0.271 OA 
HETATM   20  H   UNL     1     -10.537  16.523  67.021  1.00  0.00     0.000 HD 
ENDBRANCH   9  10
ENDBRANCH   8   9
ENDBRANCH   6   8
ENDBRANCH   5   6
ENDBRANCH   4   5
ENDBRANCH   3   4
ENDBRANCH   2   3
TORSDOF 7
ENDMDL
MODEL      180
REMARK 921   NORMALIZED FREE ENERGY PREDICTED BY IDOCK:   -3.21 KCAL/MOL
REMARK 922        TOTAL FREE ENERGY PREDICTED BY IDOCK:   -5.20 KCAL/MOL
REMARK 923 INTER-LIGAND FREE ENERGY PREDICTED BY IDOCK:   -4.79 KCAL/MOL
REMARK 924 INTRA-LIGAND FREE ENERGY PREDICTED BY IDOCK:   -0.41 KCAL/MOL
REMARK 927      BINDING AFFINITY PREDICTED BY RF-SCORE:    0.00 PKD
ROOT
HETATM    1  C   UNL     1      -9.818   4.864  66.961  1.00  0.00    -0.214 C  
HETATM    2  C   UNL     1     -10.803   6.020  66.966  1.00  0.00    -0.413 C  
ENDROOT
BRANCH   2   3
HETATM    3  C   UNL     1     -11.035   6.547  68.380  1.00  0.00    -0.358 C  
BRANCH   3   4
HETATM    4  C   UNL     1      -9.993   7.603  68.749  1.00  0.00    -0.178 C  
BRANCH   4   5
HETATM    5  C   UNL     1     -10.178   8.853  67.874  1.00  0.00    -0.222 C  
BRANCH   5   6
HETATM    6  N   UNL     1     -11.187   9.812  68.374  1.00  0.00    -0.094 NA 
HETATM    7  C   UNL     1     -11.132   9.910  69.841  1.00  0.00    -0.275 C  
BRANCH   6   8
HETATM    8  C   UNL     1     -10.940  11.160  67.814  1.00  0.00    -0.262 C  
BRANCH   8   9
HETATM    9  C   UNL     1     -10.217  12.118  68.770  1.00  0.00    -0.133 C  
BRANCH   9  10
HETATM   10  C   UNL     1     -10.058  13.579  68.257  1.00  0.00    -0.247 C  
HETATM   11  P   UNL     1     -11.372  13.822  67.006  1.00  0.00    -0.361 P  
HETATM   12  P   UNL     1      -8.373  13.890  67.594  1.00  0.00    -0.210 P  
HETATM   13  O   UNL     1     -10.269  14.479  69.399  1.00  0.00    -0.384 OA 
HETATM   14  O   UNL     1      -7.923  12.549  66.834  1.00  0.00    -0.122 OA 
HETATM   15  O   UNL     1      -8.035  15.096  66.786  1.00  0.00    -0.177 OA 
HETATM   16  O   UNL     1      -7.414  13.845  68.889  1.00  0.00    -0.120 OA 
HETATM   17  O   UNL     1     -12.402  14.167  68.264  1.00  0.00    -0.246 OA 
HETATM   18  O   UNL     1     -10.900  15.381  66.823  1.00  0.00    -0.310 OA 
HETATM   19  O   UNL     1     -12.484  14.027  65.949  1.00  0.00    -0.470 OA 
HETATM   20  H   UNL     1     -10.172  15.370  69.086  1.00  0.00     0.000 HD 
ENDBRANCH   9  10
ENDBRANCH   8   9
ENDBRANCH   6   8
ENDBRANCH   5   6
ENDBRANCH   4   5
ENDBRANCH   3   4
ENDBRANCH   2   3
TORSDOF 7
ENDMDL
MODEL      181
REMARK 921   NORMALIZED FREE ENERGY PREDICTED BY IDOCK:   -3.21 KCAL/MOL
REMARK 922        TOTAL FREE ENERGY PREDICTED BY IDOCK:   -5.20 KCAL/MOL
REMARK 923 INTER-LIGAND FREE ENERGY PREDICTED BY IDOCK:   -4.74 KCAL/MOL
REMARK 924 INTRA-LIGAND FREE ENERGY PREDICTED BY IDOCK:   -0.46 KCAL/MOL
REMARK 927      BINDING AFFINITY PREDICTED BY RF-SCORE:    0.00 PKD
ROOT
HETATM    1  C   UNL     1      -9.611   4.620  69.650  1.00  0.00    -0.262 C  
HETATM    2  C   UNL     1      -9.549   5.621  70.791  1.00  0.00    -0.213 C  
ENDROOT
BRANCH   2   3
HETATM    3  C   UNL     1      -9.002   6.966  70.322  1.00  0.00    -0.152 C  
BRANCH   3   4
HETATM    4  C   UNL     1      -9.870   8.117  70.829  1.00  0.00    -0.201 C  
BRANCH   4   5
HETATM    5  C   UNL     1     -10.786   8.623  69.703  1.00  0.00    -0.200 C  
BRANCH   5   6
HETATM    6  N   UNL     1     -10.087   9.342  68.616  1.00  0.00    -0.184 NA 
HETATM    7  C   UNL     1     -10.384   8.732  67.311  1.00  0.00    -0.290 C  
BRANCH   6   8
HETATM    8  C   UNL     1     -10.522  10.757  68.572  1.00  0.00    -0.187 C  
BRANCH   8   9
HETATM    9  C   UNL     1     -10.873  11.265  67.167  1.00  0.00    -0.321 C  
BRANCH   9  10
HETATM   10  C   UNL     1     -10.237  12.630  66.772  1.00  0.00    -0.237 C  
HETATM   11  P   UNL     1      -8.712  12.784  67.770  1.00  0.00    -0.208 P  
HETATM   12  P   UNL     1     -11.405  14.026  67.027  1.00  0.00    -0.365 P  
HETATM   13  O   UNL     1      -9.907  12.571  65.342  1.00  0.00    -0.359 OA 
HETATM   14  O   UNL     1     -12.226  13.699  68.367  1.00  0.00    -0.332 OA 
HETATM   15  O   UNL     1     -10.972  15.452  67.005  1.00  0.00    -0.321 OA 
HETATM   16  O   UNL     1     -12.545  13.810  65.909  1.00  0.00    -0.472 OA 
HETATM   17  O   UNL     1      -7.949  11.870  66.611  1.00  0.00    -0.132 OA 
HETATM   18  O   UNL     1      -8.376  14.205  67.025  1.00  0.00    -0.191 OA 
HETATM   19  O   UNL     1      -7.421  12.915  68.614  1.00  0.00    -0.116 OA 
HETATM   20  H   UNL     1      -9.519  13.404  65.101  1.00  0.00     0.000 HD 
ENDBRANCH   9  10
ENDBRANCH   8   9
ENDBRANCH   6   8
ENDBRANCH   5   6
ENDBRANCH   4   5
ENDBRANCH   3   4
ENDBRANCH   2   3
TORSDOF 7
ENDMDL
MODEL      182
REMARK 921   NORMALIZED FREE ENERGY PREDICTED BY IDOCK:   -3.20 KCAL/MOL
REMARK 922        TOTAL FREE ENERGY PREDICTED BY IDOCK:   -5.19 KCAL/MOL
REMARK 923 INTER-LIGAND FREE ENERGY PREDICTED BY IDOCK:   -5.75 KCAL/MOL
REMARK 924 INTRA-LIGAND FREE ENERGY PREDICTED BY IDOCK:    0.55 KCAL/MOL
REMARK 927      BINDING AFFINITY PREDICTED BY RF-SCORE:    0.00 PKD
ROOT
HETATM    1  C   UNL     1     -12.864  15.356  71.798  1.00  0.00    -0.483 C  
HETATM    2  C   UNL     1     -12.388  14.279  70.838  1.00  0.00    -0.429 C  
ENDROOT
BRANCH   2   3
HETATM    3  C   UNL     1     -12.237  14.826  69.421  1.00  0.00    -0.251 C  
BRANCH   3   4
HETATM    4  C   UNL     1     -12.031  13.692  68.416  1.00  0.00    -0.391 C  
BRANCH   4   5
HETATM    5  C   UNL     1     -11.733  14.271  67.023  1.00  0.00    -0.403 C  
BRANCH   5   6
HETATM    6  N   UNL     1     -10.398  13.928  66.486  1.00  0.00    -0.281 NA 
HETATM    7  C   UNL     1     -10.520  13.165  65.234  1.00  0.00    -0.307 C  
BRANCH   6   8
HETATM    8  C   UNL     1      -9.625  15.159  66.201  1.00  0.00    -0.313 C  
BRANCH   8   9
HETATM    9  C   UNL     1     -10.202  16.428  66.842  1.00  0.00    -0.290 C  
BRANCH   9  10
HETATM   10  C   UNL     1      -9.196  17.267  67.684  1.00  0.00    -0.229 C  
HETATM   11  P   UNL     1      -8.377  18.404  66.508  1.00  0.00    -0.225 P  
HETATM   12  P   UNL     1      -8.008  16.197  68.592  1.00  0.00    -0.227 P  
HETATM   13  O   UNL     1      -9.969  18.028  68.675  1.00  0.00    -0.357 OA 
HETATM   14  O   UNL     1      -7.659  14.970  67.618  1.00  0.00    -0.144 OA 
HETATM   15  O   UNL     1      -6.775  16.730  69.236  1.00  0.00    -0.212 OA 
HETATM   16  O   UNL     1      -8.903  15.458  69.710  1.00  0.00    -0.225 OA 
HETATM   17  O   UNL     1      -9.680  19.418  66.694  1.00  0.00    -0.316 OA 
HETATM   18  O   UNL     1      -7.541  19.074  67.749  1.00  0.00    -0.239 OA 
HETATM   19  O   UNL     1      -7.684  19.367  65.513  1.00  0.00    -0.423 OA 
HETATM   20  H   UNL     1      -9.355  18.539  69.189  1.00  0.00     0.000 HD 
ENDBRANCH   9  10
ENDBRANCH   8   9
ENDBRANCH   6   8
ENDBRANCH   5   6
ENDBRANCH   4   5
ENDBRANCH   3   4
ENDBRANCH   2   3
TORSDOF 7
ENDMDL
MODEL      183
REMARK 921   NORMALIZED FREE ENERGY PREDICTED BY IDOCK:   -3.20 KCAL/MOL
REMARK 922        TOTAL FREE ENERGY PREDICTED BY IDOCK:   -5.19 KCAL/MOL
REMARK 923 INTER-LIGAND FREE ENERGY PREDICTED BY IDOCK:   -4.26 KCAL/MOL
REMARK 924 INTRA-LIGAND FREE ENERGY PREDICTED BY IDOCK:   -0.93 KCAL/MOL
REMARK 927      BINDING AFFINITY PREDICTED BY RF-SCORE:    0.00 PKD
ROOT
HETATM    1  C   UNL     1      -8.206   7.468  72.804  1.00  0.00    -0.145 C  
HETATM    2  C   UNL     1      -9.507   7.919  73.447  1.00  0.00    -0.341 C  
ENDROOT
BRANCH   2   3
HETATM    3  C   UNL     1     -10.652   6.969  73.109  1.00  0.00    -0.350 C  
BRANCH   3   4
HETATM    4  C   UNL     1     -11.808   7.719  72.446  1.00  0.00    -0.371 C  
BRANCH   4   5
HETATM    5  C   UNL     1     -11.746   7.541  70.921  1.00  0.00    -0.283 C  
BRANCH   5   6
HETATM    6  N   UNL     1     -11.433   8.776  70.169  1.00  0.00    -0.102 NA 
HETATM    7  C   UNL     1     -11.585   9.962  71.026  1.00  0.00    -0.389 C  
BRANCH   6   8
HETATM    8  C   UNL     1     -10.036   8.740  69.678  1.00  0.00    -0.204 C  
BRANCH   8   9
HETATM    9  C   UNL     1      -9.375  10.120  69.555  1.00  0.00    -0.230 C  
BRANCH   9  10
HETATM   10  C   UNL     1      -9.095  10.599  68.100  1.00  0.00    -0.148 C  
HETATM   11  P   UNL     1      -7.390  11.264  68.106  1.00  0.00    -0.100 P  
HETATM   12  P   UNL     1     -10.341  11.825  67.534  1.00  0.00    -0.206 P  
HETATM   13  O   UNL     1      -9.182   9.426  67.220  1.00  0.00    -0.129 OA 
HETATM   14  O   UNL     1     -10.685  12.749  68.801  1.00  0.00    -0.243 OA 
HETATM   15  O   UNL     1     -10.156  12.654  66.309  1.00  0.00    -0.243 OA 
HETATM   16  O   UNL     1     -11.705  10.980  67.391  1.00  0.00    -0.539 OA 
HETATM   17  O   UNL     1      -6.859   9.702  67.904  1.00  0.00    -0.072 OA 
HETATM   18  O   UNL     1      -7.504  11.549  66.496  1.00  0.00    -0.115 OA 
HETATM   19  O   UNL     1      -5.948  11.826  68.111  1.00  0.00    -0.049 OA 
HETATM   20  H   UNL     1      -9.011   9.718  66.332  1.00  0.00     0.000 HD 
ENDBRANCH   9  10
ENDBRANCH   8   9
ENDBRANCH   6   8
ENDBRANCH   5   6
ENDBRANCH   4   5
ENDBRANCH   3   4
ENDBRANCH   2   3
TORSDOF 7
ENDMDL
MODEL      184
REMARK 921   NORMALIZED FREE ENERGY PREDICTED BY IDOCK:   -3.19 KCAL/MOL
REMARK 922        TOTAL FREE ENERGY PREDICTED BY IDOCK:   -5.17 KCAL/MOL
REMARK 923 INTER-LIGAND FREE ENERGY PREDICTED BY IDOCK:   -4.70 KCAL/MOL
REMARK 924 INTRA-LIGAND FREE ENERGY PREDICTED BY IDOCK:   -0.48 KCAL/MOL
REMARK 927      BINDING AFFINITY PREDICTED BY RF-SCORE:    0.00 PKD
ROOT
HETATM    1  C   UNL     1      -8.181   6.597  69.771  1.00  0.00    -0.127 C  
HETATM    2  C   UNL     1      -9.020   7.579  68.970  1.00  0.00    -0.131 C  
ENDROOT
BRANCH   2   3
HETATM    3  C   UNL     1      -9.926   6.855  67.978  1.00  0.00    -0.175 C  
BRANCH   3   4
HETATM    4  C   UNL     1     -10.741   7.851  67.152  1.00  0.00    -0.306 C  
BRANCH   4   5
HETATM    5  C   UNL     1     -10.259   9.283  67.430  1.00  0.00    -0.243 C  
BRANCH   5   6
HETATM    6  N   UNL     1     -11.336  10.247  67.741  1.00  0.00    -0.322 NA 
HETATM    7  C   UNL     1     -11.340  10.580  69.175  1.00  0.00    -0.257 C  
BRANCH   6   8
HETATM    8  C   UNL     1     -11.143  11.501  66.979  1.00  0.00    -0.307 C  
BRANCH   8   9
HETATM    9  C   UNL     1     -10.552  12.655  67.800  1.00  0.00    -0.233 C  
BRANCH   9  10
HETATM   10  C   UNL     1      -9.778  13.729  66.982  1.00  0.00    -0.251 C  
HETATM   11  P   UNL     1      -8.374  14.251  68.033  1.00  0.00    -0.184 P  
HETATM   12  P   UNL     1     -10.865  15.128  66.493  1.00  0.00    -0.290 P  
HETATM   13  O   UNL     1      -9.286  13.088  65.755  1.00  0.00    -0.465 OA 
HETATM   14  O   UNL     1     -11.859  15.390  67.726  1.00  0.00    -0.248 OA 
HETATM   15  O   UNL     1     -10.332  16.414  65.960  1.00  0.00    -0.327 OA 
HETATM   16  O   UNL     1     -11.877  14.495  65.411  1.00  0.00    -0.354 OA 
HETATM   17  O   UNL     1      -7.546  12.931  67.454  1.00  0.00    -0.157 OA 
HETATM   18  O   UNL     1      -7.852  15.239  66.833  1.00  0.00    -0.209 OA 
HETATM   19  O   UNL     1      -7.185  14.692  68.921  1.00  0.00    -0.109 OA 
HETATM   20  H   UNL     1      -8.814  13.744  65.256  1.00  0.00     0.000 HD 
ENDBRANCH   9  10
ENDBRANCH   8   9
ENDBRANCH   6   8
ENDBRANCH   5   6
ENDBRANCH   4   5
ENDBRANCH   3   4
ENDBRANCH   2   3
TORSDOF 7
ENDMDL
MODEL      185
REMARK 921   NORMALIZED FREE ENERGY PREDICTED BY IDOCK:   -3.19 KCAL/MOL
REMARK 922        TOTAL FREE ENERGY PREDICTED BY IDOCK:   -5.17 KCAL/MOL
REMARK 923 INTER-LIGAND FREE ENERGY PREDICTED BY IDOCK:   -4.71 KCAL/MOL
REMARK 924 INTRA-LIGAND FREE ENERGY PREDICTED BY IDOCK:   -0.46 KCAL/MOL
REMARK 927      BINDING AFFINITY PREDICTED BY RF-SCORE:    0.00 PKD
ROOT
HETATM    1  C   UNL     1     -11.027   8.021  72.308  1.00  0.00    -0.377 C  
HETATM    2  C   UNL     1      -9.574   8.143  71.882  1.00  0.00    -0.264 C  
ENDROOT
BRANCH   2   3
HETATM    3  C   UNL     1      -9.390   9.247  70.845  1.00  0.00    -0.313 C  
BRANCH   3   4
HETATM    4  C   UNL     1      -9.020   8.662  69.482  1.00  0.00    -0.145 C  
BRANCH   4   5
HETATM    5  C   UNL     1      -7.663   9.217  69.021  1.00  0.00    -0.078 C  
BRANCH   5   6
HETATM    6  N   UNL     1      -7.628   9.672  67.614  1.00  0.00    -0.091 NA 
HETATM    7  C   UNL     1      -7.473   8.530  66.700  1.00  0.00    -0.082 C  
BRANCH   6   8
HETATM    8  C   UNL     1      -8.886  10.372  67.268  1.00  0.00    -0.132 C  
BRANCH   8   9
HETATM    9  C   UNL     1      -8.701  11.584  66.345  1.00  0.00    -0.179 C  
BRANCH   9  10
HETATM   10  C   UNL     1      -9.955  12.491  66.174  1.00  0.00    -0.255 C  
HETATM   11  P   UNL     1     -10.949  12.270  67.694  1.00  0.00    -0.278 P  
HETATM   12  P   UNL     1     -10.887  12.085  64.643  1.00  0.00    -0.348 P  
HETATM   13  O   UNL     1      -9.489  13.880  66.067  1.00  0.00    -0.460 OA 
HETATM   14  O   UNL     1     -10.823  10.490  64.476  1.00  0.00    -0.008 OA 
HETATM   15  O   UNL     1     -12.264  12.591  64.381  1.00  0.00    -0.403 OA 
HETATM   16  O   UNL     1      -9.920  12.558  63.444  1.00  0.00    -0.380 OA 
HETATM   17  O   UNL     1      -9.977  13.413  68.408  1.00  0.00    -0.235 OA 
HETATM   18  O   UNL     1     -12.026  13.375  67.141  1.00  0.00    -0.375 OA 
HETATM   19  O   UNL     1     -11.790  12.084  68.981  1.00  0.00    -0.306 OA 
HETATM   20  H   UNL     1     -10.254  14.433  65.962  1.00  0.00     0.000 HD 
ENDBRANCH   9  10
ENDBRANCH   8   9
ENDBRANCH   6   8
ENDBRANCH   5   6
ENDBRANCH   4   5
ENDBRANCH   3   4
ENDBRANCH   2   3
TORSDOF 7
ENDMDL
MODEL      186
REMARK 921   NORMALIZED FREE ENERGY PREDICTED BY IDOCK:   -3.17 KCAL/MOL
REMARK 922        TOTAL FREE ENERGY PREDICTED BY IDOCK:   -5.15 KCAL/MOL
REMARK 923 INTER-LIGAND FREE ENERGY PREDICTED BY IDOCK:   -4.42 KCAL/MOL
REMARK 924 INTRA-LIGAND FREE ENERGY PREDICTED BY IDOCK:   -0.72 KCAL/MOL
REMARK 927      BINDING AFFINITY PREDICTED BY RF-SCORE:    0.00 PKD
ROOT
HETATM    1  C   UNL     1      -9.822  11.040  68.142  1.00  0.00    -0.185 C  
HETATM    2  C   UNL     1     -11.264  10.986  68.620  1.00  0.00    -0.322 C  
ENDROOT
BRANCH   2   3
HETATM    3  C   UNL     1     -11.545  12.067  69.659  1.00  0.00    -0.371 C  
BRANCH   3   4
HETATM    4  C   UNL     1     -12.417  11.525  70.792  1.00  0.00    -0.444 C  
BRANCH   4   5
HETATM    5  C   UNL     1     -12.494   9.992  70.710  1.00  0.00    -0.295 C  
BRANCH   5   6
HETATM    6  N   UNL     1     -13.274   9.355  71.793  1.00  0.00    -0.384 NA 
HETATM    7  C   UNL     1     -14.215   8.365  71.246  1.00  0.00    -0.223 C  
BRANCH   6   8
HETATM    8  C   UNL     1     -12.370   8.658  72.737  1.00  0.00    -0.048 C  
BRANCH   8   9
HETATM    9  C   UNL     1     -10.927   8.510  72.236  1.00  0.00    -0.426 C  
BRANCH   9  10
HETATM   10  C   UNL     1     -10.504   7.066  71.835  1.00  0.00    -0.200 C  
HETATM   11  P   UNL     1      -9.329   6.509  73.122  1.00  0.00    -0.138 P  
HETATM   12  P   UNL     1      -9.792   7.009  70.142  1.00  0.00    -0.174 P  
HETATM   13  O   UNL     1     -11.710   6.228  71.848  1.00  0.00    -0.310 OA 
HETATM   14  O   UNL     1      -8.928   8.350  69.962  1.00  0.00    -0.135 OA 
HETATM   15  O   UNL     1      -9.050   5.827  69.620  1.00  0.00    -0.132 OA 
HETATM   16  O   UNL     1     -11.039   7.315  69.168  1.00  0.00    -0.125 OA 
HETATM   17  O   UNL     1     -10.649   6.079  74.036  1.00  0.00    -0.269 OA 
HETATM   18  O   UNL     1      -9.228   5.047  72.386  1.00  0.00    -0.132 OA 
HETATM   19  O   UNL     1      -8.336   6.036  74.212  1.00  0.00    -0.108 OA 
HETATM   20  H   UNL     1     -11.452   5.347  71.603  1.00  0.00     0.000 HD 
ENDBRANCH   9  10
ENDBRANCH   8   9
ENDBRANCH   6   8
ENDBRANCH   5   6
ENDBRANCH   4   5
ENDBRANCH   3   4
ENDBRANCH   2   3
TORSDOF 7
ENDMDL
MODEL      187
REMARK 921   NORMALIZED FREE ENERGY PREDICTED BY IDOCK:   -3.16 KCAL/MOL
REMARK 922        TOTAL FREE ENERGY PREDICTED BY IDOCK:   -5.14 KCAL/MOL
REMARK 923 INTER-LIGAND FREE ENERGY PREDICTED BY IDOCK:   -4.19 KCAL/MOL
REMARK 924 INTRA-LIGAND FREE ENERGY PREDICTED BY IDOCK:   -0.95 KCAL/MOL
REMARK 927      BINDING AFFINITY PREDICTED BY RF-SCORE:    0.00 PKD
ROOT
HETATM    1  C   UNL     1      -7.912   7.210  73.069  1.00  0.00    -0.115 C  
HETATM    2  C   UNL     1      -9.101   8.092  73.411  1.00  0.00    -0.340 C  
ENDROOT
BRANCH   2   3
HETATM    3  C   UNL     1     -10.400   7.291  73.424  1.00  0.00    -0.410 C  
BRANCH   3   4
HETATM    4  C   UNL     1     -11.540   8.086  72.786  1.00  0.00    -0.390 C  
BRANCH   4   5
HETATM    5  C   UNL     1     -11.577   7.828  71.271  1.00  0.00    -0.277 C  
BRANCH   5   6
HETATM    6  N   UNL     1     -11.754   9.041  70.444  1.00  0.00    -0.138 NA 
HETATM    7  C   UNL     1     -12.207  10.173  71.268  1.00  0.00    -0.398 C  
BRANCH   6   8
HETATM    8  C   UNL     1     -10.474   9.421  69.805  1.00  0.00    -0.226 C  
BRANCH   8   9
HETATM    9  C   UNL     1      -9.545   8.238  69.500  1.00  0.00    -0.171 C  
BRANCH   9  10
HETATM   10  C   UNL     1      -9.763   7.558  68.116  1.00  0.00    -0.154 C  
HETATM   11  P   UNL     1      -9.147   5.844  68.293  1.00  0.00    -0.117 P  
HETATM   12  P   UNL     1      -8.930   8.482  66.764  1.00  0.00    -0.164 P  
HETATM   13  O   UNL     1     -11.206   7.556  67.842  1.00  0.00    -0.464 OA 
HETATM   14  O   UNL     1      -7.542   9.022  67.363  1.00  0.00    -0.088 OA 
HETATM   15  O   UNL     1      -8.732   7.911  65.401  1.00  0.00    -0.137 OA 
HETATM   16  O   UNL     1      -9.764   9.855  66.638  1.00  0.00    -0.178 OA 
HETATM   17  O   UNL     1     -10.630   5.456  68.936  1.00  0.00    -0.202 OA 
HETATM   18  O   UNL     1      -9.611   5.526  66.753  1.00  0.00    -0.131 OA 
HETATM   19  O   UNL     1      -8.627   4.393  68.443  1.00  0.00    -0.092 OA 
HETATM   20  H   UNL     1     -11.338   7.141  66.998  1.00  0.00     0.000 HD 
ENDBRANCH   9  10
ENDBRANCH   8   9
ENDBRANCH   6   8
ENDBRANCH   5   6
ENDBRANCH   4   5
ENDBRANCH   3   4
ENDBRANCH   2   3
TORSDOF 7
ENDMDL
MODEL      188
REMARK 921   NORMALIZED FREE ENERGY PREDICTED BY IDOCK:   -3.16 KCAL/MOL
REMARK 922        TOTAL FREE ENERGY PREDICTED BY IDOCK:   -5.14 KCAL/MOL
REMARK 923 INTER-LIGAND FREE ENERGY PREDICTED BY IDOCK:   -4.61 KCAL/MOL
REMARK 924 INTRA-LIGAND FREE ENERGY PREDICTED BY IDOCK:   -0.52 KCAL/MOL
REMARK 927      BINDING AFFINITY PREDICTED BY RF-SCORE:    0.00 PKD
ROOT
HETATM    1  C   UNL     1      -7.553  10.335  65.638  1.00  0.00    -0.148 C  
HETATM    2  C   UNL     1      -8.673   9.472  65.082  1.00  0.00    -0.200 C  
ENDROOT
BRANCH   2   3
HETATM    3  C   UNL     1     -10.041  10.089  65.361  1.00  0.00    -0.317 C  
BRANCH   3   4
HETATM    4  C   UNL     1      -9.963  11.096  66.510  1.00  0.00    -0.252 C  
BRANCH   4   5
HETATM    5  C   UNL     1     -11.157  10.905  67.459  1.00  0.00    -0.310 C  
BRANCH   5   6
HETATM    6  N   UNL     1     -10.925  11.373  68.843  1.00  0.00    -0.212 NA 
HETATM    7  C   UNL     1     -11.774  12.536  69.148  1.00  0.00    -0.321 C  
BRANCH   6   8
HETATM    8  C   UNL     1     -11.249  10.300  69.811  1.00  0.00    -0.282 C  
BRANCH   8   9
HETATM    9  C   UNL     1     -10.684   8.923  69.438  1.00  0.00    -0.192 C  
BRANCH   9  10
HETATM   10  C   UNL     1     -10.581   7.904  70.611  1.00  0.00    -0.219 C  
HETATM   11  P   UNL     1     -11.825   8.428  71.846  1.00  0.00    -0.393 P  
HETATM   12  P   UNL     1      -8.878   7.826  71.299  1.00  0.00    -0.140 P  
HETATM   13  O   UNL     1     -10.916   6.577  70.080  1.00  0.00    -0.261 OA 
HETATM   14  O   UNL     1      -8.302   9.324  71.272  1.00  0.00    -0.317 OA 
HETATM   15  O   UNL     1      -8.563   7.160  72.594  1.00  0.00    -0.117 OA 
HETATM   16  O   UNL     1      -8.002   7.140  70.133  1.00  0.00    -0.109 OA 
HETATM   17  O   UNL     1     -12.951   7.590  70.958  1.00  0.00    -0.234 OA 
HETATM   18  O   UNL     1     -11.436   7.135  72.775  1.00  0.00    -0.266 OA 
HETATM   19  O   UNL     1     -12.879   8.871  72.891  1.00  0.00    -0.321 OA 
HETATM   20  H   UNL     1     -10.853   5.955  70.796  1.00  0.00     0.000 HD 
ENDBRANCH   9  10
ENDBRANCH   8   9
ENDBRANCH   6   8
ENDBRANCH   5   6
ENDBRANCH   4   5
ENDBRANCH   3   4
ENDBRANCH   2   3
TORSDOF 7
ENDMDL
MODEL      189
REMARK 921   NORMALIZED FREE ENERGY PREDICTED BY IDOCK:   -3.14 KCAL/MOL
REMARK 922        TOTAL FREE ENERGY PREDICTED BY IDOCK:   -5.11 KCAL/MOL
REMARK 923 INTER-LIGAND FREE ENERGY PREDICTED BY IDOCK:   -4.59 KCAL/MOL
REMARK 924 INTRA-LIGAND FREE ENERGY PREDICTED BY IDOCK:   -0.52 KCAL/MOL
REMARK 927      BINDING AFFINITY PREDICTED BY RF-SCORE:    0.00 PKD
ROOT
HETATM    1  C   UNL     1     -11.902  14.522  67.434  1.00  0.00    -0.416 C  
HETATM    2  C   UNL     1     -11.959  13.732  68.731  1.00  0.00    -0.400 C  
ENDROOT
BRANCH   2   3
HETATM    3  C   UNL     1     -10.921  12.613  68.747  1.00  0.00    -0.289 C  
BRANCH   3   4
HETATM    4  C   UNL     1     -11.574  11.256  68.482  1.00  0.00    -0.384 C  
BRANCH   4   5
HETATM    5  C   UNL     1     -11.062  10.219  69.494  1.00  0.00    -0.262 C  
BRANCH   5   6
HETATM    6  N   UNL     1     -10.502   8.991  68.888  1.00  0.00    -0.219 NA 
HETATM    7  C   UNL     1     -10.324   9.160  67.437  1.00  0.00    -0.264 C  
BRANCH   6   8
HETATM    8  C   UNL     1      -9.181   8.680  69.480  1.00  0.00    -0.150 C  
BRANCH   8   9
HETATM    9  C   UNL     1      -9.131   7.352  70.248  1.00  0.00    -0.151 C  
BRANCH   9  10
HETATM   10  C   UNL     1      -8.920   7.478  71.786  1.00  0.00    -0.122 C  
HETATM   11  P   UNL     1      -7.549   6.340  72.202  1.00  0.00    -0.096 P  
HETATM   12  P   UNL     1     -10.461   7.114  72.718  1.00  0.00    -0.303 P  
HETATM   13  O   UNL     1      -8.535   8.866  72.071  1.00  0.00    -0.367 OA 
HETATM   14  O   UNL     1     -11.195   5.915  71.943  1.00  0.00    -0.268 OA 
HETATM   15  O   UNL     1     -10.475   6.880  74.190  1.00  0.00    -0.357 OA 
HETATM   16  O   UNL     1     -11.441   8.347  72.376  1.00  0.00    -0.367 OA 
HETATM   17  O   UNL     1      -6.504   7.555  71.761  1.00  0.00    -0.042 OA 
HETATM   18  O   UNL     1      -7.628   6.828  73.765  1.00  0.00    -0.082 OA 
HETATM   19  O   UNL     1      -6.388   5.377  72.554  1.00  0.00    -0.047 OA 
HETATM   20  H   UNL     1      -8.406   8.943  73.009  1.00  0.00     0.000 HD 
ENDBRANCH   9  10
ENDBRANCH   8   9
ENDBRANCH   6   8
ENDBRANCH   5   6
ENDBRANCH   4   5
ENDBRANCH   3   4
ENDBRANCH   2   3
TORSDOF 7
ENDMDL
MODEL      190
REMARK 921   NORMALIZED FREE ENERGY PREDICTED BY IDOCK:   -3.14 KCAL/MOL
REMARK 922        TOTAL FREE ENERGY PREDICTED BY IDOCK:   -5.10 KCAL/MOL
REMARK 923 INTER-LIGAND FREE ENERGY PREDICTED BY IDOCK:   -4.63 KCAL/MOL
REMARK 924 INTRA-LIGAND FREE ENERGY PREDICTED BY IDOCK:   -0.48 KCAL/MOL
REMARK 927      BINDING AFFINITY PREDICTED BY RF-SCORE:    0.00 PKD
ROOT
HETATM    1  C   UNL     1      -7.377  10.147  65.245  1.00  0.00    -0.141 C  
HETATM    2  C   UNL     1      -8.456  10.348  66.295  1.00  0.00    -0.145 C  
ENDROOT
BRANCH   2   3
HETATM    3  C   UNL     1      -9.781   9.732  65.855  1.00  0.00    -0.332 C  
BRANCH   3   4
HETATM    4  C   UNL     1     -10.417   8.930  66.991  1.00  0.00    -0.326 C  
BRANCH   4   5
HETATM    5  C   UNL     1      -9.708   7.574  67.139  1.00  0.00    -0.173 C  
BRANCH   5   6
HETATM    6  N   UNL     1     -10.581   6.467  67.587  1.00  0.00    -0.231 NA 
HETATM    7  C   UNL     1     -10.407   5.286  66.727  1.00  0.00    -0.273 C  
BRANCH   6   8
HETATM    8  C   UNL     1     -10.249   6.078  68.976  1.00  0.00    -0.193 C  
BRANCH   8   9
HETATM    9  C   UNL     1     -11.408   6.239  69.970  1.00  0.00    -0.486 C  
BRANCH   9  10
HETATM   10  C   UNL     1     -11.062   7.006  71.280  1.00  0.00    -0.252 C  
HETATM   11  P   UNL     1      -9.826   8.272  70.813  1.00  0.00    -0.188 P  
HETATM   12  P   UNL     1     -10.464   5.873  72.597  1.00  0.00    -0.233 P  
HETATM   13  O   UNL     1     -12.293   7.648  71.759  1.00  0.00    -0.299 OA 
HETATM   14  O   UNL     1      -9.567   4.757  71.870  1.00  0.00    -0.142 OA 
HETATM   15  O   UNL     1      -9.799   6.361  73.838  1.00  0.00    -0.184 OA 
HETATM   16  O   UNL     1     -11.760   5.007  73.005  1.00  0.00    -0.297 OA 
HETATM   17  O   UNL     1     -11.098   9.237  70.351  1.00  0.00    -0.238 OA 
HETATM   18  O   UNL     1      -9.824   8.828  72.355  1.00  0.00    -0.284 OA 
HETATM   19  O   UNL     1      -8.781   9.344  70.417  1.00  0.00    -0.208 OA 
HETATM   20  H   UNL     1     -12.082   8.116  72.558  1.00  0.00     0.000 HD 
ENDBRANCH   9  10
ENDBRANCH   8   9
ENDBRANCH   6   8
ENDBRANCH   5   6
ENDBRANCH   4   5
ENDBRANCH   3   4
ENDBRANCH   2   3
TORSDOF 7
ENDMDL
MODEL      191
REMARK 921   NORMALIZED FREE ENERGY PREDICTED BY IDOCK:   -3.12 KCAL/MOL
REMARK 922        TOTAL FREE ENERGY PREDICTED BY IDOCK:   -5.08 KCAL/MOL
REMARK 923 INTER-LIGAND FREE ENERGY PREDICTED BY IDOCK:   -4.38 KCAL/MOL
REMARK 924 INTRA-LIGAND FREE ENERGY PREDICTED BY IDOCK:   -0.70 KCAL/MOL
REMARK 927      BINDING AFFINITY PREDICTED BY RF-SCORE:    0.00 PKD
ROOT
HETATM    1  C   UNL     1     -10.847  16.432  68.874  1.00  0.00    -0.334 C  
HETATM    2  C   UNL     1      -9.751  15.403  69.089  1.00  0.00    -0.252 C  
ENDROOT
BRANCH   2   3
HETATM    3  C   UNL     1      -9.903  14.222  68.134  1.00  0.00    -0.226 C  
BRANCH   3   4
HETATM    4  C   UNL     1     -11.352  14.079  67.666  1.00  0.00    -0.336 C  
BRANCH   4   5
HETATM    5  C   UNL     1     -11.906  12.706  68.079  1.00  0.00    -0.323 C  
BRANCH   5   6
HETATM    6  N   UNL     1     -11.653  12.338  69.489  1.00  0.00    -0.301 NA 
HETATM    7  C   UNL     1     -12.581  13.044  70.387  1.00  0.00    -0.095 C  
BRANCH   6   8
HETATM    8  C   UNL     1     -11.842  10.883  69.683  1.00  0.00    -0.344 C  
BRANCH   8   9
HETATM    9  C   UNL     1     -10.567  10.128  70.082  1.00  0.00    -0.337 C  
BRANCH   9  10
HETATM   10  C   UNL     1     -10.013   9.141  69.013  1.00  0.00    -0.184 C  
HETATM   11  P   UNL     1      -9.647   7.585  69.903  1.00  0.00    -0.159 P  
HETATM   12  P   UNL     1      -8.548   9.830  68.143  1.00  0.00    -0.118 P  
HETATM   13  O   UNL     1     -11.070   8.923  68.017  1.00  0.00    -0.488 OA 
HETATM   14  O   UNL     1      -7.698  10.635  69.241  1.00  0.00    -0.130 OA 
HETATM   15  O   UNL     1      -7.655   8.999  67.287  1.00  0.00    -0.087 OA 
HETATM   16  O   UNL     1      -9.135  11.044  67.260  1.00  0.00    -0.138 OA 
HETATM   17  O   UNL     1     -11.251   7.190  69.720  1.00  0.00    -0.243 OA 
HETATM   18  O   UNL     1      -9.203   6.888  68.487  1.00  0.00    -0.131 OA 
HETATM   19  O   UNL     1      -9.338   6.268  70.655  1.00  0.00    -0.160 OA 
HETATM   20  H   UNL     1     -10.732   8.321  67.364  1.00  0.00     0.000 HD 
ENDBRANCH   9  10
ENDBRANCH   8   9
ENDBRANCH   6   8
ENDBRANCH   5   6
ENDBRANCH   4   5
ENDBRANCH   3   4
ENDBRANCH   2   3
TORSDOF 7
ENDMDL
MODEL      192
REMARK 921   NORMALIZED FREE ENERGY PREDICTED BY IDOCK:   -3.12 KCAL/MOL
REMARK 922        TOTAL FREE ENERGY PREDICTED BY IDOCK:   -5.07 KCAL/MOL
REMARK 923 INTER-LIGAND FREE ENERGY PREDICTED BY IDOCK:   -4.60 KCAL/MOL
REMARK 924 INTRA-LIGAND FREE ENERGY PREDICTED BY IDOCK:   -0.48 KCAL/MOL
REMARK 927      BINDING AFFINITY PREDICTED BY RF-SCORE:    0.00 PKD
ROOT
HETATM    1  C   UNL     1     -11.047  15.383  64.839  1.00  0.00    -0.435 C  
HETATM    2  C   UNL     1     -10.576  13.976  65.169  1.00  0.00    -0.400 C  
ENDROOT
BRANCH   2   3
HETATM    3  C   UNL     1     -11.199  13.473  66.468  1.00  0.00    -0.322 C  
BRANCH   3   4
HETATM    4  C   UNL     1     -11.395  11.957  66.430  1.00  0.00    -0.400 C  
BRANCH   4   5
HETATM    5  C   UNL     1     -10.760  11.375  65.157  1.00  0.00    -0.269 C  
BRANCH   5   6
HETATM    6  N   UNL     1      -9.921  10.178  65.378  1.00  0.00    -0.307 NA 
HETATM    7  C   UNL     1      -8.543  10.414  64.918  1.00  0.00    -0.182 C  
BRANCH   6   8
HETATM    8  C   UNL     1      -9.872   9.841  66.819  1.00  0.00    -0.208 C  
BRANCH   8   9
HETATM    9  C   UNL     1     -10.672   8.588  67.201  1.00  0.00    -0.209 C  
BRANCH   9  10
HETATM   10  C   UNL     1     -10.130   7.799  68.429  1.00  0.00    -0.192 C  
HETATM   11  P   UNL     1      -9.077   8.971  69.359  1.00  0.00    -0.155 P  
HETATM   12  P   UNL     1      -9.233   6.278  67.921  1.00  0.00    -0.113 P  
HETATM   13  O   UNL     1     -11.284   7.394  69.243  1.00  0.00    -0.445 OA 
HETATM   14  O   UNL     1      -8.428   6.645  66.582  1.00  0.00    -0.113 OA 
HETATM   15  O   UNL     1      -8.376   5.498  68.857  1.00  0.00    -0.101 OA 
HETATM   16  O   UNL     1     -10.379   5.309  67.333  1.00  0.00    -0.200 OA 
HETATM   17  O   UNL     1     -10.465   9.530  70.082  1.00  0.00    -0.217 OA 
HETATM   18  O   UNL     1      -8.816   7.822  70.498  1.00  0.00    -0.142 OA 
HETATM   19  O   UNL     1      -8.186   9.963  70.145  1.00  0.00    -0.186 OA 
HETATM   20  H   UNL     1     -10.953   6.912  69.993  1.00  0.00     0.000 HD 
ENDBRANCH   9  10
ENDBRANCH   8   9
ENDBRANCH   6   8
ENDBRANCH   5   6
ENDBRANCH   4   5
ENDBRANCH   3   4
ENDBRANCH   2   3
TORSDOF 7
ENDMDL
MODEL      193
REMARK 921   NORMALIZED FREE ENERGY PREDICTED BY IDOCK:   -3.11 KCAL/MOL
REMARK 922        TOTAL FREE ENERGY PREDICTED BY IDOCK:   -5.07 KCAL/MOL
REMARK 923 INTER-LIGAND FREE ENERGY PREDICTED BY IDOCK:   -4.50 KCAL/MOL
REMARK 924 INTRA-LIGAND FREE ENERGY PREDICTED BY IDOCK:   -0.57 KCAL/MOL
REMARK 927      BINDING AFFINITY PREDICTED BY RF-SCORE:    0.00 PKD
ROOT
HETATM    1  C   UNL     1      -8.773   2.767  63.503  1.00  0.00    -0.085 C  
HETATM    2  C   UNL     1     -10.053   3.315  64.111  1.00  0.00    -0.175 C  
ENDROOT
BRANCH   2   3
HETATM    3  C   UNL     1      -9.761   4.438  65.102  1.00  0.00    -0.186 C  
BRANCH   3   4
HETATM    4  C   UNL     1      -9.653   3.896  66.528  1.00  0.00    -0.211 C  
BRANCH   4   5
HETATM    5  C   UNL     1      -9.786   5.045  67.539  1.00  0.00    -0.157 C  
BRANCH   5   6
HETATM    6  N   UNL     1      -9.548   4.657  68.947  1.00  0.00    -0.154 NA 
HETATM    7  C   UNL     1      -8.202   5.065  69.380  1.00  0.00    -0.082 C  
BRANCH   6   8
HETATM    8  C   UNL     1     -10.535   5.312  69.835  1.00  0.00    -0.281 C  
BRANCH   8   9
HETATM    9  C   UNL     1      -9.951   6.422  70.719  1.00  0.00    -0.212 C  
BRANCH   9  10
HETATM   10  C   UNL     1     -10.512   7.850  70.455  1.00  0.00    -0.218 C  
HETATM   11  P   UNL     1      -9.066   8.972  70.466  1.00  0.00    -0.257 P  
HETATM   12  P   UNL     1     -11.792   8.319  71.688  1.00  0.00    -0.341 P  
HETATM   13  O   UNL     1     -11.142   7.844  69.128  1.00  0.00    -0.431 OA 
HETATM   14  O   UNL     1     -11.313   7.718  73.098  1.00  0.00    -0.374 OA 
HETATM   15  O   UNL     1     -12.283   9.717  71.847  1.00  0.00    -0.376 OA 
HETATM   16  O   UNL     1     -13.044   7.360  71.356  1.00  0.00    -0.364 OA 
HETATM   17  O   UNL     1      -8.826   8.559  68.875  1.00  0.00    -0.137 OA 
HETATM   18  O   UNL     1     -10.050  10.232  70.103  1.00  0.00    -0.208 OA 
HETATM   19  O   UNL     1      -7.843   9.920  70.475  1.00  0.00    -0.246 OA 
HETATM   20  H   UNL     1     -11.485   8.715  68.967  1.00  0.00     0.000 HD 
ENDBRANCH   9  10
ENDBRANCH   8   9
ENDBRANCH   6   8
ENDBRANCH   5   6
ENDBRANCH   4   5
ENDBRANCH   3   4
ENDBRANCH   2   3
TORSDOF 7
ENDMDL
MODEL      194
REMARK 921   NORMALIZED FREE ENERGY PREDICTED BY IDOCK:   -3.11 KCAL/MOL
REMARK 922        TOTAL FREE ENERGY PREDICTED BY IDOCK:   -5.07 KCAL/MOL
REMARK 923 INTER-LIGAND FREE ENERGY PREDICTED BY IDOCK:   -4.26 KCAL/MOL
REMARK 924 INTRA-LIGAND FREE ENERGY PREDICTED BY IDOCK:   -0.80 KCAL/MOL
REMARK 927      BINDING AFFINITY PREDICTED BY RF-SCORE:    0.00 PKD
ROOT
HETATM    1  C   UNL     1      -9.931  16.675  65.880  1.00  0.00    -0.320 C  
HETATM    2  C   UNL     1     -10.219  16.696  67.371  1.00  0.00    -0.286 C  
ENDROOT
BRANCH   2   3
HETATM    3  C   UNL     1      -9.485  15.571  68.095  1.00  0.00    -0.198 C  
BRANCH   3   4
HETATM    4  C   UNL     1      -8.780  14.648  67.101  1.00  0.00    -0.242 C  
BRANCH   4   5
HETATM    5  C   UNL     1      -9.364  13.230  67.193  1.00  0.00    -0.240 C  
BRANCH   5   6
HETATM    6  N   UNL     1     -10.841  13.174  67.255  1.00  0.00    -0.254 NA 
HETATM    7  C   UNL     1     -11.414  13.032  65.908  1.00  0.00    -0.337 C  
BRANCH   6   8
HETATM    8  C   UNL     1     -11.279  12.015  68.066  1.00  0.00    -0.258 C  
BRANCH   8   9
HETATM    9  C   UNL     1     -10.136  11.261  68.758  1.00  0.00    -0.204 C  
BRANCH   9  10
HETATM   10  C   UNL     1     -10.066   9.734  68.460  1.00  0.00    -0.166 C  
HETATM   11  P   UNL     1      -9.609   8.931  70.040  1.00  0.00    -0.200 P  
HETATM   12  P   UNL     1      -8.890   9.357  67.099  1.00  0.00    -0.127 P  
HETATM   13  O   UNL     1     -11.404   9.301  68.036  1.00  0.00    -0.444 OA 
HETATM   14  O   UNL     1      -7.649  10.361  67.273  1.00  0.00    -0.094 OA 
HETATM   15  O   UNL     1      -8.416   7.976  66.804  1.00  0.00    -0.122 OA 
HETATM   16  O   UNL     1      -9.591   9.962  65.780  1.00  0.00    -0.209 OA 
HETATM   17  O   UNL     1     -11.221   8.978  70.444  1.00  0.00    -0.254 OA 
HETATM   18  O   UNL     1      -9.722   7.464  69.318  1.00  0.00    -0.163 OA 
HETATM   19  O   UNL     1      -9.224   8.252  71.377  1.00  0.00    -0.145 OA 
HETATM   20  H   UNL     1     -11.361   8.369  67.854  1.00  0.00     0.000 HD 
ENDBRANCH   9  10
ENDBRANCH   8   9
ENDBRANCH   6   8
ENDBRANCH   5   6
ENDBRANCH   4   5
ENDBRANCH   3   4
ENDBRANCH   2   3
TORSDOF 7
ENDMDL
MODEL      195
REMARK 921   NORMALIZED FREE ENERGY PREDICTED BY IDOCK:   -3.11 KCAL/MOL
REMARK 922        TOTAL FREE ENERGY PREDICTED BY IDOCK:   -5.06 KCAL/MOL
REMARK 923 INTER-LIGAND FREE ENERGY PREDICTED BY IDOCK:   -4.46 KCAL/MOL
REMARK 924 INTRA-LIGAND FREE ENERGY PREDICTED BY IDOCK:   -0.60 KCAL/MOL
REMARK 927      BINDING AFFINITY PREDICTED BY RF-SCORE:    0.00 PKD
ROOT
HETATM    1  C   UNL     1     -12.543   8.511  72.676  1.00  0.00    -0.257 C  
HETATM    2  C   UNL     1     -13.179   9.610  71.841  1.00  0.00    -0.538 C  
ENDROOT
BRANCH   2   3
HETATM    3  C   UNL     1     -12.138  10.333  70.990  1.00  0.00    -0.487 C  
BRANCH   3   4
HETATM    4  C   UNL     1     -10.809   9.577  70.990  1.00  0.00    -0.423 C  
BRANCH   4   5
HETATM    5  C   UNL     1     -10.113   9.737  69.629  1.00  0.00    -0.229 C  
BRANCH   5   6
HETATM    6  N   UNL     1     -10.924   9.313  68.468  1.00  0.00    -0.062 NA 
HETATM    7  C   UNL     1     -10.953  10.365  67.439  1.00  0.00    -0.270 C  
BRANCH   6   8
HETATM    8  C   UNL     1     -10.353   8.090  67.859  1.00  0.00    -0.222 C  
BRANCH   8   9
HETATM    9  C   UNL     1      -9.137   7.522  68.604  1.00  0.00    -0.134 C  
BRANCH   9  10
HETATM   10  C   UNL     1      -9.054   5.969  68.660  1.00  0.00    -0.116 C  
HETATM   11  P   UNL     1      -9.969   5.361  67.197  1.00  0.00    -0.217 P  
HETATM   12  P   UNL     1      -9.712   5.306  70.243  1.00  0.00    -0.233 P  
HETATM   13  O   UNL     1      -7.636   5.594  68.567  1.00  0.00    -0.082 OA 
HETATM   14  O   UNL     1     -10.976   6.217  70.631  1.00  0.00    -0.273 OA 
HETATM   15  O   UNL     1     -10.016   3.862  70.447  1.00  0.00    -0.162 OA 
HETATM   16  O   UNL     1      -8.642   5.776  71.354  1.00  0.00    -0.127 OA 
HETATM   17  O   UNL     1      -8.579   5.600  66.319  1.00  0.00    -0.120 OA 
HETATM   18  O   UNL     1      -9.578   3.821  67.601  1.00  0.00    -0.191 OA 
HETATM   19  O   UNL     1     -10.743   4.846  65.959  1.00  0.00    -0.316 OA 
HETATM   20  H   UNL     1      -7.586   4.647  68.601  1.00  0.00     0.000 HD 
ENDBRANCH   9  10
ENDBRANCH   8   9
ENDBRANCH   6   8
ENDBRANCH   5   6
ENDBRANCH   4   5
ENDBRANCH   3   4
ENDBRANCH   2   3
TORSDOF 7
ENDMDL
MODEL      196
REMARK 921   NORMALIZED FREE ENERGY PREDICTED BY IDOCK:   -3.09 KCAL/MOL
REMARK 922        TOTAL FREE ENERGY PREDICTED BY IDOCK:   -5.04 KCAL/MOL
REMARK 923 INTER-LIGAND FREE ENERGY PREDICTED BY IDOCK:   -4.61 KCAL/MOL
REMARK 924 INTRA-LIGAND FREE ENERGY PREDICTED BY IDOCK:   -0.43 KCAL/MOL
REMARK 927      BINDING AFFINITY PREDICTED BY RF-SCORE:    0.00 PKD
ROOT
HETATM    1  C   UNL     1      -7.564   6.853  73.341  1.00  0.00    -0.085 C  
HETATM    2  C   UNL     1      -9.030   7.060  73.682  1.00  0.00    -0.188 C  
ENDROOT
BRANCH   2   3
HETATM    3  C   UNL     1      -9.781   5.732  73.732  1.00  0.00    -0.163 C  
BRANCH   3   4
HETATM    4  C   UNL     1     -11.014   5.766  72.828  1.00  0.00    -0.314 C  
BRANCH   4   5
HETATM    5  C   UNL     1     -10.616   5.434  71.382  1.00  0.00    -0.212 C  
BRANCH   5   6
HETATM    6  N   UNL     1     -11.169   6.353  70.363  1.00  0.00    -0.343 NA 
HETATM    7  C   UNL     1     -12.396   7.000  70.856  1.00  0.00    -0.314 C  
BRANCH   6   8
HETATM    8  C   UNL     1     -10.189   7.413  70.039  1.00  0.00    -0.209 C  
BRANCH   8   9
HETATM    9  C   UNL     1     -10.661   8.402  68.964  1.00  0.00    -0.172 C  
BRANCH   9  10
HETATM   10  C   UNL     1     -10.247   9.885  69.194  1.00  0.00    -0.205 C  
HETATM   11  P   UNL     1     -11.220  10.872  67.998  1.00  0.00    -0.291 P  
HETATM   12  P   UNL     1      -8.434  10.124  69.013  1.00  0.00    -0.171 P  
HETATM   13  O   UNL     1     -10.616  10.243  70.570  1.00  0.00    -0.409 OA 
HETATM   14  O   UNL     1      -7.963   9.169  67.812  1.00  0.00    -0.100 OA 
HETATM   15  O   UNL     1      -7.807  11.471  68.896  1.00  0.00    -0.131 OA 
HETATM   16  O   UNL     1      -7.797   9.361  70.281  1.00  0.00    -0.119 OA 
HETATM   17  O   UNL     1     -12.464  10.843  69.099  1.00  0.00    -0.409 OA 
HETATM   18  O   UNL     1     -10.566  12.245  68.611  1.00  0.00    -0.228 OA 
HETATM   19  O   UNL     1     -12.043  11.707  66.987  1.00  0.00    -0.547 OA 
HETATM   20  H   UNL     1     -10.364  11.148  70.710  1.00  0.00     0.000 HD 
ENDBRANCH   9  10
ENDBRANCH   8   9
ENDBRANCH   6   8
ENDBRANCH   5   6
ENDBRANCH   4   5
ENDBRANCH   3   4
ENDBRANCH   2   3
TORSDOF 7
ENDMDL
MODEL      197
REMARK 921   NORMALIZED FREE ENERGY PREDICTED BY IDOCK:   -3.09 KCAL/MOL
REMARK 922        TOTAL FREE ENERGY PREDICTED BY IDOCK:   -5.04 KCAL/MOL
REMARK 923 INTER-LIGAND FREE ENERGY PREDICTED BY IDOCK:   -4.49 KCAL/MOL
REMARK 924 INTRA-LIGAND FREE ENERGY PREDICTED BY IDOCK:   -0.55 KCAL/MOL
REMARK 927      BINDING AFFINITY PREDICTED BY RF-SCORE:    0.00 PKD
ROOT
HETATM    1  C   UNL     1     -11.363  12.815  65.418  1.00  0.00    -0.339 C  
HETATM    2  C   UNL     1     -11.433  11.866  64.234  1.00  0.00    -0.423 C  
ENDROOT
BRANCH   2   3
HETATM    3  C   UNL     1     -10.039  11.513  63.722  1.00  0.00    -0.407 C  
BRANCH   3   4
HETATM    4  C   UNL     1      -9.523  10.231  64.376  1.00  0.00    -0.360 C  
BRANCH   4   5
HETATM    5  C   UNL     1      -8.169  10.494  65.055  1.00  0.00    -0.120 C  
BRANCH   5   6
HETATM    6  N   UNL     1      -8.167  10.305  66.521  1.00  0.00    -0.124 NA 
HETATM    7  C   UNL     1      -8.500  11.561  67.210  1.00  0.00    -0.152 C  
BRANCH   6   8
HETATM    8  C   UNL     1      -9.170   9.287  66.911  1.00  0.00    -0.144 C  
BRANCH   8   9
HETATM    9  C   UNL     1      -8.698   8.324  68.009  1.00  0.00    -0.135 C  
BRANCH   9  10
HETATM   10  C   UNL     1      -9.826   7.714  68.892  1.00  0.00    -0.164 C  
HETATM   11  P   UNL     1      -9.627   8.458  70.552  1.00  0.00    -0.180 P  
HETATM   12  P   UNL     1      -9.755   5.878  68.916  1.00  0.00    -0.152 P  
HETATM   13  O   UNL     1     -11.114   8.110  68.307  1.00  0.00    -0.427 OA 
HETATM   14  O   UNL     1      -8.200   5.478  68.930  1.00  0.00    -0.097 OA 
HETATM   15  O   UNL     1     -10.522   5.056  69.895  1.00  0.00    -0.280 OA 
HETATM   16  O   UNL     1     -10.172   5.437  67.424  1.00  0.00    -0.176 OA 
HETATM   17  O   UNL     1     -10.498   9.758  69.993  1.00  0.00    -0.231 OA 
HETATM   18  O   UNL     1     -10.957   7.650  71.065  1.00  0.00    -0.240 OA 
HETATM   19  O   UNL     1      -9.459   9.088  71.956  1.00  0.00    -0.339 OA 
HETATM   20  H   UNL     1     -11.802   7.738  68.846  1.00  0.00     0.000 HD 
ENDBRANCH   9  10
ENDBRANCH   8   9
ENDBRANCH   6   8
ENDBRANCH   5   6
ENDBRANCH   4   5
ENDBRANCH   3   4
ENDBRANCH   2   3
TORSDOF 7
ENDMDL
MODEL      198
REMARK 921   NORMALIZED FREE ENERGY PREDICTED BY IDOCK:   -3.07 KCAL/MOL
REMARK 922        TOTAL FREE ENERGY PREDICTED BY IDOCK:   -5.00 KCAL/MOL
REMARK 923 INTER-LIGAND FREE ENERGY PREDICTED BY IDOCK:   -4.26 KCAL/MOL
REMARK 924 INTRA-LIGAND FREE ENERGY PREDICTED BY IDOCK:   -0.74 KCAL/MOL
REMARK 927      BINDING AFFINITY PREDICTED BY RF-SCORE:    0.00 PKD
ROOT
HETATM    1  C   UNL     1     -10.545   8.953  67.300  1.00  0.00    -0.304 C  
HETATM    2  C   UNL     1      -9.051   9.153  67.108  1.00  0.00    -0.146 C  
ENDROOT
BRANCH   2   3
HETATM    3  C   UNL     1      -8.287   8.919  68.408  1.00  0.00    -0.125 C  
BRANCH   3   4
HETATM    4  C   UNL     1      -7.047   9.810  68.483  1.00  0.00    -0.068 C  
BRANCH   4   5
HETATM    5  C   UNL     1      -7.375  11.107  69.238  1.00  0.00    -0.097 C  
BRANCH   5   6
HETATM    6  N   UNL     1      -6.730  12.320  68.690  1.00  0.00    -0.076 NA 
HETATM    7  C   UNL     1      -5.951  11.996  67.485  1.00  0.00    -0.110 C  
BRANCH   6   8
HETATM    8  C   UNL     1      -7.753  13.325  68.320  1.00  0.00    -0.141 C  
BRANCH   8   9
HETATM    9  C   UNL     1      -8.428  13.070  66.966  1.00  0.00    -0.142 C  
BRANCH   9  10
HETATM   10  C   UNL     1      -9.643  13.988  66.642  1.00  0.00    -0.289 C  
HETATM   11  P   UNL     1      -9.338  15.561  67.526  1.00  0.00    -0.209 P  
HETATM   12  P   UNL     1     -11.236  13.201  67.110  1.00  0.00    -0.324 P  
HETATM   13  O   UNL     1      -9.658  14.213  65.191  1.00  0.00    -0.542 OA 
HETATM   14  O   UNL     1     -10.970  12.403  68.478  1.00  0.00    -0.222 OA 
HETATM   15  O   UNL     1     -12.518  13.958  67.179  1.00  0.00    -0.289 OA 
HETATM   16  O   UNL     1     -11.406  11.981  66.071  1.00  0.00    -0.329 OA 
HETATM   17  O   UNL     1      -8.397  16.019  66.235  1.00  0.00    -0.308 OA 
HETATM   18  O   UNL     1     -10.712  16.180  66.884  1.00  0.00    -0.314 OA 
HETATM   19  O   UNL     1      -9.079  16.892  68.273  1.00  0.00    -0.221 OA 
HETATM   20  H   UNL     1     -10.400  14.773  64.994  1.00  0.00     0.000 HD 
ENDBRANCH   9  10
ENDBRANCH   8   9
ENDBRANCH   6   8
ENDBRANCH   5   6
ENDBRANCH   4   5
ENDBRANCH   3   4
ENDBRANCH   2   3
TORSDOF 7
ENDMDL
MODEL      199
REMARK 921   NORMALIZED FREE ENERGY PREDICTED BY IDOCK:   -3.06 KCAL/MOL
REMARK 922        TOTAL FREE ENERGY PREDICTED BY IDOCK:   -4.99 KCAL/MOL
REMARK 923 INTER-LIGAND FREE ENERGY PREDICTED BY IDOCK:   -4.75 KCAL/MOL
REMARK 924 INTRA-LIGAND FREE ENERGY PREDICTED BY IDOCK:   -0.25 KCAL/MOL
REMARK 927      BINDING AFFINITY PREDICTED BY RF-SCORE:    0.00 PKD
ROOT
HETATM    1  C   UNL     1      -8.552   8.710  68.390  1.00  0.00    -0.135 C  
HETATM    2  C   UNL     1      -9.838   8.376  67.654  1.00  0.00    -0.222 C  
ENDROOT
BRANCH   2   3
HETATM    3  C   UNL     1     -10.830   9.535  67.716  1.00  0.00    -0.258 C  
BRANCH   3   4
HETATM    4  C   UNL     1     -10.184  10.835  67.236  1.00  0.00    -0.245 C  
BRANCH   4   5
HETATM    5  C   UNL     1     -11.268  11.827  66.786  1.00  0.00    -0.328 C  
BRANCH   5   6
HETATM    6  N   UNL     1     -10.785  13.205  66.556  1.00  0.00    -0.278 NA 
HETATM    7  C   UNL     1     -11.901  14.097  66.201  1.00  0.00    -0.407 C  
BRANCH   6   8
HETATM    8  C   UNL     1     -10.142  13.737  67.779  1.00  0.00    -0.245 C  
BRANCH   8   9
HETATM    9  C   UNL     1      -8.911  14.615  67.514  1.00  0.00    -0.191 C  
BRANCH   9  10
HETATM   10  C   UNL     1      -8.824  15.917  68.363  1.00  0.00    -0.184 C  
HETATM   11  P   UNL     1      -9.512  17.250  67.315  1.00  0.00    -0.262 P  
HETATM   12  P   UNL     1      -7.105  16.256  68.917  1.00  0.00    -0.203 P  
HETATM   13  O   UNL     1      -9.656  15.727  69.558  1.00  0.00    -0.259 OA 
HETATM   14  O   UNL     1      -6.140  15.830  67.707  1.00  0.00    -0.128 OA 
HETATM   15  O   UNL     1      -6.688  17.566  69.491  1.00  0.00    -0.223 OA 
HETATM   16  O   UNL     1      -6.787  15.093  69.987  1.00  0.00    -0.175 OA 
HETATM   17  O   UNL     1     -11.019  16.779  67.834  1.00  0.00    -0.337 OA 
HETATM   18  O   UNL     1      -9.302  18.314  68.545  1.00  0.00    -0.305 OA 
HETATM   19  O   UNL     1     -10.095  18.378  66.429  1.00  0.00    -0.362 OA 
HETATM   20  H   UNL     1      -9.602  16.521  70.076  1.00  0.00     0.000 HD 
ENDBRANCH   9  10
ENDBRANCH   8   9
ENDBRANCH   6   8
ENDBRANCH   5   6
ENDBRANCH   4   5
ENDBRANCH   3   4
ENDBRANCH   2   3
TORSDOF 7
ENDMDL
MODEL      200
REMARK 921   NORMALIZED FREE ENERGY PREDICTED BY IDOCK:   -3.04 KCAL/MOL
REMARK 922        TOTAL FREE ENERGY PREDICTED BY IDOCK:   -4.97 KCAL/MOL
REMARK 923 INTER-LIGAND FREE ENERGY PREDICTED BY IDOCK:   -4.24 KCAL/MOL
REMARK 924 INTRA-LIGAND FREE ENERGY PREDICTED BY IDOCK:   -0.73 KCAL/MOL
REMARK 927      BINDING AFFINITY PREDICTED BY RF-SCORE:    0.00 PKD
ROOT
HETATM    1  C   UNL     1     -12.468  13.509  65.326  1.00  0.00    -0.525 C  
HETATM    2  C   UNL     1     -11.802  13.235  63.988  1.00  0.00    -0.512 C  
ENDROOT
BRANCH   2   3
HETATM    3  C   UNL     1     -11.459  11.756  63.831  1.00  0.00    -0.481 C  
BRANCH   3   4
HETATM    4  C   UNL     1     -10.905  11.181  65.135  1.00  0.00    -0.229 C  
BRANCH   4   5
HETATM    5  C   UNL     1      -9.439  10.762  64.944  1.00  0.00    -0.242 C  
BRANCH   5   6
HETATM    6  N   UNL     1      -8.996   9.652  65.816  1.00  0.00    -0.158 NA 
HETATM    7  C   UNL     1      -8.420   8.559  65.017  1.00  0.00    -0.164 C  
BRANCH   6   8
HETATM    8  C   UNL     1      -7.961  10.123  66.765  1.00  0.00    -0.115 C  
BRANCH   8   9
HETATM    9  C   UNL     1      -8.502  10.515  68.146  1.00  0.00    -0.123 C  
BRANCH   9  10
HETATM   10  C   UNL     1      -8.482   9.384  69.216  1.00  0.00    -0.141 C  
HETATM   11  P   UNL     1     -10.067   9.516  70.121  1.00  0.00    -0.281 P  
HETATM   12  P   UNL     1      -7.016   9.512  70.317  1.00  0.00    -0.128 P  
HETATM   13  O   UNL     1      -8.405   8.100  68.507  1.00  0.00    -0.124 OA 
HETATM   14  O   UNL     1      -6.765  11.078  70.567  1.00  0.00    -0.256 OA 
HETATM   15  O   UNL     1      -6.896   8.746  71.589  1.00  0.00    -0.084 OA 
HETATM   16  O   UNL     1      -5.765   9.148  69.369  1.00  0.00    -0.034 OA 
HETATM   17  O   UNL     1     -10.753   8.619  68.901  1.00  0.00    -0.187 OA 
HETATM   18  O   UNL     1      -9.662   8.198  71.008  1.00  0.00    -0.158 OA 
HETATM   19  O   UNL     1     -11.409   9.627  70.886  1.00  0.00    -0.300 OA 
HETATM   20  H   UNL     1      -8.393   7.410  69.160  1.00  0.00     0.000 HD 
ENDBRANCH   9  10
ENDBRANCH   8   9
ENDBRANCH   6   8
ENDBRANCH   5   6
ENDBRANCH   4   5
ENDBRANCH   3   4
ENDBRANCH   2   3
TORSDOF 7
ENDMDL
MODEL      201
REMARK 921   NORMALIZED FREE ENERGY PREDICTED BY IDOCK:   -3.04 KCAL/MOL
REMARK 922        TOTAL FREE ENERGY PREDICTED BY IDOCK:   -4.96 KCAL/MOL
REMARK 923 INTER-LIGAND FREE ENERGY PREDICTED BY IDOCK:   -4.39 KCAL/MOL
REMARK 924 INTRA-LIGAND FREE ENERGY PREDICTED BY IDOCK:   -0.57 KCAL/MOL
REMARK 927      BINDING AFFINITY PREDICTED BY RF-SCORE:    0.00 PKD
ROOT
HETATM    1  C   UNL     1      -9.514   7.434  66.653  1.00  0.00    -0.240 C  
HETATM    2  C   UNL     1      -8.138   8.078  66.630  1.00  0.00    -0.103 C  
ENDROOT
BRANCH   2   3
HETATM    3  C   UNL     1      -7.539   8.157  68.031  1.00  0.00    -0.106 C  
BRANCH   3   4
HETATM    4  C   UNL     1      -6.696   9.423  68.196  1.00  0.00    -0.059 C  
BRANCH   4   5
HETATM    5  C   UNL     1      -7.577  10.581  68.690  1.00  0.00    -0.099 C  
BRANCH   5   6
HETATM    6  N   UNL     1      -7.284  11.889  68.065  1.00  0.00    -0.083 NA 
HETATM    7  C   UNL     1      -6.244  11.752  67.033  1.00  0.00    -0.152 C  
BRANCH   6   8
HETATM    8  C   UNL     1      -8.500  12.437  67.422  1.00  0.00    -0.179 C  
BRANCH   8   9
HETATM    9  C   UNL     1      -9.791  12.214  68.221  1.00  0.00    -0.212 C  
BRANCH   9  10
HETATM   10  C   UNL     1     -10.990  13.122  67.820  1.00  0.00    -0.251 C  
HETATM   11  P   UNL     1     -10.666  13.657  66.100  1.00  0.00    -0.293 P  
HETATM   12  P   UNL     1     -11.196  14.532  68.982  1.00  0.00    -0.297 P  
HETATM   13  O   UNL     1     -12.209  12.305  67.879  1.00  0.00    -0.409 OA 
HETATM   14  O   UNL     1      -9.719  15.011  69.389  1.00  0.00    -0.209 OA 
HETATM   15  O   UNL     1     -12.069  15.701  68.681  1.00  0.00    -0.270 OA 
HETATM   16  O   UNL     1     -11.688  13.853  70.358  1.00  0.00    -0.275 OA 
HETATM   17  O   UNL     1     -11.336  12.220  65.605  1.00  0.00    -0.323 OA 
HETATM   18  O   UNL     1     -12.098  14.454  66.086  1.00  0.00    -0.399 OA 
HETATM   19  O   UNL     1     -10.392  14.109  64.645  1.00  0.00    -0.432 OA 
HETATM   20  H   UNL     1     -12.940  12.860  67.634  1.00  0.00     0.000 HD 
ENDBRANCH   9  10
ENDBRANCH   8   9
ENDBRANCH   6   8
ENDBRANCH   5   6
ENDBRANCH   4   5
ENDBRANCH   3   4
ENDBRANCH   2   3
TORSDOF 7
ENDMDL
MODEL      202
REMARK 921   NORMALIZED FREE ENERGY PREDICTED BY IDOCK:   -3.01 KCAL/MOL
REMARK 922        TOTAL FREE ENERGY PREDICTED BY IDOCK:   -4.93 KCAL/MOL
REMARK 923 INTER-LIGAND FREE ENERGY PREDICTED BY IDOCK:   -4.25 KCAL/MOL
REMARK 924 INTRA-LIGAND FREE ENERGY PREDICTED BY IDOCK:   -0.68 KCAL/MOL
REMARK 927      BINDING AFFINITY PREDICTED BY RF-SCORE:    0.00 PKD
ROOT
HETATM    1  C   UNL     1      -9.323  10.128  64.890  1.00  0.00    -0.310 C  
HETATM    2  C   UNL     1      -9.209  11.316  65.829  1.00  0.00    -0.236 C  
ENDROOT
BRANCH   2   3
HETATM    3  C   UNL     1      -7.916  11.264  66.638  1.00  0.00    -0.159 C  
BRANCH   3   4
HETATM    4  C   UNL     1      -8.188  11.506  68.123  1.00  0.00    -0.149 C  
BRANCH   4   5
HETATM    5  C   UNL     1      -9.546  12.201  68.303  1.00  0.00    -0.210 C  
BRANCH   5   6
HETATM    6  N   UNL     1     -10.430  11.576  69.312  1.00  0.00    -0.099 NA 
HETATM    7  C   UNL     1     -11.791  11.407  68.779  1.00  0.00    -0.323 C  
BRANCH   6   8
HETATM    8  C   UNL     1      -9.915  10.240  69.691  1.00  0.00    -0.207 C  
BRANCH   8   9
HETATM    9  C   UNL     1     -10.933   9.103  69.530  1.00  0.00    -0.138 C  
BRANCH   9  10
HETATM   10  C   UNL     1     -10.422   7.688  69.932  1.00  0.00    -0.231 C  
HETATM   11  P   UNL     1     -10.632   6.635  68.451  1.00  0.00    -0.266 P  
HETATM   12  P   UNL     1     -11.307   7.037  71.405  1.00  0.00    -0.297 P  
HETATM   13  O   UNL     1      -8.999   7.808  70.275  1.00  0.00    -0.146 OA 
HETATM   14  O   UNL     1     -12.836   7.504  71.266  1.00  0.00    -0.334 OA 
HETATM   15  O   UNL     1     -11.225   5.610  71.828  1.00  0.00    -0.242 OA 
HETATM   16  O   UNL     1     -10.810   7.970  72.622  1.00  0.00    -0.319 OA 
HETATM   17  O   UNL     1      -9.173   7.225  67.916  1.00  0.00    -0.132 OA 
HETATM   18  O   UNL     1      -9.952   5.380  69.256  1.00  0.00    -0.171 OA 
HETATM   19  O   UNL     1     -10.809   5.745  67.197  1.00  0.00    -0.280 OA 
HETATM   20  H   UNL     1      -8.687   6.945  70.521  1.00  0.00     0.000 HD 
ENDBRANCH   9  10
ENDBRANCH   8   9
ENDBRANCH   6   8
ENDBRANCH   5   6
ENDBRANCH   4   5
ENDBRANCH   3   4
ENDBRANCH   2   3
TORSDOF 7
ENDMDL
MODEL      203
REMARK 921   NORMALIZED FREE ENERGY PREDICTED BY IDOCK:   -3.01 KCAL/MOL
REMARK 922        TOTAL FREE ENERGY PREDICTED BY IDOCK:   -4.93 KCAL/MOL
REMARK 923 INTER-LIGAND FREE ENERGY PREDICTED BY IDOCK:   -4.56 KCAL/MOL
REMARK 924 INTRA-LIGAND FREE ENERGY PREDICTED BY IDOCK:   -0.37 KCAL/MOL
REMARK 927      BINDING AFFINITY PREDICTED BY RF-SCORE:    0.00 PKD
ROOT
HETATM    1  C   UNL     1     -11.425  14.030  64.523  1.00  0.00    -0.380 C  
HETATM    2  C   UNL     1     -12.071  12.775  65.086  1.00  0.00    -0.498 C  
ENDROOT
BRANCH   2   3
HETATM    3  C   UNL     1     -11.038  11.676  65.321  1.00  0.00    -0.298 C  
BRANCH   3   4
HETATM    4  C   UNL     1     -10.191  11.976  66.558  1.00  0.00    -0.232 C  
BRANCH   4   5
HETATM    5  C   UNL     1      -9.722  10.663  67.205  1.00  0.00    -0.171 C  
BRANCH   5   6
HETATM    6  N   UNL     1      -9.776  10.651  68.683  1.00  0.00    -0.170 NA 
HETATM    7  C   UNL     1     -11.124  11.001  69.158  1.00  0.00    -0.243 C  
BRANCH   6   8
HETATM    8  C   UNL     1      -9.442   9.304  69.199  1.00  0.00    -0.157 C  
BRANCH   8   9
HETATM    9  C   UNL     1     -10.005   9.006  70.596  1.00  0.00    -0.287 C  
BRANCH   9  10
HETATM   10  C   UNL     1      -9.884   7.526  71.063  1.00  0.00    -0.179 C  
HETATM   11  P   UNL     1     -11.579   6.993  71.499  1.00  0.00    -0.327 P  
HETATM   12  P   UNL     1      -8.696   7.344  72.453  1.00  0.00    -0.130 P  
HETATM   13  O   UNL     1      -9.378   6.740  69.929  1.00  0.00    -0.156 OA 
HETATM   14  O   UNL     1      -8.883   8.636  73.388  1.00  0.00    -0.297 OA 
HETATM   15  O   UNL     1      -8.602   6.104  73.275  1.00  0.00    -0.124 OA 
HETATM   16  O   UNL     1      -7.255   7.646  71.797  1.00  0.00    -0.061 OA 
HETATM   17  O   UNL     1     -11.813   6.670  69.885  1.00  0.00    -0.340 OA 
HETATM   18  O   UNL     1     -11.014   5.489  71.828  1.00  0.00    -0.240 OA 
HETATM   19  O   UNL     1     -13.014   6.541  71.867  1.00  0.00    -0.268 OA 
HETATM   20  H   UNL     1      -9.304   5.837  70.214  1.00  0.00     0.000 HD 
ENDBRANCH   9  10
ENDBRANCH   8   9
ENDBRANCH   6   8
ENDBRANCH   5   6
ENDBRANCH   4   5
ENDBRANCH   3   4
ENDBRANCH   2   3
TORSDOF 7
ENDMDL
MODEL      204
REMARK 921   NORMALIZED FREE ENERGY PREDICTED BY IDOCK:   -3.01 KCAL/MOL
REMARK 922        TOTAL FREE ENERGY PREDICTED BY IDOCK:   -4.92 KCAL/MOL
REMARK 923 INTER-LIGAND FREE ENERGY PREDICTED BY IDOCK:   -4.52 KCAL/MOL
REMARK 924 INTRA-LIGAND FREE ENERGY PREDICTED BY IDOCK:   -0.41 KCAL/MOL
REMARK 927      BINDING AFFINITY PREDICTED BY RF-SCORE:    0.00 PKD
ROOT
HETATM    1  C   UNL     1     -11.008  16.162  70.103  1.00  0.00    -0.359 C  
HETATM    2  C   UNL     1     -12.041  15.204  70.673  1.00  0.00    -0.378 C  
ENDROOT
BRANCH   2   3
HETATM    3  C   UNL     1     -12.097  13.906  69.872  1.00  0.00    -0.406 C  
BRANCH   3   4
HETATM    4  C   UNL     1     -11.768  14.156  68.400  1.00  0.00    -0.380 C  
BRANCH   4   5
HETATM    5  C   UNL     1     -11.867  12.843  67.608  1.00  0.00    -0.346 C  
BRANCH   5   6
HETATM    6  N   UNL     1     -10.691  12.543  66.762  1.00  0.00    -0.233 NA 
HETATM    7  C   UNL     1      -9.699  13.626  66.846  1.00  0.00    -0.262 C  
BRANCH   6   8
HETATM    8  C   UNL     1     -10.043  11.289  67.206  1.00  0.00    -0.186 C  
BRANCH   8   9
HETATM    9  C   UNL     1     -10.243  10.103  66.253  1.00  0.00    -0.288 C  
BRANCH   9  10
HETATM   10  C   UNL     1      -9.329   8.871  66.519  1.00  0.00    -0.195 C  
HETATM   11  P   UNL     1      -8.898   8.936  68.296  1.00  0.00    -0.133 P  
HETATM   12  P   UNL     1      -7.854   8.866  65.424  1.00  0.00    -0.112 P  
HETATM   13  O   UNL     1     -10.113   7.663  66.229  1.00  0.00    -0.468 OA 
HETATM   14  O   UNL     1      -7.388  10.395  65.274  1.00  0.00    -0.144 OA 
HETATM   15  O   UNL     1      -6.682   7.975  65.655  1.00  0.00    -0.048 OA 
HETATM   16  O   UNL     1      -8.444   8.580  63.952  1.00  0.00    -0.134 OA 
HETATM   17  O   UNL     1     -10.344   8.176  68.600  1.00  0.00    -0.205 OA 
HETATM   18  O   UNL     1      -8.069   7.531  68.139  1.00  0.00    -0.121 OA 
HETATM   19  O   UNL     1      -8.533   8.991  69.800  1.00  0.00    -0.118 OA 
HETATM   20  H   UNL     1      -9.556   6.911  66.391  1.00  0.00     0.000 HD 
ENDBRANCH   9  10
ENDBRANCH   8   9
ENDBRANCH   6   8
ENDBRANCH   5   6
ENDBRANCH   4   5
ENDBRANCH   3   4
ENDBRANCH   2   3
TORSDOF 7
ENDMDL
MODEL      205
REMARK 921   NORMALIZED FREE ENERGY PREDICTED BY IDOCK:   -3.01 KCAL/MOL
REMARK 922        TOTAL FREE ENERGY PREDICTED BY IDOCK:   -4.92 KCAL/MOL
REMARK 923 INTER-LIGAND FREE ENERGY PREDICTED BY IDOCK:   -4.31 KCAL/MOL
REMARK 924 INTRA-LIGAND FREE ENERGY PREDICTED BY IDOCK:   -0.61 KCAL/MOL
REMARK 927      BINDING AFFINITY PREDICTED BY RF-SCORE:    0.00 PKD
ROOT
HETATM    1  C   UNL     1      -9.389   6.722  66.642  1.00  0.00    -0.197 C  
HETATM    2  C   UNL     1      -8.247   7.506  67.266  1.00  0.00    -0.115 C  
ENDROOT
BRANCH   2   3
HETATM    3  C   UNL     1      -8.285   7.425  68.790  1.00  0.00    -0.129 C  
BRANCH   3   4
HETATM    4  C   UNL     1      -7.538   8.602  69.419  1.00  0.00    -0.092 C  
BRANCH   4   5
HETATM    5  C   UNL     1      -8.396   9.874  69.340  1.00  0.00    -0.156 C  
BRANCH   5   6
HETATM    6  N   UNL     1      -7.673  11.078  68.876  1.00  0.00    -0.133 NA 
HETATM    7  C   UNL     1      -6.361  10.715  68.319  1.00  0.00    -0.054 C  
BRANCH   6   8
HETATM    8  C   UNL     1      -8.447  11.769  67.820  1.00  0.00    -0.147 C  
BRANCH   8   9
HETATM    9  C   UNL     1      -9.876  12.149  68.231  1.00  0.00    -0.212 C  
BRANCH   9  10
HETATM   10  C   UNL     1     -10.914  12.197  67.071  1.00  0.00    -0.271 C  
HETATM   11  P   UNL     1     -10.132  11.337  65.658  1.00  0.00    -0.270 P  
HETATM   12  P   UNL     1     -11.414  13.920  66.674  1.00  0.00    -0.394 P  
HETATM   13  O   UNL     1     -12.110  11.469  67.513  1.00  0.00    -0.614 OA 
HETATM   14  O   UNL     1     -10.098  14.827  66.825  1.00  0.00    -0.248 OA 
HETATM   15  O   UNL     1     -12.163  14.275  65.435  1.00  0.00    -0.393 OA 
HETATM   16  O   UNL     1     -12.266  14.400  67.955  1.00  0.00    -0.299 OA 
HETATM   17  O   UNL     1     -10.657   9.911  66.331  1.00  0.00    -0.161 OA 
HETATM   18  O   UNL     1     -11.501  11.551  64.781  1.00  0.00    -0.201 OA 
HETATM   19  O   UNL     1      -9.472  10.608  64.462  1.00  0.00    -0.219 OA 
HETATM   20  H   UNL     1     -12.744  11.498  66.806  1.00  0.00     0.000 HD 
ENDBRANCH   9  10
ENDBRANCH   8   9
ENDBRANCH   6   8
ENDBRANCH   5   6
ENDBRANCH   4   5
ENDBRANCH   3   4
ENDBRANCH   2   3
TORSDOF 7
ENDMDL
MODEL      206
REMARK 921   NORMALIZED FREE ENERGY PREDICTED BY IDOCK:   -3.00 KCAL/MOL
REMARK 922        TOTAL FREE ENERGY PREDICTED BY IDOCK:   -4.90 KCAL/MOL
REMARK 923 INTER-LIGAND FREE ENERGY PREDICTED BY IDOCK:   -4.57 KCAL/MOL
REMARK 924 INTRA-LIGAND FREE ENERGY PREDICTED BY IDOCK:   -0.33 KCAL/MOL
REMARK 927      BINDING AFFINITY PREDICTED BY RF-SCORE:    0.00 PKD
ROOT
HETATM    1  C   UNL     1     -11.785  10.463  70.815  1.00  0.00    -0.464 C  
HETATM    2  C   UNL     1     -10.463   9.715  70.842  1.00  0.00    -0.359 C  
ENDROOT
BRANCH   2   3
HETATM    3  C   UNL     1     -10.537   8.426  70.029  1.00  0.00    -0.235 C  
BRANCH   3   4
HETATM    4  C   UNL     1      -9.386   8.343  69.026  1.00  0.00    -0.147 C  
BRANCH   4   5
HETATM    5  C   UNL     1      -8.538   9.623  69.091  1.00  0.00    -0.146 C  
BRANCH   5   6
HETATM    6  N   UNL     1      -8.183  10.196  67.774  1.00  0.00    -0.110 NA 
HETATM    7  C   UNL     1      -8.933   9.531  66.697  1.00  0.00    -0.146 C  
BRANCH   6   8
HETATM    8  C   UNL     1      -8.506  11.640  67.736  1.00  0.00    -0.144 C  
BRANCH   8   9
HETATM    9  C   UNL     1      -9.264  12.084  66.477  1.00  0.00    -0.216 C  
BRANCH   9  10
HETATM   10  C   UNL     1     -10.022  13.438  66.597  1.00  0.00    -0.277 C  
HETATM   11  P   UNL     1      -9.780  14.003  68.321  1.00  0.00    -0.220 P  
HETATM   12  P   UNL     1     -11.795  13.270  66.142  1.00  0.00    -0.418 P  
HETATM   13  O   UNL     1      -9.402  14.382  65.659  1.00  0.00    -0.527 OA 
HETATM   14  O   UNL     1     -12.278  11.843  66.697  1.00  0.00    -0.493 OA 
HETATM   15  O   UNL     1     -12.806  14.324  66.437  1.00  0.00    -0.191 OA 
HETATM   16  O   UNL     1     -11.780  12.991  64.554  1.00  0.00    -0.335 OA 
HETATM   17  O   UNL     1      -8.324  14.637  67.830  1.00  0.00    -0.144 OA 
HETATM   18  O   UNL     1     -10.614  15.372  67.982  1.00  0.00    -0.251 OA 
HETATM   19  O   UNL     1      -9.573  14.481  69.778  1.00  0.00     0.247 OA 
HETATM   20  H   UNL     1      -9.865  15.208  65.732  1.00  0.00     0.000 HD 
ENDBRANCH   9  10
ENDBRANCH   8   9
ENDBRANCH   6   8
ENDBRANCH   5   6
ENDBRANCH   4   5
ENDBRANCH   3   4
ENDBRANCH   2   3
TORSDOF 7
ENDMDL
MODEL      207
REMARK 921   NORMALIZED FREE ENERGY PREDICTED BY IDOCK:   -3.00 KCAL/MOL
REMARK 922        TOTAL FREE ENERGY PREDICTED BY IDOCK:   -4.90 KCAL/MOL
REMARK 923 INTER-LIGAND FREE ENERGY PREDICTED BY IDOCK:   -4.44 KCAL/MOL
REMARK 924 INTRA-LIGAND FREE ENERGY PREDICTED BY IDOCK:   -0.46 KCAL/MOL
REMARK 927      BINDING AFFINITY PREDICTED BY RF-SCORE:    0.00 PKD
ROOT
HETATM    1  C   UNL     1     -10.231   3.616  64.468  1.00  0.00    -0.176 C  
HETATM    2  C   UNL     1     -10.238   4.878  65.314  1.00  0.00     0.053 C  
ENDROOT
BRANCH   2   3
HETATM    3  C   UNL     1      -9.803   4.589  66.748  1.00  0.00    -0.242 C  
BRANCH   3   4
HETATM    4  C   UNL     1      -9.729   5.877  67.568  1.00  0.00    -0.123 C  
BRANCH   4   5
HETATM    5  C   UNL     1     -10.235   7.063  66.733  1.00  0.00    -0.211 C  
BRANCH   5   6
HETATM    6  N   UNL     1      -9.278   8.184  66.611  1.00  0.00    -0.168 NA 
HETATM    7  C   UNL     1      -8.021   7.733  65.995  1.00  0.00    -0.108 C  
BRANCH   6   8
HETATM    8  C   UNL     1      -9.846   9.257  65.764  1.00  0.00    -0.231 C  
BRANCH   8   9
HETATM    9  C   UNL     1     -10.801  10.206  66.502  1.00  0.00    -0.043 C  
BRANCH   9  10
HETATM   10  C   UNL     1     -10.764  11.689  66.032  1.00  0.00    -0.280 C  
HETATM   11  P   UNL     1     -10.170  11.657  64.301  1.00  0.00    -0.367 P  
HETATM   12  P   UNL     1      -9.716  12.726  67.130  1.00  0.00    -0.227 P  
HETATM   13  O   UNL     1     -12.135  12.211  66.091  1.00  0.00    -0.621 OA 
HETATM   14  O   UNL     1      -8.461  11.820  67.556  1.00  0.00    -0.141 OA 
HETATM   15  O   UNL     1      -9.275  14.100  66.759  1.00  0.00    -0.255 OA 
HETATM   16  O   UNL     1     -10.530  12.797  68.518  1.00  0.00    -0.240 OA 
HETATM   17  O   UNL     1     -11.738  11.348  63.847  1.00  0.00    -0.252 OA 
HETATM   18  O   UNL     1     -10.352  13.284  64.216  1.00  0.00    -0.427 OA 
HETATM   19  O   UNL     1      -9.669  11.629  62.837  1.00  0.00    -0.382 OA 
HETATM   20  H   UNL     1     -12.112  13.116  65.805  1.00  0.00     0.000 HD 
ENDBRANCH   9  10
ENDBRANCH   8   9
ENDBRANCH   6   8
ENDBRANCH   5   6
ENDBRANCH   4   5
ENDBRANCH   3   4
ENDBRANCH   2   3
TORSDOF 7
ENDMDL
MODEL      208
REMARK 921   NORMALIZED FREE ENERGY PREDICTED BY IDOCK:   -2.99 KCAL/MOL
REMARK 922        TOTAL FREE ENERGY PREDICTED BY IDOCK:   -4.90 KCAL/MOL
REMARK 923 INTER-LIGAND FREE ENERGY PREDICTED BY IDOCK:   -4.28 KCAL/MOL
REMARK 924 INTRA-LIGAND FREE ENERGY PREDICTED BY IDOCK:   -0.62 KCAL/MOL
REMARK 927      BINDING AFFINITY PREDICTED BY RF-SCORE:    0.00 PKD
ROOT
HETATM    1  C   UNL     1      -9.050  16.773  66.679  1.00  0.00    -0.275 C  
HETATM    2  C   UNL     1     -10.165  15.742  66.632  1.00  0.00    -0.290 C  
ENDROOT
BRANCH   2   3
HETATM    3  C   UNL     1     -10.800  15.549  68.006  1.00  0.00    -0.300 C  
BRANCH   3   4
HETATM    4  C   UNL     1     -11.857  14.444  67.970  1.00  0.00    -0.361 C  
BRANCH   4   5
HETATM    5  C   UNL     1     -11.210  13.086  68.286  1.00  0.00    -0.275 C  
BRANCH   5   6
HETATM    6  N   UNL     1     -11.812  11.937  67.577  1.00  0.00    -0.597 NA 
HETATM    7  C   UNL     1     -11.519  12.001  66.136  1.00  0.00    -0.339 C  
BRANCH   6   8
HETATM    8  C   UNL     1     -11.267  10.664  68.101  1.00  0.00    -0.302 C  
BRANCH   8   9
HETATM    9  C   UNL     1     -10.600   9.778  67.040  1.00  0.00    -0.269 C  
BRANCH   9  10
HETATM   10  C   UNL     1      -9.128   9.370  67.339  1.00  0.00    -0.126 C  
HETATM   11  P   UNL     1      -8.230   9.513  65.751  1.00  0.00    -0.124 P  
HETATM   12  P   UNL     1      -9.023   7.688  68.073  1.00  0.00    -0.123 P  
HETATM   13  O   UNL     1      -8.590  10.325  68.317  1.00  0.00    -0.117 OA 
HETATM   14  O   UNL     1     -10.138   6.797  67.340  1.00  0.00    -0.147 OA 
HETATM   15  O   UNL     1      -7.739   6.940  68.190  1.00  0.00    -0.108 OA 
HETATM   16  O   UNL     1      -9.671   7.846  69.540  1.00  0.00    -0.170 OA 
HETATM   17  O   UNL     1      -8.055  11.132  66.081  1.00  0.00    -0.165 OA 
HETATM   18  O   UNL     1      -6.838   9.097  66.510  1.00  0.00    -0.077 OA 
HETATM   19  O   UNL     1      -7.471   9.634  64.408  1.00  0.00    -0.114 OA 
HETATM   20  H   UNL     1      -7.692  10.076  68.500  1.00  0.00     0.000 HD 
ENDBRANCH   9  10
ENDBRANCH   8   9
ENDBRANCH   6   8
ENDBRANCH   5   6
ENDBRANCH   4   5
ENDBRANCH   3   4
ENDBRANCH   2   3
TORSDOF 7
ENDMDL
MODEL      209
REMARK 921   NORMALIZED FREE ENERGY PREDICTED BY IDOCK:   -2.99 KCAL/MOL
REMARK 922        TOTAL FREE ENERGY PREDICTED BY IDOCK:   -4.89 KCAL/MOL
REMARK 923 INTER-LIGAND FREE ENERGY PREDICTED BY IDOCK:   -4.29 KCAL/MOL
REMARK 924 INTRA-LIGAND FREE ENERGY PREDICTED BY IDOCK:   -0.60 KCAL/MOL
REMARK 927      BINDING AFFINITY PREDICTED BY RF-SCORE:    0.00 PKD
ROOT
HETATM    1  C   UNL     1     -10.272  18.863  66.694  1.00  0.00    -0.462 C  
HETATM    2  C   UNL     1      -9.682  17.547  66.217  1.00  0.00    -0.271 C  
ENDROOT
BRANCH   2   3
HETATM    3  C   UNL     1     -10.619  16.379  66.512  1.00  0.00    -0.235 C  
BRANCH   3   4
HETATM    4  C   UNL     1     -10.180  15.629  67.770  1.00  0.00    -0.252 C  
BRANCH   4   5
HETATM    5  C   UNL     1     -10.411  14.120  67.590  1.00  0.00    -0.241 C  
BRANCH   5   6
HETATM    6  N   UNL     1     -10.976  13.437  68.774  1.00  0.00    -0.252 NA 
HETATM    7  C   UNL     1     -12.150  14.164  69.284  1.00  0.00    -0.324 C  
BRANCH   6   8
HETATM    8  C   UNL     1     -11.403  12.064  68.422  1.00  0.00    -0.279 C  
BRANCH   8   9
HETATM    9  C   UNL     1     -10.480  11.353  67.423  1.00  0.00    -0.239 C  
BRANCH   9  10
HETATM   10  C   UNL     1      -9.204  10.705  68.037  1.00  0.00    -0.148 C  
HETATM   11  P   UNL     1      -7.985  10.602  66.676  1.00  0.00    -0.144 P  
HETATM   12  P   UNL     1      -9.567   9.073  68.800  1.00  0.00    -0.158 P  
HETATM   13  O   UNL     1      -8.714  11.600  69.094  1.00  0.00    -0.367 OA 
HETATM   14  O   UNL     1     -10.651   8.356  67.857  1.00  0.00    -0.220 OA 
HETATM   15  O   UNL     1      -8.497   8.116  69.199  1.00  0.00    -0.132 OA 
HETATM   16  O   UNL     1     -10.465   9.420  70.091  1.00  0.00    -0.207 OA 
HETATM   17  O   UNL     1      -7.586  12.180  67.014  1.00  0.00    -0.148 OA 
HETATM   18  O   UNL     1      -6.882   9.986  67.721  1.00  0.00    -0.074 OA 
HETATM   19  O   UNL     1      -6.954  10.516  65.525  1.00  0.00    -0.141 OA 
HETATM   20  H   UNL     1      -7.936  11.205  69.469  1.00  0.00     0.000 HD 
ENDBRANCH   9  10
ENDBRANCH   8   9
ENDBRANCH   6   8
ENDBRANCH   5   6
ENDBRANCH   4   5
ENDBRANCH   3   4
ENDBRANCH   2   3
TORSDOF 7
ENDMDL
MODEL      210
REMARK 921   NORMALIZED FREE ENERGY PREDICTED BY IDOCK:   -2.98 KCAL/MOL
REMARK 922        TOTAL FREE ENERGY PREDICTED BY IDOCK:   -4.88 KCAL/MOL
REMARK 923 INTER-LIGAND FREE ENERGY PREDICTED BY IDOCK:   -4.54 KCAL/MOL
REMARK 924 INTRA-LIGAND FREE ENERGY PREDICTED BY IDOCK:   -0.34 KCAL/MOL
REMARK 927      BINDING AFFINITY PREDICTED BY RF-SCORE:    0.00 PKD
ROOT
HETATM    1  C   UNL     1      -5.563  16.682  68.184  1.00  0.00    -0.119 C  
HETATM    2  C   UNL     1      -6.760  16.346  69.057  1.00  0.00    -0.192 C  
ENDROOT
BRANCH   2   3
HETATM    3  C   UNL     1      -7.020  14.842  69.089  1.00  0.00    -0.139 C  
BRANCH   3   4
HETATM    4  C   UNL     1      -7.894  14.412  67.910  1.00  0.00    -0.155 C  
BRANCH   4   5
HETATM    5  C   UNL     1      -9.290  14.009  68.410  1.00  0.00    -0.210 C  
BRANCH   5   6
HETATM    6  N   UNL     1     -10.229  13.592  67.346  1.00  0.00    -0.236 NA 
HETATM    7  C   UNL     1      -9.929  14.287  66.084  1.00  0.00    -0.314 C  
BRANCH   6   8
HETATM    8  C   UNL     1     -10.122  12.135  67.105  1.00  0.00    -0.206 C  
BRANCH   8   9
HETATM    9  C   UNL     1      -9.693  11.322  68.335  1.00  0.00    -0.194 C  
BRANCH   9  10
HETATM   10  C   UNL     1     -10.441   9.972  68.537  1.00  0.00    -0.202 C  
HETATM   11  P   UNL     1     -10.290   9.572  70.316  1.00  0.00    -0.308 P  
HETATM   12  P   UNL     1      -9.774   8.652  67.446  1.00  0.00    -0.209 P  
HETATM   13  O   UNL     1     -11.850  10.185  68.180  1.00  0.00    -0.686 OA 
HETATM   14  O   UNL     1      -8.184   8.871  67.381  1.00  0.00    -0.108 OA 
HETATM   15  O   UNL     1     -10.103   7.211  67.633  1.00  0.00    -0.157 OA 
HETATM   16  O   UNL     1     -10.206   9.098  65.959  1.00  0.00    -0.256 OA 
HETATM   17  O   UNL     1     -11.600  10.562  70.574  1.00  0.00    -0.306 OA 
HETATM   18  O   UNL     1     -11.210   8.235  70.085  1.00  0.00    -0.231 OA 
HETATM   19  O   UNL     1     -10.163   9.234  71.821  1.00  0.00    -0.311 OA 
HETATM   20  H   UNL     1     -12.307   9.361  68.303  1.00  0.00     0.000 HD 
ENDBRANCH   9  10
ENDBRANCH   8   9
ENDBRANCH   6   8
ENDBRANCH   5   6
ENDBRANCH   4   5
ENDBRANCH   3   4
ENDBRANCH   2   3
TORSDOF 7
ENDMDL
MODEL      211
REMARK 921   NORMALIZED FREE ENERGY PREDICTED BY IDOCK:   -2.98 KCAL/MOL
REMARK 922        TOTAL FREE ENERGY PREDICTED BY IDOCK:   -4.88 KCAL/MOL
REMARK 923 INTER-LIGAND FREE ENERGY PREDICTED BY IDOCK:   -4.30 KCAL/MOL
REMARK 924 INTRA-LIGAND FREE ENERGY PREDICTED BY IDOCK:   -0.58 KCAL/MOL
REMARK 927      BINDING AFFINITY PREDICTED BY RF-SCORE:    0.00 PKD
ROOT
HETATM    1  C   UNL     1     -10.466   9.346  67.896  1.00  0.00    -0.296 C  
HETATM    2  C   UNL     1      -9.149   9.017  68.579  1.00  0.00    -0.133 C  
ENDROOT
BRANCH   2   3
HETATM    3  C   UNL     1      -8.561  10.243  69.271  1.00  0.00    -0.175 C  
BRANCH   3   4
HETATM    4  C   UNL     1      -7.081  10.411  68.924  1.00  0.00    -0.074 C  
BRANCH   4   5
HETATM    5  C   UNL     1      -6.530  11.692  69.569  1.00  0.00    -0.122 C  
BRANCH   5   6
HETATM    6  N   UNL     1      -6.273  12.798  68.621  1.00  0.00    -0.066 NA 
HETATM    7  C   UNL     1      -6.537  12.371  67.238  1.00  0.00    -0.136 C  
BRANCH   6   8
HETATM    8  C   UNL     1      -7.151  13.951  68.922  1.00  0.00    -0.110 C  
BRANCH   8   9
HETATM    9  C   UNL     1      -8.216  14.229  67.853  1.00  0.00    -0.156 C  
BRANCH   9  10
HETATM   10  C   UNL     1      -9.458  15.032  68.340  1.00  0.00    -0.201 C  
HETATM   11  P   UNL     1     -10.921  14.143  67.695  1.00  0.00    -0.283 P  
HETATM   12  P   UNL     1      -9.390  16.787  67.799  1.00  0.00    -0.239 P  
HETATM   13  O   UNL     1      -9.455  15.011  69.809  1.00  0.00    -0.444 OA 
HETATM   14  O   UNL     1      -8.763  16.788  66.321  1.00  0.00    -0.284 OA 
HETATM   15  O   UNL     1     -10.566  17.699  67.876  1.00  0.00    -0.382 OA 
HETATM   16  O   UNL     1      -8.178  17.426  68.647  1.00  0.00    -0.267 OA 
HETATM   17  O   UNL     1     -10.804  13.143  69.017  1.00  0.00    -0.234 OA 
HETATM   18  O   UNL     1     -11.899  15.215  68.457  1.00  0.00    -0.329 OA 
HETATM   19  O   UNL     1     -12.158  13.390  67.149  1.00  0.00    -0.368 OA 
HETATM   20  H   UNL     1     -10.212  15.501  70.106  1.00  0.00     0.000 HD 
ENDBRANCH   9  10
ENDBRANCH   8   9
ENDBRANCH   6   8
ENDBRANCH   5   6
ENDBRANCH   4   5
ENDBRANCH   3   4
ENDBRANCH   2   3
TORSDOF 7
ENDMDL
MODEL      212
REMARK 921   NORMALIZED FREE ENERGY PREDICTED BY IDOCK:   -2.97 KCAL/MOL
REMARK 922        TOTAL FREE ENERGY PREDICTED BY IDOCK:   -4.87 KCAL/MOL
REMARK 923 INTER-LIGAND FREE ENERGY PREDICTED BY IDOCK:   -4.48 KCAL/MOL
REMARK 924 INTRA-LIGAND FREE ENERGY PREDICTED BY IDOCK:   -0.39 KCAL/MOL
REMARK 927      BINDING AFFINITY PREDICTED BY RF-SCORE:    0.00 PKD
ROOT
HETATM    1  C   UNL     1      -5.246  11.929  69.561  1.00  0.00    -0.066 C  
HETATM    2  C   UNL     1      -6.040  10.887  70.330  1.00  0.00    -0.142 C  
ENDROOT
BRANCH   2   3
HETATM    3  C   UNL     1      -6.791   9.952  69.385  1.00  0.00    -0.060 C  
BRANCH   3   4
HETATM    4  C   UNL     1      -8.291  10.249  69.398  1.00  0.00    -0.169 C  
BRANCH   4   5
HETATM    5  C   UNL     1      -8.756  10.674  67.996  1.00  0.00    -0.126 C  
BRANCH   5   6
HETATM    6  N   UNL     1      -7.846  11.609  67.301  1.00  0.00    -0.149 NA 
HETATM    7  C   UNL     1      -6.988  10.890  66.347  1.00  0.00    -0.134 C  
BRANCH   6   8
HETATM    8  C   UNL     1      -8.622  12.622  66.550  1.00  0.00     0.060 C  
BRANCH   8   9
HETATM    9  C   UNL     1     -10.117  12.656  66.897  1.00  0.00    -0.234 C  
BRANCH   9  10
HETATM   10  C   UNL     1     -11.085  12.621  65.678  1.00  0.00    -0.292 C  
HETATM   11  P   UNL     1     -10.118  11.939  64.283  1.00  0.00    -0.273 P  
HETATM   12  P   UNL     1     -11.790  14.280  65.319  1.00  0.00    -0.393 P  
HETATM   13  O   UNL     1     -12.196  11.721  66.017  1.00  0.00    -0.322 OA 
HETATM   14  O   UNL     1     -10.618  15.344  65.587  1.00  0.00    -0.318 OA 
HETATM   15  O   UNL     1     -12.510  14.591  64.052  1.00  0.00    -0.778 OA 
HETATM   16  O   UNL     1     -12.769  14.582  66.563  1.00  0.00    -0.094 OA 
HETATM   17  O   UNL     1     -10.482  10.426  64.865  1.00  0.00    -0.263 OA 
HETATM   18  O   UNL     1     -11.451  12.012  63.332  1.00  0.00    -0.419 OA 
HETATM   19  O   UNL     1      -9.299  11.362  63.102  1.00  0.00    -0.310 OA 
HETATM   20  H   UNL     1     -12.787  11.699  65.273  1.00  0.00     0.000 HD 
ENDBRANCH   9  10
ENDBRANCH   8   9
ENDBRANCH   6   8
ENDBRANCH   5   6
ENDBRANCH   4   5
ENDBRANCH   3   4
ENDBRANCH   2   3
TORSDOF 7
ENDMDL
MODEL      213
REMARK 921   NORMALIZED FREE ENERGY PREDICTED BY IDOCK:   -2.97 KCAL/MOL
REMARK 922        TOTAL FREE ENERGY PREDICTED BY IDOCK:   -4.86 KCAL/MOL
REMARK 923 INTER-LIGAND FREE ENERGY PREDICTED BY IDOCK:   -4.19 KCAL/MOL
REMARK 924 INTRA-LIGAND FREE ENERGY PREDICTED BY IDOCK:   -0.67 KCAL/MOL
REMARK 927      BINDING AFFINITY PREDICTED BY RF-SCORE:    0.00 PKD
ROOT
HETATM    1  C   UNL     1      -9.584   9.856  64.815  1.00  0.00    -0.339 C  
HETATM    2  C   UNL     1      -9.276  11.112  65.612  1.00  0.00    -0.238 C  
ENDROOT
BRANCH   2   3
HETATM    3  C   UNL     1      -8.004  10.948  66.438  1.00  0.00    -0.157 C  
BRANCH   3   4
HETATM    4  C   UNL     1      -8.226  11.398  67.882  1.00  0.00    -0.132 C  
BRANCH   4   5
HETATM    5  C   UNL     1      -9.496  12.259  67.976  1.00  0.00    -0.206 C  
BRANCH   5   6
HETATM    6  N   UNL     1     -10.549  11.711  68.857  1.00  0.00    -0.211 NA 
HETATM    7  C   UNL     1     -11.821  11.578  68.128  1.00  0.00    -0.236 C  
BRANCH   6   8
HETATM    8  C   UNL     1     -10.161  10.371  69.353  1.00  0.00    -0.229 C  
BRANCH   8   9
HETATM    9  C   UNL     1     -11.341   9.420  69.592  1.00  0.00    -0.023 C  
BRANCH   9  10
HETATM   10  C   UNL     1     -11.451   8.840  71.032  1.00  0.00    -0.285 C  
HETATM   11  P   UNL     1     -11.320   7.023  70.857  1.00  0.00    -0.328 P  
HETATM   12  P   UNL     1     -13.001   9.370  71.865  1.00  0.00    -0.457 P  
HETATM   13  O   UNL     1     -10.318   9.360  71.810  1.00  0.00    -0.260 OA 
HETATM   14  O   UNL     1     -14.147   9.376  70.741  1.00  0.00     0.023 OA 
HETATM   15  O   UNL     1     -13.495   8.740  73.122  1.00  0.00    -0.208 OA 
HETATM   16  O   UNL     1     -12.807  10.950  72.114  1.00  0.00    -0.341 OA 
HETATM   17  O   UNL     1      -9.669   7.217  70.849  1.00  0.00    -0.171 OA 
HETATM   18  O   UNL     1     -11.402   6.868  72.487  1.00  0.00    -0.259 OA 
HETATM   19  O   UNL     1     -11.208   5.486  70.709  1.00  0.00    -0.138 OA 
HETATM   20  H   UNL     1     -10.385   9.007  72.689  1.00  0.00     0.000 HD 
ENDBRANCH   9  10
ENDBRANCH   8   9
ENDBRANCH   6   8
ENDBRANCH   5   6
ENDBRANCH   4   5
ENDBRANCH   3   4
ENDBRANCH   2   3
TORSDOF 7
ENDMDL
MODEL      214
REMARK 921   NORMALIZED FREE ENERGY PREDICTED BY IDOCK:   -2.95 KCAL/MOL
REMARK 922        TOTAL FREE ENERGY PREDICTED BY IDOCK:   -4.84 KCAL/MOL
REMARK 923 INTER-LIGAND FREE ENERGY PREDICTED BY IDOCK:   -4.35 KCAL/MOL
REMARK 924 INTRA-LIGAND FREE ENERGY PREDICTED BY IDOCK:   -0.48 KCAL/MOL
REMARK 927      BINDING AFFINITY PREDICTED BY RF-SCORE:    0.00 PKD
ROOT
HETATM    1  C   UNL     1     -11.288  16.262  70.123  1.00  0.00    -0.292 C  
HETATM    2  C   UNL     1     -12.270  15.420  70.919  1.00  0.00    -0.425 C  
ENDROOT
BRANCH   2   3
HETATM    3  C   UNL     1     -12.368  14.003  70.360  1.00  0.00    -0.429 C  
BRANCH   3   4
HETATM    4  C   UNL     1     -12.155  13.997  68.845  1.00  0.00    -0.351 C  
BRANCH   4   5
HETATM    5  C   UNL     1     -11.364  12.746  68.430  1.00  0.00    -0.295 C  
BRANCH   5   6
HETATM    6  N   UNL     1     -10.361  12.976  67.368  1.00  0.00    -0.233 NA 
HETATM    7  C   UNL     1     -10.153  14.416  67.150  1.00  0.00    -0.253 C  
BRANCH   6   8
HETATM    8  C   UNL     1      -9.062  12.376  67.748  1.00  0.00    -0.193 C  
BRANCH   8   9
HETATM    9  C   UNL     1      -9.140  10.892  68.131  1.00  0.00    -0.155 C  
BRANCH   9  10
HETATM   10  C   UNL     1      -8.265   9.933  67.271  1.00  0.00    -0.121 C  
HETATM   11  P   UNL     1      -6.818  10.916  66.734  1.00  0.00    -0.137 P  
HETATM   12  P   UNL     1      -9.211   9.223  65.865  1.00  0.00    -0.249 P  
HETATM   13  O   UNL     1      -7.837   8.825  68.134  1.00  0.00    -0.100 OA 
HETATM   14  O   UNL     1     -10.177  10.387  65.327  1.00  0.00    -0.299 OA 
HETATM   15  O   UNL     1      -8.556   8.512  64.731  1.00  0.00    -0.159 OA 
HETATM   16  O   UNL     1     -10.279   8.233  66.554  1.00  0.00    -0.288 OA 
HETATM   17  O   UNL     1      -6.122  10.554  68.198  1.00  0.00    -0.044 OA 
HETATM   18  O   UNL     1      -6.203   9.590  65.992  1.00  0.00    -0.062 OA 
HETATM   19  O   UNL     1      -5.593  11.747  66.280  1.00  0.00    -0.269 OA 
HETATM   20  H   UNL     1      -7.303   8.240  67.610  1.00  0.00     0.000 HD 
ENDBRANCH   9  10
ENDBRANCH   8   9
ENDBRANCH   6   8
ENDBRANCH   5   6
ENDBRANCH   4   5
ENDBRANCH   3   4
ENDBRANCH   2   3
TORSDOF 7
ENDMDL
MODEL      215
REMARK 921   NORMALIZED FREE ENERGY PREDICTED BY IDOCK:   -2.95 KCAL/MOL
REMARK 922        TOTAL FREE ENERGY PREDICTED BY IDOCK:   -4.84 KCAL/MOL
REMARK 923 INTER-LIGAND FREE ENERGY PREDICTED BY IDOCK:   -4.33 KCAL/MOL
REMARK 924 INTRA-LIGAND FREE ENERGY PREDICTED BY IDOCK:   -0.50 KCAL/MOL
REMARK 927      BINDING AFFINITY PREDICTED BY RF-SCORE:    0.00 PKD
ROOT
HETATM    1  C   UNL     1      -8.489   5.140  68.448  1.00  0.00    -0.095 C  
HETATM    2  C   UNL     1      -8.044   6.457  69.061  1.00  0.00    -0.111 C  
ENDROOT
BRANCH   2   3
HETATM    3  C   UNL     1      -7.149   7.240  68.105  1.00  0.00    -0.081 C  
BRANCH   3   4
HETATM    4  C   UNL     1      -7.366   8.746  68.261  1.00  0.00    -0.087 C  
BRANCH   4   5
HETATM    5  C   UNL     1      -8.504   9.013  69.258  1.00  0.00    -0.128 C  
BRANCH   5   6
HETATM    6  N   UNL     1      -9.625   9.811  68.715  1.00  0.00    -0.150 NA 
HETATM    7  C   UNL     1     -10.745   9.853  69.669  1.00  0.00    -0.252 C  
BRANCH   6   8
HETATM    8  C   UNL     1      -9.190  11.202  68.456  1.00  0.00    -0.183 C  
BRANCH   8   9
HETATM    9  C   UNL     1      -9.276  11.626  66.983  1.00  0.00    -0.185 C  
BRANCH   9  10
HETATM   10  C   UNL     1      -9.852  13.050  66.732  1.00  0.00    -0.243 C  
HETATM   11  P   UNL     1      -9.412  14.041  68.206  1.00  0.00    -0.203 P  
HETATM   12  P   UNL     1     -11.661  13.008  66.411  1.00  0.00    -0.410 P  
HETATM   13  O   UNL     1      -9.193  13.594  65.537  1.00  0.00    -0.354 OA 
HETATM   14  O   UNL     1     -12.272  11.880  67.375  1.00  0.00    -0.502 OA 
HETATM   15  O   UNL     1     -12.510  14.233  66.424  1.00  0.00    -0.441 OA 
HETATM   16  O   UNL     1     -11.801  12.292  64.974  1.00  0.00    -0.371 OA 
HETATM   17  O   UNL     1      -7.931  14.301  67.498  1.00  0.00    -0.162 OA 
HETATM   18  O   UNL     1     -10.095  15.361  67.514  1.00  0.00    -0.230 OA 
HETATM   19  O   UNL     1      -9.039  14.879  69.453  1.00  0.00    -0.147 OA 
HETATM   20  H   UNL     1      -9.544  14.463  65.383  1.00  0.00     0.000 HD 
ENDBRANCH   9  10
ENDBRANCH   8   9
ENDBRANCH   6   8
ENDBRANCH   5   6
ENDBRANCH   4   5
ENDBRANCH   3   4
ENDBRANCH   2   3
TORSDOF 7
ENDMDL
MODEL      216
REMARK 921   NORMALIZED FREE ENERGY PREDICTED BY IDOCK:   -2.94 KCAL/MOL
REMARK 922        TOTAL FREE ENERGY PREDICTED BY IDOCK:   -4.82 KCAL/MOL
REMARK 923 INTER-LIGAND FREE ENERGY PREDICTED BY IDOCK:   -4.47 KCAL/MOL
REMARK 924 INTRA-LIGAND FREE ENERGY PREDICTED BY IDOCK:   -0.35 KCAL/MOL
REMARK 927      BINDING AFFINITY PREDICTED BY RF-SCORE:    0.00 PKD
ROOT
HETATM    1  C   UNL     1     -11.166  16.056  64.686  1.00  0.00    -0.340 C  
HETATM    2  C   UNL     1     -10.996  14.550  64.797  1.00  0.00    -0.404 C  
ENDROOT
BRANCH   2   3
HETATM    3  C   UNL     1     -12.282  13.817  64.427  1.00  0.00    -0.440 C  
BRANCH   3   4
HETATM    4  C   UNL     1     -12.001  12.679  63.445  1.00  0.00    -0.613 C  
BRANCH   4   5
HETATM    5  C   UNL     1     -10.489  12.416  63.363  1.00  0.00    -0.311 C  
BRANCH   5   6
HETATM    6  N   UNL     1     -10.109  10.987  63.393  1.00  0.00    -0.354 NA 
HETATM    7  C   UNL     1      -8.895  10.753  62.596  1.00  0.00    -0.286 C  
BRANCH   6   8
HETATM    8  C   UNL     1      -9.837  10.556  64.783  1.00  0.00    -0.323 C  
BRANCH   8   9
HETATM    9  C   UNL     1      -9.058  11.580  65.620  1.00  0.00    -0.136 C  
BRANCH   9  10
HETATM   10  C   UNL     1      -8.157  10.980  66.739  1.00  0.00    -0.151 C  
HETATM   11  P   UNL     1      -7.127   9.702  65.930  1.00  0.00    -0.107 P  
HETATM   12  P   UNL     1      -9.153  10.319  68.135  1.00  0.00    -0.142 P  
HETATM   13  O   UNL     1      -7.311  12.063  67.260  1.00  0.00    -0.135 OA 
HETATM   14  O   UNL     1     -10.460   9.647  67.489  1.00  0.00    -0.228 OA 
HETATM   15  O   UNL     1      -8.574   9.442  69.193  1.00  0.00    -0.130 OA 
HETATM   16  O   UNL     1      -9.791  11.624  68.832  1.00  0.00    -0.154 OA 
HETATM   17  O   UNL     1      -6.094  10.925  65.481  1.00  0.00    -0.100 OA 
HETATM   18  O   UNL     1      -6.360   9.429  67.352  1.00  0.00    -0.060 OA 
HETATM   19  O   UNL     1      -6.256   8.622  65.244  1.00  0.00    -0.055 OA 
HETATM   20  H   UNL     1      -6.762  11.697  67.943  1.00  0.00     0.000 HD 
ENDBRANCH   9  10
ENDBRANCH   8   9
ENDBRANCH   6   8
ENDBRANCH   5   6
ENDBRANCH   4   5
ENDBRANCH   3   4
ENDBRANCH   2   3
TORSDOF 7
ENDMDL
MODEL      217
REMARK 921   NORMALIZED FREE ENERGY PREDICTED BY IDOCK:   -2.92 KCAL/MOL
REMARK 922        TOTAL FREE ENERGY PREDICTED BY IDOCK:   -4.80 KCAL/MOL
REMARK 923 INTER-LIGAND FREE ENERGY PREDICTED BY IDOCK:   -4.47 KCAL/MOL
REMARK 924 INTRA-LIGAND FREE ENERGY PREDICTED BY IDOCK:   -0.33 KCAL/MOL
REMARK 927      BINDING AFFINITY PREDICTED BY RF-SCORE:    0.00 PKD
ROOT
HETATM    1  C   UNL     1     -12.253  13.965  64.977  1.00  0.00    -0.444 C  
HETATM    2  C   UNL     1     -12.161  13.461  63.547  1.00  0.00    -0.497 C  
ENDROOT
BRANCH   2   3
HETATM    3  C   UNL     1     -12.012  11.943  63.501  1.00  0.00    -0.567 C  
BRANCH   3   4
HETATM    4  C   UNL     1     -11.021  11.457  64.559  1.00  0.00    -0.346 C  
BRANCH   4   5
HETATM    5  C   UNL     1      -9.703  11.034  63.892  1.00  0.00    -0.292 C  
BRANCH   5   6
HETATM    6  N   UNL     1      -9.035   9.877  64.526  1.00  0.00    -0.216 NA 
HETATM    7  C   UNL     1      -8.285   9.097  63.529  1.00  0.00    -0.178 C  
BRANCH   6   8
HETATM    8  C   UNL     1      -8.081  10.337  65.562  1.00  0.00    -0.156 C  
BRANCH   8   9
HETATM    9  C   UNL     1      -8.716  10.589  66.936  1.00  0.00    -0.130 C  
BRANCH   9  10
HETATM   10  C   UNL     1      -7.717  10.673  68.128  1.00  0.00    -0.101 C  
HETATM   11  P   UNL     1      -8.572   9.915  69.558  1.00  0.00    -0.188 P  
HETATM   12  P   UNL     1      -7.180  12.401  68.447  1.00  0.00    -0.122 P  
HETATM   13  O   UNL     1      -6.529   9.888  67.769  1.00  0.00    -0.062 OA 
HETATM   14  O   UNL     1      -8.463  13.334  68.200  1.00  0.00    -0.159 OA 
HETATM   15  O   UNL     1      -6.463  12.804  69.690  1.00  0.00    -0.112 OA 
HETATM   16  O   UNL     1      -6.271  12.784  67.173  1.00  0.00    -0.263 OA 
HETATM   17  O   UNL     1      -8.068   8.440  68.983  1.00  0.00    -0.112 OA 
HETATM   18  O   UNL     1      -7.228  10.140  70.470  1.00  0.00    -0.284 OA 
HETATM   19  O   UNL     1      -9.294   9.274  70.767  1.00  0.00    -0.241 OA 
HETATM   20  H   UNL     1      -5.919   9.939  68.496  1.00  0.00     0.000 HD 
ENDBRANCH   9  10
ENDBRANCH   8   9
ENDBRANCH   6   8
ENDBRANCH   5   6
ENDBRANCH   4   5
ENDBRANCH   3   4
ENDBRANCH   2   3
TORSDOF 7
ENDMDL
MODEL      218
REMARK 921   NORMALIZED FREE ENERGY PREDICTED BY IDOCK:   -2.92 KCAL/MOL
REMARK 922        TOTAL FREE ENERGY PREDICTED BY IDOCK:   -4.80 KCAL/MOL
REMARK 923 INTER-LIGAND FREE ENERGY PREDICTED BY IDOCK:   -4.33 KCAL/MOL
REMARK 924 INTRA-LIGAND FREE ENERGY PREDICTED BY IDOCK:   -0.46 KCAL/MOL
REMARK 927      BINDING AFFINITY PREDICTED BY RF-SCORE:    0.00 PKD
ROOT
HETATM    1  C   UNL     1      -5.460  20.154  63.262  1.00  0.00    -0.288 C  
HETATM    2  C   UNL     1      -6.337  21.060  64.109  1.00  0.00    -0.305 C  
ENDROOT
BRANCH   2   3
HETATM    3  C   UNL     1      -6.386  20.589  65.560  1.00  0.00    -0.284 C  
BRANCH   3   4
HETATM    4  C   UNL     1      -7.527  19.594  65.775  1.00  0.00    -0.304 C  
BRANCH   4   5
HETATM    5  C   UNL     1      -7.480  19.042  67.208  1.00  0.00    -0.228 C  
BRANCH   5   6
HETATM    6  N   UNL     1      -8.805  18.819  67.826  1.00  0.00    -0.287 NA 
HETATM    7  C   UNL     1      -9.873  18.912  66.818  1.00  0.00    -0.348 C  
BRANCH   6   8
HETATM    8  C   UNL     1      -8.868  17.472  68.439  1.00  0.00    -0.276 C  
BRANCH   8   9
HETATM    9  C   UNL     1      -7.942  16.438  67.786  1.00  0.00    -0.160 C  
BRANCH   9  10
HETATM   10  C   UNL     1      -8.418  14.959  67.886  1.00  0.00    -0.153 C  
HETATM   11  P   UNL     1      -6.911  13.931  67.735  1.00  0.00    -0.157 P  
HETATM   12  P   UNL     1      -9.685  14.562  66.616  1.00  0.00    -0.295 P  
HETATM   13  O   UNL     1      -9.030  14.775  69.209  1.00  0.00    -0.355 OA 
HETATM   14  O   UNL     1      -9.260  15.348  65.282  1.00  0.00     0.076 OA 
HETATM   15  O   UNL     1     -10.098  13.166  66.299  1.00  0.00    -0.272 OA 
HETATM   16  O   UNL     1     -10.985  15.402  67.065  1.00  0.00    -0.321 OA 
HETATM   17  O   UNL     1      -6.674  14.171  69.362  1.00  0.00    -0.115 OA 
HETATM   18  O   UNL     1      -7.817  12.583  67.956  1.00  0.00    -0.124 OA 
HETATM   19  O   UNL     1      -5.636  13.063  67.608  1.00  0.00    -0.138 OA 
HETATM   20  H   UNL     1      -9.320  13.873  69.270  1.00  0.00     0.000 HD 
ENDBRANCH   9  10
ENDBRANCH   8   9
ENDBRANCH   6   8
ENDBRANCH   5   6
ENDBRANCH   4   5
ENDBRANCH   3   4
ENDBRANCH   2   3
TORSDOF 7
ENDMDL
MODEL      219
REMARK 921   NORMALIZED FREE ENERGY PREDICTED BY IDOCK:   -2.88 KCAL/MOL
REMARK 922        TOTAL FREE ENERGY PREDICTED BY IDOCK:   -4.74 KCAL/MOL
REMARK 923 INTER-LIGAND FREE ENERGY PREDICTED BY IDOCK:   -4.41 KCAL/MOL
REMARK 924 INTRA-LIGAND FREE ENERGY PREDICTED BY IDOCK:   -0.33 KCAL/MOL
REMARK 927      BINDING AFFINITY PREDICTED BY RF-SCORE:    0.00 PKD
ROOT
HETATM    1  C   UNL     1     -10.024   4.664  69.592  1.00  0.00    -0.281 C  
HETATM    2  C   UNL     1     -10.464   5.175  70.953  1.00  0.00    -0.258 C  
ENDROOT
BRANCH   2   3
HETATM    3  C   UNL     1      -9.411   6.092  71.569  1.00  0.00    -0.161 C  
BRANCH   3   4
HETATM    4  C   UNL     1     -10.062   7.307  72.231  1.00  0.00    -0.219 C  
BRANCH   4   5
HETATM    5  C   UNL     1     -11.080   7.946  71.274  1.00  0.00    -0.250 C  
BRANCH   5   6
HETATM    6  N   UNL     1     -10.484   8.783  70.209  1.00  0.00    -0.201 NA 
HETATM    7  C   UNL     1     -10.615   8.128  68.898  1.00  0.00    -0.140 C  
BRANCH   6   8
HETATM    8  C   UNL     1     -11.170  10.093  70.139  1.00  0.00    -0.310 C  
BRANCH   8   9
HETATM    9  C   UNL     1     -11.474  10.571  68.713  1.00  0.00    -0.291 C  
BRANCH   9  10
HETATM   10  C   UNL     1     -10.526  11.677  68.163  1.00  0.00    -0.195 C  
HETATM   11  P   UNL     1     -11.613  13.004  67.526  1.00  0.00    -0.369 P  
HETATM   12  P   UNL     1      -9.377  11.019  66.888  1.00  0.00    -0.179 P  
HETATM   13  O   UNL     1      -9.720  12.173  69.286  1.00  0.00    -0.284 OA 
HETATM   14  O   UNL     1     -10.210   9.950  66.027  1.00  0.00    -0.254 OA 
HETATM   15  O   UNL     1      -8.570  11.901  66.000  1.00  0.00    -0.038 OA 
HETATM   16  O   UNL     1      -8.382  10.048  67.703  1.00  0.00    -0.114 OA 
HETATM   17  O   UNL     1     -11.700  13.578  69.083  1.00  0.00    -0.282 OA 
HETATM   18  O   UNL     1     -10.291  13.899  67.156  1.00  0.00    -0.262 OA 
HETATM   19  O   UNL     1     -12.533  14.127  66.989  1.00  0.00    -0.325 OA 
HETATM   20  H   UNL     1      -9.141  12.847  68.951  1.00  0.00     0.000 HD 
ENDBRANCH   9  10
ENDBRANCH   8   9
ENDBRANCH   6   8
ENDBRANCH   5   6
ENDBRANCH   4   5
ENDBRANCH   3   4
ENDBRANCH   2   3
TORSDOF 7
ENDMDL
MODEL      220
REMARK 921   NORMALIZED FREE ENERGY PREDICTED BY IDOCK:   -2.88 KCAL/MOL
REMARK 922        TOTAL FREE ENERGY PREDICTED BY IDOCK:   -4.74 KCAL/MOL
REMARK 923 INTER-LIGAND FREE ENERGY PREDICTED BY IDOCK:   -3.83 KCAL/MOL
REMARK 924 INTRA-LIGAND FREE ENERGY PREDICTED BY IDOCK:   -0.91 KCAL/MOL
REMARK 927      BINDING AFFINITY PREDICTED BY RF-SCORE:    0.00 PKD
ROOT
HETATM    1  C   UNL     1      -9.162   9.637  64.480  1.00  0.00    -0.277 C  
HETATM    2  C   UNL     1      -8.668  10.818  65.299  1.00  0.00    -0.183 C  
ENDROOT
BRANCH   2   3
HETATM    3  C   UNL     1      -7.382  10.477  66.046  1.00  0.00    -0.137 C  
BRANCH   3   4
HETATM    4  C   UNL     1      -7.599  10.519  67.558  1.00  0.00    -0.093 C  
BRANCH   4   5
HETATM    5  C   UNL     1      -8.988  11.097  67.875  1.00  0.00    -0.143 C  
BRANCH   5   6
HETATM    6  N   UNL     1      -9.877  10.186  68.629  1.00  0.00    -0.157 NA 
HETATM    7  C   UNL     1     -11.289  10.467  68.324  1.00  0.00    -0.264 C  
BRANCH   6   8
HETATM    8  C   UNL     1      -9.600   8.778  68.266  1.00  0.00    -0.146 C  
BRANCH   8   9
HETATM    9  C   UNL     1     -10.317   7.746  69.148  1.00  0.00    -0.219 C  
BRANCH   9  10
HETATM   10  C   UNL     1      -9.824   7.673  70.623  1.00  0.00    -0.182 C  
HETATM   11  P   UNL     1      -9.013   6.042  70.804  1.00  0.00    -0.150 P  
HETATM   12  P   UNL     1     -11.200   7.925  71.815  1.00  0.00    -0.295 P  
HETATM   13  O   UNL     1      -8.849   8.753  70.823  1.00  0.00    -0.155 OA 
HETATM   14  O   UNL     1     -12.487   7.194  71.193  1.00  0.00    -0.358 OA 
HETATM   15  O   UNL     1     -11.071   7.623  73.269  1.00  0.00    -0.382 OA 
HETATM   16  O   UNL     1     -11.611   9.473  71.638  1.00  0.00    -0.377 OA 
HETATM   17  O   UNL     1      -7.641   6.737  70.175  1.00  0.00    -0.094 OA 
HETATM   18  O   UNL     1      -8.623   6.417  72.352  1.00  0.00    -0.121 OA 
HETATM   19  O   UNL     1      -8.326   4.664  70.957  1.00  0.00    -0.091 OA 
HETATM   20  H   UNL     1      -8.548   8.708  71.723  1.00  0.00     0.000 HD 
ENDBRANCH   9  10
ENDBRANCH   8   9
ENDBRANCH   6   8
ENDBRANCH   5   6
ENDBRANCH   4   5
ENDBRANCH   3   4
ENDBRANCH   2   3
TORSDOF 7
ENDMDL
MODEL      221
REMARK 921   NORMALIZED FREE ENERGY PREDICTED BY IDOCK:   -2.88 KCAL/MOL
REMARK 922        TOTAL FREE ENERGY PREDICTED BY IDOCK:   -4.74 KCAL/MOL
REMARK 923 INTER-LIGAND FREE ENERGY PREDICTED BY IDOCK:   -4.18 KCAL/MOL
REMARK 924 INTRA-LIGAND FREE ENERGY PREDICTED BY IDOCK:   -0.55 KCAL/MOL
REMARK 927      BINDING AFFINITY PREDICTED BY RF-SCORE:    0.00 PKD
ROOT
HETATM    1  C   UNL     1      -7.421  12.489  67.481  1.00  0.00    -0.151 C  
HETATM    2  C   UNL     1      -8.906  12.620  67.776  1.00  0.00    -0.179 C  
ENDROOT
BRANCH   2   3
HETATM    3  C   UNL     1      -9.713  11.543  67.057  1.00  0.00    -0.202 C  
BRANCH   3   4
HETATM    4  C   UNL     1      -9.010  10.187  67.138  1.00  0.00    -0.146 C  
BRANCH   4   5
HETATM    5  C   UNL     1      -9.954   9.075  66.652  1.00  0.00    -0.278 C  
BRANCH   5   6
HETATM    6  N   UNL     1     -10.461   8.187  67.721  1.00  0.00    -0.229 NA 
HETATM    7  C   UNL     1     -10.945   6.917  67.157  1.00  0.00    -0.357 C  
BRANCH   6   8
HETATM    8  C   UNL     1      -9.385   7.880  68.690  1.00  0.00    -0.145 C  
BRANCH   8   9
HETATM    9  C   UNL     1      -9.562   8.545  70.062  1.00  0.00    -0.170 C  
BRANCH   9  10
HETATM   10  C   UNL     1      -9.876   7.575  71.238  1.00  0.00    -0.179 C  
HETATM   11  P   UNL     1     -11.398   8.215  72.028  1.00  0.00    -0.372 P  
HETATM   12  P   UNL     1      -8.464   7.440  72.407  1.00  0.00    -0.121 P  
HETATM   13  O   UNL     1     -10.120   6.244  70.666  1.00  0.00    -0.183 OA 
HETATM   14  O   UNL     1      -7.816   8.904  72.514  1.00  0.00    -0.369 OA 
HETATM   15  O   UNL     1      -8.592   6.816  73.754  1.00  0.00    -0.126 OA 
HETATM   16  O   UNL     1      -7.325   6.660  71.576  1.00  0.00    -0.084 OA 
HETATM   17  O   UNL     1     -12.257   7.396  70.865  1.00  0.00    -0.298 OA 
HETATM   18  O   UNL     1     -11.384   6.945  73.065  1.00  0.00    -0.217 OA 
HETATM   19  O   UNL     1     -12.685   8.755  72.696  1.00  0.00    -0.375 OA 
HETATM   20  H   UNL     1     -10.311   5.652  71.384  1.00  0.00     0.000 HD 
ENDBRANCH   9  10
ENDBRANCH   8   9
ENDBRANCH   6   8
ENDBRANCH   5   6
ENDBRANCH   4   5
ENDBRANCH   3   4
ENDBRANCH   2   3
TORSDOF 7
ENDMDL
MODEL      222
REMARK 921   NORMALIZED FREE ENERGY PREDICTED BY IDOCK:   -2.87 KCAL/MOL
REMARK 922        TOTAL FREE ENERGY PREDICTED BY IDOCK:   -4.73 KCAL/MOL
REMARK 923 INTER-LIGAND FREE ENERGY PREDICTED BY IDOCK:   -4.17 KCAL/MOL
REMARK 924 INTRA-LIGAND FREE ENERGY PREDICTED BY IDOCK:   -0.55 KCAL/MOL
REMARK 927      BINDING AFFINITY PREDICTED BY RF-SCORE:    0.00 PKD
ROOT
HETATM    1  C   UNL     1      -7.825   7.883  64.626  1.00  0.00    -0.133 C  
HETATM    2  C   UNL     1      -6.793   8.984  64.453  1.00  0.00    -0.085 C  
ENDROOT
BRANCH   2   3
HETATM    3  C   UNL     1      -6.045   9.254  65.756  1.00  0.00    -0.056 C  
BRANCH   3   4
HETATM    4  C   UNL     1      -7.007   9.696  66.859  1.00  0.00    -0.085 C  
BRANCH   4   5
HETATM    5  C   UNL     1      -7.610  11.067  66.513  1.00  0.00    -0.146 C  
BRANCH   5   6
HETATM    6  N   UNL     1      -7.332  12.130  67.503  1.00  0.00    -0.124 NA 
HETATM    7  C   UNL     1      -5.924  12.550  67.437  1.00  0.00    -0.147 C  
BRANCH   6   8
HETATM    8  C   UNL     1      -8.179  13.316  67.238  1.00  0.00    -0.158 C  
BRANCH   8   9
HETATM    9  C   UNL     1      -9.585  12.984  66.720  1.00  0.00    -0.248 C  
BRANCH   9  10
HETATM   10  C   UNL     1     -10.760  13.498  67.603  1.00  0.00    -0.248 C  
HETATM   11  P   UNL     1     -10.112  14.947  68.513  1.00  0.00    -0.243 P  
HETATM   12  P   UNL     1     -11.404  12.184  68.714  1.00  0.00    -0.337 P  
HETATM   13  O   UNL     1     -11.848  13.905  66.704  1.00  0.00    -0.374 OA 
HETATM   14  O   UNL     1     -10.134  11.333  69.204  1.00  0.00    -0.174 OA 
HETATM   15  O   UNL     1     -12.320  12.471  69.854  1.00  0.00    -0.178 OA 
HETATM   16  O   UNL     1     -12.116  11.130  67.725  1.00  0.00    -0.606 OA 
HETATM   17  O   UNL     1     -10.465  15.857  67.168  1.00  0.00    -0.302 OA 
HETATM   18  O   UNL     1     -11.589  15.175  69.187  1.00  0.00    -0.287 OA 
HETATM   19  O   UNL     1      -9.564  16.174  69.282  1.00  0.00    -0.238 OA 
HETATM   20  H   UNL     1     -12.565  14.218  67.243  1.00  0.00     0.000 HD 
ENDBRANCH   9  10
ENDBRANCH   8   9
ENDBRANCH   6   8
ENDBRANCH   5   6
ENDBRANCH   4   5
ENDBRANCH   3   4
ENDBRANCH   2   3
TORSDOF 7
ENDMDL
MODEL      223
REMARK 921   NORMALIZED FREE ENERGY PREDICTED BY IDOCK:   -2.86 KCAL/MOL
REMARK 922        TOTAL FREE ENERGY PREDICTED BY IDOCK:   -4.71 KCAL/MOL
REMARK 923 INTER-LIGAND FREE ENERGY PREDICTED BY IDOCK:   -4.23 KCAL/MOL
REMARK 924 INTRA-LIGAND FREE ENERGY PREDICTED BY IDOCK:   -0.48 KCAL/MOL
REMARK 927      BINDING AFFINITY PREDICTED BY RF-SCORE:    0.00 PKD
ROOT
HETATM    1  C   UNL     1     -10.529   9.952  67.358  1.00  0.00    -0.325 C  
HETATM    2  C   UNL     1      -9.284   9.357  67.992  1.00  0.00    -0.137 C  
ENDROOT
BRANCH   2   3
HETATM    3  C   UNL     1      -8.819  10.184  69.187  1.00  0.00    -0.179 C  
BRANCH   3   4
HETATM    4  C   UNL     1      -7.378  10.660  68.997  1.00  0.00    -0.108 C  
BRANCH   4   5
HETATM    5  C   UNL     1      -7.351  12.182  68.785  1.00  0.00    -0.090 C  
BRANCH   5   6
HETATM    6  N   UNL     1      -7.130  12.605  67.385  1.00  0.00    -0.150 NA 
HETATM    7  C   UNL     1      -6.546  11.510  66.595  1.00  0.00    -0.081 C  
BRANCH   6   8
HETATM    8  C   UNL     1      -8.413  12.992  66.756  1.00  0.00     0.003 C  
BRANCH   8   9
HETATM    9  C   UNL     1      -8.777  14.474  66.924  1.00  0.00    -0.237 C  
BRANCH   9  10
HETATM   10  C   UNL     1     -10.299  14.779  67.038  1.00  0.00    -0.255 C  
HETATM   11  P   UNL     1     -10.959  13.608  68.279  1.00  0.00    -0.279 P  
HETATM   12  P   UNL     1     -11.144  14.649  65.410  1.00  0.00    -0.387 P  
HETATM   13  O   UNL     1     -10.443  16.161  67.513  1.00  0.00    -0.290 OA 
HETATM   14  O   UNL     1     -10.464  13.417  64.637  1.00  0.00    -0.385 OA 
HETATM   15  O   UNL     1     -12.627  14.607  65.274  1.00  0.00    -0.286 OA 
HETATM   16  O   UNL     1     -10.577  15.895  64.560  1.00  0.00    -0.449 OA 
HETATM   17  O   UNL     1     -10.457  14.678  69.447  1.00  0.00    -0.227 OA 
HETATM   18  O   UNL     1     -12.439  14.295  68.131  1.00  0.00    -0.093 OA 
HETATM   19  O   UNL     1     -11.516  12.617  69.330  1.00  0.00    -0.277 OA 
HETATM   20  H   UNL     1     -11.372  16.347  67.582  1.00  0.00     0.000 HD 
ENDBRANCH   9  10
ENDBRANCH   8   9
ENDBRANCH   6   8
ENDBRANCH   5   6
ENDBRANCH   4   5
ENDBRANCH   3   4
ENDBRANCH   2   3
TORSDOF 7
ENDMDL
MODEL      224
REMARK 921   NORMALIZED FREE ENERGY PREDICTED BY IDOCK:   -2.86 KCAL/MOL
REMARK 922        TOTAL FREE ENERGY PREDICTED BY IDOCK:   -4.71 KCAL/MOL
REMARK 923 INTER-LIGAND FREE ENERGY PREDICTED BY IDOCK:   -4.98 KCAL/MOL
REMARK 924 INTRA-LIGAND FREE ENERGY PREDICTED BY IDOCK:    0.27 KCAL/MOL
REMARK 927      BINDING AFFINITY PREDICTED BY RF-SCORE:    0.00 PKD
ROOT
HETATM    1  C   UNL     1      -8.064  10.079  64.389  1.00  0.00    -0.156 C  
HETATM    2  C   UNL     1      -9.580  10.030  64.299  1.00  0.00    -0.301 C  
ENDROOT
BRANCH   2   3
HETATM    3  C   UNL     1     -10.116  11.117  63.371  1.00  0.00    -0.439 C  
BRANCH   3   4
HETATM    4  C   UNL     1     -10.121  12.478  64.067  1.00  0.00    -0.316 C  
BRANCH   4   5
HETATM    5  C   UNL     1     -11.412  13.239  63.728  1.00  0.00    -0.314 C  
BRANCH   5   6
HETATM    6  N   UNL     1     -11.908  14.123  64.805  1.00  0.00    -0.394 NA 
HETATM    7  C   UNL     1     -13.004  13.479  65.546  1.00  0.00    -0.209 C  
BRANCH   6   8
HETATM    8  C   UNL     1     -10.821  14.426  65.764  1.00  0.00    -0.307 C  
BRANCH   8   9
HETATM    9  C   UNL     1     -10.570  13.325  66.803  1.00  0.00    -0.276 C  
BRANCH   9  10
HETATM   10  C   UNL     1     -10.099  13.822  68.202  1.00  0.00    -0.245 C  
HETATM   11  P   UNL     1     -11.198  15.218  68.638  1.00  0.00    -0.333 P  
HETATM   12  P   UNL     1      -8.321  14.284  68.198  1.00  0.00    -0.183 P  
HETATM   13  O   UNL     1     -10.278  12.716  69.151  1.00  0.00    -0.422 OA 
HETATM   14  O   UNL     1      -8.030  14.981  66.782  1.00  0.00    -0.150 OA 
HETATM   15  O   UNL     1      -7.686  15.052  69.307  1.00  0.00    -0.173 OA 
HETATM   16  O   UNL     1      -7.539  12.886  68.018  1.00  0.00    -0.111 OA 
HETATM   17  O   UNL     1     -12.289  14.091  69.188  1.00  0.00    -0.313 OA 
HETATM   18  O   UNL     1     -10.442  15.351  70.086  1.00  0.00    -0.297 OA 
HETATM   19  O   UNL     1     -12.128  16.399  69.008  1.00  0.00    -0.042 OA 
HETATM   20  H   UNL     1      -9.991  13.019  70.004  1.00  0.00     0.000 HD 
ENDBRANCH   9  10
ENDBRANCH   8   9
ENDBRANCH   6   8
ENDBRANCH   5   6
ENDBRANCH   4   5
ENDBRANCH   3   4
ENDBRANCH   2   3
TORSDOF 7
ENDMDL
MODEL      225
REMARK 921   NORMALIZED FREE ENERGY PREDICTED BY IDOCK:   -2.85 KCAL/MOL
REMARK 922        TOTAL FREE ENERGY PREDICTED BY IDOCK:   -4.70 KCAL/MOL
REMARK 923 INTER-LIGAND FREE ENERGY PREDICTED BY IDOCK:   -4.24 KCAL/MOL
REMARK 924 INTRA-LIGAND FREE ENERGY PREDICTED BY IDOCK:   -0.46 KCAL/MOL
REMARK 927      BINDING AFFINITY PREDICTED BY RF-SCORE:    0.00 PKD
ROOT
HETATM    1  C   UNL     1     -11.450  15.824  68.469  1.00  0.00    -0.381 C  
HETATM    2  C   UNL     1     -10.499  14.920  69.236  1.00  0.00    -0.246 C  
ENDROOT
BRANCH   2   3
HETATM    3  C   UNL     1     -10.485  13.509  68.656  1.00  0.00    -0.242 C  
BRANCH   3   4
HETATM    4  C   UNL     1     -11.903  13.032  68.340  1.00  0.00    -0.370 C  
BRANCH   4   5
HETATM    5  C   UNL     1     -12.027  11.526  68.622  1.00  0.00    -0.246 C  
BRANCH   5   6
HETATM    6  N   UNL     1     -11.503  11.100  69.937  1.00  0.00    -0.296 NA 
HETATM    7  C   UNL     1     -12.552  11.175  70.966  1.00  0.00    -0.403 C  
BRANCH   6   8
HETATM    8  C   UNL     1     -11.022   9.701  69.871  1.00  0.00    -0.252 C  
BRANCH   8   9
HETATM    9  C   UNL     1      -9.962   9.348  70.923  1.00  0.00    -0.353 C  
BRANCH   9  10
HETATM   10  C   UNL     1      -8.601   8.845  70.358  1.00  0.00    -0.180 C  
HETATM   11  P   UNL     1      -8.670   9.129  68.551  1.00  0.00    -0.129 P  
HETATM   12  P   UNL     1      -8.287   7.088  70.796  1.00  0.00    -0.131 P  
HETATM   13  O   UNL     1      -7.539   9.660  70.962  1.00  0.00    -0.326 OA 
HETATM   14  O   UNL     1      -9.701   6.334  70.711  1.00  0.00    -0.177 OA 
HETATM   15  O   UNL     1      -7.215   6.278  70.152  1.00  0.00    -0.075 OA 
HETATM   16  O   UNL     1      -8.043   7.106  72.389  1.00  0.00    -0.100 OA 
HETATM   17  O   UNL     1      -8.191  10.691  68.853  1.00  0.00    -0.128 OA 
HETATM   18  O   UNL     1      -7.134   8.571  68.413  1.00  0.00    -0.080 OA 
HETATM   19  O   UNL     1      -8.727   9.369  67.023  1.00  0.00    -0.126 OA 
HETATM   20  H   UNL     1      -6.709   9.353  70.617  1.00  0.00     0.000 HD 
ENDBRANCH   9  10
ENDBRANCH   8   9
ENDBRANCH   6   8
ENDBRANCH   5   6
ENDBRANCH   4   5
ENDBRANCH   3   4
ENDBRANCH   2   3
TORSDOF 7
ENDMDL
MODEL      226
REMARK 921   NORMALIZED FREE ENERGY PREDICTED BY IDOCK:   -2.83 KCAL/MOL
REMARK 922        TOTAL FREE ENERGY PREDICTED BY IDOCK:   -4.67 KCAL/MOL
REMARK 923 INTER-LIGAND FREE ENERGY PREDICTED BY IDOCK:   -5.15 KCAL/MOL
REMARK 924 INTRA-LIGAND FREE ENERGY PREDICTED BY IDOCK:    0.48 KCAL/MOL
REMARK 927      BINDING AFFINITY PREDICTED BY RF-SCORE:    0.00 PKD
ROOT
HETATM    1  C   UNL     1      -5.494  14.190  72.940  1.00  0.00    -0.176 C  
HETATM    2  C   UNL     1      -5.479  13.812  71.469  1.00  0.00    -0.222 C  
ENDROOT
BRANCH   2   3
HETATM    3  C   UNL     1      -5.140  15.012  70.590  1.00  0.00    -0.126 C  
BRANCH   3   4
HETATM    4  C   UNL     1      -5.406  14.705  69.116  1.00  0.00    -0.085 C  
BRANCH   4   5
HETATM    5  C   UNL     1      -6.707  13.900  68.973  1.00  0.00    -0.110 C  
BRANCH   5   6
HETATM    6  N   UNL     1      -7.926  14.721  68.809  1.00  0.00    -0.146 NA 
HETATM    7  C   UNL     1      -7.577  16.121  68.522  1.00  0.00    -0.170 C  
BRANCH   6   8
HETATM    8  C   UNL     1      -8.744  14.212  67.685  1.00  0.00    -0.187 C  
BRANCH   8   9
HETATM    9  C   UNL     1     -10.258  14.354  67.890  1.00  0.00    -0.232 C  
BRANCH   9  10
HETATM   10  C   UNL     1     -11.099  14.493  66.588  1.00  0.00    -0.333 C  
HETATM   11  P   UNL     1     -10.830  12.947  65.646  1.00  0.00    -0.286 P  
HETATM   12  P   UNL     1     -10.642  15.999  65.638  1.00  0.00    -0.311 P  
HETATM   13  O   UNL     1     -12.509  14.614  66.977  1.00  0.00    -0.488 OA 
HETATM   14  O   UNL     1      -9.051  16.166  65.779  1.00  0.00    -0.398 OA 
HETATM   15  O   UNL     1     -11.075  16.225  64.230  1.00  0.00    -0.762 OA 
HETATM   16  O   UNL     1     -11.161  17.224  66.547  1.00  0.00     0.121 OA 
HETATM   17  O   UNL     1     -12.024  12.261  66.576  1.00  0.00    -0.596 OA 
HETATM   18  O   UNL     1     -11.877  13.473  64.499  1.00  0.00    -0.371 OA 
HETATM   19  O   UNL     1     -10.604  11.639  64.849  1.00  0.00    -0.272 OA 
HETATM   20  H   UNL     1     -13.022  14.699  66.182  1.00  0.00     0.000 HD 
ENDBRANCH   9  10
ENDBRANCH   8   9
ENDBRANCH   6   8
ENDBRANCH   5   6
ENDBRANCH   4   5
ENDBRANCH   3   4
ENDBRANCH   2   3
TORSDOF 7
ENDMDL
MODEL      227
REMARK 921   NORMALIZED FREE ENERGY PREDICTED BY IDOCK:   -2.82 KCAL/MOL
REMARK 922        TOTAL FREE ENERGY PREDICTED BY IDOCK:   -4.65 KCAL/MOL
REMARK 923 INTER-LIGAND FREE ENERGY PREDICTED BY IDOCK:   -3.67 KCAL/MOL
REMARK 924 INTRA-LIGAND FREE ENERGY PREDICTED BY IDOCK:   -0.98 KCAL/MOL
REMARK 927      BINDING AFFINITY PREDICTED BY RF-SCORE:    0.00 PKD
ROOT
HETATM    1  C   UNL     1     -10.423   8.813  71.311  1.00  0.00    -0.326 C  
HETATM    2  C   UNL     1     -11.169   9.849  70.486  1.00  0.00    -0.399 C  
ENDROOT
BRANCH   2   3
HETATM    3  C   UNL     1     -10.205  10.736  69.704  1.00  0.00    -0.099 C  
BRANCH   3   4
HETATM    4  C   UNL     1     -10.751  11.042  68.309  1.00  0.00    -0.235 C  
BRANCH   4   5
HETATM    5  C   UNL     1     -10.881   9.743  67.497  1.00  0.00    -0.220 C  
BRANCH   5   6
HETATM    6  N   UNL     1     -10.006   9.670  66.307  1.00  0.00    -0.256 NA 
HETATM    7  C   UNL     1      -9.838  10.999  65.700  1.00  0.00    -0.239 C  
BRANCH   6   8
HETATM    8  C   UNL     1      -8.666   9.163  66.683  1.00  0.00    -0.127 C  
BRANCH   8   9
HETATM    9  C   UNL     1      -8.682   8.086  67.776  1.00  0.00    -0.127 C  
BRANCH   9  10
HETATM   10  C   UNL     1      -8.915   6.630  67.275  1.00  0.00    -0.115 C  
HETATM   11  P   UNL     1      -9.664   5.726  68.679  1.00  0.00    -0.149 P  
HETATM   12  P   UNL     1      -7.359   5.858  66.674  1.00  0.00    -0.080 P  
HETATM   13  O   UNL     1      -9.855   6.691  66.148  1.00  0.00    -0.398 OA 
HETATM   14  O   UNL     1      -6.189   6.365  67.649  1.00  0.00    -0.029 OA 
HETATM   15  O   UNL     1      -7.235   4.397  66.411  1.00  0.00    -0.073 OA 
HETATM   16  O   UNL     1      -7.004   6.664  65.324  1.00  0.00    -0.049 OA 
HETATM   17  O   UNL     1     -11.131   6.337  68.194  1.00  0.00    -0.329 OA 
HETATM   18  O   UNL     1      -9.789   4.388  67.740  1.00  0.00    -0.156 OA 
HETATM   19  O   UNL     1     -10.298   4.962  69.866  1.00  0.00    -0.265 OA 
HETATM   20  H   UNL     1      -9.997   5.803  65.842  1.00  0.00     0.000 HD 
ENDBRANCH   9  10
ENDBRANCH   8   9
ENDBRANCH   6   8
ENDBRANCH   5   6
ENDBRANCH   4   5
ENDBRANCH   3   4
ENDBRANCH   2   3
TORSDOF 7
ENDMDL
MODEL      228
REMARK 921   NORMALIZED FREE ENERGY PREDICTED BY IDOCK:   -2.81 KCAL/MOL
REMARK 922        TOTAL FREE ENERGY PREDICTED BY IDOCK:   -4.64 KCAL/MOL
REMARK 923 INTER-LIGAND FREE ENERGY PREDICTED BY IDOCK:   -4.02 KCAL/MOL
REMARK 924 INTRA-LIGAND FREE ENERGY PREDICTED BY IDOCK:   -0.62 KCAL/MOL
REMARK 927      BINDING AFFINITY PREDICTED BY RF-SCORE:    0.00 PKD
ROOT
HETATM    1  C   UNL     1     -11.438   8.054  72.578  1.00  0.00    -0.471 C  
HETATM    2  C   UNL     1     -12.219   9.146  71.866  1.00  0.00    -0.449 C  
ENDROOT
BRANCH   2   3
HETATM    3  C   UNL     1     -11.309   9.989  70.977  1.00  0.00    -0.434 C  
BRANCH   3   4
HETATM    4  C   UNL     1      -9.930   9.343  70.835  1.00  0.00    -0.353 C  
BRANCH   4   5
HETATM    5  C   UNL     1      -9.470   9.402  69.370  1.00  0.00    -0.173 C  
BRANCH   5   6
HETATM    6  N   UNL     1     -10.459   8.900  68.391  1.00  0.00    -0.207 NA 
HETATM    7  C   UNL     1     -10.379   9.658  67.133  1.00  0.00    -0.254 C  
BRANCH   6   8
HETATM    8  C   UNL     1     -10.205   7.474  68.087  1.00  0.00    -0.189 C  
BRANCH   8   9
HETATM    9  C   UNL     1     -10.101   7.157  66.589  1.00  0.00    -0.229 C  
BRANCH   9  10
HETATM   10  C   UNL     1      -9.022   6.104  66.202  1.00  0.00    -0.155 C  
HETATM   11  P   UNL     1      -8.810   5.034  67.671  1.00  0.00    -0.104 P  
HETATM   12  P   UNL     1      -7.455   6.899  65.663  1.00  0.00    -0.095 P  
HETATM   13  O   UNL     1      -9.544   5.323  65.073  1.00  0.00    -0.364 OA 
HETATM   14  O   UNL     1      -7.250   8.189  66.597  1.00  0.00    -0.078 OA 
HETATM   15  O   UNL     1      -6.179   6.145  65.515  1.00  0.00    -0.035 OA 
HETATM   16  O   UNL     1      -7.817   7.595  64.255  1.00  0.00    -0.128 OA 
HETATM   17  O   UNL     1     -10.126   4.169  67.139  1.00  0.00    -0.132 OA 
HETATM   18  O   UNL     1      -7.736   4.117  66.839  1.00  0.00    -0.090 OA 
HETATM   19  O   UNL     1      -8.632   4.128  68.913  1.00  0.00    -0.081 OA 
HETATM   20  H   UNL     1      -8.886   4.681  64.837  1.00  0.00     0.000 HD 
ENDBRANCH   9  10
ENDBRANCH   8   9
ENDBRANCH   6   8
ENDBRANCH   5   6
ENDBRANCH   4   5
ENDBRANCH   3   4
ENDBRANCH   2   3
TORSDOF 7
ENDMDL
MODEL      229
REMARK 921   NORMALIZED FREE ENERGY PREDICTED BY IDOCK:   -2.81 KCAL/MOL
REMARK 922        TOTAL FREE ENERGY PREDICTED BY IDOCK:   -4.64 KCAL/MOL
REMARK 923 INTER-LIGAND FREE ENERGY PREDICTED BY IDOCK:   -4.10 KCAL/MOL
REMARK 924 INTRA-LIGAND FREE ENERGY PREDICTED BY IDOCK:   -0.55 KCAL/MOL
REMARK 927      BINDING AFFINITY PREDICTED BY RF-SCORE:    0.00 PKD
ROOT
HETATM    1  C   UNL     1      -5.141  12.009  69.656  1.00  0.00    -0.070 C  
HETATM    2  C   UNL     1      -5.689  10.851  70.472  1.00  0.00    -0.129 C  
ENDROOT
BRANCH   2   3
HETATM    3  C   UNL     1      -6.288   9.772  69.574  1.00  0.00    -0.045 C  
BRANCH   3   4
HETATM    4  C   UNL     1      -7.809   9.717  69.724  1.00  0.00    -0.144 C  
BRANCH   4   5
HETATM    5  C   UNL     1      -8.482   9.964  68.365  1.00  0.00    -0.111 C  
BRANCH   5   6
HETATM    6  N   UNL     1      -7.764  10.911  67.485  1.00  0.00    -0.107 NA 
HETATM    7  C   UNL     1      -7.398  10.266  66.214  1.00  0.00    -0.118 C  
BRANCH   6   8
HETATM    8  C   UNL     1      -8.620  12.079  67.178  1.00  0.00    -0.182 C  
BRANCH   8   9
HETATM    9  C   UNL     1      -9.728  12.338  68.207  1.00  0.00    -0.219 C  
BRANCH   9  10
HETATM   10  C   UNL     1     -10.813  13.367  67.776  1.00  0.00    -0.252 C  
HETATM   11  P   UNL     1     -10.664  13.528  65.959  1.00  0.00    -0.286 P  
HETATM   12  P   UNL     1     -10.621  14.970  68.654  1.00  0.00    -0.254 P  
HETATM   13  O   UNL     1     -12.124  12.810  68.133  1.00  0.00    -0.288 OA 
HETATM   14  O   UNL     1      -9.043  15.234  68.788  1.00  0.00    -0.179 OA 
HETATM   15  O   UNL     1     -11.331  16.210  68.233  1.00  0.00    -0.361 OA 
HETATM   16  O   UNL     1     -11.007  14.642  70.184  1.00  0.00    -0.188 OA 
HETATM   17  O   UNL     1     -11.619  12.174  65.835  1.00  0.00    -0.373 OA 
HETATM   18  O   UNL     1     -11.938  14.559  65.953  1.00  0.00    -0.366 OA 
HETATM   19  O   UNL     1     -10.538  13.663  64.422  1.00  0.00    -0.423 OA 
HETATM   20  H   UNL     1     -12.786  13.438  67.869  1.00  0.00     0.000 HD 
ENDBRANCH   9  10
ENDBRANCH   8   9
ENDBRANCH   6   8
ENDBRANCH   5   6
ENDBRANCH   4   5
ENDBRANCH   3   4
ENDBRANCH   2   3
TORSDOF 7
ENDMDL
MODEL      230
REMARK 921   NORMALIZED FREE ENERGY PREDICTED BY IDOCK:   -2.81 KCAL/MOL
REMARK 922        TOTAL FREE ENERGY PREDICTED BY IDOCK:   -4.64 KCAL/MOL
REMARK 923 INTER-LIGAND FREE ENERGY PREDICTED BY IDOCK:   -4.39 KCAL/MOL
REMARK 924 INTRA-LIGAND FREE ENERGY PREDICTED BY IDOCK:   -0.25 KCAL/MOL
REMARK 927      BINDING AFFINITY PREDICTED BY RF-SCORE:    0.00 PKD
ROOT
HETATM    1  C   UNL     1      -6.153   9.714  70.768  1.00  0.00    -0.086 C  
HETATM    2  C   UNL     1      -6.506  11.034  70.104  1.00  0.00    -0.128 C  
ENDROOT
BRANCH   2   3
HETATM    3  C   UNL     1      -5.708  12.188  70.703  1.00  0.00    -0.128 C  
BRANCH   3   4
HETATM    4  C   UNL     1      -5.714  13.401  69.772  1.00  0.00    -0.112 C  
BRANCH   4   5
HETATM    5  C   UNL     1      -6.644  14.489  70.332  1.00  0.00    -0.044 C  
BRANCH   5   6
HETATM    6  N   UNL     1      -7.088  15.491  69.339  1.00  0.00    -0.180 NA 
HETATM    7  C   UNL     1      -5.970  16.362  68.941  1.00  0.00    -0.134 C  
BRANCH   6   8
HETATM    8  C   UNL     1      -7.603  14.820  68.124  1.00  0.00    -0.119 C  
BRANCH   8   9
HETATM    9  C   UNL     1      -9.127  14.646  68.097  1.00  0.00    -0.187 C  
BRANCH   9  10
HETATM   10  C   UNL     1      -9.823  15.061  66.767  1.00  0.00    -0.243 C  
HETATM   11  P   UNL     1     -10.147  16.856  66.905  1.00  0.00    -0.299 P  
HETATM   12  P   UNL     1     -11.347  14.080  66.459  1.00  0.00    -0.364 P  
HETATM   13  O   UNL     1      -8.884  14.794  65.670  1.00  0.00    -0.192 OA 
HETATM   14  O   UNL     1     -12.049  13.863  67.887  1.00  0.00    -0.366 OA 
HETATM   15  O   UNL     1     -12.351  14.456  65.426  1.00  0.00    -0.396 OA 
HETATM   16  O   UNL     1     -10.813  12.590  66.151  1.00  0.00    -0.262 OA 
HETATM   17  O   UNL     1      -8.585  17.102  66.393  1.00  0.00    -0.245 OA 
HETATM   18  O   UNL     1     -10.760  16.855  65.384  1.00  0.00    -0.524 OA 
HETATM   19  O   UNL     1     -10.420  18.376  67.021  1.00  0.00    -0.383 OA 
HETATM   20  H   UNL     1      -9.308  15.047  64.859  1.00  0.00     0.000 HD 
ENDBRANCH   9  10
ENDBRANCH   8   9
ENDBRANCH   6   8
ENDBRANCH   5   6
ENDBRANCH   4   5
ENDBRANCH   3   4
ENDBRANCH   2   3
TORSDOF 7
ENDMDL
MODEL      231
REMARK 921   NORMALIZED FREE ENERGY PREDICTED BY IDOCK:   -2.79 KCAL/MOL
REMARK 922        TOTAL FREE ENERGY PREDICTED BY IDOCK:   -4.62 KCAL/MOL
REMARK 923 INTER-LIGAND FREE ENERGY PREDICTED BY IDOCK:   -4.25 KCAL/MOL
REMARK 924 INTRA-LIGAND FREE ENERGY PREDICTED BY IDOCK:   -0.36 KCAL/MOL
REMARK 927      BINDING AFFINITY PREDICTED BY RF-SCORE:    0.00 PKD
ROOT
HETATM    1  C   UNL     1      -9.526   3.849  63.576  1.00  0.00    -0.144 C  
HETATM    2  C   UNL     1     -10.549   4.021  64.686  1.00  0.00    -0.188 C  
ENDROOT
BRANCH   2   3
HETATM    3  C   UNL     1      -9.963   4.790  65.867  1.00  0.00    -0.245 C  
BRANCH   3   4
HETATM    4  C   UNL     1      -8.945   5.828  65.395  1.00  0.00    -0.047 C  
BRANCH   4   5
HETATM    5  C   UNL     1      -8.659   6.835  66.520  1.00  0.00    -0.128 C  
BRANCH   5   6
HETATM    6  N   UNL     1      -8.524   8.238  66.072  1.00  0.00    -0.130 NA 
HETATM    7  C   UNL     1      -8.471   8.314  64.604  1.00  0.00    -0.051 C  
BRANCH   6   8
HETATM    8  C   UNL     1      -9.681   9.039  66.533  1.00  0.00    -0.244 C  
BRANCH   8   9
HETATM    9  C   UNL     1      -9.525   9.620  67.945  1.00  0.00    -0.148 C  
BRANCH   9  10
HETATM   10  C   UNL     1      -9.718  11.160  68.059  1.00  0.00    -0.176 C  
HETATM   11  P   UNL     1     -11.007  11.600  66.836  1.00  0.00    -0.308 P  
HETATM   12  P   UNL     1      -8.141  12.067  67.795  1.00  0.00    -0.175 P  
HETATM   13  O   UNL     1     -10.186  11.452  69.420  1.00  0.00    -0.429 OA 
HETATM   14  O   UNL     1      -7.346  11.279  66.645  1.00  0.00    -0.142 OA 
HETATM   15  O   UNL     1      -8.088  13.538  67.565  1.00  0.00    -0.162 OA 
HETATM   16  O   UNL     1      -7.247  11.708  69.087  1.00  0.00    -0.112 OA 
HETATM   17  O   UNL     1     -12.133  11.176  67.982  1.00  0.00    -0.635 OA 
HETATM   18  O   UNL     1     -10.932  13.161  67.330  1.00  0.00    -0.255 OA 
HETATM   19  O   UNL     1     -12.097  11.971  65.802  1.00  0.00    -0.536 OA 
HETATM   20  H   UNL     1     -10.304  12.392  69.490  1.00  0.00     0.000 HD 
ENDBRANCH   9  10
ENDBRANCH   8   9
ENDBRANCH   6   8
ENDBRANCH   5   6
ENDBRANCH   4   5
ENDBRANCH   3   4
ENDBRANCH   2   3
TORSDOF 7
ENDMDL
MODEL      232
REMARK 921   NORMALIZED FREE ENERGY PREDICTED BY IDOCK:   -2.78 KCAL/MOL
REMARK 922        TOTAL FREE ENERGY PREDICTED BY IDOCK:   -4.60 KCAL/MOL
REMARK 923 INTER-LIGAND FREE ENERGY PREDICTED BY IDOCK:   -4.09 KCAL/MOL
REMARK 924 INTRA-LIGAND FREE ENERGY PREDICTED BY IDOCK:   -0.51 KCAL/MOL
REMARK 927      BINDING AFFINITY PREDICTED BY RF-SCORE:    0.00 PKD
ROOT
HETATM    1  C   UNL     1      -6.100  10.107  70.077  1.00  0.00    -0.065 C  
HETATM    2  C   UNL     1      -6.636  10.930  68.917  1.00  0.00    -0.056 C  
ENDROOT
BRANCH   2   3
HETATM    3  C   UNL     1      -5.530  11.753  68.263  1.00  0.00    -0.042 C  
BRANCH   3   4
HETATM    4  C   UNL     1      -6.095  13.026  67.633  1.00  0.00    -0.151 C  
BRANCH   4   5
HETATM    5  C   UNL     1      -6.767  13.893  68.709  1.00  0.00    -0.102 C  
BRANCH   5   6
HETATM    6  N   UNL     1      -6.408  15.327  68.659  1.00  0.00    -0.086 NA 
HETATM    7  C   UNL     1      -5.205  15.535  67.839  1.00  0.00    -0.120 C  
BRANCH   6   8
HETATM    8  C   UNL     1      -7.512  16.114  68.064  1.00  0.00    -0.132 C  
BRANCH   8   9
HETATM    9  C   UNL     1      -7.885  17.376  68.853  1.00  0.00    -0.196 C  
BRANCH   9  10
HETATM   10  C   UNL     1      -7.822  18.709  68.051  1.00  0.00    -0.271 C  
HETATM   11  P   UNL     1      -6.751  19.832  69.020  1.00  0.00    -0.313 P  
HETATM   12  P   UNL     1      -9.497  19.401  67.746  1.00  0.00    -0.359 P  
HETATM   13  O   UNL     1      -7.209  18.417  66.748  1.00  0.00    -0.197 OA 
HETATM   14  O   UNL     1     -10.360  19.115  69.069  1.00  0.00    -0.265 OA 
HETATM   15  O   UNL     1      -9.716  20.793  67.262  1.00  0.00    -0.479 OA 
HETATM   16  O   UNL     1     -10.177  18.374  66.707  1.00  0.00    -0.346 OA 
HETATM   17  O   UNL     1      -5.449  19.102  68.289  1.00  0.00    -0.188 OA 
HETATM   18  O   UNL     1      -6.904  20.973  67.852  1.00  0.00    -0.301 OA 
HETATM   19  O   UNL     1      -5.844  20.782  69.839  1.00  0.00    -0.421 OA 
HETATM   20  H   UNL     1      -7.171  19.230  66.259  1.00  0.00     0.000 HD 
ENDBRANCH   9  10
ENDBRANCH   8   9
ENDBRANCH   6   8
ENDBRANCH   5   6
ENDBRANCH   4   5
ENDBRANCH   3   4
ENDBRANCH   2   3
TORSDOF 7
ENDMDL
MODEL      233
REMARK 921   NORMALIZED FREE ENERGY PREDICTED BY IDOCK:   -2.78 KCAL/MOL
REMARK 922        TOTAL FREE ENERGY PREDICTED BY IDOCK:   -4.60 KCAL/MOL
REMARK 923 INTER-LIGAND FREE ENERGY PREDICTED BY IDOCK:   -3.68 KCAL/MOL
REMARK 924 INTRA-LIGAND FREE ENERGY PREDICTED BY IDOCK:   -0.92 KCAL/MOL
REMARK 927      BINDING AFFINITY PREDICTED BY RF-SCORE:    0.00 PKD
ROOT
HETATM    1  C   UNL     1     -12.912  10.690  71.429  1.00  0.00    -0.545 C  
HETATM    2  C   UNL     1     -12.230   9.450  71.982  1.00  0.00    -0.396 C  
ENDROOT
BRANCH   2   3
HETATM    3  C   UNL     1     -12.824   8.177  71.387  1.00  0.00    -0.270 C  
BRANCH   3   4
HETATM    4  C   UNL     1     -12.056   6.942  71.858  1.00  0.00    -0.370 C  
BRANCH   4   5
HETATM    5  C   UNL     1     -11.131   7.311  73.028  1.00  0.00    -0.317 C  
BRANCH   5   6
HETATM    6  N   UNL     1      -9.758   6.772  72.923  1.00  0.00    -0.152 NA 
HETATM    7  C   UNL     1      -9.728   5.589  72.049  1.00  0.00    -0.160 C  
BRANCH   6   8
HETATM    8  C   UNL     1      -8.847   7.790  72.350  1.00  0.00    -0.142 C  
BRANCH   8   9
HETATM    9  C   UNL     1      -8.089   7.326  71.099  1.00  0.00    -0.102 C  
BRANCH   9  10
HETATM   10  C   UNL     1      -8.294   8.205  69.830  1.00  0.00    -0.123 C  
HETATM   11  P   UNL     1      -8.488   7.040  68.433  1.00  0.00    -0.122 P  
HETATM   12  P   UNL     1      -6.908   9.388  69.589  1.00  0.00    -0.069 P  
HETATM   13  O   UNL     1      -9.525   8.983  70.020  1.00  0.00    -0.168 OA 
HETATM   14  O   UNL     1      -5.567   8.618  70.020  1.00  0.00    -0.028 OA 
HETATM   15  O   UNL     1      -6.703  10.140  68.319  1.00  0.00    -0.054 OA 
HETATM   16  O   UNL     1      -7.060  10.441  70.800  1.00  0.00    -0.269 OA 
HETATM   17  O   UNL     1     -10.092   6.922  68.850  1.00  0.00    -0.160 OA 
HETATM   18  O   UNL     1      -8.733   8.306  67.421  1.00  0.00    -0.123 OA 
HETATM   19  O   UNL     1      -8.653   6.054  67.251  1.00  0.00    -0.108 OA 
HETATM   20  H   UNL     1      -9.650   9.520  69.247  1.00  0.00     0.000 HD 
ENDBRANCH   9  10
ENDBRANCH   8   9
ENDBRANCH   6   8
ENDBRANCH   5   6
ENDBRANCH   4   5
ENDBRANCH   3   4
ENDBRANCH   2   3
TORSDOF 7
ENDMDL
MODEL      234
REMARK 921   NORMALIZED FREE ENERGY PREDICTED BY IDOCK:   -2.76 KCAL/MOL
REMARK 922        TOTAL FREE ENERGY PREDICTED BY IDOCK:   -4.57 KCAL/MOL
REMARK 923 INTER-LIGAND FREE ENERGY PREDICTED BY IDOCK:   -4.03 KCAL/MOL
REMARK 924 INTRA-LIGAND FREE ENERGY PREDICTED BY IDOCK:   -0.54 KCAL/MOL
REMARK 927      BINDING AFFINITY PREDICTED BY RF-SCORE:    0.00 PKD
ROOT
HETATM    1  C   UNL     1     -12.750  10.327  71.338  1.00  0.00    -0.547 C  
HETATM    2  C   UNL     1     -12.915   9.195  72.337  1.00  0.00    -0.468 C  
ENDROOT
BRANCH   2   3
HETATM    3  C   UNL     1     -13.309   7.894  71.642  1.00  0.00    -0.374 C  
BRANCH   3   4
HETATM    4  C   UNL     1     -12.139   6.911  71.616  1.00  0.00    -0.394 C  
BRANCH   4   5
HETATM    5  C   UNL     1     -11.026   7.391  72.560  1.00  0.00    -0.296 C  
BRANCH   5   6
HETATM    6  N   UNL     1      -9.658   7.281  72.008  1.00  0.00    -0.150 NA 
HETATM    7  C   UNL     1      -9.154   5.904  72.133  1.00  0.00    -0.143 C  
BRANCH   6   8
HETATM    8  C   UNL     1      -9.652   7.644  70.572  1.00  0.00    -0.167 C  
BRANCH   8   9
HETATM    9  C   UNL     1      -8.332   7.341  69.851  1.00  0.00    -0.135 C  
BRANCH   9  10
HETATM   10  C   UNL     1      -8.331   7.613  68.318  1.00  0.00    -0.125 C  
HETATM   11  P   UNL     1      -9.774   8.691  67.995  1.00  0.00    -0.171 P  
HETATM   12  P   UNL     1      -8.371   6.052  67.348  1.00  0.00    -0.102 P  
HETATM   13  O   UNL     1      -7.084   8.317  67.990  1.00  0.00    -0.082 OA 
HETATM   14  O   UNL     1      -9.330   5.041  68.146  1.00  0.00    -0.116 OA 
HETATM   15  O   UNL     1      -8.664   6.019  65.887  1.00  0.00    -0.148 OA 
HETATM   16  O   UNL     1      -6.931   5.378  67.607  1.00  0.00    -0.062 OA 
HETATM   17  O   UNL     1      -8.814   9.978  68.422  1.00  0.00    -0.115 OA 
HETATM   18  O   UNL     1      -9.355   8.765  66.412  1.00  0.00    -0.171 OA 
HETATM   19  O   UNL     1     -10.994   9.604  67.722  1.00  0.00    -0.260 OA 
HETATM   20  H   UNL     1      -7.084   8.483  67.055  1.00  0.00     0.000 HD 
ENDBRANCH   9  10
ENDBRANCH   8   9
ENDBRANCH   6   8
ENDBRANCH   5   6
ENDBRANCH   4   5
ENDBRANCH   3   4
ENDBRANCH   2   3
TORSDOF 7
ENDMDL
MODEL      235
REMARK 921   NORMALIZED FREE ENERGY PREDICTED BY IDOCK:   -2.75 KCAL/MOL
REMARK 922        TOTAL FREE ENERGY PREDICTED BY IDOCK:   -4.55 KCAL/MOL
REMARK 923 INTER-LIGAND FREE ENERGY PREDICTED BY IDOCK:   -3.90 KCAL/MOL
REMARK 924 INTRA-LIGAND FREE ENERGY PREDICTED BY IDOCK:   -0.66 KCAL/MOL
REMARK 927      BINDING AFFINITY PREDICTED BY RF-SCORE:    0.00 PKD
ROOT
HETATM    1  C   UNL     1     -13.931   9.006  71.685  1.00  0.00    -0.386 C  
HETATM    2  C   UNL     1     -13.153  10.293  71.899  1.00  0.00    -0.568 C  
ENDROOT
BRANCH   2   3
HETATM    3  C   UNL     1     -11.790  10.239  71.214  1.00  0.00    -0.425 C  
BRANCH   3   4
HETATM    4  C   UNL     1     -11.282   8.801  71.118  1.00  0.00    -0.339 C  
BRANCH   4   5
HETATM    5  C   UNL     1     -10.066   8.610  72.039  1.00  0.00    -0.331 C  
BRANCH   5   6
HETATM    6  N   UNL     1     -10.158   7.447  72.948  1.00  0.00    -0.218 NA 
HETATM    7  C   UNL     1     -11.376   6.667  72.676  1.00  0.00    -0.225 C  
BRANCH   6   8
HETATM    8  C   UNL     1      -8.990   6.555  72.764  1.00  0.00    -0.123 C  
BRANCH   8   9
HETATM    9  C   UNL     1      -8.357   6.624  71.368  1.00  0.00    -0.120 C  
BRANCH   9  10
HETATM   10  C   UNL     1      -8.490   5.332  70.510  1.00  0.00    -0.120 C  
HETATM   11  P   UNL     1      -6.783   4.842  70.066  1.00  0.00    -0.038 P  
HETATM   12  P   UNL     1      -9.564   5.594  69.042  1.00  0.00    -0.153 P  
HETATM   13  O   UNL     1      -9.114   4.301  71.350  1.00  0.00    -0.117 OA 
HETATM   14  O   UNL     1      -9.258   7.076  68.508  1.00  0.00    -0.138 OA 
HETATM   15  O   UNL     1      -9.633   4.626  67.911  1.00  0.00    -0.145 OA 
HETATM   16  O   UNL     1     -11.043   5.788  69.653  1.00  0.00    -0.372 OA 
HETATM   17  O   UNL     1      -6.695   4.088  71.544  1.00  0.00    -0.025 OA 
HETATM   18  O   UNL     1      -7.370   3.515  69.303  1.00  0.00    -0.048 OA 
HETATM   19  O   UNL     1      -5.340   4.428  69.692  1.00  0.00    -0.007 OA 
HETATM   20  H   UNL     1      -9.195   3.512  70.826  1.00  0.00     0.000 HD 
ENDBRANCH   9  10
ENDBRANCH   8   9
ENDBRANCH   6   8
ENDBRANCH   5   6
ENDBRANCH   4   5
ENDBRANCH   3   4
ENDBRANCH   2   3
TORSDOF 7
ENDMDL
MODEL      236
REMARK 921   NORMALIZED FREE ENERGY PREDICTED BY IDOCK:   -2.74 KCAL/MOL
REMARK 922        TOTAL FREE ENERGY PREDICTED BY IDOCK:   -4.55 KCAL/MOL
REMARK 923 INTER-LIGAND FREE ENERGY PREDICTED BY IDOCK:   -3.85 KCAL/MOL
REMARK 924 INTRA-LIGAND FREE ENERGY PREDICTED BY IDOCK:   -0.70 KCAL/MOL
REMARK 927      BINDING AFFINITY PREDICTED BY RF-SCORE:    0.00 PKD
ROOT
HETATM    1  C   UNL     1      -7.150   8.867  71.276  1.00  0.00    -0.103 C  
HETATM    2  C   UNL     1      -5.787   8.405  70.790  1.00  0.00    -0.032 C  
ENDROOT
BRANCH   2   3
HETATM    3  C   UNL     1      -5.629   8.624  69.288  1.00  0.00    -0.035 C  
BRANCH   3   4
HETATM    4  C   UNL     1      -6.823   9.391  68.717  1.00  0.00    -0.053 C  
BRANCH   4   5
HETATM    5  C   UNL     1      -6.377  10.785  68.247  1.00  0.00    -0.057 C  
BRANCH   5   6
HETATM    6  N   UNL     1      -6.706  11.884  69.181  1.00  0.00    -0.101 NA 
HETATM    7  C   UNL     1      -5.493  12.625  69.561  1.00  0.00    -0.083 C  
BRANCH   6   8
HETATM    8  C   UNL     1      -7.646  12.836  68.545  1.00  0.00    -0.120 C  
BRANCH   8   9
HETATM    9  C   UNL     1      -8.521  12.219  67.446  1.00  0.00    -0.176 C  
BRANCH   9  10
HETATM   10  C   UNL     1     -10.053  12.237  67.724  1.00  0.00    -0.201 C  
HETATM   11  P   UNL     1     -10.562  10.485  67.861  1.00  0.00    -0.274 P  
HETATM   12  P   UNL     1     -10.972  13.150  66.421  1.00  0.00    -0.299 P  
HETATM   13  O   UNL     1     -10.267  12.932  69.000  1.00  0.00    -0.431 OA 
HETATM   14  O   UNL     1     -10.251  12.811  65.027  1.00  0.00    -0.290 OA 
HETATM   15  O   UNL     1     -12.454  13.079  66.281  1.00  0.00    -0.426 OA 
HETATM   16  O   UNL     1     -10.540  14.689  66.624  1.00  0.00    -0.280 OA 
HETATM   17  O   UNL     1     -10.075  10.544  69.448  1.00  0.00    -0.222 OA 
HETATM   18  O   UNL     1     -12.092  10.964  68.200  1.00  0.00    -0.563 OA 
HETATM   19  O   UNL     1     -10.992   9.002  67.978  1.00  0.00    -0.101 OA 
HETATM   20  H   UNL     1     -11.201  12.942  69.169  1.00  0.00     0.000 HD 
ENDBRANCH   9  10
ENDBRANCH   8   9
ENDBRANCH   6   8
ENDBRANCH   5   6
ENDBRANCH   4   5
ENDBRANCH   3   4
ENDBRANCH   2   3
TORSDOF 7
ENDMDL
MODEL      237
REMARK 921   NORMALIZED FREE ENERGY PREDICTED BY IDOCK:   -2.74 KCAL/MOL
REMARK 922        TOTAL FREE ENERGY PREDICTED BY IDOCK:   -4.54 KCAL/MOL
REMARK 923 INTER-LIGAND FREE ENERGY PREDICTED BY IDOCK:   -4.33 KCAL/MOL
REMARK 924 INTRA-LIGAND FREE ENERGY PREDICTED BY IDOCK:   -0.22 KCAL/MOL
REMARK 927      BINDING AFFINITY PREDICTED BY RF-SCORE:    0.00 PKD
ROOT
HETATM    1  C   UNL     1     -10.809  10.347  67.778  1.00  0.00    -0.351 C  
HETATM    2  C   UNL     1      -9.317  10.630  67.745  1.00  0.00    -0.154 C  
ENDROOT
BRANCH   2   3
HETATM    3  C   UNL     1      -8.545   9.467  67.128  1.00  0.00    -0.133 C  
BRANCH   3   4
HETATM    4  C   UNL     1      -9.437   8.653  66.190  1.00  0.00    -0.308 C  
BRANCH   4   5
HETATM    5  C   UNL     1      -9.226   7.151  66.435  1.00  0.00    -0.157 C  
BRANCH   5   6
HETATM    6  N   UNL     1     -10.413   6.438  66.955  1.00  0.00    -0.245 NA 
HETATM    7  C   UNL     1     -10.756   5.297  66.092  1.00  0.00    -0.149 C  
BRANCH   6   8
HETATM    8  C   UNL     1     -10.147   5.921  68.317  1.00  0.00    -0.166 C  
BRANCH   8   9
HETATM    9  C   UNL     1     -11.147   6.399  69.379  1.00  0.00    -0.450 C  
BRANCH   9  10
HETATM   10  C   UNL     1     -10.542   6.685  70.785  1.00  0.00    -0.226 C  
HETATM   11  P   UNL     1     -10.252   5.049  71.553  1.00  0.00    -0.151 P  
HETATM   12  P   UNL     1     -11.636   7.765  71.792  1.00  0.00    -0.305 P  
HETATM   13  O   UNL     1      -9.268   7.389  70.587  1.00  0.00    -0.156 OA 
HETATM   14  O   UNL     1     -13.144   7.323  71.465  1.00  0.00    -0.369 OA 
HETATM   15  O   UNL     1     -11.447   7.961  73.257  1.00  0.00    -0.290 OA 
HETATM   16  O   UNL     1     -11.572   9.200  71.060  1.00  0.00    -0.276 OA 
HETATM   17  O   UNL     1      -8.811   4.999  70.726  1.00  0.00    -0.125 OA 
HETATM   18  O   UNL     1      -9.599   5.788  72.862  1.00  0.00    -0.155 OA 
HETATM   19  O   UNL     1     -10.006   3.666  72.202  1.00  0.00    -0.162 OA 
HETATM   20  H   UNL     1      -8.899   7.563  71.445  1.00  0.00     0.000 HD 
ENDBRANCH   9  10
ENDBRANCH   8   9
ENDBRANCH   6   8
ENDBRANCH   5   6
ENDBRANCH   4   5
ENDBRANCH   3   4
ENDBRANCH   2   3
TORSDOF 7
ENDMDL
MODEL      238
REMARK 921   NORMALIZED FREE ENERGY PREDICTED BY IDOCK:   -2.74 KCAL/MOL
REMARK 922        TOTAL FREE ENERGY PREDICTED BY IDOCK:   -4.54 KCAL/MOL
REMARK 923 INTER-LIGAND FREE ENERGY PREDICTED BY IDOCK:   -4.13 KCAL/MOL
REMARK 924 INTRA-LIGAND FREE ENERGY PREDICTED BY IDOCK:   -0.41 KCAL/MOL
REMARK 927      BINDING AFFINITY PREDICTED BY RF-SCORE:    0.00 PKD
ROOT
HETATM    1  C   UNL     1     -10.758   2.560  63.047  1.00  0.00    -0.206 C  
HETATM    2  C   UNL     1     -10.773   3.906  63.751  1.00  0.00    -0.193 C  
ENDROOT
BRANCH   2   3
HETATM    3  C   UNL     1      -9.453   4.171  64.470  1.00  0.00    -0.165 C  
BRANCH   3   4
HETATM    4  C   UNL     1      -9.600   3.972  65.979  1.00  0.00    -0.200 C  
BRANCH   4   5
HETATM    5  C   UNL     1     -10.286   5.196  66.606  1.00  0.00    -0.281 C  
BRANCH   5   6
HETATM    6  N   UNL     1      -9.374   6.310  66.943  1.00  0.00    -0.131 NA 
HETATM    7  C   UNL     1      -9.945   7.598  66.521  1.00  0.00    -0.155 C  
BRANCH   6   8
HETATM    8  C   UNL     1      -9.144   6.365  68.405  1.00  0.00    -0.118 C  
BRANCH   8   9
HETATM    9  C   UNL     1      -9.742   7.600  69.091  1.00  0.00    -0.164 C  
BRANCH   9  10
HETATM   10  C   UNL     1      -9.895   7.497  70.637  1.00  0.00    -0.179 C  
HETATM   11  P   UNL     1     -11.548   8.176  71.028  1.00  0.00    -0.232 P  
HETATM   12  P   UNL     1      -8.536   8.367  71.517  1.00  0.00    -0.196 P  
HETATM   13  O   UNL     1      -9.830   6.074  70.998  1.00  0.00    -0.178 OA 
HETATM   14  O   UNL     1      -8.214   9.691  70.668  1.00  0.00    -0.234 OA 
HETATM   15  O   UNL     1      -8.586   8.671  72.975  1.00  0.00    -0.395 OA 
HETATM   16  O   UNL     1      -7.225   7.481  71.213  1.00  0.00    -0.061 OA 
HETATM   17  O   UNL     1     -12.168   6.677  70.670  1.00  0.00    -0.377 OA 
HETATM   18  O   UNL     1     -11.312   7.819  72.611  1.00  0.00    -0.348 OA 
HETATM   19  O   UNL     1     -12.947   8.750  71.359  1.00  0.00    -0.320 OA 
HETATM   20  H   UNL     1      -9.923   6.011  71.941  1.00  0.00     0.000 HD 
ENDBRANCH   9  10
ENDBRANCH   8   9
ENDBRANCH   6   8
ENDBRANCH   5   6
ENDBRANCH   4   5
ENDBRANCH   3   4
ENDBRANCH   2   3
TORSDOF 7
ENDMDL
MODEL      239
REMARK 921   NORMALIZED FREE ENERGY PREDICTED BY IDOCK:   -2.73 KCAL/MOL
REMARK 922        TOTAL FREE ENERGY PREDICTED BY IDOCK:   -4.53 KCAL/MOL
REMARK 923 INTER-LIGAND FREE ENERGY PREDICTED BY IDOCK:   -3.89 KCAL/MOL
REMARK 924 INTRA-LIGAND FREE ENERGY PREDICTED BY IDOCK:   -0.65 KCAL/MOL
REMARK 927      BINDING AFFINITY PREDICTED BY RF-SCORE:    0.00 PKD
ROOT
HETATM    1  C   UNL     1     -10.293   3.654  63.824  1.00  0.00    -0.249 C  
HETATM    2  C   UNL     1      -9.464   4.465  64.806  1.00  0.00    -0.155 C  
ENDROOT
BRANCH   2   3
HETATM    3  C   UNL     1      -8.818   3.570  65.860  1.00  0.00    -0.128 C  
BRANCH   3   4
HETATM    4  C   UNL     1      -9.640   3.559  67.149  1.00  0.00    -0.160 C  
BRANCH   4   5
HETATM    5  C   UNL     1      -8.770   4.008  68.333  1.00  0.00    -0.100 C  
BRANCH   5   6
HETATM    6  N   UNL     1      -9.363   3.756  69.664  1.00  0.00    -0.161 NA 
HETATM    7  C   UNL     1      -9.466   2.311  69.924  1.00  0.00    -0.051 C  
BRANCH   6   8
HETATM    8  C   UNL     1      -8.521   4.355  70.725  1.00  0.00    -0.079 C  
BRANCH   8   9
HETATM    9  C   UNL     1      -9.295   5.214  71.734  1.00  0.00    -0.179 C  
BRANCH   9  10
HETATM   10  C   UNL     1      -9.491   6.705  71.331  1.00  0.00    -0.158 C  
HETATM   11  P   UNL     1      -8.792   7.696  72.701  1.00  0.00    -0.183 P  
HETATM   12  P   UNL     1     -11.255   7.094  70.992  1.00  0.00    -0.295 P  
HETATM   13  O   UNL     1      -8.731   6.936  70.095  1.00  0.00    -0.139 OA 
HETATM   14  O   UNL     1     -12.121   6.264  72.059  1.00  0.00    -0.337 OA 
HETATM   15  O   UNL     1     -11.762   8.490  70.868  1.00  0.00    -0.281 OA 
HETATM   16  O   UNL     1     -11.592   6.294  69.634  1.00  0.00    -0.430 OA 
HETATM   17  O   UNL     1      -7.304   7.494  71.990  1.00  0.00    -0.066 OA 
HETATM   18  O   UNL     1      -9.125   9.068  71.869  1.00  0.00    -0.365 OA 
HETATM   19  O   UNL     1      -8.200   8.534  73.860  1.00  0.00    -0.369 OA 
HETATM   20  H   UNL     1      -8.850   7.846  69.849  1.00  0.00     0.000 HD 
ENDBRANCH   9  10
ENDBRANCH   8   9
ENDBRANCH   6   8
ENDBRANCH   5   6
ENDBRANCH   4   5
ENDBRANCH   3   4
ENDBRANCH   2   3
TORSDOF 7
ENDMDL
MODEL      240
REMARK 921   NORMALIZED FREE ENERGY PREDICTED BY IDOCK:   -2.72 KCAL/MOL
REMARK 922        TOTAL FREE ENERGY PREDICTED BY IDOCK:   -4.52 KCAL/MOL
REMARK 923 INTER-LIGAND FREE ENERGY PREDICTED BY IDOCK:   -3.88 KCAL/MOL
REMARK 924 INTRA-LIGAND FREE ENERGY PREDICTED BY IDOCK:   -0.64 KCAL/MOL
REMARK 927      BINDING AFFINITY PREDICTED BY RF-SCORE:    0.00 PKD
ROOT
HETATM    1  C   UNL     1      -7.793  11.334  68.496  1.00  0.00    -0.138 C  
HETATM    2  C   UNL     1      -9.081  10.531  68.569  1.00  0.00    -0.154 C  
ENDROOT
BRANCH   2   3
HETATM    3  C   UNL     1     -10.290  11.438  68.780  1.00  0.00    -0.222 C  
BRANCH   3   4
HETATM    4  C   UNL     1     -11.379  10.723  69.580  1.00  0.00    -0.362 C  
BRANCH   4   5
HETATM    5  C   UNL     1     -10.833   9.403  70.149  1.00  0.00    -0.249 C  
BRANCH   5   6
HETATM    6  N   UNL     1     -11.638   8.825  71.247  1.00  0.00    -0.277 NA 
HETATM    7  C   UNL     1     -12.224   7.537  70.842  1.00  0.00    -0.194 C  
BRANCH   6   8
HETATM    8  C   UNL     1     -10.792   8.591  72.439  1.00  0.00    -0.308 C  
BRANCH   8   9
HETATM    9  C   UNL     1      -9.342   8.206  72.117  1.00  0.00    -0.270 C  
BRANCH   9  10
HETATM   10  C   UNL     1      -8.664   7.246  73.138  1.00  0.00    -0.136 C  
HETATM   11  P   UNL     1      -6.878   7.639  73.093  1.00  0.00    -0.082 P  
HETATM   12  P   UNL     1      -9.020   5.483  72.757  1.00  0.00    -0.117 P  
HETATM   13  O   UNL     1      -9.218   7.542  74.466  1.00  0.00    -0.428 OA 
HETATM   14  O   UNL     1      -9.011   5.349  71.157  1.00  0.00    -0.137 OA 
HETATM   15  O   UNL     1      -8.275   4.357  73.387  1.00  0.00    -0.093 OA 
HETATM   16  O   UNL     1     -10.591   5.310  73.071  1.00  0.00    -0.200 OA 
HETATM   17  O   UNL     1      -7.197   8.869  74.164  1.00  0.00    -0.396 OA 
HETATM   18  O   UNL     1      -6.612   6.534  74.275  1.00  0.00    -0.076 OA 
HETATM   19  O   UNL     1      -5.366   7.972  73.055  1.00  0.00    -0.040 OA 
HETATM   20  H   UNL     1      -8.805   6.956  75.089  1.00  0.00     0.000 HD 
ENDBRANCH   9  10
ENDBRANCH   8   9
ENDBRANCH   6   8
ENDBRANCH   5   6
ENDBRANCH   4   5
ENDBRANCH   3   4
ENDBRANCH   2   3
TORSDOF 7
ENDMDL
MODEL      241
REMARK 921   NORMALIZED FREE ENERGY PREDICTED BY IDOCK:   -2.72 KCAL/MOL
REMARK 922        TOTAL FREE ENERGY PREDICTED BY IDOCK:   -4.52 KCAL/MOL
REMARK 923 INTER-LIGAND FREE ENERGY PREDICTED BY IDOCK:   -4.12 KCAL/MOL
REMARK 924 INTRA-LIGAND FREE ENERGY PREDICTED BY IDOCK:   -0.39 KCAL/MOL
REMARK 927      BINDING AFFINITY PREDICTED BY RF-SCORE:    0.00 PKD
ROOT
HETATM    1  C   UNL     1      -9.494   3.085  63.764  1.00  0.00    -0.112 C  
HETATM    2  C   UNL     1      -9.176   4.374  64.502  1.00  0.00    -0.153 C  
ENDROOT
BRANCH   2   3
HETATM    3  C   UNL     1      -8.370   4.105  65.769  1.00  0.00    -0.109 C  
BRANCH   3   4
HETATM    4  C   UNL     1      -9.286   3.706  66.927  1.00  0.00    -0.204 C  
BRANCH   4   5
HETATM    5  C   UNL     1      -9.231   4.772  68.033  1.00  0.00    -0.123 C  
BRANCH   5   6
HETATM    6  N   UNL     1      -9.999   4.436  69.251  1.00  0.00    -0.147 NA 
HETATM    7  C   UNL     1      -9.133   3.799  70.255  1.00  0.00    -0.123 C  
BRANCH   6   8
HETATM    8  C   UNL     1     -10.576   5.660  69.851  1.00  0.00    -0.328 C  
BRANCH   8   9
HETATM    9  C   UNL     1     -10.671   5.628  71.383  1.00  0.00    -0.310 C  
BRANCH   9  10
HETATM   10  C   UNL     1     -10.556   7.011  72.088  1.00  0.00    -0.213 C  
HETATM   11  P   UNL     1     -10.997   8.260  70.826  1.00  0.00    -0.246 P  
HETATM   12  P   UNL     1      -8.884   7.275  72.803  1.00  0.00    -0.140 P  
HETATM   13  O   UNL     1     -11.528   7.032  73.189  1.00  0.00    -0.534 OA 
HETATM   14  O   UNL     1      -7.836   6.631  71.771  1.00  0.00    -0.100 OA 
HETATM   15  O   UNL     1      -8.411   8.607  73.276  1.00  0.00    -0.395 OA 
HETATM   16  O   UNL     1      -8.795   6.227  74.024  1.00  0.00    -0.122 OA 
HETATM   17  O   UNL     1     -12.589   7.977  71.210  1.00  0.00    -0.305 OA 
HETATM   18  O   UNL     1     -10.825   9.443  71.948  1.00  0.00    -0.310 OA 
HETATM   19  O   UNL     1     -11.372   9.317  69.759  1.00  0.00    -0.149 OA 
HETATM   20  H   UNL     1     -11.457   7.876  73.620  1.00  0.00     0.000 HD 
ENDBRANCH   9  10
ENDBRANCH   8   9
ENDBRANCH   6   8
ENDBRANCH   5   6
ENDBRANCH   4   5
ENDBRANCH   3   4
ENDBRANCH   2   3
TORSDOF 7
ENDMDL
MODEL      242
REMARK 921   NORMALIZED FREE ENERGY PREDICTED BY IDOCK:   -2.72 KCAL/MOL
REMARK 922        TOTAL FREE ENERGY PREDICTED BY IDOCK:   -4.51 KCAL/MOL
REMARK 923 INTER-LIGAND FREE ENERGY PREDICTED BY IDOCK:   -3.78 KCAL/MOL
REMARK 924 INTRA-LIGAND FREE ENERGY PREDICTED BY IDOCK:   -0.73 KCAL/MOL
REMARK 927      BINDING AFFINITY PREDICTED BY RF-SCORE:    0.00 PKD
ROOT
HETATM    1  C   UNL     1      -9.066  11.998  68.539  1.00  0.00    -0.107 C  
HETATM    2  C   UNL     1      -9.658  10.674  68.989  1.00  0.00    -0.207 C  
ENDROOT
BRANCH   2   3
HETATM    3  C   UNL     1     -11.001  10.874  69.687  1.00  0.00    -0.311 C  
BRANCH   3   4
HETATM    4  C   UNL     1     -11.282   9.738  70.670  1.00  0.00    -0.402 C  
BRANCH   4   5
HETATM    5  C   UNL     1     -11.141   8.381  69.961  1.00  0.00    -0.148 C  
BRANCH   5   6
HETATM    6  N   UNL     1     -11.177   7.208  70.862  1.00  0.00    -0.266 NA 
HETATM    7  C   UNL     1     -12.513   7.051  71.459  1.00  0.00    -0.386 C  
BRANCH   6   8
HETATM    8  C   UNL     1     -10.861   5.972  70.111  1.00  0.00    -0.339 C  
BRANCH   8   9
HETATM    9  C   UNL     1     -10.561   6.197  68.623  1.00  0.00    -0.324 C  
BRANCH   9  10
HETATM   10  C   UNL     1      -9.151   5.737  68.149  1.00  0.00    -0.110 C  
HETATM   11  P   UNL     1      -8.335   7.227  67.469  1.00  0.00    -0.116 P  
HETATM   12  P   UNL     1      -9.254   4.360  66.936  1.00  0.00    -0.166 P  
HETATM   13  O   UNL     1      -8.421   5.250  69.327  1.00  0.00    -0.099 OA 
HETATM   14  O   UNL     1     -10.530   4.659  66.010  1.00  0.00    -0.290 OA 
HETATM   15  O   UNL     1      -8.091   3.924  66.112  1.00  0.00    -0.099 OA 
HETATM   16  O   UNL     1      -9.785   3.104  67.795  1.00  0.00    -0.139 OA 
HETATM   17  O   UNL     1      -7.902   7.611  69.026  1.00  0.00    -0.114 OA 
HETATM   18  O   UNL     1      -6.978   6.350  67.193  1.00  0.00    -0.067 OA 
HETATM   19  O   UNL     1      -7.645   8.488  66.894  1.00  0.00    -0.089 OA 
HETATM   20  H   UNL     1      -7.561   4.969  69.038  1.00  0.00     0.000 HD 
ENDBRANCH   9  10
ENDBRANCH   8   9
ENDBRANCH   6   8
ENDBRANCH   5   6
ENDBRANCH   4   5
ENDBRANCH   3   4
ENDBRANCH   2   3
TORSDOF 7
ENDMDL
MODEL      243
REMARK 921   NORMALIZED FREE ENERGY PREDICTED BY IDOCK:   -2.71 KCAL/MOL
REMARK 922        TOTAL FREE ENERGY PREDICTED BY IDOCK:   -4.49 KCAL/MOL
REMARK 923 INTER-LIGAND FREE ENERGY PREDICTED BY IDOCK:   -3.99 KCAL/MOL
REMARK 924 INTRA-LIGAND FREE ENERGY PREDICTED BY IDOCK:   -0.51 KCAL/MOL
REMARK 927      BINDING AFFINITY PREDICTED BY RF-SCORE:    0.00 PKD
ROOT
HETATM    1  C   UNL     1      -9.463  15.482  67.102  1.00  0.00    -0.223 C  
HETATM    2  C   UNL     1     -10.059  14.117  66.802  1.00  0.00    -0.262 C  
ENDROOT
BRANCH   2   3
HETATM    3  C   UNL     1      -9.099  12.995  67.187  1.00  0.00    -0.225 C  
BRANCH   3   4
HETATM    4  C   UNL     1      -9.219  11.816  66.221  1.00  0.00    -0.227 C  
BRANCH   4   5
HETATM    5  C   UNL     1     -10.231  10.793  66.760  1.00  0.00    -0.230 C  
BRANCH   5   6
HETATM    6  N   UNL     1      -9.977  10.347  68.147  1.00  0.00    -0.147 NA 
HETATM    7  C   UNL     1     -11.218  10.371  68.938  1.00  0.00    -0.235 C  
BRANCH   6   8
HETATM    8  C   UNL     1      -9.454   8.962  68.155  1.00  0.00    -0.143 C  
BRANCH   8   9
HETATM    9  C   UNL     1     -10.061   8.051  67.079  1.00  0.00    -0.350 C  
BRANCH   9  10
HETATM   10  C   UNL     1      -9.938   6.523  67.351  1.00  0.00    -0.143 C  
HETATM   11  P   UNL     1      -9.925   6.333  69.171  1.00  0.00    -0.171 P  
HETATM   12  P   UNL     1      -8.452   5.804  66.544  1.00  0.00    -0.122 P  
HETATM   13  O   UNL     1     -11.124   5.872  66.778  1.00  0.00    -0.547 OA 
HETATM   14  O   UNL     1      -7.286   6.900  66.669  1.00  0.00    -0.072 OA 
HETATM   15  O   UNL     1      -7.938   4.444  66.870  1.00  0.00    -0.100 OA 
HETATM   16  O   UNL     1      -8.773   5.876  64.966  1.00  0.00    -0.114 OA 
HETATM   17  O   UNL     1     -11.584   6.389  69.115  1.00  0.00    -0.318 OA 
HETATM   18  O   UNL     1      -9.866   4.704  68.992  1.00  0.00    -0.175 OA 
HETATM   19  O   UNL     1      -9.914   6.172  70.710  1.00  0.00    -0.182 OA 
HETATM   20  H   UNL     1     -11.049   4.940  66.944  1.00  0.00     0.000 HD 
ENDBRANCH   9  10
ENDBRANCH   8   9
ENDBRANCH   6   8
ENDBRANCH   5   6
ENDBRANCH   4   5
ENDBRANCH   3   4
ENDBRANCH   2   3
TORSDOF 7
ENDMDL
MODEL      244
REMARK 921   NORMALIZED FREE ENERGY PREDICTED BY IDOCK:   -2.67 KCAL/MOL
REMARK 922        TOTAL FREE ENERGY PREDICTED BY IDOCK:   -4.45 KCAL/MOL
REMARK 923 INTER-LIGAND FREE ENERGY PREDICTED BY IDOCK:   -3.94 KCAL/MOL
REMARK 924 INTRA-LIGAND FREE ENERGY PREDICTED BY IDOCK:   -0.51 KCAL/MOL
REMARK 927      BINDING AFFINITY PREDICTED BY RF-SCORE:    0.00 PKD
ROOT
HETATM    1  C   UNL     1      -7.088   7.985  71.315  1.00  0.00    -0.057 C  
HETATM    2  C   UNL     1      -7.041   8.664  69.957  1.00  0.00    -0.047 C  
ENDROOT
BRANCH   2   3
HETATM    3  C   UNL     1      -7.716  10.032  69.996  1.00  0.00    -0.181 C  
BRANCH   3   4
HETATM    4  C   UNL     1      -9.193   9.926  69.614  1.00  0.00    -0.246 C  
BRANCH   4   5
HETATM    5  C   UNL     1      -9.354  10.059  68.091  1.00  0.00    -0.131 C  
BRANCH   5   6
HETATM    6  N   UNL     1      -9.144  11.426  67.566  1.00  0.00    -0.155 NA 
HETATM    7  C   UNL     1      -7.964  11.472  66.689  1.00  0.00    -0.127 C  
BRANCH   6   8
HETATM    8  C   UNL     1     -10.320  11.862  66.779  1.00  0.00    -0.209 C  
BRANCH   8   9
HETATM    9  C   UNL     1     -11.399  12.579  67.602  1.00  0.00    -0.362 C  
BRANCH   9  10
HETATM   10  C   UNL     1     -10.955  13.918  68.261  1.00  0.00    -0.255 C  
HETATM   11  P   UNL     1     -12.242  14.323  69.498  1.00  0.00    -0.149 P  
HETATM   12  P   UNL     1     -10.718  15.247  67.014  1.00  0.00    -0.311 P  
HETATM   13  O   UNL     1      -9.666  13.684  68.924  1.00  0.00    -0.405 OA 
HETATM   14  O   UNL     1     -11.867  15.052  65.910  1.00  0.00    -0.193 OA 
HETATM   15  O   UNL     1     -10.577  16.683  67.384  1.00  0.00    -0.318 OA 
HETATM   16  O   UNL     1      -9.414  14.793  66.182  1.00  0.00    -0.296 OA 
HETATM   17  O   UNL     1     -11.444  13.314  70.549  1.00  0.00     0.032 OA 
HETATM   18  O   UNL     1     -11.384  15.646  69.946  1.00  0.00    -0.281 OA 
HETATM   19  O   UNL     1     -13.330  14.665  70.544  1.00  0.00    -0.247 OA 
HETATM   20  H   UNL     1      -9.396  14.501  69.326  1.00  0.00     0.000 HD 
ENDBRANCH   9  10
ENDBRANCH   8   9
ENDBRANCH   6   8
ENDBRANCH   5   6
ENDBRANCH   4   5
ENDBRANCH   3   4
ENDBRANCH   2   3
TORSDOF 7
ENDMDL
MODEL      245
REMARK 921   NORMALIZED FREE ENERGY PREDICTED BY IDOCK:   -2.66 KCAL/MOL
REMARK 922        TOTAL FREE ENERGY PREDICTED BY IDOCK:   -4.43 KCAL/MOL
REMARK 923 INTER-LIGAND FREE ENERGY PREDICTED BY IDOCK:   -3.80 KCAL/MOL
REMARK 924 INTRA-LIGAND FREE ENERGY PREDICTED BY IDOCK:   -0.63 KCAL/MOL
REMARK 927      BINDING AFFINITY PREDICTED BY RF-SCORE:    0.00 PKD
ROOT
HETATM    1  C   UNL     1      -9.036   9.461  63.680  1.00  0.00    -0.151 C  
HETATM    2  C   UNL     1      -8.020  10.265  64.474  1.00  0.00    -0.133 C  
ENDROOT
BRANCH   2   3
HETATM    3  C   UNL     1      -7.045   9.352  65.213  1.00  0.00    -0.092 C  
BRANCH   3   4
HETATM    4  C   UNL     1      -6.894   9.780  66.673  1.00  0.00    -0.084 C  
BRANCH   4   5
HETATM    5  C   UNL     1      -7.618  11.114  66.909  1.00  0.00    -0.145 C  
BRANCH   5   6
HETATM    6  N   UNL     1      -8.243  11.249  68.242  1.00  0.00    -0.136 NA 
HETATM    7  C   UNL     1      -9.292  12.281  68.225  1.00  0.00    -0.199 C  
BRANCH   6   8
HETATM    8  C   UNL     1      -8.864   9.969  68.653  1.00  0.00    -0.132 C  
BRANCH   8   9
HETATM    9  C   UNL     1      -9.600  10.028  69.998  1.00  0.00    -0.205 C  
BRANCH   9  10
HETATM   10  C   UNL     1     -10.996   9.338  70.026  1.00  0.00    -0.229 C  
HETATM   11  P   UNL     1     -12.106  10.478  70.928  1.00  0.00    -0.394 P  
HETATM   12  P   UNL     1     -10.915   7.666  70.786  1.00  0.00    -0.256 P  
HETATM   13  O   UNL     1     -11.444   9.182  68.636  1.00  0.00    -0.248 OA 
HETATM   14  O   UNL     1      -9.865   7.762  71.997  1.00  0.00    -0.162 OA 
HETATM   15  O   UNL     1     -12.131   6.910  71.199  1.00  0.00    -0.347 OA 
HETATM   16  O   UNL     1     -10.083   6.780  69.728  1.00  0.00    -0.178 OA 
HETATM   17  O   UNL     1     -12.318  11.289  69.493  1.00  0.00    -0.277 OA 
HETATM   18  O   UNL     1     -13.360   9.457  70.661  1.00  0.00     0.021 OA 
HETATM   19  O   UNL     1     -13.046  11.444  71.691  1.00  0.00    -0.455 OA 
HETATM   20  H   UNL     1     -12.295   8.761  68.653  1.00  0.00     0.000 HD 
ENDBRANCH   9  10
ENDBRANCH   8   9
ENDBRANCH   6   8
ENDBRANCH   5   6
ENDBRANCH   4   5
ENDBRANCH   3   4
ENDBRANCH   2   3
TORSDOF 7
ENDMDL
MODEL      246
REMARK 921   NORMALIZED FREE ENERGY PREDICTED BY IDOCK:   -2.66 KCAL/MOL
REMARK 922        TOTAL FREE ENERGY PREDICTED BY IDOCK:   -4.42 KCAL/MOL
REMARK 923 INTER-LIGAND FREE ENERGY PREDICTED BY IDOCK:   -4.00 KCAL/MOL
REMARK 924 INTRA-LIGAND FREE ENERGY PREDICTED BY IDOCK:   -0.43 KCAL/MOL
REMARK 927      BINDING AFFINITY PREDICTED BY RF-SCORE:    0.00 PKD
ROOT
HETATM    1  C   UNL     1      -9.161   2.067  64.419  1.00  0.00    -0.131 C  
HETATM    2  C   UNL     1      -9.844   3.405  64.648  1.00  0.00    -0.146 C  
ENDROOT
BRANCH   2   3
HETATM    3  C   UNL     1      -8.978   4.334  65.493  1.00  0.00    -0.132 C  
BRANCH   3   4
HETATM    4  C   UNL     1      -9.189   4.075  66.985  1.00  0.00    -0.186 C  
BRANCH   4   5
HETATM    5  C   UNL     1      -9.476   5.397  67.714  1.00  0.00    -0.120 C  
BRANCH   5   6
HETATM    6  N   UNL     1     -10.384   5.276  68.874  1.00  0.00    -0.187 NA 
HETATM    7  C   UNL     1      -9.632   4.934  70.092  1.00  0.00    -0.193 C  
BRANCH   6   8
HETATM    8  C   UNL     1     -11.088   6.557  69.114  1.00  0.00    -0.326 C  
BRANCH   8   9
HETATM    9  C   UNL     1     -10.191   7.678  69.655  1.00  0.00    -0.204 C  
BRANCH   9  10
HETATM   10  C   UNL     1     -10.897   8.708  70.585  1.00  0.00    -0.229 C  
HETATM   11  P   UNL     1     -12.381   7.862  71.242  1.00  0.00    -0.195 P  
HETATM   12  P   UNL     1     -11.297  10.267  69.696  1.00  0.00    -0.221 P  
HETATM   13  O   UNL     1      -9.970   9.034  71.676  1.00  0.00    -0.309 OA 
HETATM   14  O   UNL     1     -11.740   9.848  68.211  1.00  0.00     0.030 OA 
HETATM   15  O   UNL     1     -12.217  11.298  70.253  1.00  0.00    -0.315 OA 
HETATM   16  O   UNL     1      -9.864  10.947  69.409  1.00  0.00    -0.154 OA 
HETATM   17  O   UNL     1     -11.395   7.196  72.402  1.00  0.00    -0.257 OA 
HETATM   18  O   UNL     1     -12.728   9.187  72.143  1.00  0.00    -0.368 OA 
HETATM   19  O   UNL     1     -13.635   7.146  71.799  1.00  0.00    -0.354 OA 
HETATM   20  H   UNL     1     -10.401   9.663  72.243  1.00  0.00     0.000 HD 
ENDBRANCH   9  10
ENDBRANCH   8   9
ENDBRANCH   6   8
ENDBRANCH   5   6
ENDBRANCH   4   5
ENDBRANCH   3   4
ENDBRANCH   2   3
TORSDOF 7
ENDMDL
MODEL      247
REMARK 921   NORMALIZED FREE ENERGY PREDICTED BY IDOCK:   -2.65 KCAL/MOL
REMARK 922        TOTAL FREE ENERGY PREDICTED BY IDOCK:   -4.42 KCAL/MOL
REMARK 923 INTER-LIGAND FREE ENERGY PREDICTED BY IDOCK:   -3.88 KCAL/MOL
REMARK 924 INTRA-LIGAND FREE ENERGY PREDICTED BY IDOCK:   -0.54 KCAL/MOL
REMARK 927      BINDING AFFINITY PREDICTED BY RF-SCORE:    0.00 PKD
ROOT
HETATM    1  C   UNL     1      -7.457  10.043  65.381  1.00  0.00    -0.139 C  
HETATM    2  C   UNL     1      -8.418  10.445  66.487  1.00  0.00    -0.132 C  
ENDROOT
BRANCH   2   3
HETATM    3  C   UNL     1      -9.793   9.816  66.284  1.00  0.00    -0.315 C  
BRANCH   3   4
HETATM    4  C   UNL     1     -10.393   9.369  67.618  1.00  0.00    -0.303 C  
BRANCH   4   5
HETATM    5  C   UNL     1      -9.808   8.009  68.029  1.00  0.00    -0.167 C  
BRANCH   5   6
HETATM    6  N   UNL     1     -10.816   6.965  68.318  1.00  0.00    -0.206 NA 
HETATM    7  C   UNL     1     -10.745   5.883  67.323  1.00  0.00    -0.297 C  
BRANCH   6   8
HETATM    8  C   UNL     1     -10.580   6.377  69.656  1.00  0.00    -0.254 C  
BRANCH   8   9
HETATM    9  C   UNL     1      -9.120   6.442  70.125  1.00  0.00    -0.154 C  
BRANCH   9  10
HETATM   10  C   UNL     1      -8.914   6.424  71.668  1.00  0.00    -0.144 C  
HETATM   11  P   UNL     1     -10.441   5.705  72.374  1.00  0.00    -0.231 P  
HETATM   12  P   UNL     1      -8.540   8.098  72.327  1.00  0.00    -0.199 P  
HETATM   13  O   UNL     1      -7.763   5.557  71.954  1.00  0.00    -0.100 OA 
HETATM   14  O   UNL     1      -9.437   9.132  71.488  1.00  0.00    -0.267 OA 
HETATM   15  O   UNL     1      -8.581   8.419  73.781  1.00  0.00    -0.277 OA 
HETATM   16  O   UNL     1      -7.070   8.437  71.760  1.00  0.00    -0.078 OA 
HETATM   17  O   UNL     1      -9.788   4.207  72.071  1.00  0.00    -0.158 OA 
HETATM   18  O   UNL     1      -9.787   5.806  73.874  1.00  0.00    -0.159 OA 
HETATM   19  O   UNL     1     -11.733   5.095  72.971  1.00  0.00    -0.303 OA 
HETATM   20  H   UNL     1      -7.637   5.546  72.896  1.00  0.00     0.000 HD 
ENDBRANCH   9  10
ENDBRANCH   8   9
ENDBRANCH   6   8
ENDBRANCH   5   6
ENDBRANCH   4   5
ENDBRANCH   3   4
ENDBRANCH   2   3
TORSDOF 7
ENDMDL
MODEL      248
REMARK 921   NORMALIZED FREE ENERGY PREDICTED BY IDOCK:   -2.65 KCAL/MOL
REMARK 922        TOTAL FREE ENERGY PREDICTED BY IDOCK:   -4.41 KCAL/MOL
REMARK 923 INTER-LIGAND FREE ENERGY PREDICTED BY IDOCK:   -4.39 KCAL/MOL
REMARK 924 INTRA-LIGAND FREE ENERGY PREDICTED BY IDOCK:   -0.02 KCAL/MOL
REMARK 927      BINDING AFFINITY PREDICTED BY RF-SCORE:    0.00 PKD
ROOT
HETATM    1  C   UNL     1     -12.643   8.586  72.319  1.00  0.00    -0.438 C  
HETATM    2  C   UNL     1     -13.543   9.712  71.838  1.00  0.00    -0.446 C  
ENDROOT
BRANCH   2   3
HETATM    3  C   UNL     1     -12.775  10.707  70.973  1.00  0.00    -0.512 C  
BRANCH   3   4
HETATM    4  C   UNL     1     -11.427  10.129  70.539  1.00  0.00    -0.417 C  
BRANCH   4   5
HETATM    5  C   UNL     1     -10.844  10.961  69.386  1.00  0.00    -0.240 C  
BRANCH   5   6
HETATM    6  N   UNL     1     -11.611  10.887  68.123  1.00  0.00    -0.501 NA 
HETATM    7  C   UNL     1     -11.828  12.232  67.567  1.00  0.00    -0.261 C  
BRANCH   6   8
HETATM    8  C   UNL     1     -10.875  10.087  67.119  1.00  0.00    -0.170 C  
BRANCH   8   9
HETATM    9  C   UNL     1     -10.554   8.654  67.566  1.00  0.00    -0.292 C  
BRANCH   9  10
HETATM   10  C   UNL     1      -9.079   8.202  67.351  1.00  0.00    -0.134 C  
HETATM   11  P   UNL     1      -8.428   9.233  65.987  1.00  0.00    -0.149 P  
HETATM   12  P   UNL     1      -8.961   6.401  67.007  1.00  0.00    -0.126 P  
HETATM   13  O   UNL     1      -8.344   8.475  68.593  1.00  0.00    -0.121 OA 
HETATM   14  O   UNL     1     -10.226   6.024  66.092  1.00  0.00    -0.038 OA 
HETATM   15  O   UNL     1      -7.721   5.761  66.486  1.00  0.00    -0.097 OA 
HETATM   16  O   UNL     1      -9.368   5.695  68.398  1.00  0.00    -0.116 OA 
HETATM   17  O   UNL     1      -8.110  10.404  67.123  1.00  0.00    -0.114 OA 
HETATM   18  O   UNL     1      -6.962   8.519  66.157  1.00  0.00    -0.074 OA 
HETATM   19  O   UNL     1      -7.877  10.106  64.834  1.00  0.00    -0.141 OA 
HETATM   20  H   UNL     1      -7.445   8.199  68.462  1.00  0.00     0.000 HD 
ENDBRANCH   9  10
ENDBRANCH   8   9
ENDBRANCH   6   8
ENDBRANCH   5   6
ENDBRANCH   4   5
ENDBRANCH   3   4
ENDBRANCH   2   3
TORSDOF 7
ENDMDL
MODEL      249
REMARK 921   NORMALIZED FREE ENERGY PREDICTED BY IDOCK:   -2.64 KCAL/MOL
REMARK 922        TOTAL FREE ENERGY PREDICTED BY IDOCK:   -4.40 KCAL/MOL
REMARK 923 INTER-LIGAND FREE ENERGY PREDICTED BY IDOCK:   -3.94 KCAL/MOL
REMARK 924 INTRA-LIGAND FREE ENERGY PREDICTED BY IDOCK:   -0.46 KCAL/MOL
REMARK 927      BINDING AFFINITY PREDICTED BY RF-SCORE:    0.00 PKD
ROOT
HETATM    1  C   UNL     1      -9.973  11.023  63.912  1.00  0.00    -0.396 C  
HETATM    2  C   UNL     1     -10.739  11.980  64.809  1.00  0.00    -0.352 C  
ENDROOT
BRANCH   2   3
HETATM    3  C   UNL     1     -11.086  11.329  66.146  1.00  0.00    -0.207 C  
BRANCH   3   4
HETATM    4  C   UNL     1      -9.859  11.257  67.055  1.00  0.00    -0.217 C  
BRANCH   4   5
HETATM    5  C   UNL     1      -9.972  10.048  67.997  1.00  0.00    -0.150 C  
BRANCH   5   6
HETATM    6  N   UNL     1      -9.750   8.737  67.348  1.00  0.00    -0.164 NA 
HETATM    7  C   UNL     1      -8.367   8.625  66.860  1.00  0.00    -0.108 C  
BRANCH   6   8
HETATM    8  C   UNL     1      -9.989   7.638  68.311  1.00  0.00    -0.176 C  
BRANCH   8   9
HETATM    9  C   UNL     1      -9.527   7.943  69.743  1.00  0.00    -0.163 C  
BRANCH   9  10
HETATM   10  C   UNL     1      -9.718   6.785  70.766  1.00  0.00    -0.179 C  
HETATM   11  P   UNL     1      -9.613   5.234  69.801  1.00  0.00    -0.203 P  
HETATM   12  P   UNL     1     -11.298   6.947  71.691  1.00  0.00    -0.292 P  
HETATM   13  O   UNL     1      -8.617   6.859  71.735  1.00  0.00    -0.120 OA 
HETATM   14  O   UNL     1     -12.386   7.499  70.648  1.00  0.00    -0.141 OA 
HETATM   15  O   UNL     1     -11.866   5.842  72.514  1.00  0.00    -0.297 OA 
HETATM   16  O   UNL     1     -11.087   8.241  72.629  1.00  0.00    -0.367 OA 
HETATM   17  O   UNL     1      -7.961   5.347  69.940  1.00  0.00    -0.079 OA 
HETATM   18  O   UNL     1      -9.779   4.371  71.184  1.00  0.00    -0.163 OA 
HETATM   19  O   UNL     1      -9.522   3.922  68.984  1.00  0.00    -0.162 OA 
HETATM   20  H   UNL     1      -8.734   6.153  72.359  1.00  0.00     0.000 HD 
ENDBRANCH   9  10
ENDBRANCH   8   9
ENDBRANCH   6   8
ENDBRANCH   5   6
ENDBRANCH   4   5
ENDBRANCH   3   4
ENDBRANCH   2   3
TORSDOF 7
ENDMDL
MODEL      250
REMARK 921   NORMALIZED FREE ENERGY PREDICTED BY IDOCK:   -2.63 KCAL/MOL
REMARK 922        TOTAL FREE ENERGY PREDICTED BY IDOCK:   -4.39 KCAL/MOL
REMARK 923 INTER-LIGAND FREE ENERGY PREDICTED BY IDOCK:   -4.01 KCAL/MOL
REMARK 924 INTRA-LIGAND FREE ENERGY PREDICTED BY IDOCK:   -0.38 KCAL/MOL
REMARK 927      BINDING AFFINITY PREDICTED BY RF-SCORE:    0.00 PKD
ROOT
HETATM    1  C   UNL     1     -10.091  15.544  70.699  1.00  0.00     0.390 C  
HETATM    2  C   UNL     1     -11.529  15.410  70.230  1.00  0.00    -0.339 C  
ENDROOT
BRANCH   2   3
HETATM    3  C   UNL     1     -11.691  15.891  68.790  1.00  0.00    -0.355 C  
BRANCH   3   4
HETATM    4  C   UNL     1     -10.522  16.787  68.378  1.00  0.00    -0.339 C  
BRANCH   4   5
HETATM    5  C   UNL     1     -10.413  16.837  66.846  1.00  0.00    -0.269 C  
BRANCH   5   6
HETATM    6  N   UNL     1      -9.374  15.954  66.272  1.00  0.00    -0.293 NA 
HETATM    7  C   UNL     1      -8.121  16.059  67.036  1.00  0.00    -0.222 C  
BRANCH   6   8
HETATM    8  C   UNL     1      -9.819  14.543  66.310  1.00  0.00    -0.304 C  
BRANCH   8   9
HETATM    9  C   UNL     1      -9.190  13.712  67.437  1.00  0.00    -0.222 C  
BRANCH   9  10
HETATM   10  C   UNL     1      -8.859  12.235  67.074  1.00  0.00    -0.205 C  
HETATM   11  P   UNL     1     -10.236  11.230  67.736  1.00  0.00    -0.193 P  
HETATM   12  P   UNL     1      -7.219  11.723  67.727  1.00  0.00    -0.118 P  
HETATM   13  O   UNL     1      -8.813  12.136  65.609  1.00  0.00    -0.404 OA 
HETATM   14  O   UNL     1      -7.061  12.419  69.166  1.00  0.00    -0.082 OA 
HETATM   15  O   UNL     1      -6.781  10.300  67.776  1.00  0.00    -0.072 OA 
HETATM   16  O   UNL     1      -6.156  12.567  66.859  1.00  0.00    -0.251 OA 
HETATM   17  O   UNL     1     -11.071  11.591  66.346  1.00  0.00    -0.296 OA 
HETATM   18  O   UNL     1      -9.549   9.884  67.103  1.00  0.00    -0.154 OA 
HETATM   19  O   UNL     1     -11.403  10.380  68.296  1.00  0.00    -0.284 OA 
HETATM   20  H   UNL     1      -8.611  11.235  65.387  1.00  0.00     0.000 HD 
ENDBRANCH   9  10
ENDBRANCH   8   9
ENDBRANCH   6   8
ENDBRANCH   5   6
ENDBRANCH   4   5
ENDBRANCH   3   4
ENDBRANCH   2   3
TORSDOF 7
ENDMDL
MODEL      251
REMARK 921   NORMALIZED FREE ENERGY PREDICTED BY IDOCK:   -2.62 KCAL/MOL
REMARK 922        TOTAL FREE ENERGY PREDICTED BY IDOCK:   -4.37 KCAL/MOL
REMARK 923 INTER-LIGAND FREE ENERGY PREDICTED BY IDOCK:   -4.44 KCAL/MOL
REMARK 924 INTRA-LIGAND FREE ENERGY PREDICTED BY IDOCK:    0.06 KCAL/MOL
REMARK 927      BINDING AFFINITY PREDICTED BY RF-SCORE:    0.00 PKD
ROOT
HETATM    1  C   UNL     1     -14.363   8.538  71.841  1.00  0.00    -0.536 C  
HETATM    2  C   UNL     1     -13.192   9.457  71.536  1.00  0.00    -0.456 C  
ENDROOT
BRANCH   2   3
HETATM    3  C   UNL     1     -11.858   8.757  71.780  1.00  0.00    -0.414 C  
BRANCH   3   4
HETATM    4  C   UNL     1     -11.212   8.335  70.460  1.00  0.00    -0.247 C  
BRANCH   4   5
HETATM    5  C   UNL     1     -11.014   9.562  69.555  1.00  0.00    -0.195 C  
BRANCH   5   6
HETATM    6  N   UNL     1      -9.766  10.316  69.804  1.00  0.00    -0.194 NA 
HETATM    7  C   UNL     1      -8.729   9.438  70.367  1.00  0.00    -0.240 C  
BRANCH   6   8
HETATM    8  C   UNL     1      -9.248  10.887  68.539  1.00  0.00    -0.181 C  
BRANCH   8   9
HETATM    9  C   UNL     1      -8.269   9.974  67.789  1.00  0.00    -0.113 C  
BRANCH   9  10
HETATM   10  C   UNL     1      -8.296  10.099  66.237  1.00  0.00    -0.130 C  
HETATM   11  P   UNL     1      -9.904  10.865  65.819  1.00  0.00    -0.266 P  
HETATM   12  P   UNL     1      -8.042   8.474  65.417  1.00  0.00    -0.142 P  
HETATM   13  O   UNL     1      -7.192  10.983  65.842  1.00  0.00    -0.317 OA 
HETATM   14  O   UNL     1      -8.815   7.384  66.309  1.00  0.00    -0.148 OA 
HETATM   15  O   UNL     1      -8.304   8.254  63.967  1.00  0.00    -0.132 OA 
HETATM   16  O   UNL     1      -6.508   8.096  65.734  1.00  0.00    -0.051 OA 
HETATM   17  O   UNL     1      -9.198  12.338  66.122  1.00  0.00    -0.214 OA 
HETATM   18  O   UNL     1      -9.483  10.867  64.235  1.00  0.00    -0.220 OA 
HETATM   19  O   UNL     1     -11.265  11.514  65.466  1.00  0.00    -0.244 OA 
HETATM   20  H   UNL     1      -7.208  11.059  64.895  1.00  0.00     0.000 HD 
ENDBRANCH   9  10
ENDBRANCH   8   9
ENDBRANCH   6   8
ENDBRANCH   5   6
ENDBRANCH   4   5
ENDBRANCH   3   4
ENDBRANCH   2   3
TORSDOF 7
ENDMDL
MODEL      252
REMARK 921   NORMALIZED FREE ENERGY PREDICTED BY IDOCK:   -2.59 KCAL/MOL
REMARK 922        TOTAL FREE ENERGY PREDICTED BY IDOCK:   -4.33 KCAL/MOL
REMARK 923 INTER-LIGAND FREE ENERGY PREDICTED BY IDOCK:   -4.03 KCAL/MOL
REMARK 924 INTRA-LIGAND FREE ENERGY PREDICTED BY IDOCK:   -0.30 KCAL/MOL
REMARK 927      BINDING AFFINITY PREDICTED BY RF-SCORE:    0.00 PKD
ROOT
HETATM    1  C   UNL     1      -8.667   6.333  68.084  1.00  0.00    -0.115 C  
HETATM    2  C   UNL     1      -7.788   7.411  68.696  1.00  0.00    -0.122 C  
ENDROOT
BRANCH   2   3
HETATM    3  C   UNL     1      -6.903   8.070  67.642  1.00  0.00    -0.070 C  
BRANCH   3   4
HETATM    4  C   UNL     1      -7.005   9.594  67.717  1.00  0.00    -0.079 C  
BRANCH   4   5
HETATM    5  C   UNL     1      -8.211  10.000  68.578  1.00  0.00    -0.108 C  
BRANCH   5   6
HETATM    6  N   UNL     1      -9.105  11.001  67.956  1.00  0.00    -0.147 NA 
HETATM    7  C   UNL     1     -10.438  10.968  68.577  1.00  0.00    -0.189 C  
BRANCH   6   8
HETATM    8  C   UNL     1      -8.550  12.363  68.128  1.00  0.00    -0.185 C  
BRANCH   8   9
HETATM    9  C   UNL     1      -8.835  13.313  66.956  1.00  0.00    -0.216 C  
BRANCH   9  10
HETATM   10  C   UNL     1      -9.263  14.756  67.355  1.00  0.00    -0.196 C  
HETATM   11  P   UNL     1      -9.972  15.508  65.845  1.00  0.00    -0.386 P  
HETATM   12  P   UNL     1      -7.857  15.719  68.043  1.00  0.00    -0.143 P  
HETATM   13  O   UNL     1     -10.290  14.644  68.399  1.00  0.00    -0.226 OA 
HETATM   14  O   UNL     1      -6.557  15.299  67.200  1.00  0.00    -0.292 OA 
HETATM   15  O   UNL     1      -7.910  17.195  68.235  1.00  0.00    -0.208 OA 
HETATM   16  O   UNL     1      -7.543  15.019  69.461  1.00  0.00    -0.192 OA 
HETATM   17  O   UNL     1     -11.405  14.764  66.236  1.00  0.00    -0.343 OA 
HETATM   18  O   UNL     1     -10.320  16.866  66.694  1.00  0.00    -0.306 OA 
HETATM   19  O   UNL     1     -10.572  16.144  64.568  1.00  0.00    -0.509 OA 
HETATM   20  H   UNL     1     -10.550  15.524  68.643  1.00  0.00     0.000 HD 
ENDBRANCH   9  10
ENDBRANCH   8   9
ENDBRANCH   6   8
ENDBRANCH   5   6
ENDBRANCH   4   5
ENDBRANCH   3   4
ENDBRANCH   2   3
TORSDOF 7
ENDMDL
MODEL      253
REMARK 921   NORMALIZED FREE ENERGY PREDICTED BY IDOCK:   -2.59 KCAL/MOL
REMARK 922        TOTAL FREE ENERGY PREDICTED BY IDOCK:   -4.33 KCAL/MOL
REMARK 923 INTER-LIGAND FREE ENERGY PREDICTED BY IDOCK:   -3.84 KCAL/MOL
REMARK 924 INTRA-LIGAND FREE ENERGY PREDICTED BY IDOCK:   -0.49 KCAL/MOL
REMARK 927      BINDING AFFINITY PREDICTED BY RF-SCORE:    0.00 PKD
ROOT
HETATM    1  C   UNL     1     -13.889   8.600  71.766  1.00  0.00    -0.472 C  
HETATM    2  C   UNL     1     -13.273   9.987  71.683  1.00  0.00    -0.518 C  
ENDROOT
BRANCH   2   3
HETATM    3  C   UNL     1     -11.758   9.913  71.515  1.00  0.00    -0.414 C  
BRANCH   3   4
HETATM    4  C   UNL     1     -11.380   9.014  70.337  1.00  0.00    -0.242 C  
BRANCH   4   5
HETATM    5  C   UNL     1     -10.084   8.251  70.652  1.00  0.00    -0.191 C  
BRANCH   5   6
HETATM    6  N   UNL     1     -10.225   6.779  70.678  1.00  0.00    -0.195 NA 
HETATM    7  C   UNL     1     -11.539   6.372  70.155  1.00  0.00    -0.381 C  
BRANCH   6   8
HETATM    8  C   UNL     1      -9.181   6.146  69.840  1.00  0.00    -0.149 C  
BRANCH   8   9
HETATM    9  C   UNL     1      -9.385   6.334  68.330  1.00  0.00    -0.113 C  
BRANCH   9  10
HETATM   10  C   UNL     1      -8.352   5.603  67.422  1.00  0.00    -0.100 C  
HETATM   11  P   UNL     1      -7.696   6.873  66.280  1.00  0.00    -0.100 P  
HETATM   12  P   UNL     1      -9.105   4.173  66.547  1.00  0.00    -0.157 P  
HETATM   13  O   UNL     1      -7.280   5.092  68.286  1.00  0.00    -0.061 OA 
HETATM   14  O   UNL     1     -10.597   4.612  66.147  1.00  0.00    -0.295 OA 
HETATM   15  O   UNL     1      -8.434   3.481  65.410  1.00  0.00    -0.104 OA 
HETATM   16  O   UNL     1      -9.403   3.098  67.710  1.00  0.00    -0.189 OA 
HETATM   17  O   UNL     1      -6.632   7.299  67.483  1.00  0.00    -0.052 OA 
HETATM   18  O   UNL     1      -6.685   5.757  65.631  1.00  0.00    -0.045 OA 
HETATM   19  O   UNL     1      -7.140   7.948  65.314  1.00  0.00    -0.058 OA 
HETATM   20  H   UNL     1      -6.651   4.646  67.732  1.00  0.00     0.000 HD 
ENDBRANCH   9  10
ENDBRANCH   8   9
ENDBRANCH   6   8
ENDBRANCH   5   6
ENDBRANCH   4   5
ENDBRANCH   3   4
ENDBRANCH   2   3
TORSDOF 7
ENDMDL
MODEL      254
REMARK 921   NORMALIZED FREE ENERGY PREDICTED BY IDOCK:   -2.58 KCAL/MOL
REMARK 922        TOTAL FREE ENERGY PREDICTED BY IDOCK:   -4.32 KCAL/MOL
REMARK 923 INTER-LIGAND FREE ENERGY PREDICTED BY IDOCK:   -3.84 KCAL/MOL
REMARK 924 INTRA-LIGAND FREE ENERGY PREDICTED BY IDOCK:   -0.49 KCAL/MOL
REMARK 927      BINDING AFFINITY PREDICTED BY RF-SCORE:    0.00 PKD
ROOT
HETATM    1  C   UNL     1     -10.943  12.665  64.170  1.00  0.00    -0.427 C  
HETATM    2  C   UNL     1     -10.008  11.946  63.211  1.00  0.00    -0.409 C  
ENDROOT
BRANCH   2   3
HETATM    3  C   UNL     1      -9.727  10.520  63.674  1.00  0.00    -0.375 C  
BRANCH   3   4
HETATM    4  C   UNL     1      -9.531  10.464  65.189  1.00  0.00    -0.303 C  
BRANCH   4   5
HETATM    5  C   UNL     1      -8.792   9.174  65.578  1.00  0.00    -0.191 C  
BRANCH   5   6
HETATM    6  N   UNL     1      -9.248   8.559  66.844  1.00  0.00    -0.150 NA 
HETATM    7  C   UNL     1      -9.561   7.135  66.649  1.00  0.00    -0.170 C  
BRANCH   6   8
HETATM    8  C   UNL     1      -8.192   8.661  67.876  1.00  0.00    -0.115 C  
BRANCH   8   9
HETATM    9  C   UNL     1      -8.588   9.493  69.103  1.00  0.00    -0.140 C  
BRANCH   9  10
HETATM   10  C   UNL     1      -8.628   8.717  70.452  1.00  0.00    -0.153 C  
HETATM   11  P   UNL     1      -7.582   7.235  70.213  1.00  0.00    -0.091 P  
HETATM   12  P   UNL     1     -10.349   8.306  70.951  1.00  0.00    -0.203 P  
HETATM   13  O   UNL     1      -8.053   9.587  71.486  1.00  0.00    -0.206 OA 
HETATM   14  O   UNL     1     -11.142   7.938  69.605  1.00  0.00    -0.165 OA 
HETATM   15  O   UNL     1     -10.662   7.330  72.033  1.00  0.00    -0.207 OA 
HETATM   16  O   UNL     1     -11.013   9.726  71.321  1.00  0.00    -0.351 OA 
HETATM   17  O   UNL     1      -6.273   8.191  70.578  1.00  0.00    -0.035 OA 
HETATM   18  O   UNL     1      -7.842   6.808  71.775  1.00  0.00    -0.099 OA 
HETATM   19  O   UNL     1      -6.696   5.982  70.012  1.00  0.00    -0.048 OA 
HETATM   20  H   UNL     1      -8.077   9.113  72.308  1.00  0.00     0.000 HD 
ENDBRANCH   9  10
ENDBRANCH   8   9
ENDBRANCH   6   8
ENDBRANCH   5   6
ENDBRANCH   4   5
ENDBRANCH   3   4
ENDBRANCH   2   3
TORSDOF 7
ENDMDL
MODEL      255
REMARK 921   NORMALIZED FREE ENERGY PREDICTED BY IDOCK:   -2.58 KCAL/MOL
REMARK 922        TOTAL FREE ENERGY PREDICTED BY IDOCK:   -4.31 KCAL/MOL
REMARK 923 INTER-LIGAND FREE ENERGY PREDICTED BY IDOCK:   -3.72 KCAL/MOL
REMARK 924 INTRA-LIGAND FREE ENERGY PREDICTED BY IDOCK:   -0.59 KCAL/MOL
REMARK 927      BINDING AFFINITY PREDICTED BY RF-SCORE:    0.00 PKD
ROOT
HETATM    1  C   UNL     1     -12.331  14.439  64.492  1.00  0.00    -0.440 C  
HETATM    2  C   UNL     1     -10.909  14.643  64.987  1.00  0.00    -0.431 C  
ENDROOT
BRANCH   2   3
HETATM    3  C   UNL     1     -10.765  14.230  66.449  1.00  0.00    -0.297 C  
BRANCH   3   4
HETATM    4  C   UNL     1      -9.768  13.081  66.597  1.00  0.00    -0.256 C  
BRANCH   4   5
HETATM    5  C   UNL     1     -10.088  12.266  67.860  1.00  0.00    -0.200 C  
BRANCH   5   6
HETATM    6  N   UNL     1     -10.022  10.799  67.681  1.00  0.00    -0.170 NA 
HETATM    7  C   UNL     1     -10.446  10.420  66.324  1.00  0.00    -0.159 C  
BRANCH   6   8
HETATM    8  C   UNL     1      -8.637  10.317  67.882  1.00  0.00    -0.118 C  
BRANCH   8   9
HETATM    9  C   UNL     1      -8.320   9.887  69.321  1.00  0.00    -0.151 C  
BRANCH   9  10
HETATM   10  C   UNL     1      -8.739   8.434  69.691  1.00  0.00    -0.133 C  
HETATM   11  P   UNL     1      -9.041   8.440  71.496  1.00  0.00    -0.238 P  
HETATM   12  P   UNL     1      -7.468   7.208  69.182  1.00  0.00    -0.097 P  
HETATM   13  O   UNL     1      -9.979   8.128  68.967  1.00  0.00    -0.179 OA 
HETATM   14  O   UNL     1      -6.039   7.893  69.439  1.00  0.00    -0.033 OA 
HETATM   15  O   UNL     1      -7.473   5.797  69.661  1.00  0.00    -0.072 OA 
HETATM   16  O   UNL     1      -7.525   7.212  67.571  1.00  0.00    -0.096 OA 
HETATM   17  O   UNL     1     -10.569   9.004  71.163  1.00  0.00    -0.240 OA 
HETATM   18  O   UNL     1      -9.489   6.865  71.418  1.00  0.00    -0.160 OA 
HETATM   19  O   UNL     1      -9.298   8.445  73.022  1.00  0.00    -0.253 OA 
HETATM   20  H   UNL     1     -10.234   7.242  69.192  1.00  0.00     0.000 HD 
ENDBRANCH   9  10
ENDBRANCH   8   9
ENDBRANCH   6   8
ENDBRANCH   5   6
ENDBRANCH   4   5
ENDBRANCH   3   4
ENDBRANCH   2   3
TORSDOF 7
ENDMDL
MODEL      256
REMARK 921   NORMALIZED FREE ENERGY PREDICTED BY IDOCK:   -2.55 KCAL/MOL
REMARK 922        TOTAL FREE ENERGY PREDICTED BY IDOCK:   -4.28 KCAL/MOL
REMARK 923 INTER-LIGAND FREE ENERGY PREDICTED BY IDOCK:   -3.87 KCAL/MOL
REMARK 924 INTRA-LIGAND FREE ENERGY PREDICTED BY IDOCK:   -0.41 KCAL/MOL
REMARK 927      BINDING AFFINITY PREDICTED BY RF-SCORE:    0.00 PKD
ROOT
HETATM    1  C   UNL     1     -11.834  14.560  64.835  1.00  0.00    -0.417 C  
HETATM    2  C   UNL     1     -10.578  15.311  65.246  1.00  0.00    -0.438 C  
ENDROOT
BRANCH   2   3
HETATM    3  C   UNL     1     -10.070  14.840  66.606  1.00  0.00    -0.269 C  
BRANCH   3   4
HETATM    4  C   UNL     1      -9.446  13.448  66.506  1.00  0.00    -0.252 C  
BRANCH   4   5
HETATM    5  C   UNL     1      -9.413  12.785  67.892  1.00  0.00    -0.208 C  
BRANCH   5   6
HETATM    6  N   UNL     1      -9.819  11.363  67.905  1.00  0.00    -0.175 NA 
HETATM    7  C   UNL     1     -10.884  11.115  66.920  1.00  0.00    -0.279 C  
BRANCH   6   8
HETATM    8  C   UNL     1      -8.668  10.495  67.566  1.00  0.00    -0.125 C  
BRANCH   8   9
HETATM    9  C   UNL     1      -7.820  10.071  68.773  1.00  0.00    -0.094 C  
BRANCH   9  10
HETATM   10  C   UNL     1      -7.984   8.587  69.215  1.00  0.00    -0.111 C  
HETATM   11  P   UNL     1      -8.882   7.751  67.857  1.00  0.00    -0.120 P  
HETATM   12  P   UNL     1      -8.843   8.449  70.834  1.00  0.00    -0.189 P  
HETATM   13  O   UNL     1      -6.639   8.016  69.366  1.00  0.00    -0.035 OA 
HETATM   14  O   UNL     1      -9.973   9.589  70.853  1.00  0.00    -0.284 OA 
HETATM   15  O   UNL     1      -9.382   7.160  71.351  1.00  0.00    -0.154 OA 
HETATM   16  O   UNL     1      -7.792   9.041  71.902  1.00  0.00    -0.345 OA 
HETATM   17  O   UNL     1      -7.414   7.568  67.099  1.00  0.00    -0.094 OA 
HETATM   18  O   UNL     1      -8.763   6.329  68.665  1.00  0.00    -0.120 OA 
HETATM   19  O   UNL     1      -9.640   7.043  66.708  1.00  0.00    -0.158 OA 
HETATM   20  H   UNL     1      -6.739   7.110  69.636  1.00  0.00     0.000 HD 
ENDBRANCH   9  10
ENDBRANCH   8   9
ENDBRANCH   6   8
ENDBRANCH   5   6
ENDBRANCH   4   5
ENDBRANCH   3   4
ENDBRANCH   2   3
TORSDOF 7
ENDMDL
MODEL      257
REMARK 921   NORMALIZED FREE ENERGY PREDICTED BY IDOCK:   -2.55 KCAL/MOL
REMARK 922        TOTAL FREE ENERGY PREDICTED BY IDOCK:   -4.27 KCAL/MOL
REMARK 923 INTER-LIGAND FREE ENERGY PREDICTED BY IDOCK:   -4.09 KCAL/MOL
REMARK 924 INTRA-LIGAND FREE ENERGY PREDICTED BY IDOCK:   -0.18 KCAL/MOL
REMARK 927      BINDING AFFINITY PREDICTED BY RF-SCORE:    0.00 PKD
ROOT
HETATM    1  C   UNL     1      -7.662   8.319  64.906  1.00  0.00    -0.115 C  
HETATM    2  C   UNL     1      -6.425   9.172  64.682  1.00  0.00    -0.075 C  
ENDROOT
BRANCH   2   3
HETATM    3  C   UNL     1      -5.723   9.490  65.999  1.00  0.00    -0.049 C  
BRANCH   3   4
HETATM    4  C   UNL     1      -6.704  10.075  67.015  1.00  0.00    -0.078 C  
BRANCH   4   5
HETATM    5  C   UNL     1      -7.186  11.457  66.546  1.00  0.00    -0.057 C  
BRANCH   5   6
HETATM    6  N   UNL     1      -7.074  12.527  67.561  1.00  0.00    -0.138 NA 
HETATM    7  C   UNL     1      -5.723  13.110  67.556  1.00  0.00    -0.050 C  
BRANCH   6   8
HETATM    8  C   UNL     1      -8.044  13.609  67.279  1.00  0.00    -0.139 C  
BRANCH   8   9
HETATM    9  C   UNL     1      -9.043  13.286  66.160  1.00  0.00     0.101 C  
BRANCH   9  10
HETATM   10  C   UNL     1     -10.532  13.190  66.602  1.00  0.00    -0.277 C  
HETATM   11  P   UNL     1     -10.772  11.479  67.206  1.00  0.00    -0.274 P  
HETATM   12  P   UNL     1     -11.679  13.636  65.237  1.00  0.00    -0.376 P  
HETATM   13  O   UNL     1     -10.736  14.150  67.696  1.00  0.00    -0.254 OA 
HETATM   14  O   UNL     1     -11.037  13.049  63.888  1.00  0.00    -0.400 OA 
HETATM   15  O   UNL     1     -13.142  13.357  65.292  1.00  0.00    -0.687 OA 
HETATM   16  O   UNL     1     -11.457  15.217  65.021  1.00  0.00    -0.368 OA 
HETATM   17  O   UNL     1     -10.166  11.989  68.667  1.00  0.00    -0.214 OA 
HETATM   18  O   UNL     1     -12.321  11.843  67.599  1.00  0.00    -0.357 OA 
HETATM   19  O   UNL     1     -10.974  10.032  67.717  1.00  0.00    -0.283 OA 
HETATM   20  H   UNL     1     -11.645  14.092  67.965  1.00  0.00     0.000 HD 
ENDBRANCH   9  10
ENDBRANCH   8   9
ENDBRANCH   6   8
ENDBRANCH   5   6
ENDBRANCH   4   5
ENDBRANCH   3   4
ENDBRANCH   2   3
TORSDOF 7
ENDMDL
MODEL      258
REMARK 921   NORMALIZED FREE ENERGY PREDICTED BY IDOCK:   -2.53 KCAL/MOL
REMARK 922        TOTAL FREE ENERGY PREDICTED BY IDOCK:   -4.25 KCAL/MOL
REMARK 923 INTER-LIGAND FREE ENERGY PREDICTED BY IDOCK:   -3.60 KCAL/MOL
REMARK 924 INTRA-LIGAND FREE ENERGY PREDICTED BY IDOCK:   -0.65 KCAL/MOL
REMARK 927      BINDING AFFINITY PREDICTED BY RF-SCORE:    0.00 PKD
ROOT
HETATM    1  C   UNL     1      -5.696   8.508  67.790  1.00  0.00    -0.039 C  
HETATM    2  C   UNL     1      -5.250   7.074  68.022  1.00  0.00    -0.015 C  
ENDROOT
BRANCH   2   3
HETATM    3  C   UNL     1      -6.246   6.317  68.896  1.00  0.00    -0.036 C  
BRANCH   3   4
HETATM    4  C   UNL     1      -5.569   5.774  70.154  1.00  0.00    -0.012 C  
BRANCH   4   5
HETATM    5  C   UNL     1      -6.523   5.879  71.353  1.00  0.00    -0.049 C  
BRANCH   5   6
HETATM    6  N   UNL     1      -7.898   5.400  71.091  1.00  0.00    -0.102 NA 
HETATM    7  C   UNL     1      -8.091   4.046  71.635  1.00  0.00    -0.078 C  
BRANCH   6   8
HETATM    8  C   UNL     1      -8.887   6.297  71.730  1.00  0.00    -0.137 C  
BRANCH   8   9
HETATM    9  C   UNL     1     -10.220   6.405  70.977  1.00  0.00    -0.227 C  
BRANCH   9  10
HETATM   10  C   UNL     1     -10.693   7.854  70.660  1.00  0.00    -0.228 C  
HETATM   11  P   UNL     1      -9.176   8.875  70.581  1.00  0.00    -0.253 P  
HETATM   12  P   UNL     1     -11.902   8.464  71.903  1.00  0.00    -0.393 P  
HETATM   13  O   UNL     1     -11.361   7.831  69.353  1.00  0.00    -0.440 OA 
HETATM   14  O   UNL     1     -11.423   7.897  73.327  1.00  0.00    -0.290 OA 
HETATM   15  O   UNL     1     -12.295   9.898  72.009  1.00  0.00    -0.348 OA 
HETATM   16  O   UNL     1     -13.224   7.578  71.650  1.00  0.00    -0.348 OA 
HETATM   17  O   UNL     1      -9.011   8.375  69.005  1.00  0.00    -0.145 OA 
HETATM   18  O   UNL     1     -10.085  10.181  70.185  1.00  0.00    -0.246 OA 
HETATM   19  O   UNL     1      -7.893   9.738  70.513  1.00  0.00    -0.214 OA 
HETATM   20  H   UNL     1     -11.650   8.715  69.160  1.00  0.00     0.000 HD 
ENDBRANCH   9  10
ENDBRANCH   8   9
ENDBRANCH   6   8
ENDBRANCH   5   6
ENDBRANCH   4   5
ENDBRANCH   3   4
ENDBRANCH   2   3
TORSDOF 7
ENDMDL
MODEL      259
REMARK 921   NORMALIZED FREE ENERGY PREDICTED BY IDOCK:   -2.53 KCAL/MOL
REMARK 922        TOTAL FREE ENERGY PREDICTED BY IDOCK:   -4.24 KCAL/MOL
REMARK 923 INTER-LIGAND FREE ENERGY PREDICTED BY IDOCK:   -3.64 KCAL/MOL
REMARK 924 INTRA-LIGAND FREE ENERGY PREDICTED BY IDOCK:   -0.60 KCAL/MOL
REMARK 927      BINDING AFFINITY PREDICTED BY RF-SCORE:    0.00 PKD
ROOT
HETATM    1  C   UNL     1      -8.634   4.636  63.218  1.00  0.00    -0.123 C  
HETATM    2  C   UNL     1      -8.626   5.198  64.629  1.00  0.00    -0.142 C  
ENDROOT
BRANCH   2   3
HETATM    3  C   UNL     1      -7.240   5.705  65.018  1.00  0.00    -0.066 C  
BRANCH   3   4
HETATM    4  C   UNL     1      -6.999   7.113  64.472  1.00  0.00    -0.051 C  
BRANCH   4   5
HETATM    5  C   UNL     1      -6.281   7.971  65.526  1.00  0.00    -0.038 C  
BRANCH   5   6
HETATM    6  N   UNL     1      -7.168   8.867  66.300  1.00  0.00    -0.085 NA 
HETATM    7  C   UNL     1      -6.383   9.881  67.021  1.00  0.00    -0.065 C  
BRANCH   6   8
HETATM    8  C   UNL     1      -8.106   9.569  65.395  1.00  0.00    -0.125 C  
BRANCH   8   9
HETATM    9  C   UNL     1      -8.480  10.986  65.851  1.00  0.00    -0.140 C  
BRANCH   9  10
HETATM   10  C   UNL     1      -9.954  11.171  66.317  1.00  0.00    -0.219 C  
HETATM   11  P   UNL     1     -10.686  12.420  65.197  1.00  0.00    -0.317 P  
HETATM   12  P   UNL     1     -10.055  11.650  68.088  1.00  0.00    -0.206 P  
HETATM   13  O   UNL     1     -10.637   9.880  66.157  1.00  0.00    -0.121 OA 
HETATM   14  O   UNL     1      -8.827  12.646  68.365  1.00  0.00    -0.180 OA 
HETATM   15  O   UNL     1     -11.306  12.166  68.713  1.00  0.00    -0.242 OA 
HETATM   16  O   UNL     1      -9.573  10.339  68.890  1.00  0.00    -0.171 OA 
HETATM   17  O   UNL     1     -10.973  11.183  64.125  1.00  0.00    -0.358 OA 
HETATM   18  O   UNL     1     -12.129  12.243  65.954  1.00  0.00    -0.609 OA 
HETATM   19  O   UNL     1     -11.304  13.476  64.249  1.00  0.00    -0.380 OA 
HETATM   20  H   UNL     1     -11.537   9.993  66.442  1.00  0.00     0.000 HD 
ENDBRANCH   9  10
ENDBRANCH   8   9
ENDBRANCH   6   8
ENDBRANCH   5   6
ENDBRANCH   4   5
ENDBRANCH   3   4
ENDBRANCH   2   3
TORSDOF 7
ENDMDL
MODEL      260
REMARK 921   NORMALIZED FREE ENERGY PREDICTED BY IDOCK:   -2.53 KCAL/MOL
REMARK 922        TOTAL FREE ENERGY PREDICTED BY IDOCK:   -4.24 KCAL/MOL
REMARK 923 INTER-LIGAND FREE ENERGY PREDICTED BY IDOCK:   -3.59 KCAL/MOL
REMARK 924 INTRA-LIGAND FREE ENERGY PREDICTED BY IDOCK:   -0.65 KCAL/MOL
REMARK 927      BINDING AFFINITY PREDICTED BY RF-SCORE:    0.00 PKD
ROOT
HETATM    1  C   UNL     1     -10.301   9.036  71.079  1.00  0.00    -0.348 C  
HETATM    2  C   UNL     1     -10.694  10.054  70.022  1.00  0.00    -0.348 C  
ENDROOT
BRANCH   2   3
HETATM    3  C   UNL     1      -9.472  10.570  69.267  1.00  0.00    -0.191 C  
BRANCH   3   4
HETATM    4  C   UNL     1      -9.867  11.122  67.897  1.00  0.00    -0.187 C  
BRANCH   4   5
HETATM    5  C   UNL     1     -10.659  10.065  67.112  1.00  0.00    -0.232 C  
BRANCH   5   6
HETATM    6  N   UNL     1      -9.978   9.557  65.902  1.00  0.00    -0.294 NA 
HETATM    7  C   UNL     1      -9.112  10.592  65.318  1.00  0.00    -0.195 C  
BRANCH   6   8
HETATM    8  C   UNL     1      -9.135   8.387  66.238  1.00  0.00    -0.194 C  
BRANCH   8   9
HETATM    9  C   UNL     1      -9.924   7.102  66.526  1.00  0.00    -0.173 C  
BRANCH   9  10
HETATM   10  C   UNL     1      -9.061   5.851  66.863  1.00  0.00    -0.120 C  
HETATM   11  P   UNL     1      -9.588   4.545  65.694  1.00  0.00    -0.208 P  
HETATM   12  P   UNL     1      -9.240   5.352  68.623  1.00  0.00    -0.126 P  
HETATM   13  O   UNL     1      -7.654   6.204  66.633  1.00  0.00    -0.091 OA 
HETATM   14  O   UNL     1     -10.778   5.594  69.015  1.00  0.00    -0.267 OA 
HETATM   15  O   UNL     1      -8.763   4.039  69.140  1.00  0.00    -0.080 OA 
HETATM   16  O   UNL     1      -8.522   6.532  69.453  1.00  0.00    -0.125 OA 
HETATM   17  O   UNL     1      -8.540   5.213  64.591  1.00  0.00    -0.147 OA 
HETATM   18  O   UNL     1      -8.456   3.538  66.321  1.00  0.00    -0.107 OA 
HETATM   19  O   UNL     1     -10.033   3.441  64.705  1.00  0.00    -0.156 OA 
HETATM   20  H   UNL     1      -7.128   5.440  66.839  1.00  0.00     0.000 HD 
ENDBRANCH   9  10
ENDBRANCH   8   9
ENDBRANCH   6   8
ENDBRANCH   5   6
ENDBRANCH   4   5
ENDBRANCH   3   4
ENDBRANCH   2   3
TORSDOF 7
ENDMDL
MODEL      261
REMARK 921   NORMALIZED FREE ENERGY PREDICTED BY IDOCK:   -2.52 KCAL/MOL
REMARK 922        TOTAL FREE ENERGY PREDICTED BY IDOCK:   -4.23 KCAL/MOL
REMARK 923 INTER-LIGAND FREE ENERGY PREDICTED BY IDOCK:   -3.87 KCAL/MOL
REMARK 924 INTRA-LIGAND FREE ENERGY PREDICTED BY IDOCK:   -0.36 KCAL/MOL
REMARK 927      BINDING AFFINITY PREDICTED BY RF-SCORE:    0.00 PKD
ROOT
HETATM    1  C   UNL     1     -11.413  16.063  68.331  1.00  0.00    -0.331 C  
HETATM    2  C   UNL     1     -10.058  15.432  68.601  1.00  0.00    -0.212 C  
ENDROOT
BRANCH   2   3
HETATM    3  C   UNL     1      -9.917  14.091  67.887  1.00  0.00    -0.237 C  
BRANCH   3   4
HETATM    4  C   UNL     1     -11.243  13.329  67.887  1.00  0.00    -0.302 C  
BRANCH   4   5
HETATM    5  C   UNL     1     -10.986  11.827  67.687  1.00  0.00    -0.233 C  
BRANCH   5   6
HETATM    6  N   UNL     1     -10.699  11.079  68.930  1.00  0.00    -0.199 NA 
HETATM    7  C   UNL     1     -11.757  11.300  69.928  1.00  0.00    -0.352 C  
BRANCH   6   8
HETATM    8  C   UNL     1     -10.624   9.626  68.652  1.00  0.00    -0.217 C  
BRANCH   8   9
HETATM    9  C   UNL     1      -9.712   8.847  69.610  1.00  0.00    -0.175 C  
BRANCH   9  10
HETATM   10  C   UNL     1      -9.188   7.484  69.071  1.00  0.00    -0.146 C  
HETATM   11  P   UNL     1      -9.232   7.611  67.246  1.00  0.00    -0.142 P  
HETATM   12  P   UNL     1     -10.172   6.072  69.714  1.00  0.00    -0.253 P  
HETATM   13  O   UNL     1      -7.805   7.321  69.538  1.00  0.00    -0.113 OA 
HETATM   14  O   UNL     1     -11.700   6.563  69.766  1.00  0.00    -0.382 OA 
HETATM   15  O   UNL     1     -10.076   4.698  69.145  1.00  0.00    -0.174 OA 
HETATM   16  O   UNL     1      -9.816   6.012  71.285  1.00  0.00    -0.174 OA 
HETATM   17  O   UNL     1      -7.754   8.367  67.337  1.00  0.00    -0.096 OA 
HETATM   18  O   UNL     1      -8.579   6.112  67.133  1.00  0.00    -0.105 OA 
HETATM   19  O   UNL     1      -9.268   7.719  65.702  1.00  0.00    -0.027 OA 
HETATM   20  H   UNL     1      -7.485   6.490  69.209  1.00  0.00     0.000 HD 
ENDBRANCH   9  10
ENDBRANCH   8   9
ENDBRANCH   6   8
ENDBRANCH   5   6
ENDBRANCH   4   5
ENDBRANCH   3   4
ENDBRANCH   2   3
TORSDOF 7
ENDMDL
MODEL      262
REMARK 921   NORMALIZED FREE ENERGY PREDICTED BY IDOCK:   -2.52 KCAL/MOL
REMARK 922        TOTAL FREE ENERGY PREDICTED BY IDOCK:   -4.23 KCAL/MOL
REMARK 923 INTER-LIGAND FREE ENERGY PREDICTED BY IDOCK:   -4.40 KCAL/MOL
REMARK 924 INTRA-LIGAND FREE ENERGY PREDICTED BY IDOCK:    0.17 KCAL/MOL
REMARK 927      BINDING AFFINITY PREDICTED BY RF-SCORE:    0.00 PKD
ROOT
HETATM    1  C   UNL     1      -5.976  14.558  72.986  1.00  0.00     0.372 C  
HETATM    2  C   UNL     1      -5.876  14.216  71.509  1.00  0.00    -0.169 C  
ENDROOT
BRANCH   2   3
HETATM    3  C   UNL     1      -5.730  15.473  70.656  1.00  0.00    -0.050 C  
BRANCH   3   4
HETATM    4  C   UNL     1      -6.138  15.202  69.207  1.00  0.00    -0.109 C  
BRANCH   4   5
HETATM    5  C   UNL     1      -7.458  14.416  69.170  1.00  0.00    -0.094 C  
BRANCH   5   6
HETATM    6  N   UNL     1      -8.676  15.252  69.235  1.00  0.00    -0.237 NA 
HETATM    7  C   UNL     1      -8.360  16.658  68.938  1.00  0.00    -0.230 C  
BRANCH   6   8
HETATM    8  C   UNL     1      -9.674  14.786  68.246  1.00  0.00    -0.218 C  
BRANCH   8   9
HETATM    9  C   UNL     1      -9.110  13.840  67.178  1.00  0.00    -0.243 C  
BRANCH   9  10
HETATM   10  C   UNL     1     -10.098  12.754  66.659  1.00  0.00    -0.243 C  
HETATM   11  P   UNL     1     -11.487  13.662  65.888  1.00  0.00    -0.340 P  
HETATM   12  P   UNL     1     -10.639  11.625  68.004  1.00  0.00    -0.226 P  
HETATM   13  O   UNL     1      -9.391  11.953  65.651  1.00  0.00    -0.341 OA 
HETATM   14  O   UNL     1     -10.806  12.527  69.321  1.00  0.00    -0.137 OA 
HETATM   15  O   UNL     1     -11.788  10.688  67.855  1.00  0.00    -0.485 OA 
HETATM   16  O   UNL     1      -9.320  10.779  68.377  1.00  0.00    -0.153 OA 
HETATM   17  O   UNL     1     -10.563  13.760  64.511  1.00  0.00    -0.423 OA 
HETATM   18  O   UNL     1     -12.171  12.236  65.458  1.00  0.00    -0.577 OA 
HETATM   19  O   UNL     1     -12.662  14.431  65.235  1.00  0.00    -0.498 OA 
HETATM   20  H   UNL     1      -9.994  11.290  65.335  1.00  0.00     0.000 HD 
ENDBRANCH   9  10
ENDBRANCH   8   9
ENDBRANCH   6   8
ENDBRANCH   5   6
ENDBRANCH   4   5
ENDBRANCH   3   4
ENDBRANCH   2   3
TORSDOF 7
ENDMDL
MODEL      263
REMARK 921   NORMALIZED FREE ENERGY PREDICTED BY IDOCK:   -2.50 KCAL/MOL
REMARK 922        TOTAL FREE ENERGY PREDICTED BY IDOCK:   -4.21 KCAL/MOL
REMARK 923 INTER-LIGAND FREE ENERGY PREDICTED BY IDOCK:   -3.79 KCAL/MOL
REMARK 924 INTRA-LIGAND FREE ENERGY PREDICTED BY IDOCK:   -0.42 KCAL/MOL
REMARK 927      BINDING AFFINITY PREDICTED BY RF-SCORE:    0.00 PKD
ROOT
HETATM    1  C   UNL     1     -10.240  15.776  67.487  1.00  0.00    -0.265 C  
HETATM    2  C   UNL     1     -11.489  14.916  67.393  1.00  0.00    -0.354 C  
ENDROOT
BRANCH   2   3
HETATM    3  C   UNL     1     -11.545  13.894  68.525  1.00  0.00    -0.367 C  
BRANCH   3   4
HETATM    4  C   UNL     1     -11.630  12.470  67.974  1.00  0.00    -0.395 C  
BRANCH   4   5
HETATM    5  C   UNL     1     -12.508  11.602  68.888  1.00  0.00     0.424 C  
BRANCH   5   6
HETATM    6  N   UNL     1     -11.998  11.449  70.268  1.00  0.00    -0.352 NA 
HETATM    7  C   UNL     1     -13.015  11.860  71.249  1.00  0.00    -0.236 C  
BRANCH   6   8
HETATM    8  C   UNL     1     -11.648  10.035  70.534  1.00  0.00    -0.323 C  
BRANCH   8   9
HETATM    9  C   UNL     1     -10.158   9.711  70.364  1.00  0.00    -0.336 C  
BRANCH   9  10
HETATM   10  C   UNL     1      -9.802   8.196  70.340  1.00  0.00    -0.186 C  
HETATM   11  P   UNL     1      -8.842   7.876  71.864  1.00  0.00    -0.157 P  
HETATM   12  P   UNL     1      -8.893   7.733  68.811  1.00  0.00    -0.132 P  
HETATM   13  O   UNL     1     -11.062   7.441  70.363  1.00  0.00    -0.258 OA 
HETATM   14  O   UNL     1      -7.912   8.957  68.472  1.00  0.00    -0.101 OA 
HETATM   15  O   UNL     1      -8.187   6.430  68.657  1.00  0.00    -0.118 OA 
HETATM   16  O   UNL     1      -9.983   7.879  67.632  1.00  0.00    -0.159 OA 
HETATM   17  O   UNL     1     -10.294   7.724  72.658  1.00  0.00    -0.241 OA 
HETATM   18  O   UNL     1      -8.765   6.286  71.474  1.00  0.00    -0.134 OA 
HETATM   19  O   UNL     1      -8.031   7.606  73.154  1.00  0.00    -0.100 OA 
HETATM   20  H   UNL     1     -10.845   6.517  70.348  1.00  0.00     0.000 HD 
ENDBRANCH   9  10
ENDBRANCH   8   9
ENDBRANCH   6   8
ENDBRANCH   5   6
ENDBRANCH   4   5
ENDBRANCH   3   4
ENDBRANCH   2   3
TORSDOF 7
ENDMDL
MODEL      264
REMARK 921   NORMALIZED FREE ENERGY PREDICTED BY IDOCK:   -2.48 KCAL/MOL
REMARK 922        TOTAL FREE ENERGY PREDICTED BY IDOCK:   -4.18 KCAL/MOL
REMARK 923 INTER-LIGAND FREE ENERGY PREDICTED BY IDOCK:   -3.67 KCAL/MOL
REMARK 924 INTRA-LIGAND FREE ENERGY PREDICTED BY IDOCK:   -0.51 KCAL/MOL
REMARK 927      BINDING AFFINITY PREDICTED BY RF-SCORE:    0.00 PKD
ROOT
HETATM    1  C   UNL     1     -13.872   8.996  71.793  1.00  0.00    -0.453 C  
HETATM    2  C   UNL     1     -13.047  10.271  71.846  1.00  0.00    -0.568 C  
ENDROOT
BRANCH   2   3
HETATM    3  C   UNL     1     -11.760  10.134  71.037  1.00  0.00    -0.470 C  
BRANCH   3   4
HETATM    4  C   UNL     1     -11.208   8.711  71.125  1.00  0.00    -0.329 C  
BRANCH   4   5
HETATM    5  C   UNL     1     -10.045   8.658  72.129  1.00  0.00    -0.318 C  
BRANCH   5   6
HETATM    6  N   UNL     1     -10.258   7.743  73.271  1.00  0.00    -0.328 NA 
HETATM    7  C   UNL     1     -11.345   6.794  72.983  1.00  0.00    -0.079 C  
BRANCH   6   8
HETATM    8  C   UNL     1      -9.028   6.965  73.545  1.00  0.00    -0.141 C  
BRANCH   8   9
HETATM    9  C   UNL     1      -8.696   5.915  72.476  1.00  0.00    -0.123 C  
BRANCH   9  10
HETATM   10  C   UNL     1      -8.367   4.493  73.018  1.00  0.00    -0.099 C  
HETATM   11  P   UNL     1      -6.650   4.136  72.494  1.00  0.00    -0.039 P  
HETATM   12  P   UNL     1      -9.573   3.240  72.423  1.00  0.00    -0.152 P  
HETATM   13  O   UNL     1      -8.452   4.543  74.484  1.00  0.00    -0.102 OA 
HETATM   14  O   UNL     1      -9.933   3.633  70.909  1.00  0.00    -0.149 OA 
HETATM   15  O   UNL     1      -9.338   1.774  72.548  1.00  0.00    -0.072 OA 
HETATM   16  O   UNL     1     -10.949   3.614  73.173  1.00  0.00    -0.179 OA 
HETATM   17  O   UNL     1      -6.144   4.978  73.834  1.00  0.00    -0.042 OA 
HETATM   18  O   UNL     1      -6.714   2.702  73.285  1.00  0.00    -0.021 OA 
HETATM   19  O   UNL     1      -5.198   3.835  72.051  1.00  0.00     0.000 OA 
HETATM   20  H   UNL     1      -8.252   3.675  74.814  1.00  0.00     0.000 HD 
ENDBRANCH   9  10
ENDBRANCH   8   9
ENDBRANCH   6   8
ENDBRANCH   5   6
ENDBRANCH   4   5
ENDBRANCH   3   4
ENDBRANCH   2   3
TORSDOF 7
ENDMDL
MODEL      265
REMARK 921   NORMALIZED FREE ENERGY PREDICTED BY IDOCK:   -2.47 KCAL/MOL
REMARK 922        TOTAL FREE ENERGY PREDICTED BY IDOCK:   -4.17 KCAL/MOL
REMARK 923 INTER-LIGAND FREE ENERGY PREDICTED BY IDOCK:   -3.79 KCAL/MOL
REMARK 924 INTRA-LIGAND FREE ENERGY PREDICTED BY IDOCK:   -0.38 KCAL/MOL
REMARK 927      BINDING AFFINITY PREDICTED BY RF-SCORE:    0.00 PKD
ROOT
HETATM    1  C   UNL     1      -9.489  15.369  65.984  1.00  0.00    -0.381 C  
HETATM    2  C   UNL     1     -10.182  14.054  65.668  1.00  0.00    -0.351 C  
ENDROOT
BRANCH   2   3
HETATM    3  C   UNL     1     -10.035  13.059  66.817  1.00  0.00    -0.245 C  
BRANCH   3   4
HETATM    4  C   UNL     1      -9.038  13.568  67.858  1.00  0.00    -0.204 C  
BRANCH   4   5
HETATM    5  C   UNL     1      -7.877  12.571  68.006  1.00  0.00    -0.147 C  
BRANCH   5   6
HETATM    6  N   UNL     1      -8.284  11.149  68.027  1.00  0.00    -0.120 NA 
HETATM    7  C   UNL     1      -7.276  10.308  67.362  1.00  0.00    -0.092 C  
BRANCH   6   8
HETATM    8  C   UNL     1      -8.431  10.676  69.422  1.00  0.00    -0.044 C  
BRANCH   8   9
HETATM    9  C   UNL     1      -8.317   9.155  69.588  1.00  0.00    -0.130 C  
BRANCH   9  10
HETATM   10  C   UNL     1      -9.563   8.455  70.204  1.00  0.00    -0.165 C  
HETATM   11  P   UNL     1     -10.863   9.739  70.310  1.00  0.00    -0.339 P  
HETATM   12  P   UNL     1      -9.181   7.687  71.830  1.00  0.00    -0.147 P  
HETATM   13  O   UNL     1      -9.976   7.386  69.285  1.00  0.00    -0.166 OA 
HETATM   14  O   UNL     1      -8.166   8.680  72.579  1.00  0.00    -0.358 OA 
HETATM   15  O   UNL     1     -10.239   7.208  72.763  1.00  0.00    -0.183 OA 
HETATM   16  O   UNL     1      -8.201   6.457  71.476  1.00  0.00    -0.115 OA 
HETATM   17  O   UNL     1     -11.218   9.406  68.721  1.00  0.00    -0.020 OA 
HETATM   18  O   UNL     1     -11.911   8.620  70.891  1.00  0.00    -0.284 OA 
HETATM   19  O   UNL     1     -11.963  10.825  70.399  1.00  0.00    -0.295 OA 
HETATM   20  H   UNL     1     -10.736   6.959  69.661  1.00  0.00     0.000 HD 
ENDBRANCH   9  10
ENDBRANCH   8   9
ENDBRANCH   6   8
ENDBRANCH   5   6
ENDBRANCH   4   5
ENDBRANCH   3   4
ENDBRANCH   2   3
TORSDOF 7
ENDMDL
MODEL      266
REMARK 921   NORMALIZED FREE ENERGY PREDICTED BY IDOCK:   -2.47 KCAL/MOL
REMARK 922        TOTAL FREE ENERGY PREDICTED BY IDOCK:   -4.16 KCAL/MOL
REMARK 923 INTER-LIGAND FREE ENERGY PREDICTED BY IDOCK:   -3.62 KCAL/MOL
REMARK 924 INTRA-LIGAND FREE ENERGY PREDICTED BY IDOCK:   -0.55 KCAL/MOL
REMARK 927      BINDING AFFINITY PREDICTED BY RF-SCORE:    0.00 PKD
ROOT
HETATM    1  C   UNL     1     -10.513   3.738  64.149  1.00  0.00    -0.267 C  
HETATM    2  C   UNL     1      -9.794   4.471  65.270  1.00  0.00    -0.182 C  
ENDROOT
BRANCH   2   3
HETATM    3  C   UNL     1      -9.498   3.540  66.442  1.00  0.00    -0.164 C  
BRANCH   3   4
HETATM    4  C   UNL     1      -9.762   4.238  67.776  1.00  0.00    -0.179 C  
BRANCH   4   5
HETATM    5  C   UNL     1      -9.324   5.709  67.697  1.00  0.00    -0.110 C  
BRANCH   5   6
HETATM    6  N   UNL     1      -7.902   5.948  68.028  1.00  0.00    -0.103 NA 
HETATM    7  C   UNL     1      -7.239   6.713  66.960  1.00  0.00    -0.081 C  
BRANCH   6   8
HETATM    8  C   UNL     1      -7.789   6.721  69.286  1.00  0.00    -0.110 C  
BRANCH   8   9
HETATM    9  C   UNL     1      -8.559   8.049  69.281  1.00  0.00    -0.137 C  
BRANCH   9  10
HETATM   10  C   UNL     1      -8.911   8.621  70.686  1.00  0.00    -0.171 C  
HETATM   11  P   UNL     1      -7.789   7.788  71.867  1.00  0.00    -0.110 P  
HETATM   12  P   UNL     1     -10.687   8.381  71.094  1.00  0.00    -0.259 P  
HETATM   13  O   UNL     1      -8.644  10.065  70.659  1.00  0.00    -0.356 OA 
HETATM   14  O   UNL     1     -11.103   6.946  70.507  1.00  0.00    -0.257 OA 
HETATM   15  O   UNL     1     -11.230   8.569  72.469  1.00  0.00    -0.357 OA 
HETATM   16  O   UNL     1     -11.471   9.364  70.085  1.00  0.00    -0.230 OA 
HETATM   17  O   UNL     1      -6.647   8.929  71.473  1.00  0.00    -0.078 OA 
HETATM   18  O   UNL     1      -8.420   8.685  73.086  1.00  0.00    -0.398 OA 
HETATM   19  O   UNL     1      -6.839   7.085  72.866  1.00  0.00    -0.068 OA 
HETATM   20  H   UNL     1      -8.859  10.414  71.516  1.00  0.00     0.000 HD 
ENDBRANCH   9  10
ENDBRANCH   8   9
ENDBRANCH   6   8
ENDBRANCH   5   6
ENDBRANCH   4   5
ENDBRANCH   3   4
ENDBRANCH   2   3
TORSDOF 7
ENDMDL
MODEL      267
REMARK 921   NORMALIZED FREE ENERGY PREDICTED BY IDOCK:   -2.44 KCAL/MOL
REMARK 922        TOTAL FREE ENERGY PREDICTED BY IDOCK:   -4.13 KCAL/MOL
REMARK 923 INTER-LIGAND FREE ENERGY PREDICTED BY IDOCK:   -3.65 KCAL/MOL
REMARK 924 INTRA-LIGAND FREE ENERGY PREDICTED BY IDOCK:   -0.47 KCAL/MOL
REMARK 927      BINDING AFFINITY PREDICTED BY RF-SCORE:    0.00 PKD
ROOT
HETATM    1  C   UNL     1      -9.613   4.017  63.902  1.00  0.00    -0.157 C  
HETATM    2  C   UNL     1      -9.316   4.826  65.153  1.00  0.00    -0.133 C  
ENDROOT
BRANCH   2   3
HETATM    3  C   UNL     1      -7.946   4.478  65.727  1.00  0.00    -0.095 C  
BRANCH   3   4
HETATM    4  C   UNL     1      -8.065   3.986  67.170  1.00  0.00    -0.096 C  
BRANCH   4   5
HETATM    5  C   UNL     1      -8.987   4.919  67.970  1.00  0.00    -0.110 C  
BRANCH   5   6
HETATM    6  N   UNL     1      -9.682   4.274  69.105  1.00  0.00    -0.179 NA 
HETATM    7  C   UNL     1      -8.730   3.535  69.947  1.00  0.00    -0.079 C  
BRANCH   6   8
HETATM    8  C   UNL     1     -10.348   5.294  69.948  1.00  0.00    -0.304 C  
BRANCH   8   9
HETATM    9  C   UNL     1      -9.391   6.319  70.571  1.00  0.00    -0.171 C  
BRANCH   9  10
HETATM   10  C   UNL     1     -10.058   7.630  71.082  1.00  0.00    -0.184 C  
HETATM   11  P   UNL     1     -11.775   7.183  71.528  1.00  0.00    -0.330 P  
HETATM   12  P   UNL     1      -9.969   8.973  69.831  1.00  0.00    -0.216 P  
HETATM   13  O   UNL     1      -9.320   8.071  72.273  1.00  0.00    -0.159 OA 
HETATM   14  O   UNL     1     -10.181   8.281  68.398  1.00  0.00    -0.200 OA 
HETATM   15  O   UNL     1     -10.768  10.226  69.937  1.00  0.00    -0.262 OA 
HETATM   16  O   UNL     1      -8.405   9.356  69.758  1.00  0.00    -0.126 OA 
HETATM   17  O   UNL     1     -11.184   6.679  72.997  1.00  0.00    -0.231 OA 
HETATM   18  O   UNL     1     -12.035   8.719  72.037  1.00  0.00    -0.333 OA 
HETATM   19  O   UNL     1     -13.228   6.804  71.905  1.00  0.00    -0.291 OA 
HETATM   20  H   UNL     1      -9.727   8.871  72.584  1.00  0.00     0.000 HD 
ENDBRANCH   9  10
ENDBRANCH   8   9
ENDBRANCH   6   8
ENDBRANCH   5   6
ENDBRANCH   4   5
ENDBRANCH   3   4
ENDBRANCH   2   3
TORSDOF 7
ENDMDL
MODEL      268
REMARK 921   NORMALIZED FREE ENERGY PREDICTED BY IDOCK:   -2.43 KCAL/MOL
REMARK 922        TOTAL FREE ENERGY PREDICTED BY IDOCK:   -4.10 KCAL/MOL
REMARK 923 INTER-LIGAND FREE ENERGY PREDICTED BY IDOCK:   -3.47 KCAL/MOL
REMARK 924 INTRA-LIGAND FREE ENERGY PREDICTED BY IDOCK:   -0.64 KCAL/MOL
REMARK 927      BINDING AFFINITY PREDICTED BY RF-SCORE:    0.00 PKD
ROOT
HETATM    1  C   UNL     1     -13.927   8.455  71.773  1.00  0.00    -0.482 C  
HETATM    2  C   UNL     1     -12.686   9.323  71.646  1.00  0.00    -0.442 C  
ENDROOT
BRANCH   2   3
HETATM    3  C   UNL     1     -11.434   8.570  72.086  1.00  0.00    -0.446 C  
BRANCH   3   4
HETATM    4  C   UNL     1     -10.648   8.060  70.878  1.00  0.00    -0.233 C  
BRANCH   4   5
HETATM    5  C   UNL     1     -10.361   9.218  69.909  1.00  0.00    -0.220 C  
BRANCH   5   6
HETATM    6  N   UNL     1      -9.002   9.791  70.019  1.00  0.00    -0.229 NA 
HETATM    7  C   UNL     1      -8.099   8.861  70.716  1.00  0.00    -0.156 C  
BRANCH   6   8
HETATM    8  C   UNL     1      -8.443  10.054  68.674  1.00  0.00    -0.118 C  
BRANCH   8   9
HETATM    9  C   UNL     1      -7.526   8.944  68.143  1.00  0.00    -0.092 C  
BRANCH   9  10
HETATM   10  C   UNL     1      -8.060   8.176  66.898  1.00  0.00    -0.104 C  
HETATM   11  P   UNL     1      -7.896   6.397  67.293  1.00  0.00    -0.106 P  
HETATM   12  P   UNL     1      -7.165   8.655  65.366  1.00  0.00    -0.086 P  
HETATM   13  O   UNL     1      -9.474   8.532  66.726  1.00  0.00    -0.165 OA 
HETATM   14  O   UNL     1      -5.628   8.868  65.780  1.00  0.00    -0.047 OA 
HETATM   15  O   UNL     1      -7.269   7.881  64.097  1.00  0.00    -0.072 OA 
HETATM   16  O   UNL     1      -7.621  10.175  65.089  1.00  0.00    -0.134 OA 
HETATM   17  O   UNL     1      -9.351   6.515  68.088  1.00  0.00    -0.113 OA 
HETATM   18  O   UNL     1      -8.589   6.022  65.855  1.00  0.00    -0.140 OA 
HETATM   19  O   UNL     1      -7.759   4.892  67.627  1.00  0.00    -0.085 OA 
HETATM   20  H   UNL     1      -9.800   8.064  65.967  1.00  0.00     0.000 HD 
ENDBRANCH   9  10
ENDBRANCH   8   9
ENDBRANCH   6   8
ENDBRANCH   5   6
ENDBRANCH   4   5
ENDBRANCH   3   4
ENDBRANCH   2   3
TORSDOF 7
ENDMDL
MODEL      269
REMARK 921   NORMALIZED FREE ENERGY PREDICTED BY IDOCK:   -2.41 KCAL/MOL
REMARK 922        TOTAL FREE ENERGY PREDICTED BY IDOCK:   -4.08 KCAL/MOL
REMARK 923 INTER-LIGAND FREE ENERGY PREDICTED BY IDOCK:   -3.62 KCAL/MOL
REMARK 924 INTRA-LIGAND FREE ENERGY PREDICTED BY IDOCK:   -0.46 KCAL/MOL
REMARK 927      BINDING AFFINITY PREDICTED BY RF-SCORE:    0.00 PKD
ROOT
HETATM    1  C   UNL     1      -9.654  10.934  63.909  1.00  0.00    -0.326 C  
HETATM    2  C   UNL     1     -10.631  11.384  64.982  1.00  0.00    -0.359 C  
ENDROOT
BRANCH   2   3
HETATM    3  C   UNL     1     -10.231  10.852  66.356  1.00  0.00    -0.289 C  
BRANCH   3   4
HETATM    4  C   UNL     1      -8.750  11.112  66.633  1.00  0.00    -0.166 C  
BRANCH   4   5
HETATM    5  C   UNL     1      -8.388  10.637  68.049  1.00  0.00    -0.118 C  
BRANCH   5   6
HETATM    6  N   UNL     1      -7.556   9.415  68.095  1.00  0.00    -0.083 NA 
HETATM    7  C   UNL     1      -6.274   9.631  67.405  1.00  0.00    -0.064 C  
BRANCH   6   8
HETATM    8  C   UNL     1      -7.266   9.041  69.498  1.00  0.00    -0.060 C  
BRANCH   8   9
HETATM    9  C   UNL     1      -8.467   9.164  70.445  1.00  0.00    -0.222 C  
BRANCH   9  10
HETATM   10  C   UNL     1      -9.470   7.973  70.408  1.00  0.00    -0.166 C  
HETATM   11  P   UNL     1     -10.883   8.470  71.460  1.00  0.00    -0.315 P  
HETATM   12  P   UNL     1      -8.686   6.404  70.955  1.00  0.00    -0.135 P  
HETATM   13  O   UNL     1      -9.907   7.800  69.016  1.00  0.00    -0.163 OA 
HETATM   14  O   UNL     1      -7.686   6.783  72.153  1.00  0.00    -0.094 OA 
HETATM   15  O   UNL     1      -9.474   5.184  71.289  1.00  0.00    -0.144 OA 
HETATM   16  O   UNL     1      -7.640   6.044  69.784  1.00  0.00    -0.078 OA 
HETATM   17  O   UNL     1     -11.488   9.276  70.139  1.00  0.00    -0.216 OA 
HETATM   18  O   UNL     1     -11.644   7.066  71.087  1.00  0.00    -0.279 OA 
HETATM   19  O   UNL     1     -12.078   8.890  72.349  1.00  0.00    -0.349 OA 
HETATM   20  H   UNL     1     -10.518   7.074  68.994  1.00  0.00     0.000 HD 
ENDBRANCH   9  10
ENDBRANCH   8   9
ENDBRANCH   6   8
ENDBRANCH   5   6
ENDBRANCH   4   5
ENDBRANCH   3   4
ENDBRANCH   2   3
TORSDOF 7
ENDMDL
MODEL      270
REMARK 921   NORMALIZED FREE ENERGY PREDICTED BY IDOCK:   -2.41 KCAL/MOL
REMARK 922        TOTAL FREE ENERGY PREDICTED BY IDOCK:   -4.07 KCAL/MOL
REMARK 923 INTER-LIGAND FREE ENERGY PREDICTED BY IDOCK:   -3.68 KCAL/MOL
REMARK 924 INTRA-LIGAND FREE ENERGY PREDICTED BY IDOCK:   -0.40 KCAL/MOL
REMARK 927      BINDING AFFINITY PREDICTED BY RF-SCORE:    0.00 PKD
ROOT
HETATM    1  C   UNL     1      -7.300  11.266  67.728  1.00  0.00    -0.094 C  
HETATM    2  C   UNL     1      -8.607  11.801  68.287  1.00  0.00    -0.162 C  
ENDROOT
BRANCH   2   3
HETATM    3  C   UNL     1      -9.809  11.110  67.649  1.00  0.00    -0.191 C  
BRANCH   3   4
HETATM    4  C   UNL     1      -9.400   9.785  67.003  1.00  0.00    -0.178 C  
BRANCH   4   5
HETATM    5  C   UNL     1     -10.475   8.719  67.262  1.00  0.00    -0.283 C  
BRANCH   5   6
HETATM    6  N   UNL     1     -10.016   7.563  68.063  1.00  0.00    -0.165 NA 
HETATM    7  C   UNL     1      -9.355   6.565  67.207  1.00  0.00    -0.121 C  
BRANCH   6   8
HETATM    8  C   UNL     1      -9.047   8.001  69.092  1.00  0.00    -0.145 C  
BRANCH   8   9
HETATM    9  C   UNL     1      -9.688   8.634  70.335  1.00  0.00    -0.200 C  
BRANCH   9  10
HETATM   10  C   UNL     1      -9.754   7.718  71.592  1.00  0.00    -0.163 C  
HETATM   11  P   UNL     1      -8.286   6.630  71.502  1.00  0.00    -0.119 P  
HETATM   12  P   UNL     1     -11.335   6.784  71.673  1.00  0.00    -0.298 P  
HETATM   13  O   UNL     1      -9.678   8.582  72.778  1.00  0.00    -0.257 OA 
HETATM   14  O   UNL     1     -11.705   6.376  70.165  1.00  0.00    -0.422 OA 
HETATM   15  O   UNL     1     -11.544   5.635  72.599  1.00  0.00    -0.307 OA 
HETATM   16  O   UNL     1     -12.453   7.905  71.971  1.00  0.00    -0.306 OA 
HETATM   17  O   UNL     1      -7.421   7.863  72.204  1.00  0.00    -0.073 OA 
HETATM   18  O   UNL     1      -8.704   5.960  72.939  1.00  0.00    -0.125 OA 
HETATM   19  O   UNL     1      -7.043   5.710  71.427  1.00  0.00    -0.068 OA 
HETATM   20  H   UNL     1      -9.718   8.023  73.545  1.00  0.00     0.000 HD 
ENDBRANCH   9  10
ENDBRANCH   8   9
ENDBRANCH   6   8
ENDBRANCH   5   6
ENDBRANCH   4   5
ENDBRANCH   3   4
ENDBRANCH   2   3
TORSDOF 7
ENDMDL
MODEL      271
REMARK 921   NORMALIZED FREE ENERGY PREDICTED BY IDOCK:   -2.40 KCAL/MOL
REMARK 922        TOTAL FREE ENERGY PREDICTED BY IDOCK:   -4.06 KCAL/MOL
REMARK 923 INTER-LIGAND FREE ENERGY PREDICTED BY IDOCK:   -3.43 KCAL/MOL
REMARK 924 INTRA-LIGAND FREE ENERGY PREDICTED BY IDOCK:   -0.63 KCAL/MOL
REMARK 927      BINDING AFFINITY PREDICTED BY RF-SCORE:    0.00 PKD
ROOT
HETATM    1  C   UNL     1      -8.844   4.567  64.177  1.00  0.00    -0.148 C  
HETATM    2  C   UNL     1      -8.582   5.350  65.453  1.00  0.00    -0.150 C  
ENDROOT
BRANCH   2   3
HETATM    3  C   UNL     1      -7.940   6.702  65.153  1.00  0.00    -0.124 C  
BRANCH   3   4
HETATM    4  C   UNL     1      -8.855   7.849  65.582  1.00  0.00    -0.121 C  
BRANCH   4   5
HETATM    5  C   UNL     1      -8.015   9.035  66.082  1.00  0.00    -0.103 C  
BRANCH   5   6
HETATM    6  N   UNL     1      -7.601   8.943  67.499  1.00  0.00    -0.092 NA 
HETATM    7  C   UNL     1      -6.700  10.051  67.852  1.00  0.00    -0.067 C  
BRANCH   6   8
HETATM    8  C   UNL     1      -8.783   9.010  68.387  1.00  0.00    -0.130 C  
BRANCH   8   9
HETATM    9  C   UNL     1      -8.538   8.478  69.806  1.00  0.00    -0.131 C  
BRANCH   9  10
HETATM   10  C   UNL     1      -9.630   7.515  70.355  1.00  0.00    -0.168 C  
HETATM   11  P   UNL     1     -10.513   6.863  68.891  1.00  0.00    -0.220 P  
HETATM   12  P   UNL     1     -10.746   8.358  71.548  1.00  0.00    -0.294 P  
HETATM   13  O   UNL     1      -8.948   6.425  71.066  1.00  0.00    -0.145 OA 
HETATM   14  O   UNL     1     -10.968   9.848  70.994  1.00  0.00    -0.335 OA 
HETATM   15  O   UNL     1     -12.035   7.764  72.002  1.00  0.00    -0.287 OA 
HETATM   16  O   UNL     1      -9.820   8.643  72.836  1.00  0.00    -0.161 OA 
HETATM   17  O   UNL     1      -9.304   5.732  68.757  1.00  0.00    -0.117 OA 
HETATM   18  O   UNL     1     -11.431   5.924  69.871  1.00  0.00    -0.309 OA 
HETATM   19  O   UNL     1     -11.259   6.312  67.652  1.00  0.00    -0.327 OA 
HETATM   20  H   UNL     1      -9.614   5.838  71.401  1.00  0.00     0.000 HD 
ENDBRANCH   9  10
ENDBRANCH   8   9
ENDBRANCH   6   8
ENDBRANCH   5   6
ENDBRANCH   4   5
ENDBRANCH   3   4
ENDBRANCH   2   3
TORSDOF 7
ENDMDL
MODEL      272
REMARK 921   NORMALIZED FREE ENERGY PREDICTED BY IDOCK:   -2.39 KCAL/MOL
REMARK 922        TOTAL FREE ENERGY PREDICTED BY IDOCK:   -4.06 KCAL/MOL
REMARK 923 INTER-LIGAND FREE ENERGY PREDICTED BY IDOCK:   -3.75 KCAL/MOL
REMARK 924 INTRA-LIGAND FREE ENERGY PREDICTED BY IDOCK:   -0.31 KCAL/MOL
REMARK 927      BINDING AFFINITY PREDICTED BY RF-SCORE:    0.00 PKD
ROOT
HETATM    1  C   UNL     1     -11.390  14.485  66.659  1.00  0.00    -0.359 C  
HETATM    2  C   UNL     1     -10.479  13.708  65.724  1.00  0.00    -0.296 C  
ENDROOT
BRANCH   2   3
HETATM    3  C   UNL     1     -10.601  12.204  65.954  1.00  0.00    -0.293 C  
BRANCH   3   4
HETATM    4  C   UNL     1      -9.241  11.518  65.823  1.00  0.00    -0.210 C  
BRANCH   4   5
HETATM    5  C   UNL     1      -8.416  11.736  67.101  1.00  0.00    -0.170 C  
BRANCH   5   6
HETATM    6  N   UNL     1      -7.219  10.874  67.218  1.00  0.00    -0.094 NA 
HETATM    7  C   UNL     1      -6.002  11.688  67.364  1.00  0.00    -0.096 C  
BRANCH   6   8
HETATM    8  C   UNL     1      -7.331   9.996  68.404  1.00  0.00    -0.077 C  
BRANCH   8   9
HETATM    9  C   UNL     1      -8.592   9.121  68.426  1.00  0.00    -0.129 C  
BRANCH   9  10
HETATM   10  C   UNL     1      -9.435   9.198  69.732  1.00  0.00    -0.182 C  
HETATM   11  P   UNL     1      -9.793   7.467  70.206  1.00  0.00    -0.184 P  
HETATM   12  P   UNL     1     -10.955  10.207  69.506  1.00  0.00    -0.264 P  
HETATM   13  O   UNL     1      -8.609   9.847  70.759  1.00  0.00    -0.366 OA 
HETATM   14  O   UNL     1     -11.497   9.895  68.027  1.00  0.00    -0.104 OA 
HETATM   15  O   UNL     1     -12.073  10.211  70.490  1.00  0.00    -0.283 OA 
HETATM   16  O   UNL     1     -10.415  11.715  69.322  1.00  0.00    -0.126 OA 
HETATM   17  O   UNL     1      -8.301   7.437  70.937  1.00  0.00    -0.113 OA 
HETATM   18  O   UNL     1     -10.562   8.002  71.551  1.00  0.00    -0.217 OA 
HETATM   19  O   UNL     1     -10.095   6.003  70.606  1.00  0.00    -0.182 OA 
HETATM   20  H   UNL     1      -9.124   9.894  71.556  1.00  0.00     0.000 HD 
ENDBRANCH   9  10
ENDBRANCH   8   9
ENDBRANCH   6   8
ENDBRANCH   5   6
ENDBRANCH   4   5
ENDBRANCH   3   4
ENDBRANCH   2   3
TORSDOF 7
ENDMDL
MODEL      273
REMARK 921   NORMALIZED FREE ENERGY PREDICTED BY IDOCK:   -2.33 KCAL/MOL
REMARK 922        TOTAL FREE ENERGY PREDICTED BY IDOCK:   -3.97 KCAL/MOL
REMARK 923 INTER-LIGAND FREE ENERGY PREDICTED BY IDOCK:   -3.57 KCAL/MOL
REMARK 924 INTRA-LIGAND FREE ENERGY PREDICTED BY IDOCK:   -0.40 KCAL/MOL
REMARK 927      BINDING AFFINITY PREDICTED BY RF-SCORE:    0.00 PKD
ROOT
HETATM    1  C   UNL     1      -9.558   3.142  63.844  1.00  0.00    -0.135 C  
HETATM    2  C   UNL     1      -9.207   4.319  64.739  1.00  0.00    -0.156 C  
ENDROOT
BRANCH   2   3
HETATM    3  C   UNL     1      -8.648   3.849  66.079  1.00  0.00    -0.112 C  
BRANCH   3   4
HETATM    4  C   UNL     1      -9.767   3.660  67.104  1.00  0.00    -0.102 C  
BRANCH   4   5
HETATM    5  C   UNL     1      -9.389   4.342  68.428  1.00  0.00    -0.147 C  
BRANCH   5   6
HETATM    6  N   UNL     1      -9.382   3.445  69.604  1.00  0.00    -0.163 NA 
HETATM    7  C   UNL     1      -8.096   2.738  69.712  1.00  0.00    -0.041 C  
BRANCH   6   8
HETATM    8  C   UNL     1      -9.585   4.224  70.847  1.00  0.00    -0.183 C  
BRANCH   8   9
HETATM    9  C   UNL     1      -9.181   5.700  70.740  1.00  0.00    -0.175 C  
BRANCH   9  10
HETATM   10  C   UNL     1      -9.672   6.613  71.902  1.00  0.00    -0.153 C  
HETATM   11  P   UNL     1     -10.193   5.484  73.245  1.00  0.00    -0.228 P  
HETATM   12  P   UNL     1     -11.013   7.746  71.359  1.00  0.00    -0.245 P  
HETATM   13  O   UNL     1      -8.534   7.433  72.337  1.00  0.00    -0.109 OA 
HETATM   14  O   UNL     1     -11.928   6.916  70.333  1.00  0.00    -0.335 OA 
HETATM   15  O   UNL     1     -11.855   8.515  72.318  1.00  0.00    -0.358 OA 
HETATM   16  O   UNL     1     -10.288   8.779  70.356  1.00  0.00    -0.188 OA 
HETATM   17  O   UNL     1      -8.599   5.420  73.709  1.00  0.00    -0.114 OA 
HETATM   18  O   UNL     1     -10.528   6.779  74.193  1.00  0.00    -0.365 OA 
HETATM   19  O   UNL     1     -10.633   4.530  74.382  1.00  0.00    -0.261 OA 
HETATM   20  H   UNL     1      -8.835   7.990  73.046  1.00  0.00     0.000 HD 
ENDBRANCH   9  10
ENDBRANCH   8   9
ENDBRANCH   6   8
ENDBRANCH   5   6
ENDBRANCH   4   5
ENDBRANCH   3   4
ENDBRANCH   2   3
TORSDOF 7
ENDMDL
MODEL      274
REMARK 921   NORMALIZED FREE ENERGY PREDICTED BY IDOCK:   -2.33 KCAL/MOL
REMARK 922        TOTAL FREE ENERGY PREDICTED BY IDOCK:   -3.97 KCAL/MOL
REMARK 923 INTER-LIGAND FREE ENERGY PREDICTED BY IDOCK:   -3.66 KCAL/MOL
REMARK 924 INTRA-LIGAND FREE ENERGY PREDICTED BY IDOCK:   -0.31 KCAL/MOL
REMARK 927      BINDING AFFINITY PREDICTED BY RF-SCORE:    0.00 PKD
ROOT
HETATM    1  C   UNL     1     -11.844  14.672  67.220  1.00  0.00    -0.375 C  
HETATM    2  C   UNL     1     -12.009  14.101  68.618  1.00  0.00    -0.373 C  
ENDROOT
BRANCH   2   3
HETATM    3  C   UNL     1     -11.104  12.891  68.834  1.00  0.00    -0.301 C  
BRANCH   3   4
HETATM    4  C   UNL     1     -11.883  11.586  68.665  1.00  0.00    -0.382 C  
BRANCH   4   5
HETATM    5  C   UNL     1     -11.513  10.602  69.785  1.00  0.00    -0.302 C  
BRANCH   5   6
HETATM    6  N   UNL     1     -10.860   9.358  69.323  1.00  0.00    -0.208 NA 
HETATM    7  C   UNL     1     -10.524   9.447  67.893  1.00  0.00    -0.243 C  
BRANCH   6   8
HETATM    8  C   UNL     1      -9.607   9.122  70.076  1.00  0.00    -0.197 C  
BRANCH   8   9
HETATM    9  C   UNL     1      -9.584   7.806  70.865  1.00  0.00    -0.173 C  
BRANCH   9  10
HETATM   10  C   UNL     1      -8.596   6.727  70.334  1.00  0.00    -0.146 C  
HETATM   11  P   UNL     1      -7.296   7.637  69.421  1.00  0.00    -0.091 P  
HETATM   12  P   UNL     1      -9.449   5.469  69.301  1.00  0.00    -0.147 P  
HETATM   13  O   UNL     1      -8.017   6.041  71.496  1.00  0.00    -0.110 OA 
HETATM   14  O   UNL     1     -10.566   6.253  68.453  1.00  0.00    -0.203 OA 
HETATM   15  O   UNL     1      -8.714   4.500  68.440  1.00  0.00    -0.096 OA 
HETATM   16  O   UNL     1     -10.371   4.651  70.339  1.00  0.00    -0.195 OA 
HETATM   17  O   UNL     1      -6.547   7.885  70.884  1.00  0.00    -0.037 OA 
HETATM   18  O   UNL     1      -6.515   6.223  69.139  1.00  0.00    -0.039 OA 
HETATM   19  O   UNL     1      -6.196   8.406  68.650  1.00  0.00    -0.044 OA 
HETATM   20  H   UNL     1      -7.414   5.382  71.172  1.00  0.00     0.000 HD 
ENDBRANCH   9  10
ENDBRANCH   8   9
ENDBRANCH   6   8
ENDBRANCH   5   6
ENDBRANCH   4   5
ENDBRANCH   3   4
ENDBRANCH   2   3
TORSDOF 7
ENDMDL
MODEL      275
REMARK 921   NORMALIZED FREE ENERGY PREDICTED BY IDOCK:   -2.33 KCAL/MOL
REMARK 922        TOTAL FREE ENERGY PREDICTED BY IDOCK:   -3.97 KCAL/MOL
REMARK 923 INTER-LIGAND FREE ENERGY PREDICTED BY IDOCK:   -4.91 KCAL/MOL
REMARK 924 INTRA-LIGAND FREE ENERGY PREDICTED BY IDOCK:    0.94 KCAL/MOL
REMARK 927      BINDING AFFINITY PREDICTED BY RF-SCORE:    0.00 PKD
ROOT
HETATM    1  C   UNL     1     -10.103  15.534  70.701  1.00  0.00     0.390 C  
HETATM    2  C   UNL     1     -11.566  15.518  70.291  1.00  0.00    -0.355 C  
ENDROOT
BRANCH   2   3
HETATM    3  C   UNL     1     -11.750  16.042  68.870  1.00  0.00    -0.322 C  
BRANCH   3   4
HETATM    4  C   UNL     1     -10.479  16.730  68.370  1.00  0.00    -0.339 C  
BRANCH   4   5
HETATM    5  C   UNL     1     -10.533  16.890  66.843  1.00  0.00    -0.271 C  
BRANCH   5   6
HETATM    6  N   UNL     1      -9.899  15.789  66.085  1.00  0.00    -0.290 NA 
HETATM    7  C   UNL     1      -8.704  15.294  66.785  1.00  0.00    -0.270 C  
BRANCH   6   8
HETATM    8  C   UNL     1     -10.844  14.660  65.930  1.00  0.00    -0.312 C  
BRANCH   8   9
HETATM    9  C   UNL     1     -10.632  13.519  66.935  1.00  0.00    -0.270 C  
BRANCH   9  10
HETATM   10  C   UNL     1     -10.808  12.082  66.361  1.00  0.00    -0.278 C  
HETATM   11  P   UNL     1      -9.270  11.181  66.774  1.00  0.00    -0.181 P  
HETATM   12  P   UNL     1     -11.161  12.107  64.557  1.00  0.00    -0.356 P  
HETATM   13  O   UNL     1     -11.957  11.468  67.039  1.00  0.00    -0.556 OA 
HETATM   14  O   UNL     1     -10.276  13.292  63.932  1.00  0.00    -0.322 OA 
HETATM   15  O   UNL     1     -11.089  10.886  63.706  1.00  0.00    -0.080 OA 
HETATM   16  O   UNL     1     -12.640  12.736  64.443  1.00  0.00    -0.591 OA 
HETATM   17  O   UNL     1      -9.936  10.878  68.266  1.00  0.00    -0.165 OA 
HETATM   18  O   UNL     1      -9.893   9.823  66.100  1.00  0.00    -0.225 OA 
HETATM   19  O   UNL     1      -7.969  10.419  67.124  1.00  0.00    -0.112 OA 
HETATM   20  H   UNL     1     -12.064  10.592  66.688  1.00  0.00     0.000 HD 
ENDBRANCH   9  10
ENDBRANCH   8   9
ENDBRANCH   6   8
ENDBRANCH   5   6
ENDBRANCH   4   5
ENDBRANCH   3   4
ENDBRANCH   2   3
TORSDOF 7
ENDMDL
MODEL      276
REMARK 921   NORMALIZED FREE ENERGY PREDICTED BY IDOCK:   -2.33 KCAL/MOL
REMARK 922        TOTAL FREE ENERGY PREDICTED BY IDOCK:   -3.96 KCAL/MOL
REMARK 923 INTER-LIGAND FREE ENERGY PREDICTED BY IDOCK:   -3.61 KCAL/MOL
REMARK 924 INTRA-LIGAND FREE ENERGY PREDICTED BY IDOCK:   -0.35 KCAL/MOL
REMARK 927      BINDING AFFINITY PREDICTED BY RF-SCORE:    0.00 PKD
ROOT
HETATM    1  C   UNL     1     -11.924  14.126  64.501  1.00  0.00    -0.476 C  
HETATM    2  C   UNL     1     -12.332  12.672  64.666  1.00  0.00    -0.546 C  
ENDROOT
BRANCH   2   3
HETATM    3  C   UNL     1     -11.123  11.743  64.589  1.00  0.00    -0.363 C  
BRANCH   3   4
HETATM    4  C   UNL     1     -10.235  11.898  65.824  1.00  0.00    -0.276 C  
BRANCH   4   5
HETATM    5  C   UNL     1      -9.636  10.537  66.215  1.00  0.00    -0.187 C  
BRANCH   5   6
HETATM    6  N   UNL     1      -9.865  10.144  67.622  1.00  0.00    -0.167 NA 
HETATM    7  C   UNL     1     -11.284  10.296  67.981  1.00  0.00    -0.235 C  
BRANCH   6   8
HETATM    8  C   UNL     1      -9.487   8.728  67.830  1.00  0.00    -0.142 C  
BRANCH   8   9
HETATM    9  C   UNL     1      -9.899   8.158  69.194  1.00  0.00    -0.182 C  
BRANCH   9  10
HETATM   10  C   UNL     1      -8.742   7.550  70.040  1.00  0.00    -0.140 C  
HETATM   11  P   UNL     1      -7.200   8.298  69.401  1.00  0.00    -0.061 P  
HETATM   12  P   UNL     1      -8.733   5.713  69.962  1.00  0.00    -0.132 P  
HETATM   13  O   UNL     1      -8.959   7.942  71.439  1.00  0.00    -0.129 OA 
HETATM   14  O   UNL     1      -9.140   5.316  68.461  1.00  0.00    -0.107 OA 
HETATM   15  O   UNL     1      -7.582   4.893  70.434  1.00  0.00    -0.057 OA 
HETATM   16  O   UNL     1     -10.057   5.268  70.766  1.00  0.00    -0.196 OA 
HETATM   17  O   UNL     1      -7.506   9.596  70.393  1.00  0.00    -0.137 OA 
HETATM   18  O   UNL     1      -6.344   7.490  70.542  1.00  0.00    -0.037 OA 
HETATM   19  O   UNL     1      -5.895   8.932  68.861  1.00  0.00    -0.039 OA 
HETATM   20  H   UNL     1      -8.253   7.571  71.955  1.00  0.00     0.000 HD 
ENDBRANCH   9  10
ENDBRANCH   8   9
ENDBRANCH   6   8
ENDBRANCH   5   6
ENDBRANCH   4   5
ENDBRANCH   3   4
ENDBRANCH   2   3
TORSDOF 7
ENDMDL
MODEL      277
REMARK 921   NORMALIZED FREE ENERGY PREDICTED BY IDOCK:   -2.32 KCAL/MOL
REMARK 922        TOTAL FREE ENERGY PREDICTED BY IDOCK:   -3.96 KCAL/MOL
REMARK 923 INTER-LIGAND FREE ENERGY PREDICTED BY IDOCK:   -3.59 KCAL/MOL
REMARK 924 INTRA-LIGAND FREE ENERGY PREDICTED BY IDOCK:   -0.37 KCAL/MOL
REMARK 927      BINDING AFFINITY PREDICTED BY RF-SCORE:    0.00 PKD
ROOT
HETATM    1  C   UNL     1      -6.729   6.336  69.996  1.00  0.00    -0.053 C  
HETATM    2  C   UNL     1      -7.841   6.823  69.083  1.00  0.00    -0.111 C  
ENDROOT
BRANCH   2   3
HETATM    3  C   UNL     1      -8.024   8.334  69.188  1.00  0.00    -0.112 C  
BRANCH   3   4
HETATM    4  C   UNL     1      -9.487   8.692  69.451  1.00  0.00    -0.161 C  
BRANCH   4   5
HETATM    5  C   UNL     1     -10.030   9.565  68.309  1.00  0.00    -0.161 C  
BRANCH   5   6
HETATM    6  N   UNL     1     -11.064  10.541  68.716  1.00  0.00    -0.249 NA 
HETATM    7  C   UNL     1     -11.188  10.588  70.181  1.00  0.00    -0.315 C  
BRANCH   6   8
HETATM    8  C   UNL     1     -10.709  11.897  68.240  1.00  0.00    -0.223 C  
BRANCH   8   9
HETATM    9  C   UNL     1     -11.904  12.850  68.101  1.00  0.00    -0.380 C  
BRANCH   9  10
HETATM   10  C   UNL     1     -11.542  14.351  67.902  1.00  0.00    -0.345 C  
HETATM   11  P   UNL     1      -9.842  14.375  67.226  1.00  0.00    -0.256 P  
HETATM   12  P   UNL     1     -11.705  15.305  69.465  1.00  0.00    -0.368 P  
HETATM   13  O   UNL     1     -12.487  14.913  66.928  1.00  0.00    -0.270 OA 
HETATM   14  O   UNL     1     -11.201  14.342  70.646  1.00  0.00    -0.060 OA 
HETATM   15  O   UNL     1     -11.153  16.679  69.630  1.00  0.00    -0.289 OA 
HETATM   16  O   UNL     1     -13.290  15.341  69.753  1.00  0.00     0.362 OA 
HETATM   17  O   UNL     1     -10.515  14.136  65.725  1.00  0.00    -0.289 OA 
HETATM   18  O   UNL     1      -9.916  16.009  67.118  1.00  0.00    -0.241 OA 
HETATM   19  O   UNL     1      -8.404  14.395  66.653  1.00  0.00    -0.067 OA 
HETATM   20  H   UNL     1     -12.265  15.829  66.807  1.00  0.00     0.000 HD 
ENDBRANCH   9  10
ENDBRANCH   8   9
ENDBRANCH   6   8
ENDBRANCH   5   6
ENDBRANCH   4   5
ENDBRANCH   3   4
ENDBRANCH   2   3
TORSDOF 7
ENDMDL
MODEL      278
REMARK 921   NORMALIZED FREE ENERGY PREDICTED BY IDOCK:   -2.32 KCAL/MOL
REMARK 922        TOTAL FREE ENERGY PREDICTED BY IDOCK:   -3.95 KCAL/MOL
REMARK 923 INTER-LIGAND FREE ENERGY PREDICTED BY IDOCK:   -3.61 KCAL/MOL
REMARK 924 INTRA-LIGAND FREE ENERGY PREDICTED BY IDOCK:   -0.34 KCAL/MOL
REMARK 927      BINDING AFFINITY PREDICTED BY RF-SCORE:    0.00 PKD
ROOT
HETATM    1  C   UNL     1      -8.511   4.950  63.568  1.00  0.00    -0.128 C  
HETATM    2  C   UNL     1      -8.525   5.604  64.939  1.00  0.00    -0.122 C  
ENDROOT
BRANCH   2   3
HETATM    3  C   UNL     1      -7.235   6.378  65.198  1.00  0.00    -0.070 C  
BRANCH   3   4
HETATM    4  C   UNL     1      -7.412   7.861  64.873  1.00  0.00    -0.082 C  
BRANCH   4   5
HETATM    5  C   UNL     1      -6.315   8.687  65.565  1.00  0.00    -0.055 C  
BRANCH   5   6
HETATM    6  N   UNL     1      -6.811   9.640  66.582  1.00  0.00    -0.083 NA 
HETATM    7  C   UNL     1      -5.689  10.278  67.289  1.00  0.00    -0.045 C  
BRANCH   6   8
HETATM    8  C   UNL     1      -7.616  10.704  65.942  1.00  0.00    -0.138 C  
BRANCH   8   9
HETATM    9  C   UNL     1      -8.092  11.801  66.904  1.00  0.00    -0.160 C  
BRANCH   9  10
HETATM   10  C   UNL     1      -9.590  12.204  66.769  1.00  0.00    -0.211 C  
HETATM   11  P   UNL     1      -9.727  13.885  67.478  1.00  0.00    -0.245 P  
HETATM   12  P   UNL     1     -10.700  10.989  67.587  1.00  0.00    -0.277 P  
HETATM   13  O   UNL     1      -9.918  12.225  65.338  1.00  0.00    -0.262 OA 
HETATM   14  O   UNL     1      -9.949  10.508  68.923  1.00  0.00    -0.185 OA 
HETATM   15  O   UNL     1     -12.138  11.268  67.859  1.00  0.00    -0.634 OA 
HETATM   16  O   UNL     1     -10.588   9.663  66.679  1.00  0.00    -0.189 OA 
HETATM   17  O   UNL     1      -9.233  14.468  66.002  1.00  0.00    -0.208 OA 
HETATM   18  O   UNL     1     -11.317  13.915  67.080  1.00  0.00    -0.303 OA 
HETATM   19  O   UNL     1      -9.842  15.308  68.077  1.00  0.00    -0.214 OA 
HETATM   20  H   UNL     1     -10.832  12.471  65.255  1.00  0.00     0.000 HD 
ENDBRANCH   9  10
ENDBRANCH   8   9
ENDBRANCH   6   8
ENDBRANCH   5   6
ENDBRANCH   4   5
ENDBRANCH   3   4
ENDBRANCH   2   3
TORSDOF 7
ENDMDL
MODEL      279
REMARK 921   NORMALIZED FREE ENERGY PREDICTED BY IDOCK:   -2.31 KCAL/MOL
REMARK 922        TOTAL FREE ENERGY PREDICTED BY IDOCK:   -3.94 KCAL/MOL
REMARK 923 INTER-LIGAND FREE ENERGY PREDICTED BY IDOCK:   -3.49 KCAL/MOL
REMARK 924 INTRA-LIGAND FREE ENERGY PREDICTED BY IDOCK:   -0.45 KCAL/MOL
REMARK 927      BINDING AFFINITY PREDICTED BY RF-SCORE:    0.00 PKD
ROOT
HETATM    1  C   UNL     1      -9.835   1.989  62.536  1.00  0.00    -0.088 C  
HETATM    2  C   UNL     1     -10.187   3.450  62.762  1.00  0.00    -0.155 C  
ENDROOT
BRANCH   2   3
HETATM    3  C   UNL     1      -9.093   4.170  63.545  1.00  0.00    -0.132 C  
BRANCH   3   4
HETATM    4  C   UNL     1      -9.028   3.664  64.986  1.00  0.00    -0.131 C  
BRANCH   4   5
HETATM    5  C   UNL     1      -9.065   4.850  65.963  1.00  0.00    -0.139 C  
BRANCH   5   6
HETATM    6  N   UNL     1      -9.837   4.605  67.201  1.00  0.00    -0.195 NA 
HETATM    7  C   UNL     1      -8.973   4.041  68.250  1.00  0.00    -0.118 C  
BRANCH   6   8
HETATM    8  C   UNL     1     -10.411   5.871  67.709  1.00  0.00    -0.238 C  
BRANCH   8   9
HETATM    9  C   UNL     1      -9.445   6.706  68.560  1.00  0.00    -0.123 C  
BRANCH   9  10
HETATM   10  C   UNL     1     -10.102   7.514  69.718  1.00  0.00    -0.194 C  
HETATM   11  P   UNL     1      -9.477   9.226  69.557  1.00  0.00    -0.195 P  
HETATM   12  P   UNL     1      -9.740   6.771  71.359  1.00  0.00    -0.168 P  
HETATM   13  O   UNL     1     -11.556   7.480  69.516  1.00  0.00    -0.429 OA 
HETATM   14  O   UNL     1      -8.228   6.235  71.298  1.00  0.00    -0.119 OA 
HETATM   15  O   UNL     1      -9.997   7.487  72.641  1.00  0.00    -0.178 OA 
HETATM   16  O   UNL     1     -10.558   5.383  71.364  1.00  0.00    -0.236 OA 
HETATM   17  O   UNL     1     -10.677   9.480  68.435  1.00  0.00    -0.221 OA 
HETATM   18  O   UNL     1     -10.415   9.680  70.822  1.00  0.00    -0.290 OA 
HETATM   19  O   UNL     1      -8.950  10.675  69.420  1.00  0.00    -0.139 OA 
HETATM   20  H   UNL     1     -11.957   7.973  70.222  1.00  0.00     0.000 HD 
ENDBRANCH   9  10
ENDBRANCH   8   9
ENDBRANCH   6   8
ENDBRANCH   5   6
ENDBRANCH   4   5
ENDBRANCH   3   4
ENDBRANCH   2   3
TORSDOF 7
ENDMDL
MODEL      280
REMARK 921   NORMALIZED FREE ENERGY PREDICTED BY IDOCK:   -2.30 KCAL/MOL
REMARK 922        TOTAL FREE ENERGY PREDICTED BY IDOCK:   -3.92 KCAL/MOL
REMARK 923 INTER-LIGAND FREE ENERGY PREDICTED BY IDOCK:   -3.46 KCAL/MOL
REMARK 924 INTRA-LIGAND FREE ENERGY PREDICTED BY IDOCK:   -0.46 KCAL/MOL
REMARK 927      BINDING AFFINITY PREDICTED BY RF-SCORE:    0.00 PKD
ROOT
HETATM    1  C   UNL     1     -10.237   3.983  64.636  1.00  0.00    -0.226 C  
HETATM    2  C   UNL     1      -9.364   4.035  65.879  1.00  0.00    -0.166 C  
ENDROOT
BRANCH   2   3
HETATM    3  C   UNL     1      -8.805   2.657  66.222  1.00  0.00    -0.136 C  
BRANCH   3   4
HETATM    4  C   UNL     1      -9.118   2.284  67.672  1.00  0.00    -0.208 C  
BRANCH   4   5
HETATM    5  C   UNL     1      -8.715   3.432  68.610  1.00  0.00    -0.101 C  
BRANCH   5   6
HETATM    6  N   UNL     1      -9.680   3.708  69.697  1.00  0.00    -0.149 NA 
HETATM    7  C   UNL     1      -9.613   2.664  70.731  1.00  0.00    -0.111 C  
BRANCH   6   8
HETATM    8  C   UNL     1      -9.378   5.009  70.336  1.00  0.00    -0.158 C  
BRANCH   8   9
HETATM    9  C   UNL     1      -8.645   4.896  71.680  1.00  0.00    -0.132 C  
BRANCH   9  10
HETATM   10  C   UNL     1      -8.995   5.996  72.725  1.00  0.00    -0.123 C  
HETATM   11  P   UNL     1     -10.678   6.576  72.305  1.00  0.00    -0.245 P  
HETATM   12  P   UNL     1      -7.752   7.350  72.732  1.00  0.00    -0.101 P  
HETATM   13  O   UNL     1      -8.988   5.368  74.053  1.00  0.00    -0.120 OA 
HETATM   14  O   UNL     1      -7.313   7.579  71.205  1.00  0.00    -0.069 OA 
HETATM   15  O   UNL     1      -7.984   8.653  73.417  1.00  0.00    -0.405 OA 
HETATM   16  O   UNL     1      -6.420   6.673  73.336  1.00  0.00    -0.063 OA 
HETATM   17  O   UNL     1     -11.260   5.286  73.177  1.00  0.00    -0.299 OA 
HETATM   18  O   UNL     1     -10.649   7.578  73.602  1.00  0.00    -0.348 OA 
HETATM   19  O   UNL     1     -12.103   7.066  71.950  1.00  0.00    -0.302 OA 
HETATM   20  H   UNL     1      -9.201   6.039  74.690  1.00  0.00     0.000 HD 
ENDBRANCH   9  10
ENDBRANCH   8   9
ENDBRANCH   6   8
ENDBRANCH   5   6
ENDBRANCH   4   5
ENDBRANCH   3   4
ENDBRANCH   2   3
TORSDOF 7
ENDMDL
MODEL      281
REMARK 921   NORMALIZED FREE ENERGY PREDICTED BY IDOCK:   -2.28 KCAL/MOL
REMARK 922        TOTAL FREE ENERGY PREDICTED BY IDOCK:   -3.89 KCAL/MOL
REMARK 923 INTER-LIGAND FREE ENERGY PREDICTED BY IDOCK:   -3.32 KCAL/MOL
REMARK 924 INTRA-LIGAND FREE ENERGY PREDICTED BY IDOCK:   -0.58 KCAL/MOL
REMARK 927      BINDING AFFINITY PREDICTED BY RF-SCORE:    0.00 PKD
ROOT
HETATM    1  C   UNL     1      -9.074   4.669  64.872  1.00  0.00    -0.154 C  
HETATM    2  C   UNL     1      -9.068   5.822  65.861  1.00  0.00    -0.148 C  
ENDROOT
BRANCH   2   3
HETATM    3  C   UNL     1      -8.404   7.061  65.266  1.00  0.00    -0.100 C  
BRANCH   3   4
HETATM    4  C   UNL     1      -8.719   8.305  66.098  1.00  0.00    -0.174 C  
BRANCH   4   5
HETATM    5  C   UNL     1      -7.530   8.642  67.012  1.00  0.00    -0.084 C  
BRANCH   5   6
HETATM    6  N   UNL     1      -7.497   7.889  68.284  1.00  0.00    -0.101 NA 
HETATM    7  C   UNL     1      -6.171   7.989  68.915  1.00  0.00    -0.040 C  
BRANCH   6   8
HETATM    8  C   UNL     1      -8.499   8.431  69.230  1.00  0.00    -0.125 C  
BRANCH   8   9
HETATM    9  C   UNL     1      -9.286   7.361  69.998  1.00  0.00    -0.148 C  
BRANCH   9  10
HETATM   10  C   UNL     1      -9.770   7.778  71.417  1.00  0.00    -0.166 C  
HETATM   11  P   UNL     1      -9.248   6.435  72.545  1.00  0.00    -0.136 P  
HETATM   12  P   UNL     1     -11.582   8.082  71.457  1.00  0.00    -0.302 P  
HETATM   13  O   UNL     1      -9.093   9.032  71.769  1.00  0.00    -0.340 OA 
HETATM   14  O   UNL     1     -12.254   6.987  70.495  1.00  0.00    -0.293 OA 
HETATM   15  O   UNL     1     -12.349   8.211  72.729  1.00  0.00    -0.259 OA 
HETATM   16  O   UNL     1     -11.787   9.423  70.586  1.00  0.00    -0.265 OA 
HETATM   17  O   UNL     1      -7.762   7.176  72.619  1.00  0.00    -0.087 OA 
HETATM   18  O   UNL     1      -9.852   7.276  73.815  1.00  0.00    -0.276 OA 
HETATM   19  O   UNL     1      -8.805   5.299  73.498  1.00  0.00    -0.117 OA 
HETATM   20  H   UNL     1      -9.388   9.287  72.635  1.00  0.00     0.000 HD 
ENDBRANCH   9  10
ENDBRANCH   8   9
ENDBRANCH   6   8
ENDBRANCH   5   6
ENDBRANCH   4   5
ENDBRANCH   3   4
ENDBRANCH   2   3
TORSDOF 7
ENDMDL
MODEL      282
REMARK 921   NORMALIZED FREE ENERGY PREDICTED BY IDOCK:   -2.26 KCAL/MOL
REMARK 922        TOTAL FREE ENERGY PREDICTED BY IDOCK:   -3.86 KCAL/MOL
REMARK 923 INTER-LIGAND FREE ENERGY PREDICTED BY IDOCK:   -3.41 KCAL/MOL
REMARK 924 INTRA-LIGAND FREE ENERGY PREDICTED BY IDOCK:   -0.45 KCAL/MOL
REMARK 927      BINDING AFFINITY PREDICTED BY RF-SCORE:    0.00 PKD
ROOT
HETATM    1  C   UNL     1     -10.929  12.881  65.924  1.00  0.00    -0.300 C  
HETATM    2  C   UNL     1     -11.189  11.490  65.370  1.00  0.00    -0.207 C  
ENDROOT
BRANCH   2   3
HETATM    3  C   UNL     1      -9.901  10.840  64.873  1.00  0.00    -0.350 C  
BRANCH   3   4
HETATM    4  C   UNL     1      -9.419   9.764  65.846  1.00  0.00    -0.285 C  
BRANCH   4   5
HETATM    5  C   UNL     1      -8.144  10.236  66.563  1.00  0.00    -0.121 C  
BRANCH   5   6
HETATM    6  N   UNL     1      -8.166  10.069  68.033  1.00  0.00    -0.115 NA 
HETATM    7  C   UNL     1      -8.770  11.243  68.682  1.00  0.00    -0.136 C  
BRANCH   6   8
HETATM    8  C   UNL     1      -8.961   8.877  68.405  1.00  0.00    -0.134 C  
BRANCH   8   9
HETATM    9  C   UNL     1      -8.262   7.936  69.395  1.00  0.00    -0.130 C  
BRANCH   9  10
HETATM   10  C   UNL     1      -8.801   6.475  69.422  1.00  0.00    -0.133 C  
HETATM   11  P   UNL     1     -10.072   6.381  68.110  1.00  0.00    -0.184 P  
HETATM   12  P   UNL     1      -9.447   6.017  71.081  1.00  0.00    -0.165 P  
HETATM   13  O   UNL     1      -7.679   5.580  69.111  1.00  0.00    -0.084 OA 
HETATM   14  O   UNL     1     -10.176   7.323  71.666  1.00  0.00    -0.193 OA 
HETATM   15  O   UNL     1     -10.274   4.800  71.314  1.00  0.00    -0.197 OA 
HETATM   16  O   UNL     1      -8.140   5.948  72.020  1.00  0.00    -0.107 OA 
HETATM   17  O   UNL     1      -8.835   6.113  67.033  1.00  0.00    -0.110 OA 
HETATM   18  O   UNL     1     -10.279   4.788  68.435  1.00  0.00    -0.094 OA 
HETATM   19  O   UNL     1     -11.147   6.301  66.999  1.00  0.00    -0.362 OA 
HETATM   20  H   UNL     1      -8.007   4.689  69.128  1.00  0.00     0.000 HD 
ENDBRANCH   9  10
ENDBRANCH   8   9
ENDBRANCH   6   8
ENDBRANCH   5   6
ENDBRANCH   4   5
ENDBRANCH   3   4
ENDBRANCH   2   3
TORSDOF 7
ENDMDL
MODEL      283
REMARK 921   NORMALIZED FREE ENERGY PREDICTED BY IDOCK:   -2.25 KCAL/MOL
REMARK 922        TOTAL FREE ENERGY PREDICTED BY IDOCK:   -3.85 KCAL/MOL
REMARK 923 INTER-LIGAND FREE ENERGY PREDICTED BY IDOCK:   -3.29 KCAL/MOL
REMARK 924 INTRA-LIGAND FREE ENERGY PREDICTED BY IDOCK:   -0.56 KCAL/MOL
REMARK 927      BINDING AFFINITY PREDICTED BY RF-SCORE:    0.00 PKD
ROOT
HETATM    1  C   UNL     1      -8.292  11.736  68.212  1.00  0.00    -0.159 C  
HETATM    2  C   UNL     1      -9.040  10.421  68.356  1.00  0.00    -0.147 C  
ENDROOT
BRANCH   2   3
HETATM    3  C   UNL     1     -10.433  10.636  68.941  1.00  0.00    -0.232 C  
BRANCH   3   4
HETATM    4  C   UNL     1     -10.533  10.047  70.349  1.00  0.00    -0.304 C  
BRANCH   4   5
HETATM    5  C   UNL     1     -10.516   8.512  70.280  1.00  0.00    -0.220 C  
BRANCH   5   6
HETATM    6  N   UNL     1      -9.834   7.851  71.414  1.00  0.00    -0.166 NA 
HETATM    7  C   UNL     1     -10.808   7.178  72.288  1.00  0.00    -0.232 C  
BRANCH   6   8
HETATM    8  C   UNL     1      -8.880   6.833  70.919  1.00  0.00    -0.146 C  
BRANCH   8   9
HETATM    9  C   UNL     1      -8.716   6.811  69.393  1.00  0.00    -0.136 C  
BRANCH   9  10
HETATM   10  C   UNL     1      -9.288   5.551  68.679  1.00  0.00    -0.125 C  
HETATM   11  P   UNL     1      -7.893   4.376  68.533  1.00  0.00    -0.074 P  
HETATM   12  P   UNL     1     -10.044   5.971  67.057  1.00  0.00    -0.231 P  
HETATM   13  O   UNL     1     -10.340   4.990  69.537  1.00  0.00    -0.238 OA 
HETATM   14  O   UNL     1      -9.124   7.113  66.403  1.00  0.00    -0.153 OA 
HETATM   15  O   UNL     1     -10.404   4.938  66.045  1.00  0.00    -0.252 OA 
HETATM   16  O   UNL     1     -11.364   6.816  67.432  1.00  0.00    -0.274 OA 
HETATM   17  O   UNL     1      -8.235   3.892  70.085  1.00  0.00    -0.056 OA 
HETATM   18  O   UNL     1      -8.901   3.276  67.853  1.00  0.00    -0.103 OA 
HETATM   19  O   UNL     1      -6.713   3.381  68.410  1.00  0.00    -0.043 OA 
HETATM   20  H   UNL     1     -10.689   4.222  69.101  1.00  0.00     0.000 HD 
ENDBRANCH   9  10
ENDBRANCH   8   9
ENDBRANCH   6   8
ENDBRANCH   5   6
ENDBRANCH   4   5
ENDBRANCH   3   4
ENDBRANCH   2   3
TORSDOF 7
ENDMDL
MODEL      284
REMARK 921   NORMALIZED FREE ENERGY PREDICTED BY IDOCK:   -2.24 KCAL/MOL
REMARK 922        TOTAL FREE ENERGY PREDICTED BY IDOCK:   -3.84 KCAL/MOL
REMARK 923 INTER-LIGAND FREE ENERGY PREDICTED BY IDOCK:   -3.40 KCAL/MOL
REMARK 924 INTRA-LIGAND FREE ENERGY PREDICTED BY IDOCK:   -0.44 KCAL/MOL
REMARK 927      BINDING AFFINITY PREDICTED BY RF-SCORE:    0.00 PKD
ROOT
HETATM    1  C   UNL     1      -8.933   1.810  66.012  1.00  0.00    -0.093 C  
HETATM    2  C   UNL     1      -8.930   3.224  66.570  1.00  0.00    -0.161 C  
ENDROOT
BRANCH   2   3
HETATM    3  C   UNL     1      -8.122   4.168  65.685  1.00  0.00    -0.101 C  
BRANCH   3   4
HETATM    4  C   UNL     1      -9.000   5.297  65.143  1.00  0.00    -0.106 C  
BRANCH   4   5
HETATM    5  C   UNL     1     -10.121   5.619  66.144  1.00  0.00    -0.048 C  
BRANCH   5   6
HETATM    6  N   UNL     1      -9.802   6.703  67.099  1.00  0.00    -0.142 NA 
HETATM    7  C   UNL     1     -10.061   8.020  66.497  1.00  0.00    -0.200 C  
BRANCH   6   8
HETATM    8  C   UNL     1     -10.637   6.580  68.315  1.00  0.00    -0.249 C  
BRANCH   8   9
HETATM    9  C   UNL     1     -10.058   7.281  69.551  1.00  0.00    -0.182 C  
BRANCH   9  10
HETATM   10  C   UNL     1      -9.939   6.396  70.827  1.00  0.00    -0.185 C  
HETATM   11  P   UNL     1      -9.732   4.678  70.232  1.00  0.00    -0.243 P  
HETATM   12  P   UNL     1     -11.389   6.600  71.937  1.00  0.00    -0.310 P  
HETATM   13  O   UNL     1      -8.742   6.829  71.560  1.00  0.00    -0.127 OA 
HETATM   14  O   UNL     1     -12.675   6.753  70.989  1.00  0.00    -0.321 OA 
HETATM   15  O   UNL     1     -11.672   5.674  73.069  1.00  0.00    -0.205 OA 
HETATM   16  O   UNL     1     -11.251   8.099  72.511  1.00  0.00    -0.351 OA 
HETATM   17  O   UNL     1      -8.111   5.008  70.070  1.00  0.00    -0.073 OA 
HETATM   18  O   UNL     1      -9.583   4.167  71.782  1.00  0.00    -0.138 OA 
HETATM   19  O   UNL     1      -9.556   3.225  69.728  1.00  0.00    -0.167 OA 
HETATM   20  H   UNL     1      -8.669   6.289  72.338  1.00  0.00     0.000 HD 
ENDBRANCH   9  10
ENDBRANCH   8   9
ENDBRANCH   6   8
ENDBRANCH   5   6
ENDBRANCH   4   5
ENDBRANCH   3   4
ENDBRANCH   2   3
TORSDOF 7
ENDMDL
MODEL      285
REMARK 921   NORMALIZED FREE ENERGY PREDICTED BY IDOCK:   -2.23 KCAL/MOL
REMARK 922        TOTAL FREE ENERGY PREDICTED BY IDOCK:   -3.83 KCAL/MOL
REMARK 923 INTER-LIGAND FREE ENERGY PREDICTED BY IDOCK:   -3.49 KCAL/MOL
REMARK 924 INTRA-LIGAND FREE ENERGY PREDICTED BY IDOCK:   -0.34 KCAL/MOL
REMARK 927      BINDING AFFINITY PREDICTED BY RF-SCORE:    0.00 PKD
ROOT
HETATM    1  C   UNL     1      -5.158  14.152  73.108  1.00  0.00    -0.326 C  
HETATM    2  C   UNL     1      -5.158  12.993  72.126  1.00  0.00    -0.039 C  
ENDROOT
BRANCH   2   3
HETATM    3  C   UNL     1      -5.199  13.487  70.683  1.00  0.00    -0.125 C  
BRANCH   3   4
HETATM    4  C   UNL     1      -5.875  12.461  69.772  1.00  0.00    -0.123 C  
BRANCH   4   5
HETATM    5  C   UNL     1      -7.233  12.997  69.292  1.00  0.00     0.164 C  
BRANCH   5   6
HETATM    6  N   UNL     1      -7.303  13.290  67.844  1.00  0.00    -0.117 NA 
HETATM    7  C   UNL     1      -6.763  12.169  67.058  1.00  0.00    -0.071 C  
BRANCH   6   8
HETATM    8  C   UNL     1      -8.708  13.507  67.429  1.00  0.00    -0.220 C  
BRANCH   8   9
HETATM    9  C   UNL     1      -8.884  13.819  65.937  1.00  0.00     0.740 C  
BRANCH   9  10
HETATM   10  C   UNL     1     -10.357  13.888  65.439  1.00  0.00    -0.348 C  
HETATM   11  P   UNL     1     -11.361  14.360  66.894  1.00  0.00    -0.371 P  
HETATM   12  P   UNL     1     -10.897  12.304  64.680  1.00  0.00    -0.352 P  
HETATM   13  O   UNL     1     -10.431  14.932  64.408  1.00  0.00    -0.488 OA 
HETATM   14  O   UNL     1     -10.228  11.129  65.547  1.00  0.00    -0.243 OA 
HETATM   15  O   UNL     1     -12.325  11.997  64.385  1.00  0.00    -0.333 OA 
HETATM   16  O   UNL     1     -10.047  12.199  63.315  1.00  0.00    -0.414 OA 
HETATM   17  O   UNL     1     -10.967  15.940  66.561  1.00  0.00    -0.252 OA 
HETATM   18  O   UNL     1     -12.703  14.383  65.952  1.00  0.00    -0.377 OA 
HETATM   19  O   UNL     1     -12.210  14.761  68.125  1.00  0.00    -0.195 OA 
HETATM   20  H   UNL     1     -11.330  14.974  64.104  1.00  0.00     0.000 HD 
ENDBRANCH   9  10
ENDBRANCH   8   9
ENDBRANCH   6   8
ENDBRANCH   5   6
ENDBRANCH   4   5
ENDBRANCH   3   4
ENDBRANCH   2   3
TORSDOF 7
ENDMDL
MODEL      286
REMARK 921   NORMALIZED FREE ENERGY PREDICTED BY IDOCK:   -2.19 KCAL/MOL
REMARK 922        TOTAL FREE ENERGY PREDICTED BY IDOCK:   -3.77 KCAL/MOL
REMARK 923 INTER-LIGAND FREE ENERGY PREDICTED BY IDOCK:   -3.57 KCAL/MOL
REMARK 924 INTRA-LIGAND FREE ENERGY PREDICTED BY IDOCK:   -0.20 KCAL/MOL
REMARK 927      BINDING AFFINITY PREDICTED BY RF-SCORE:    0.00 PKD
ROOT
HETATM    1  C   UNL     1      -9.165  11.902  68.452  1.00  0.00    -0.173 C  
HETATM    2  C   UNL     1      -9.888  10.669  68.969  1.00  0.00    -0.218 C  
ENDROOT
BRANCH   2   3
HETATM    3  C   UNL     1     -11.272  11.021  69.506  1.00  0.00    -0.343 C  
BRANCH   3   4
HETATM    4  C   UNL     1     -11.640  10.133  70.695  1.00  0.00    -0.429 C  
BRANCH   4   5
HETATM    5  C   UNL     1     -11.498   8.652  70.310  1.00  0.00    -0.076 C  
BRANCH   5   6
HETATM    6  N   UNL     1     -11.859   7.698  71.382  1.00  0.00    -0.285 NA 
HETATM    7  C   UNL     1     -13.320   7.588  71.512  1.00  0.00    -0.352 C  
BRANCH   6   8
HETATM    8  C   UNL     1     -11.321   6.353  71.078  1.00  0.00    -0.328 C  
BRANCH   8   9
HETATM    9  C   UNL     1     -10.425   6.298  69.833  1.00  0.00    -0.284 C  
BRANCH   9  10
HETATM   10  C   UNL     1      -9.091   5.514  70.004  1.00  0.00    -0.135 C  
HETATM   11  P   UNL     1      -8.925   5.186  71.796  1.00  0.00    -0.135 P  
HETATM   12  P   UNL     1      -7.663   6.438  69.309  1.00  0.00    -0.103 P  
HETATM   13  O   UNL     1      -9.218   4.251  69.264  1.00  0.00    -0.118 OA 
HETATM   14  O   UNL     1      -7.916   7.989  69.636  1.00  0.00    -0.111 OA 
HETATM   15  O   UNL     1      -6.248   6.061  69.588  1.00  0.00    -0.027 OA 
HETATM   16  O   UNL     1      -7.904   6.417  67.716  1.00  0.00    -0.101 OA 
HETATM   17  O   UNL     1      -9.902   3.861  71.570  1.00  0.00    -0.179 OA 
HETATM   18  O   UNL     1      -7.544   4.351  71.507  1.00  0.00    -0.069 OA 
HETATM   19  O   UNL     1      -8.784   4.907  73.313  1.00  0.00    -0.106 OA 
HETATM   20  H   UNL     1      -8.404   3.773  69.368  1.00  0.00     0.000 HD 
ENDBRANCH   9  10
ENDBRANCH   8   9
ENDBRANCH   6   8
ENDBRANCH   5   6
ENDBRANCH   4   5
ENDBRANCH   3   4
ENDBRANCH   2   3
TORSDOF 7
ENDMDL
MODEL      287
REMARK 921   NORMALIZED FREE ENERGY PREDICTED BY IDOCK:   -2.19 KCAL/MOL
REMARK 922        TOTAL FREE ENERGY PREDICTED BY IDOCK:   -3.76 KCAL/MOL
REMARK 923 INTER-LIGAND FREE ENERGY PREDICTED BY IDOCK:   -3.51 KCAL/MOL
REMARK 924 INTRA-LIGAND FREE ENERGY PREDICTED BY IDOCK:   -0.25 KCAL/MOL
REMARK 927      BINDING AFFINITY PREDICTED BY RF-SCORE:    0.00 PKD
ROOT
HETATM    1  C   UNL     1      -6.615  13.261  67.896  1.00  0.00    -0.145 C  
HETATM    2  C   UNL     1      -6.550  12.066  68.831  1.00  0.00    -0.089 C  
ENDROOT
BRANCH   2   3
HETATM    3  C   UNL     1      -7.335  10.881  68.274  1.00  0.00    -0.087 C  
BRANCH   3   4
HETATM    4  C   UNL     1      -8.439  11.352  67.327  1.00  0.00    -0.148 C  
BRANCH   4   5
HETATM    5  C   UNL     1      -9.769  10.671  67.688  1.00  0.00    -0.165 C  
BRANCH   5   6
HETATM    6  N   UNL     1     -10.265  10.972  69.049  1.00  0.00    -0.213 NA 
HETATM    7  C   UNL     1     -11.421  11.880  68.994  1.00  0.00    -0.297 C  
BRANCH   6   8
HETATM    8  C   UNL     1     -10.690   9.727  69.729  1.00  0.00    -0.256 C  
BRANCH   8   9
HETATM    9  C   UNL     1     -10.069   8.448  69.150  1.00  0.00    -0.206 C  
BRANCH   9  10
HETATM   10  C   UNL     1      -9.739   7.337  70.189  1.00  0.00    -0.172 C  
HETATM   11  P   UNL     1     -11.304   6.989  71.071  1.00  0.00    -0.320 P  
HETATM   12  P   UNL     1      -8.378   7.840  71.318  1.00  0.00    -0.111 P  
HETATM   13  O   UNL     1      -9.297   6.149  69.447  1.00  0.00    -0.138 OA 
HETATM   14  O   UNL     1      -8.582   9.404  71.614  1.00  0.00    -0.234 OA 
HETATM   15  O   UNL     1      -8.057   7.101  72.571  1.00  0.00    -0.102 OA 
HETATM   16  O   UNL     1      -7.067   7.873  70.381  1.00  0.00    -0.045 OA 
HETATM   17  O   UNL     1     -11.699   5.973  69.817  1.00  0.00    -0.213 OA 
HETATM   18  O   UNL     1     -10.551   5.813  71.929  1.00  0.00    -0.217 OA 
HETATM   19  O   UNL     1     -12.629   6.694  71.816  1.00  0.00    -0.354 OA 
HETATM   20  H   UNL     1      -9.095   5.471  70.082  1.00  0.00     0.000 HD 
ENDBRANCH   9  10
ENDBRANCH   8   9
ENDBRANCH   6   8
ENDBRANCH   5   6
ENDBRANCH   4   5
ENDBRANCH   3   4
ENDBRANCH   2   3
TORSDOF 7
ENDMDL
MODEL      288
REMARK 921   NORMALIZED FREE ENERGY PREDICTED BY IDOCK:   -2.17 KCAL/MOL
REMARK 922        TOTAL FREE ENERGY PREDICTED BY IDOCK:   -3.74 KCAL/MOL
REMARK 923 INTER-LIGAND FREE ENERGY PREDICTED BY IDOCK:   -3.37 KCAL/MOL
REMARK 924 INTRA-LIGAND FREE ENERGY PREDICTED BY IDOCK:   -0.37 KCAL/MOL
REMARK 927      BINDING AFFINITY PREDICTED BY RF-SCORE:    0.00 PKD
ROOT
HETATM    1  C   UNL     1     -10.615  13.966  64.795  1.00  0.00    -0.444 C  
HETATM    2  C   UNL     1     -10.626  12.806  65.777  1.00  0.00    -0.295 C  
ENDROOT
BRANCH   2   3
HETATM    3  C   UNL     1     -11.009  11.499  65.088  1.00  0.00    -0.298 C  
BRANCH   3   4
HETATM    4  C   UNL     1     -10.022  10.385  65.439  1.00  0.00    -0.362 C  
BRANCH   4   5
HETATM    5  C   UNL     1     -10.343   9.815  66.829  1.00  0.00    -0.218 C  
BRANCH   5   6
HETATM    6  N   UNL     1      -9.169   9.309  67.574  1.00  0.00    -0.124 NA 
HETATM    7  C   UNL     1      -8.350  10.424  68.075  1.00  0.00    -0.118 C  
BRANCH   6   8
HETATM    8  C   UNL     1      -9.605   8.500  68.735  1.00  0.00    -0.149 C  
BRANCH   8   9
HETATM    9  C   UNL     1      -8.573   7.468  69.208  1.00  0.00    -0.136 C  
BRANCH   9  10
HETATM   10  C   UNL     1      -9.097   6.423  70.236  1.00  0.00    -0.155 C  
HETATM   11  P   UNL     1      -7.862   6.378  71.586  1.00  0.00    -0.101 P  
HETATM   12  P   UNL     1      -9.369   4.779  69.459  1.00  0.00    -0.166 P  
HETATM   13  O   UNL     1     -10.389   6.903  70.742  1.00  0.00    -0.202 OA 
HETATM   14  O   UNL     1      -8.184   4.573  68.395  1.00  0.00    -0.086 OA 
HETATM   15  O   UNL     1      -9.588   3.539  70.255  1.00  0.00    -0.178 OA 
HETATM   16  O   UNL     1     -10.628   4.999  68.478  1.00  0.00    -0.027 OA 
HETATM   17  O   UNL     1      -8.635   7.696  72.237  1.00  0.00    -0.113 OA 
HETATM   18  O   UNL     1      -8.794   5.297  72.392  1.00  0.00    -0.127 OA 
HETATM   19  O   UNL     1      -6.818   6.340  72.728  1.00  0.00    -0.072 OA 
HETATM   20  H   UNL     1     -10.708   6.265  71.369  1.00  0.00     0.000 HD 
ENDBRANCH   9  10
ENDBRANCH   8   9
ENDBRANCH   6   8
ENDBRANCH   5   6
ENDBRANCH   4   5
ENDBRANCH   3   4
ENDBRANCH   2   3
TORSDOF 7
ENDMDL
MODEL      289
REMARK 921   NORMALIZED FREE ENERGY PREDICTED BY IDOCK:   -2.16 KCAL/MOL
REMARK 922        TOTAL FREE ENERGY PREDICTED BY IDOCK:   -3.72 KCAL/MOL
REMARK 923 INTER-LIGAND FREE ENERGY PREDICTED BY IDOCK:   -3.14 KCAL/MOL
REMARK 924 INTRA-LIGAND FREE ENERGY PREDICTED BY IDOCK:   -0.58 KCAL/MOL
REMARK 927      BINDING AFFINITY PREDICTED BY RF-SCORE:    0.00 PKD
ROOT
HETATM    1  C   UNL     1      -5.182   8.063  68.279  1.00  0.00    -0.032 C  
HETATM    2  C   UNL     1      -5.153   6.545  68.329  1.00  0.00    -0.007 C  
ENDROOT
BRANCH   2   3
HETATM    3  C   UNL     1      -6.232   5.998  69.259  1.00  0.00    -0.036 C  
BRANCH   3   4
HETATM    4  C   UNL     1      -5.615   5.398  70.522  1.00  0.00    -0.005 C  
BRANCH   4   5
HETATM    5  C   UNL     1      -6.586   5.543  71.704  1.00  0.00    -0.052 C  
BRANCH   5   6
HETATM    6  N   UNL     1      -7.989   5.189  71.396  1.00  0.00    -0.109 NA 
HETATM    7  C   UNL     1      -8.315   3.850  71.912  1.00  0.00    -0.090 C  
BRANCH   6   8
HETATM    8  C   UNL     1      -8.915   6.161  72.021  1.00  0.00    -0.139 C  
BRANCH   8   9
HETATM    9  C   UNL     1     -10.251   6.323  71.284  1.00  0.00    -0.238 C  
BRANCH   9  10
HETATM   10  C   UNL     1     -10.721   7.792  71.069  1.00  0.00    -0.228 C  
HETATM   11  P   UNL     1     -12.508   7.814  71.461  1.00  0.00    -0.307 P  
HETATM   12  P   UNL     1     -10.353   8.383  69.368  1.00  0.00    -0.197 P  
HETATM   13  O   UNL     1      -9.981   8.640  72.012  1.00  0.00    -0.283 OA 
HETATM   14  O   UNL     1     -10.604   7.139  68.385  1.00  0.00    -0.201 OA 
HETATM   15  O   UNL     1     -10.942   9.630  68.804  1.00  0.00    -0.200 OA 
HETATM   16  O   UNL     1      -8.746   8.495  69.317  1.00  0.00    -0.131 OA 
HETATM   17  O   UNL     1     -12.080   7.978  73.058  1.00  0.00    -0.200 OA 
HETATM   18  O   UNL     1     -12.539   9.431  71.191  1.00  0.00    -0.314 OA 
HETATM   19  O   UNL     1     -14.020   7.833  71.793  1.00  0.00    -0.373 OA 
HETATM   20  H   UNL     1     -10.267   9.536  71.881  1.00  0.00     0.000 HD 
ENDBRANCH   9  10
ENDBRANCH   8   9
ENDBRANCH   6   8
ENDBRANCH   5   6
ENDBRANCH   4   5
ENDBRANCH   3   4
ENDBRANCH   2   3
TORSDOF 7
ENDMDL
MODEL      290
REMARK 921   NORMALIZED FREE ENERGY PREDICTED BY IDOCK:   -2.15 KCAL/MOL
REMARK 922        TOTAL FREE ENERGY PREDICTED BY IDOCK:   -3.70 KCAL/MOL
REMARK 923 INTER-LIGAND FREE ENERGY PREDICTED BY IDOCK:   -3.26 KCAL/MOL
REMARK 924 INTRA-LIGAND FREE ENERGY PREDICTED BY IDOCK:   -0.45 KCAL/MOL
REMARK 927      BINDING AFFINITY PREDICTED BY RF-SCORE:    0.00 PKD
ROOT
HETATM    1  C   UNL     1     -11.295  15.715  68.034  1.00  0.00    -0.324 C  
HETATM    2  C   UNL     1     -10.142  15.126  68.830  1.00  0.00    -0.226 C  
ENDROOT
BRANCH   2   3
HETATM    3  C   UNL     1      -9.874  13.678  68.429  1.00  0.00    -0.223 C  
BRANCH   3   4
HETATM    4  C   UNL     1     -10.644  13.308  67.161  1.00  0.00    -0.259 C  
BRANCH   4   5
HETATM    5  C   UNL     1     -11.037  11.823  67.198  1.00  0.00    -0.296 C  
BRANCH   5   6
HETATM    6  N   UNL     1     -10.769  11.146  68.485  1.00  0.00    -0.188 NA 
HETATM    7  C   UNL     1     -11.908  11.301  69.403  1.00  0.00    -0.355 C  
BRANCH   6   8
HETATM    8  C   UNL     1     -10.546   9.698  68.270  1.00  0.00    -0.225 C  
BRANCH   8   9
HETATM    9  C   UNL     1      -9.089   9.250  68.452  1.00  0.00    -0.128 C  
BRANCH   9  10
HETATM   10  C   UNL     1      -8.705   8.797  69.891  1.00  0.00    -0.135 C  
HETATM   11  P   UNL     1      -6.959   9.290  70.127  1.00  0.00    -0.094 P  
HETATM   12  P   UNL     1      -8.980   6.996  70.135  1.00  0.00    -0.144 P  
HETATM   13  O   UNL     1      -9.571   9.519  70.832  1.00  0.00    -0.251 OA 
HETATM   14  O   UNL     1      -8.570   6.278  68.759  1.00  0.00    -0.121 OA 
HETATM   15  O   UNL     1      -8.435   6.250  71.304  1.00  0.00    -0.123 OA 
HETATM   16  O   UNL     1     -10.582   6.823  70.107  1.00  0.00    -0.202 OA 
HETATM   17  O   UNL     1      -7.519  10.799  70.540  1.00  0.00     0.160 OA 
HETATM   18  O   UNL     1      -7.016   8.729  71.666  1.00  0.00    -0.087 OA 
HETATM   19  O   UNL     1      -5.482   9.709  70.327  1.00  0.00    -0.037 OA 
HETATM   20  H   UNL     1      -9.336   9.242  71.710  1.00  0.00     0.000 HD 
ENDBRANCH   9  10
ENDBRANCH   8   9
ENDBRANCH   6   8
ENDBRANCH   5   6
ENDBRANCH   4   5
ENDBRANCH   3   4
ENDBRANCH   2   3
TORSDOF 7
ENDMDL
MODEL      291
REMARK 921   NORMALIZED FREE ENERGY PREDICTED BY IDOCK:   -2.11 KCAL/MOL
REMARK 922        TOTAL FREE ENERGY PREDICTED BY IDOCK:   -3.66 KCAL/MOL
REMARK 923 INTER-LIGAND FREE ENERGY PREDICTED BY IDOCK:   -2.85 KCAL/MOL
REMARK 924 INTRA-LIGAND FREE ENERGY PREDICTED BY IDOCK:   -0.81 KCAL/MOL
REMARK 927      BINDING AFFINITY PREDICTED BY RF-SCORE:    0.00 PKD
ROOT
HETATM    1  C   UNL     1      -8.842   1.842  65.578  1.00  0.00    -0.121 C  
HETATM    2  C   UNL     1      -7.987   2.456  66.674  1.00  0.00    -0.080 C  
ENDROOT
BRANCH   2   3
HETATM    3  C   UNL     1      -6.743   3.127  66.098  1.00  0.00    -0.048 C  
BRANCH   3   4
HETATM    4  C   UNL     1      -6.583   4.546  66.645  1.00  0.00    -0.050 C  
BRANCH   4   5
HETATM    5  C   UNL     1      -7.959   5.220  66.770  1.00  0.00    -0.104 C  
BRANCH   5   6
HETATM    6  N   UNL     1      -8.103   6.114  67.939  1.00  0.00    -0.113 NA 
HETATM    7  C   UNL     1      -7.178   5.721  69.014  1.00  0.00    -0.078 C  
BRANCH   6   8
HETATM    8  C   UNL     1      -7.800   7.513  67.560  1.00  0.00    -0.116 C  
BRANCH   8   9
HETATM    9  C   UNL     1      -8.082   8.542  68.663  1.00  0.00    -0.121 C  
BRANCH   9  10
HETATM   10  C   UNL     1      -9.577   8.944  68.834  1.00  0.00    -0.160 C  
HETATM   11  P   UNL     1      -9.637  10.762  68.635  1.00  0.00    -0.190 P  
HETATM   12  P   UNL     1     -10.256   8.377  70.445  1.00  0.00    -0.208 P  
HETATM   13  O   UNL     1     -10.340   8.288  67.765  1.00  0.00    -0.216 OA 
HETATM   14  O   UNL     1      -9.082   8.554  71.526  1.00  0.00    -0.174 OA 
HETATM   15  O   UNL     1     -11.554   8.867  70.988  1.00  0.00    -0.277 OA 
HETATM   16  O   UNL     1     -10.316   6.772  70.317  1.00  0.00    -0.193 OA 
HETATM   17  O   UNL     1      -9.689  10.506  66.994  1.00  0.00    -0.170 OA 
HETATM   18  O   UNL     1     -11.267  10.719  68.803  1.00  0.00    -0.233 OA 
HETATM   19  O   UNL     1      -9.687  12.300  68.465  1.00  0.00    -0.203 OA 
HETATM   20  H   UNL     1     -11.252   8.534  67.869  1.00  0.00     0.000 HD 
ENDBRANCH   9  10
ENDBRANCH   8   9
ENDBRANCH   6   8
ENDBRANCH   5   6
ENDBRANCH   4   5
ENDBRANCH   3   4
ENDBRANCH   2   3
TORSDOF 7
ENDMDL
MODEL      292
REMARK 921   NORMALIZED FREE ENERGY PREDICTED BY IDOCK:   -2.11 KCAL/MOL
REMARK 922        TOTAL FREE ENERGY PREDICTED BY IDOCK:   -3.65 KCAL/MOL
REMARK 923 INTER-LIGAND FREE ENERGY PREDICTED BY IDOCK:   -3.42 KCAL/MOL
REMARK 924 INTRA-LIGAND FREE ENERGY PREDICTED BY IDOCK:   -0.23 KCAL/MOL
REMARK 927      BINDING AFFINITY PREDICTED BY RF-SCORE:    0.00 PKD
ROOT
HETATM    1  C   UNL     1      -8.282   4.454  69.256  1.00  0.00    -0.072 C  
HETATM    2  C   UNL     1      -7.042   5.331  69.202  1.00  0.00    -0.057 C  
ENDROOT
BRANCH   2   3
HETATM    3  C   UNL     1      -7.211   6.470  68.200  1.00  0.00    -0.088 C  
BRANCH   3   4
HETATM    4  C   UNL     1      -7.124   7.829  68.895  1.00  0.00    -0.075 C  
BRANCH   4   5
HETATM    5  C   UNL     1      -8.516   8.479  68.957  1.00  0.00    -0.126 C  
BRANCH   5   6
HETATM    6  N   UNL     1      -9.003   9.018  67.669  1.00  0.00    -0.124 NA 
HETATM    7  C   UNL     1     -10.255   8.357  67.267  1.00  0.00    -0.279 C  
BRANCH   6   8
HETATM    8  C   UNL     1      -9.266  10.470  67.785  1.00  0.00    -0.145 C  
BRANCH   8   9
HETATM    9  C   UNL     1     -10.683  10.890  67.370  1.00  0.00    -0.305 C  
BRANCH   9  10
HETATM   10  C   UNL     1     -10.762  11.895  66.185  1.00  0.00    -0.278 C  
HETATM   11  P   UNL     1      -9.491  11.360  64.982  1.00  0.00    -0.079 P  
HETATM   12  P   UNL     1     -10.532  13.630  66.745  1.00  0.00    -0.274 P  
HETATM   13  O   UNL     1     -12.102  11.784  65.593  1.00  0.00    -0.336 OA 
HETATM   14  O   UNL     1      -9.422  13.595  67.905  1.00  0.00    -0.198 OA 
HETATM   15  O   UNL     1     -10.276  14.754  65.800  1.00  0.00    -0.298 OA 
HETATM   16  O   UNL     1     -11.858  13.959  67.599  1.00  0.00    -0.348 OA 
HETATM   17  O   UNL     1     -10.607  10.278  64.396  1.00  0.00     0.025 OA 
HETATM   18  O   UNL     1      -9.958  12.558  63.966  1.00  0.00    -0.314 OA 
HETATM   19  O   UNL     1      -8.416  10.906  63.965  1.00  0.00    -0.047 OA 
HETATM   20  H   UNL     1     -12.150  12.398  64.870  1.00  0.00     0.000 HD 
ENDBRANCH   9  10
ENDBRANCH   8   9
ENDBRANCH   6   8
ENDBRANCH   5   6
ENDBRANCH   4   5
ENDBRANCH   3   4
ENDBRANCH   2   3
TORSDOF 7
ENDMDL
MODEL      293
REMARK 921   NORMALIZED FREE ENERGY PREDICTED BY IDOCK:   -2.08 KCAL/MOL
REMARK 922        TOTAL FREE ENERGY PREDICTED BY IDOCK:   -3.61 KCAL/MOL
REMARK 923 INTER-LIGAND FREE ENERGY PREDICTED BY IDOCK:   -3.19 KCAL/MOL
REMARK 924 INTRA-LIGAND FREE ENERGY PREDICTED BY IDOCK:   -0.42 KCAL/MOL
REMARK 927      BINDING AFFINITY PREDICTED BY RF-SCORE:    0.00 PKD
ROOT
HETATM    1  C   UNL     1     -10.696  14.053  64.538  1.00  0.00    -0.355 C  
HETATM    2  C   UNL     1     -11.002  12.955  65.542  1.00  0.00    -0.301 C  
ENDROOT
BRANCH   2   3
HETATM    3  C   UNL     1     -10.768  11.572  64.941  1.00  0.00    -0.357 C  
BRANCH   3   4
HETATM    4  C   UNL     1      -9.520  10.920  65.537  1.00  0.00    -0.249 C  
BRANCH   4   5
HETATM    5  C   UNL     1      -9.920   9.738  66.434  1.00  0.00    -0.247 C  
BRANCH   5   6
HETATM    6  N   UNL     1      -9.769   9.986  67.884  1.00  0.00    -0.145 NA 
HETATM    7  C   UNL     1      -9.074  11.261  68.125  1.00  0.00    -0.166 C  
BRANCH   6   8
HETATM    8  C   UNL     1     -11.096  10.055  68.537  1.00  0.00    -0.167 C  
BRANCH   8   9
HETATM    9  C   UNL     1     -11.043  10.111  70.070  1.00  0.00    -0.368 C  
BRANCH   9  10
HETATM   10  C   UNL     1     -12.415  10.306  70.779  1.00  0.00    -0.346 C  
HETATM   11  P   UNL     1     -12.376  11.986  71.504  1.00  0.00     0.579 P  
HETATM   12  P   UNL     1     -12.731   8.994  72.026  1.00  0.00    -0.419 P  
HETATM   13  O   UNL     1     -13.464  10.218  69.753  1.00  0.00    -0.320 OA 
HETATM   14  O   UNL     1     -11.322   8.679  72.728  1.00  0.00    -0.198 OA 
HETATM   15  O   UNL     1     -13.818   9.093  73.041  1.00  0.00    -0.307 OA 
HETATM   16  O   UNL     1     -12.948   7.654  71.158  1.00  0.00    -0.267 OA 
HETATM   17  O   UNL     1     -12.841  12.559  70.015  1.00  0.00     0.244 OA 
HETATM   18  O   UNL     1     -13.916  11.787  72.029  1.00  0.00     0.124 OA 
HETATM   19  O   UNL     1     -12.342  13.407  72.117  1.00  0.00     0.080 OA 
HETATM   20  H   UNL     1     -14.301  10.337  70.186  1.00  0.00     0.000 HD 
ENDBRANCH   9  10
ENDBRANCH   8   9
ENDBRANCH   6   8
ENDBRANCH   5   6
ENDBRANCH   4   5
ENDBRANCH   3   4
ENDBRANCH   2   3
TORSDOF 7
ENDMDL
MODEL      294
REMARK 921   NORMALIZED FREE ENERGY PREDICTED BY IDOCK:   -2.05 KCAL/MOL
REMARK 922        TOTAL FREE ENERGY PREDICTED BY IDOCK:   -3.57 KCAL/MOL
REMARK 923 INTER-LIGAND FREE ENERGY PREDICTED BY IDOCK:   -3.32 KCAL/MOL
REMARK 924 INTRA-LIGAND FREE ENERGY PREDICTED BY IDOCK:   -0.25 KCAL/MOL
REMARK 927      BINDING AFFINITY PREDICTED BY RF-SCORE:    0.00 PKD
ROOT
HETATM    1  C   UNL     1     -10.094  17.230  66.742  1.00  0.00    -0.302 C  
HETATM    2  C   UNL     1      -8.985  16.233  67.038  1.00  0.00    -0.227 C  
ENDROOT
BRANCH   2   3
HETATM    3  C   UNL     1      -9.506  14.799  67.012  1.00  0.00    -0.241 C  
BRANCH   3   4
HETATM    4  C   UNL     1      -9.673  14.251  68.430  1.00  0.00    -0.225 C  
BRANCH   4   5
HETATM    5  C   UNL     1      -9.422  12.735  68.441  1.00  0.00    -0.162 C  
BRANCH   5   6
HETATM    6  N   UNL     1     -10.613  11.915  68.754  1.00  0.00    -0.219 NA 
HETATM    7  C   UNL     1     -11.848  12.688  68.545  1.00  0.00    -0.300 C  
BRANCH   6   8
HETATM    8  C   UNL     1     -10.662  10.722  67.879  1.00  0.00    -0.239 C  
BRANCH   8   9
HETATM    9  C   UNL     1      -9.286  10.166  67.492  1.00  0.00    -0.150 C  
BRANCH   9  10
HETATM   10  C   UNL     1      -9.260   9.277  66.214  1.00  0.00    -0.186 C  
HETATM   11  P   UNL     1      -7.605   8.496  66.175  1.00  0.00    -0.092 P  
HETATM   12  P   UNL     1      -9.628  10.250  64.699  1.00  0.00    -0.310 P  
HETATM   13  O   UNL     1     -10.303   8.254  66.360  1.00  0.00    -0.440 OA 
HETATM   14  O   UNL     1      -8.926  11.681  64.890  1.00  0.00     0.071 OA 
HETATM   15  O   UNL     1      -9.390   9.722  63.326  1.00  0.00    -0.259 OA 
HETATM   16  O   UNL     1     -11.183  10.649  64.842  1.00  0.00     0.250 OA 
HETATM   17  O   UNL     1      -8.209   7.340  67.205  1.00  0.00    -0.115 OA 
HETATM   18  O   UNL     1      -8.035   7.672  64.824  1.00  0.00    -0.129 OA 
HETATM   19  O   UNL     1      -6.206   7.834  66.142  1.00  0.00    -0.043 OA 
HETATM   20  H   UNL     1     -10.288   7.712  65.581  1.00  0.00     0.000 HD 
ENDBRANCH   9  10
ENDBRANCH   8   9
ENDBRANCH   6   8
ENDBRANCH   5   6
ENDBRANCH   4   5
ENDBRANCH   3   4
ENDBRANCH   2   3
TORSDOF 7
ENDMDL
MODEL      295
REMARK 921   NORMALIZED FREE ENERGY PREDICTED BY IDOCK:   -2.03 KCAL/MOL
REMARK 922        TOTAL FREE ENERGY PREDICTED BY IDOCK:   -3.54 KCAL/MOL
REMARK 923 INTER-LIGAND FREE ENERGY PREDICTED BY IDOCK:   -3.47 KCAL/MOL
REMARK 924 INTRA-LIGAND FREE ENERGY PREDICTED BY IDOCK:   -0.07 KCAL/MOL
REMARK 927      BINDING AFFINITY PREDICTED BY RF-SCORE:    0.00 PKD
ROOT
HETATM    1  C   UNL     1      -9.021   4.621  64.241  1.00  0.00    -0.136 C  
HETATM    2  C   UNL     1      -8.627   5.581  65.351  1.00  0.00    -0.151 C  
ENDROOT
BRANCH   2   3
HETATM    3  C   UNL     1      -8.031   6.868  64.787  1.00  0.00    -0.119 C  
BRANCH   3   4
HETATM    4  C   UNL     1      -8.723   8.097  65.376  1.00  0.00    -0.128 C  
BRANCH   4   5
HETATM    5  C   UNL     1      -7.683   9.033  66.012  1.00  0.00    -0.095 C  
BRANCH   5   6
HETATM    6  N   UNL     1      -7.207   8.609  67.347  1.00  0.00    -0.080 NA 
HETATM    7  C   UNL     1      -5.804   9.005  67.550  1.00  0.00    -0.043 C  
BRANCH   6   8
HETATM    8  C   UNL     1      -8.021   9.239  68.410  1.00  0.00    -0.102 C  
BRANCH   8   9
HETATM    9  C   UNL     1      -8.440   8.283  69.535  1.00  0.00    -0.125 C  
BRANCH   9  10
HETATM   10  C   UNL     1      -9.898   8.459  70.052  1.00  0.00    -0.182 C  
HETATM   11  P   UNL     1     -10.399  10.156  69.584  1.00  0.00    -0.240 P  
HETATM   12  P   UNL     1     -10.023   8.149  71.860  1.00  0.00    -0.264 P  
HETATM   13  O   UNL     1     -10.739   7.471  69.364  1.00  0.00    -0.231 OA 
HETATM   14  O   UNL     1      -8.687   8.747  72.521  1.00  0.00    -0.406 OA 
HETATM   15  O   UNL     1     -11.223   8.522  72.660  1.00  0.00    -0.331 OA 
HETATM   16  O   UNL     1      -9.761   6.567  72.017  1.00  0.00    -0.152 OA 
HETATM   17  O   UNL     1     -10.795   9.547  68.089  1.00  0.00    -0.222 OA 
HETATM   18  O   UNL     1     -11.889   9.881  70.210  1.00  0.00    -0.249 OA 
HETATM   19  O   UNL     1     -10.823  11.591  69.187  1.00  0.00    -0.216 OA 
HETATM   20  H   UNL     1     -11.628   7.579  69.680  1.00  0.00     0.000 HD 
ENDBRANCH   9  10
ENDBRANCH   8   9
ENDBRANCH   6   8
ENDBRANCH   5   6
ENDBRANCH   4   5
ENDBRANCH   3   4
ENDBRANCH   2   3
TORSDOF 7
ENDMDL
MODEL      296
REMARK 921   NORMALIZED FREE ENERGY PREDICTED BY IDOCK:   -2.02 KCAL/MOL
REMARK 922        TOTAL FREE ENERGY PREDICTED BY IDOCK:   -3.52 KCAL/MOL
REMARK 923 INTER-LIGAND FREE ENERGY PREDICTED BY IDOCK:   -3.08 KCAL/MOL
REMARK 924 INTRA-LIGAND FREE ENERGY PREDICTED BY IDOCK:   -0.45 KCAL/MOL
REMARK 927      BINDING AFFINITY PREDICTED BY RF-SCORE:    0.00 PKD
ROOT
HETATM    1  C   UNL     1      -5.270  14.098  72.863  1.00  0.00    -0.272 C  
HETATM    2  C   UNL     1      -5.129  12.893  71.947  1.00  0.00    -0.075 C  
ENDROOT
BRANCH   2   3
HETATM    3  C   UNL     1      -5.225  13.298  70.479  1.00  0.00    -0.126 C  
BRANCH   3   4
HETATM    4  C   UNL     1      -5.406  12.073  69.583  1.00  0.00    -0.073 C  
BRANCH   4   5
HETATM    5  C   UNL     1      -6.203  10.990  70.327  1.00  0.00    -0.139 C  
BRANCH   5   6
HETATM    6  N   UNL     1      -7.623  10.886  69.928  1.00  0.00     0.071 NA 
HETATM    7  C   UNL     1      -7.787  11.191  68.498  1.00  0.00    -0.136 C  
BRANCH   6   8
HETATM    8  C   UNL     1      -8.127   9.514  70.166  1.00  0.00    -0.174 C  
BRANCH   8   9
HETATM    9  C   UNL     1      -9.553   9.268  69.656  1.00  0.00    -0.192 C  
BRANCH   9  10
HETATM   10  C   UNL     1      -9.998   7.777  69.610  1.00  0.00    -0.190 C  
HETATM   11  P   UNL     1      -9.016   6.917  70.893  1.00  0.00    -0.148 P  
HETATM   12  P   UNL     1      -9.781   7.051  67.936  1.00  0.00    -0.132 P  
HETATM   13  O   UNL     1     -11.428   7.727  69.943  1.00  0.00    -0.464 OA 
HETATM   14  O   UNL     1      -8.424   7.670  67.340  1.00  0.00    -0.121 OA 
HETATM   15  O   UNL     1      -9.852   5.585  67.678  1.00  0.00    -0.129 OA 
HETATM   16  O   UNL     1     -10.883   7.796  67.026  1.00  0.00    -0.316 OA 
HETATM   17  O   UNL     1     -10.150   7.425  71.996  1.00  0.00    -0.179 OA 
HETATM   18  O   UNL     1      -9.811   5.523  70.556  1.00  0.00    -0.173 OA 
HETATM   19  O   UNL     1      -8.186   6.190  71.979  1.00  0.00    -0.110 OA 
HETATM   20  H   UNL     1     -11.699   6.817  69.915  1.00  0.00     0.000 HD 
ENDBRANCH   9  10
ENDBRANCH   8   9
ENDBRANCH   6   8
ENDBRANCH   5   6
ENDBRANCH   4   5
ENDBRANCH   3   4
ENDBRANCH   2   3
TORSDOF 7
ENDMDL
MODEL      297
REMARK 921   NORMALIZED FREE ENERGY PREDICTED BY IDOCK:   -2.00 KCAL/MOL
REMARK 922        TOTAL FREE ENERGY PREDICTED BY IDOCK:   -3.50 KCAL/MOL
REMARK 923 INTER-LIGAND FREE ENERGY PREDICTED BY IDOCK:   -3.93 KCAL/MOL
REMARK 924 INTRA-LIGAND FREE ENERGY PREDICTED BY IDOCK:    0.43 KCAL/MOL
REMARK 927      BINDING AFFINITY PREDICTED BY RF-SCORE:    0.00 PKD
ROOT
HETATM    1  C   UNL     1     -12.628   8.514  72.200  1.00  0.00    -0.431 C  
HETATM    2  C   UNL     1     -13.300   9.619  71.403  1.00  0.00    -0.444 C  
ENDROOT
BRANCH   2   3
HETATM    3  C   UNL     1     -12.297  10.357  70.520  1.00  0.00    -0.410 C  
BRANCH   3   4
HETATM    4  C   UNL     1     -10.999   9.560  70.382  1.00  0.00    -0.333 C  
BRANCH   4   5
HETATM    5  C   UNL     1     -10.096  10.205  69.319  1.00  0.00    -0.222 C  
BRANCH   5   6
HETATM    6  N   UNL     1     -10.593  10.086  67.932  1.00  0.00    -0.232 NA 
HETATM    7  C   UNL     1     -10.768  11.414  67.324  1.00  0.00    -0.241 C  
BRANCH   6   8
HETATM    8  C   UNL     1      -9.630   9.324  67.103  1.00  0.00    -0.159 C  
BRANCH   8   9
HETATM    9  C   UNL     1     -10.103   7.914  66.723  1.00  0.00    -0.352 C  
BRANCH   9  10
HETATM   10  C   UNL     1      -9.279   6.745  67.337  1.00  0.00    -0.127 C  
HETATM   11  P   UNL     1      -7.651   7.453  67.781  1.00  0.00    -0.110 P  
HETATM   12  P   UNL     1      -9.150   5.321  66.183  1.00  0.00    -0.154 P  
HETATM   13  O   UNL     1      -9.982   6.289  68.543  1.00  0.00    -0.134 OA 
HETATM   14  O   UNL     1      -8.994   5.937  64.709  1.00  0.00     0.075 OA 
HETATM   15  O   UNL     1      -8.192   4.199  66.393  1.00  0.00    -0.101 OA 
HETATM   16  O   UNL     1     -10.645   4.723  66.110  1.00  0.00    -0.309 OA 
HETATM   17  O   UNL     1      -8.345   7.970  69.199  1.00  0.00    -0.128 OA 
HETATM   18  O   UNL     1      -7.199   6.006  68.403  1.00  0.00    -0.079 OA 
HETATM   19  O   UNL     1      -6.274   8.053  68.157  1.00  0.00    -0.044 OA 
HETATM   20  H   UNL     1      -9.479   5.576  68.918  1.00  0.00     0.000 HD 
ENDBRANCH   9  10
ENDBRANCH   8   9
ENDBRANCH   6   8
ENDBRANCH   5   6
ENDBRANCH   4   5
ENDBRANCH   3   4
ENDBRANCH   2   3
TORSDOF 7
ENDMDL
MODEL      298
REMARK 921   NORMALIZED FREE ENERGY PREDICTED BY IDOCK:   -1.98 KCAL/MOL
REMARK 922        TOTAL FREE ENERGY PREDICTED BY IDOCK:   -3.47 KCAL/MOL
REMARK 923 INTER-LIGAND FREE ENERGY PREDICTED BY IDOCK:   -3.00 KCAL/MOL
REMARK 924 INTRA-LIGAND FREE ENERGY PREDICTED BY IDOCK:   -0.47 KCAL/MOL
REMARK 927      BINDING AFFINITY PREDICTED BY RF-SCORE:    0.00 PKD
ROOT
HETATM    1  C   UNL     1      -5.867   9.001  70.267  1.00  0.00    -0.034 C  
HETATM    2  C   UNL     1      -6.067  10.059  69.195  1.00  0.00    -0.040 C  
ENDROOT
BRANCH   2   3
HETATM    3  C   UNL     1      -5.180  11.276  69.444  1.00  0.00    -0.044 C  
BRANCH   3   4
HETATM    4  C   UNL     1      -5.638  12.469  68.604  1.00  0.00    -0.054 C  
BRANCH   4   5
HETATM    5  C   UNL     1      -6.929  13.062  69.192  1.00  0.00    -0.020 C  
BRANCH   5   6
HETATM    6  N   UNL     1      -7.294  14.392  68.659  1.00  0.00    -0.116 NA 
HETATM    7  C   UNL     1      -6.101  15.239  68.508  1.00  0.00    -0.094 C  
BRANCH   6   8
HETATM    8  C   UNL     1      -7.934  14.258  67.331  1.00  0.00    -0.192 C  
BRANCH   8   9
HETATM    9  C   UNL     1      -9.024  13.180  67.262  1.00  0.00    -0.216 C  
BRANCH   9  10
HETATM   10  C   UNL     1     -10.480  13.710  67.109  1.00  0.00    -0.264 C  
HETATM   11  P   UNL     1     -11.575  12.338  67.624  1.00  0.00    -0.297 P  
HETATM   12  P   UNL     1     -10.817  14.292  65.399  1.00  0.00    -0.393 P  
HETATM   13  O   UNL     1     -10.635  14.855  68.016  1.00  0.00    -0.243 OA 
HETATM   14  O   UNL     1     -10.051  13.285  64.411  1.00  0.00    -0.340 OA 
HETATM   15  O   UNL     1     -12.193  14.578  64.902  1.00  0.00    -0.412 OA 
HETATM   16  O   UNL     1      -9.919  15.621  65.239  1.00  0.00    -0.335 OA 
HETATM   17  O   UNL     1     -11.347  12.842  69.191  1.00  0.00    -0.261 OA 
HETATM   18  O   UNL     1     -12.880  13.301  67.390  1.00  0.00     0.452 OA 
HETATM   19  O   UNL     1     -12.501  11.177  68.061  1.00  0.00    -0.098 OA 
HETATM   20  H   UNL     1     -11.523  15.179  67.922  1.00  0.00     0.000 HD 
ENDBRANCH   9  10
ENDBRANCH   8   9
ENDBRANCH   6   8
ENDBRANCH   5   6
ENDBRANCH   4   5
ENDBRANCH   3   4
ENDBRANCH   2   3
TORSDOF 7
ENDMDL
MODEL      299
REMARK 921   NORMALIZED FREE ENERGY PREDICTED BY IDOCK:   -1.77 KCAL/MOL
REMARK 922        TOTAL FREE ENERGY PREDICTED BY IDOCK:   -3.17 KCAL/MOL
REMARK 923 INTER-LIGAND FREE ENERGY PREDICTED BY IDOCK:   -2.77 KCAL/MOL
REMARK 924 INTRA-LIGAND FREE ENERGY PREDICTED BY IDOCK:   -0.40 KCAL/MOL
REMARK 927      BINDING AFFINITY PREDICTED BY RF-SCORE:    0.00 PKD
ROOT
HETATM    1  C   UNL     1      -5.698   7.821  67.561  1.00  0.00    -0.037 C  
HETATM    2  C   UNL     1      -5.174   6.598  68.295  1.00  0.00    -0.011 C  
ENDROOT
BRANCH   2   3
HETATM    3  C   UNL     1      -6.244   5.992  69.199  1.00  0.00    -0.036 C  
BRANCH   3   4
HETATM    4  C   UNL     1      -5.920   6.240  70.673  1.00  0.00    -0.026 C  
BRANCH   4   5
HETATM    5  C   UNL     1      -6.325   7.669  71.068  1.00  0.00    -0.035 C  
BRANCH   5   6
HETATM    6  N   UNL     1      -7.783   7.918  71.069  1.00  0.00    -0.081 NA 
HETATM    7  C   UNL     1      -8.305   7.952  72.445  1.00  0.00    -0.138 C  
BRANCH   6   8
HETATM    8  C   UNL     1      -8.084   9.220  70.431  1.00  0.00    -0.160 C  
BRANCH   8   9
HETATM    9  C   UNL     1      -9.558   9.638  70.514  1.00  0.00    -0.261 C  
BRANCH   9  10
HETATM   10  C   UNL     1     -10.288   9.786  69.147  1.00  0.00    -0.211 C  
HETATM   11  P   UNL     1      -9.717   8.387  68.115  1.00  0.00    -0.166 P  
HETATM   12  P   UNL     1      -9.965  11.423  68.376  1.00  0.00    -0.205 P  
HETATM   13  O   UNL     1     -11.731   9.680  69.397  1.00  0.00    -0.438 OA 
HETATM   14  O   UNL     1      -8.435  11.787  68.694  1.00  0.00    -0.142 OA 
HETATM   15  O   UNL     1     -10.297  11.723  66.954  1.00  0.00    -0.210 OA 
HETATM   16  O   UNL     1     -10.735  12.475  69.324  1.00  0.00    -0.090 OA 
HETATM   17  O   UNL     1     -10.880   7.461  68.857  1.00  0.00    -0.166 OA 
HETATM   18  O   UNL     1     -10.719   8.875  66.913  1.00  0.00    -0.230 OA 
HETATM   19  O   UNL     1      -9.235   7.203  67.242  1.00  0.00    -0.126 OA 
HETATM   20  H   UNL     1     -12.176   9.771  68.563  1.00  0.00     0.000 HD 
ENDBRANCH   9  10
ENDBRANCH   8   9
ENDBRANCH   6   8
ENDBRANCH   5   6
ENDBRANCH   4   5
ENDBRANCH   3   4
ENDBRANCH   2   3
TORSDOF 7
ENDMDL
MODEL      300
REMARK 921   NORMALIZED FREE ENERGY PREDICTED BY IDOCK:   -1.75 KCAL/MOL
REMARK 922        TOTAL FREE ENERGY PREDICTED BY IDOCK:   -3.14 KCAL/MOL
REMARK 923 INTER-LIGAND FREE ENERGY PREDICTED BY IDOCK:   -3.49 KCAL/MOL
REMARK 924 INTRA-LIGAND FREE ENERGY PREDICTED BY IDOCK:    0.35 KCAL/MOL
REMARK 927      BINDING AFFINITY PREDICTED BY RF-SCORE:    0.00 PKD
ROOT
HETATM    1  C   UNL     1      -5.270   8.052  68.076  1.00  0.00    -0.033 C  
HETATM    2  C   UNL     1      -5.682   6.742  68.725  1.00  0.00    -0.018 C  
ENDROOT
BRANCH   2   3
HETATM    3  C   UNL     1      -6.817   6.949  69.724  1.00  0.00    -0.051 C  
BRANCH   3   4
HETATM    4  C   UNL     1      -6.480   6.317  71.075  1.00  0.00    -0.049 C  
BRANCH   4   5
HETATM    5  C   UNL     1      -6.591   7.368  72.191  1.00  0.00    -0.051 C  
BRANCH   5   6
HETATM    6  N   UNL     1      -7.711   7.152  73.132  1.00  0.00    -0.095 NA 
HETATM    7  C   UNL     1      -7.224   7.099  74.519  1.00  0.00    -0.105 C  
BRANCH   6   8
HETATM    8  C   UNL     1      -8.691   8.257  73.031  1.00  0.00    -0.217 C  
BRANCH   8   9
HETATM    9  C   UNL     1     -10.152   7.824  73.206  1.00  0.00    -0.374 C  
BRANCH   9  10
HETATM   10  C   UNL     1     -10.951   7.620  71.885  1.00  0.00    -0.241 C  
HETATM   11  P   UNL     1     -10.389   6.020  71.196  1.00  0.00    -0.232 P  
HETATM   12  P   UNL     1     -10.716   9.023  70.722  1.00  0.00    -0.292 P  
HETATM   13  O   UNL     1     -12.377   7.553  72.231  1.00  0.00    -0.448 OA 
HETATM   14  O   UNL     1      -9.183   9.481  70.859  1.00  0.00    -0.217 OA 
HETATM   15  O   UNL     1     -11.124   8.959  69.290  1.00  0.00    -0.080 OA 
HETATM   16  O   UNL     1     -11.470  10.262  71.425  1.00  0.00    -0.278 OA 
HETATM   17  O   UNL     1     -11.486   5.285  72.204  1.00  0.00    -0.098 OA 
HETATM   18  O   UNL     1     -11.461   6.181  69.967  1.00  0.00    -0.406 OA 
HETATM   19  O   UNL     1      -9.913   4.667  70.614  1.00  0.00    -0.213 OA 
HETATM   20  H   UNL     1     -12.864   7.428  71.425  1.00  0.00     0.000 HD 
ENDBRANCH   9  10
ENDBRANCH   8   9
ENDBRANCH   6   8
ENDBRANCH   5   6
ENDBRANCH   4   5
ENDBRANCH   3   4
ENDBRANCH   2   3
TORSDOF 7
ENDMDL
MODEL      301
REMARK 921   NORMALIZED FREE ENERGY PREDICTED BY IDOCK:   -1.75 KCAL/MOL
REMARK 922        TOTAL FREE ENERGY PREDICTED BY IDOCK:   -3.14 KCAL/MOL
REMARK 923 INTER-LIGAND FREE ENERGY PREDICTED BY IDOCK:   -2.77 KCAL/MOL
REMARK 924 INTRA-LIGAND FREE ENERGY PREDICTED BY IDOCK:   -0.37 KCAL/MOL
REMARK 927      BINDING AFFINITY PREDICTED BY RF-SCORE:    0.00 PKD
ROOT
HETATM    1  C   UNL     1      -5.557  13.507  73.204  1.00  0.00     0.248 C  
HETATM    2  C   UNL     1      -5.163  12.442  72.194  1.00  0.00     0.223 C  
ENDROOT
BRANCH   2   3
HETATM    3  C   UNL     1      -5.215  12.984  70.768  1.00  0.00    -0.148 C  
BRANCH   3   4
HETATM    4  C   UNL     1      -5.396  11.850  69.758  1.00  0.00    -0.080 C  
BRANCH   4   5
HETATM    5  C   UNL     1      -6.870  11.752  69.335  1.00  0.00    -0.067 C  
BRANCH   5   6
HETATM    6  N   UNL     1      -7.132  12.108  67.924  1.00  0.00    -0.091 NA 
HETATM    7  C   UNL     1      -6.021  11.676  67.062  1.00  0.00    -0.138 C  
BRANCH   6   8
HETATM    8  C   UNL     1      -8.369  11.448  67.447  1.00  0.00    -0.144 C  
BRANCH   8   9
HETATM    9  C   UNL     1      -8.880  11.967  66.096  1.00  0.00    -0.063 C  
BRANCH   9  10
HETATM   10  C   UNL     1     -10.309  12.583  66.115  1.00  0.00    -0.253 C  
HETATM   11  P   UNL     1     -10.945  12.439  64.405  1.00  0.00    -0.399 P  
HETATM   12  P   UNL     1     -10.298  14.314  66.731  1.00  0.00    -0.282 P  
HETATM   13  O   UNL     1     -11.129  11.781  67.032  1.00  0.00    -0.271 OA 
HETATM   14  O   UNL     1      -8.963  14.997  66.157  1.00  0.00    -0.261 OA 
HETATM   15  O   UNL     1     -11.465  15.229  66.585  1.00  0.00    -0.250 OA 
HETATM   16  O   UNL     1      -9.928  14.185  68.294  1.00  0.00    -0.228 OA 
HETATM   17  O   UNL     1     -11.397  10.885  64.782  1.00  0.00     0.110 OA 
HETATM   18  O   UNL     1     -12.371  13.087  64.888  1.00  0.00    -0.414 OA 
HETATM   19  O   UNL     1     -11.482  12.316  62.958  1.00  0.00    -0.260 OA 
HETATM   20  H   UNL     1     -12.001  12.157  67.044  1.00  0.00     0.000 HD 
ENDBRANCH   9  10
ENDBRANCH   8   9
ENDBRANCH   6   8
ENDBRANCH   5   6
ENDBRANCH   4   5
ENDBRANCH   3   4
ENDBRANCH   2   3
TORSDOF 7
ENDMDL
MODEL      302
REMARK 921   NORMALIZED FREE ENERGY PREDICTED BY IDOCK:   -1.74 KCAL/MOL
REMARK 922        TOTAL FREE ENERGY PREDICTED BY IDOCK:   -3.13 KCAL/MOL
REMARK 923 INTER-LIGAND FREE ENERGY PREDICTED BY IDOCK:   -2.46 KCAL/MOL
REMARK 924 INTRA-LIGAND FREE ENERGY PREDICTED BY IDOCK:   -0.68 KCAL/MOL
REMARK 927      BINDING AFFINITY PREDICTED BY RF-SCORE:    0.00 PKD
ROOT
HETATM    1  C   UNL     1      -6.576  13.318  67.947  1.00  0.00    -0.145 C  
HETATM    2  C   UNL     1      -6.212  12.324  69.038  1.00  0.00    -0.082 C  
ENDROOT
BRANCH   2   3
HETATM    3  C   UNL     1      -6.781  10.940  68.740  1.00  0.00    -0.062 C  
BRANCH   3   4
HETATM    4  C   UNL     1      -8.096  11.043  67.967  1.00  0.00    -0.121 C  
BRANCH   4   5
HETATM    5  C   UNL     1      -9.151  10.120  68.597  1.00  0.00    -0.143 C  
BRANCH   5   6
HETATM    6  N   UNL     1      -8.616   9.150  69.577  1.00  0.00    -0.131 NA 
HETATM    7  C   UNL     1      -9.255   9.329  70.890  1.00  0.00    -0.233 C  
BRANCH   6   8
HETATM    8  C   UNL     1      -8.874   7.764  69.125  1.00  0.00    -0.138 C  
BRANCH   8   9
HETATM    9  C   UNL     1      -9.432   7.660  67.699  1.00  0.00    -0.165 C  
BRANCH   9  10
HETATM   10  C   UNL     1      -8.867   6.488  66.845  1.00  0.00    -0.120 C  
HETATM   11  P   UNL     1      -8.422   5.167  68.030  1.00  0.00    -0.098 P  
HETATM   12  P   UNL     1      -7.450   7.024  65.805  1.00  0.00    -0.089 P  
HETATM   13  O   UNL     1      -9.938   6.031  65.950  1.00  0.00    -0.389 OA 
HETATM   14  O   UNL     1      -6.605   8.069  66.683  1.00  0.00    -0.054 OA 
HETATM   15  O   UNL     1      -6.546   6.059  65.116  1.00  0.00    -0.041 OA 
HETATM   16  O   UNL     1      -8.103   8.004  64.705  1.00  0.00    -0.145 OA 
HETATM   17  O   UNL     1     -10.014   4.692  67.985  1.00  0.00    -0.135 OA 
HETATM   18  O   UNL     1      -7.986   4.201  66.780  1.00  0.00    -0.096 OA 
HETATM   19  O   UNL     1      -8.047   4.049  69.033  1.00  0.00    -0.069 OA 
HETATM   20  H   UNL     1      -9.593   5.315  65.429  1.00  0.00     0.000 HD 
ENDBRANCH   9  10
ENDBRANCH   8   9
ENDBRANCH   6   8
ENDBRANCH   5   6
ENDBRANCH   4   5
ENDBRANCH   3   4
ENDBRANCH   2   3
TORSDOF 7
ENDMDL
MODEL      303
REMARK 921   NORMALIZED FREE ENERGY PREDICTED BY IDOCK:   -1.71 KCAL/MOL
REMARK 922        TOTAL FREE ENERGY PREDICTED BY IDOCK:   -3.09 KCAL/MOL
REMARK 923 INTER-LIGAND FREE ENERGY PREDICTED BY IDOCK:   -2.86 KCAL/MOL
REMARK 924 INTRA-LIGAND FREE ENERGY PREDICTED BY IDOCK:   -0.23 KCAL/MOL
REMARK 927      BINDING AFFINITY PREDICTED BY RF-SCORE:    0.00 PKD
ROOT
HETATM    1  C   UNL     1     -11.360   8.420  71.092  1.00  0.00    -0.310 C  
HETATM    2  C   UNL     1     -11.856   9.619  70.302  1.00  0.00    -0.157 C  
ENDROOT
BRANCH   2   3
HETATM    3  C   UNL     1     -10.697  10.395  69.684  1.00  0.00    -0.304 C  
BRANCH   3   4
HETATM    4  C   UNL     1     -11.209  11.508  68.769  1.00  0.00    -0.309 C  
BRANCH   4   5
HETATM    5  C   UNL     1     -11.090  11.078  67.299  1.00  0.00    -0.294 C  
BRANCH   5   6
HETATM    6  N   UNL     1     -10.091  11.835  66.513  1.00  0.00    -0.200 NA 
HETATM    7  C   UNL     1      -9.983  13.218  67.002  1.00  0.00    -0.238 C  
BRANCH   6   8
HETATM    8  C   UNL     1      -8.758  11.201  66.628  1.00  0.00    -0.166 C  
BRANCH   8   9
HETATM    9  C   UNL     1      -8.686   9.775  66.067  1.00  0.00    -0.156 C  
BRANCH   9  10
HETATM   10  C   UNL     1      -7.403   8.975  66.437  1.00  0.00    -0.088 C  
HETATM   11  P   UNL     1      -7.402   7.494  65.362  1.00  0.00    -0.079 P  
HETATM   12  P   UNL     1      -7.351   8.561  68.227  1.00  0.00    -0.097 P  
HETATM   13  O   UNL     1      -6.244   9.825  66.136  1.00  0.00    -0.062 OA 
HETATM   14  O   UNL     1      -8.858   8.219  68.663  1.00  0.00    -0.133 OA 
HETATM   15  O   UNL     1      -6.397   7.568  68.796  1.00  0.00    -0.037 OA 
HETATM   16  O   UNL     1      -7.132   9.977  68.964  1.00  0.00    -0.064 OA 
HETATM   17  O   UNL     1      -6.709   8.441  64.185  1.00  0.00    -0.070 OA 
HETATM   18  O   UNL     1      -5.961   7.042  65.999  1.00  0.00    -0.034 OA 
HETATM   19  O   UNL     1      -7.400   6.242  64.452  1.00  0.00    -0.063 OA 
HETATM   20  H   UNL     1      -5.461   9.337  66.362  1.00  0.00     0.000 HD 
ENDBRANCH   9  10
ENDBRANCH   8   9
ENDBRANCH   6   8
ENDBRANCH   5   6
ENDBRANCH   4   5
ENDBRANCH   3   4
ENDBRANCH   2   3
TORSDOF 7
ENDMDL
MODEL      304
REMARK 921   NORMALIZED FREE ENERGY PREDICTED BY IDOCK:   -1.67 KCAL/MOL
REMARK 922        TOTAL FREE ENERGY PREDICTED BY IDOCK:   -3.03 KCAL/MOL
REMARK 923 INTER-LIGAND FREE ENERGY PREDICTED BY IDOCK:   -2.45 KCAL/MOL
REMARK 924 INTRA-LIGAND FREE ENERGY PREDICTED BY IDOCK:   -0.58 KCAL/MOL
REMARK 927      BINDING AFFINITY PREDICTED BY RF-SCORE:    0.00 PKD
ROOT
HETATM    1  C   UNL     1      -8.502  11.388  66.663  1.00  0.00    -0.171 C  
HETATM    2  C   UNL     1      -7.390  10.411  66.319  1.00  0.00    -0.128 C  
ENDROOT
BRANCH   2   3
HETATM    3  C   UNL     1      -6.798   9.778  67.576  1.00  0.00    -0.082 C  
BRANCH   3   4
HETATM    4  C   UNL     1      -6.779   8.253  67.464  1.00  0.00    -0.063 C  
BRANCH   4   5
HETATM    5  C   UNL     1      -8.019   7.765  66.698  1.00  0.00    -0.107 C  
BRANCH   5   6
HETATM    6  N   UNL     1      -8.992   7.010  67.517  1.00  0.00    -0.118 NA 
HETATM    7  C   UNL     1      -9.971   7.919  68.133  1.00  0.00    -0.180 C  
BRANCH   6   8
HETATM    8  C   UNL     1      -9.730   6.040  66.676  1.00  0.00    -0.157 C  
BRANCH   8   9
HETATM    9  C   UNL     1      -8.878   5.371  65.589  1.00  0.00    -0.153 C  
BRANCH   9  10
HETATM   10  C   UNL     1      -8.826   3.816  65.645  1.00  0.00    -0.123 C  
HETATM   11  P   UNL     1      -7.095   3.382  66.049  1.00  0.00    -0.064 P  
HETATM   12  P   UNL     1      -9.407   3.057  64.075  1.00  0.00    -0.131 P  
HETATM   13  O   UNL     1      -9.726   3.377  66.719  1.00  0.00    -0.391 OA 
HETATM   14  O   UNL     1      -8.874   3.996  62.886  1.00  0.00    -0.097 OA 
HETATM   15  O   UNL     1      -9.195   1.619  63.749  1.00  0.00    -0.091 OA 
HETATM   16  O   UNL     1     -10.986   3.375  64.032  1.00  0.00    -0.253 OA 
HETATM   17  O   UNL     1      -7.485   3.622  67.646  1.00  0.00    -0.065 OA 
HETATM   18  O   UNL     1      -7.506   1.795  66.074  1.00  0.00    -0.059 OA 
HETATM   19  O   UNL     1      -5.631   3.015  66.392  1.00  0.00    -0.016 OA 
HETATM   20  H   UNL     1      -9.694   2.429  66.753  1.00  0.00     0.000 HD 
ENDBRANCH   9  10
ENDBRANCH   8   9
ENDBRANCH   6   8
ENDBRANCH   5   6
ENDBRANCH   4   5
ENDBRANCH   3   4
ENDBRANCH   2   3
TORSDOF 7
ENDMDL
MODEL      305
REMARK 921   NORMALIZED FREE ENERGY PREDICTED BY IDOCK:   -1.65 KCAL/MOL
REMARK 922        TOTAL FREE ENERGY PREDICTED BY IDOCK:   -3.01 KCAL/MOL
REMARK 923 INTER-LIGAND FREE ENERGY PREDICTED BY IDOCK:   -3.47 KCAL/MOL
REMARK 924 INTRA-LIGAND FREE ENERGY PREDICTED BY IDOCK:    0.46 KCAL/MOL
REMARK 927      BINDING AFFINITY PREDICTED BY RF-SCORE:    0.00 PKD
ROOT
HETATM    1  C   UNL     1     -12.633   8.473  72.318  1.00  0.00    -0.438 C  
HETATM    2  C   UNL     1     -13.281   9.675  71.651  1.00  0.00    -0.499 C  
ENDROOT
BRANCH   2   3
HETATM    3  C   UNL     1     -12.267  10.469  70.833  1.00  0.00    -0.490 C  
BRANCH   3   4
HETATM    4  C   UNL     1     -11.034   9.622  70.515  1.00  0.00    -0.374 C  
BRANCH   4   5
HETATM    5  C   UNL     1     -10.180  10.316  69.443  1.00  0.00    -0.235 C  
BRANCH   5   6
HETATM    6  N   UNL     1     -10.911  10.673  68.207  1.00  0.00    -0.242 NA 
HETATM    7  C   UNL     1     -10.737  12.099  67.891  1.00  0.00    -0.207 C  
BRANCH   6   8
HETATM    8  C   UNL     1     -10.405   9.882  67.062  1.00  0.00    -0.239 C  
BRANCH   8   9
HETATM    9  C   UNL     1      -9.096   9.132  67.343  1.00  0.00    -0.142 C  
BRANCH   9  10
HETATM   10  C   UNL     1      -7.967   9.341  66.291  1.00  0.00    -0.107 C  
HETATM   11  P   UNL     1      -7.115  10.890  66.765  1.00  0.00    -0.142 P  
HETATM   12  P   UNL     1      -8.631   9.383  64.578  1.00  0.00    -0.190 P  
HETATM   13  O   UNL     1      -7.047   8.201  66.392  1.00  0.00    -0.072 OA 
HETATM   14  O   UNL     1     -10.036  10.157  64.649  1.00  0.00    -0.328 OA 
HETATM   15  O   UNL     1      -7.827   9.851  63.414  1.00  0.00    -0.139 OA 
HETATM   16  O   UNL     1      -9.125   7.875  64.298  1.00  0.00     0.701 OA 
HETATM   17  O   UNL     1      -6.221   9.984  67.833  1.00  0.00    -0.056 OA 
HETATM   18  O   UNL     1      -6.057  10.676  65.531  1.00  0.00    -0.127 OA 
HETATM   19  O   UNL     1      -6.394  12.199  67.166  1.00  0.00    -0.147 OA 
HETATM   20  H   UNL     1      -6.358   8.328  65.750  1.00  0.00     0.000 HD 
ENDBRANCH   9  10
ENDBRANCH   8   9
ENDBRANCH   6   8
ENDBRANCH   5   6
ENDBRANCH   4   5
ENDBRANCH   3   4
ENDBRANCH   2   3
TORSDOF 7
ENDMDL
MODEL      306
REMARK 921   NORMALIZED FREE ENERGY PREDICTED BY IDOCK:   -1.65 KCAL/MOL
REMARK 922        TOTAL FREE ENERGY PREDICTED BY IDOCK:   -3.00 KCAL/MOL
REMARK 923 INTER-LIGAND FREE ENERGY PREDICTED BY IDOCK:   -2.51 KCAL/MOL
REMARK 924 INTRA-LIGAND FREE ENERGY PREDICTED BY IDOCK:   -0.50 KCAL/MOL
REMARK 927      BINDING AFFINITY PREDICTED BY RF-SCORE:    0.00 PKD
ROOT
HETATM    1  C   UNL     1      -7.285  11.320  67.766  1.00  0.00    -0.088 C  
HETATM    2  C   UNL     1      -8.641  11.784  68.273  1.00  0.00    -0.162 C  
ENDROOT
BRANCH   2   3
HETATM    3  C   UNL     1      -9.779  11.123  67.500  1.00  0.00    -0.193 C  
BRANCH   3   4
HETATM    4  C   UNL     1      -9.289   9.875  66.765  1.00  0.00    -0.187 C  
BRANCH   4   5
HETATM    5  C   UNL     1     -10.414   8.830  66.695  1.00  0.00    -0.170 C  
BRANCH   5   6
HETATM    6  N   UNL     1     -10.189   7.626  67.524  1.00  0.00    -0.206 NA 
HETATM    7  C   UNL     1     -11.078   6.531  67.104  1.00  0.00    -0.360 C  
BRANCH   6   8
HETATM    8  C   UNL     1      -8.790   7.160  67.388  1.00  0.00    -0.119 C  
BRANCH   8   9
HETATM    9  C   UNL     1      -7.925   7.390  68.635  1.00  0.00    -0.123 C  
BRANCH   9  10
HETATM   10  C   UNL     1      -7.587   6.111  69.457  1.00  0.00    -0.094 C  
HETATM   11  P   UNL     1      -8.014   4.692  68.383  1.00  0.00    -0.079 P  
HETATM   12  P   UNL     1      -8.471   6.082  71.068  1.00  0.00    -0.125 P  
HETATM   13  O   UNL     1      -6.144   6.127  69.732  1.00  0.00    -0.024 OA 
HETATM   14  O   UNL     1      -9.930   6.697  70.802  1.00  0.00    -0.183 OA 
HETATM   15  O   UNL     1      -8.557   4.861  71.917  1.00  0.00    -0.124 OA 
HETATM   16  O   UNL     1      -7.790   7.266  71.924  1.00  0.00    -0.090 OA 
HETATM   17  O   UNL     1      -6.521   4.872  67.677  1.00  0.00    -0.042 OA 
HETATM   18  O   UNL     1      -7.465   3.664  69.536  1.00  0.00    -0.051 OA 
HETATM   19  O   UNL     1      -8.375   3.492  67.475  1.00  0.00    -0.088 OA 
HETATM   20  H   UNL     1      -5.938   5.347  70.233  1.00  0.00     0.000 HD 
ENDBRANCH   9  10
ENDBRANCH   8   9
ENDBRANCH   6   8
ENDBRANCH   5   6
ENDBRANCH   4   5
ENDBRANCH   3   4
ENDBRANCH   2   3
TORSDOF 7
ENDMDL
MODEL      307
REMARK 921   NORMALIZED FREE ENERGY PREDICTED BY IDOCK:   -1.61 KCAL/MOL
REMARK 922        TOTAL FREE ENERGY PREDICTED BY IDOCK:   -2.96 KCAL/MOL
REMARK 923 INTER-LIGAND FREE ENERGY PREDICTED BY IDOCK:   -3.09 KCAL/MOL
REMARK 924 INTRA-LIGAND FREE ENERGY PREDICTED BY IDOCK:    0.14 KCAL/MOL
REMARK 927      BINDING AFFINITY PREDICTED BY RF-SCORE:    0.00 PKD
ROOT
HETATM    1  C   UNL     1      -5.928   8.999  70.261  1.00  0.00    -0.034 C  
HETATM    2  C   UNL     1      -6.091  10.154  69.288  1.00  0.00    -0.037 C  
ENDROOT
BRANCH   2   3
HETATM    3  C   UNL     1      -5.343  11.395  69.768  1.00  0.00    -0.059 C  
BRANCH   3   4
HETATM    4  C   UNL     1      -5.725  12.621  68.938  1.00  0.00    -0.068 C  
BRANCH   4   5
HETATM    5  C   UNL     1      -7.195  12.991  69.191  1.00  0.00     0.084 C  
BRANCH   5   6
HETATM    6  N   UNL     1      -7.895  13.572  68.025  1.00  0.00    -0.132 NA 
HETATM    7  C   UNL     1      -7.329  14.885  67.678  1.00  0.00    -0.187 C  
BRANCH   6   8
HETATM    8  C   UNL     1      -7.757  12.685  66.847  1.00  0.00     0.090 C  
BRANCH   8   9
HETATM    9  C   UNL     1      -8.429  11.315  67.007  1.00  0.00    -0.150 C  
BRANCH   9  10
HETATM   10  C   UNL     1      -9.958  11.283  66.718  1.00  0.00    -0.206 C  
HETATM   11  P   UNL     1     -10.445  13.016  66.385  1.00  0.00    -0.286 P  
HETATM   12  P   UNL     1     -10.899  10.529  68.105  1.00  0.00    -0.287 P  
HETATM   13  O   UNL     1     -10.170  10.455  65.524  1.00  0.00    -0.278 OA 
HETATM   14  O   UNL     1     -10.185  11.011  69.460  1.00  0.00    -0.139 OA 
HETATM   15  O   UNL     1     -12.381  10.631  68.222  1.00  0.00    -0.152 OA 
HETATM   16  O   UNL     1     -10.484   8.972  68.076  1.00  0.00    -0.220 OA 
HETATM   17  O   UNL     1      -9.946  12.777  64.818  1.00  0.00    -0.231 OA 
HETATM   18  O   UNL     1     -11.979  12.519  66.086  1.00  0.00    -0.495 OA 
HETATM   19  O   UNL     1     -10.857  14.481  66.102  1.00  0.00    -0.305 OA 
HETATM   20  H   UNL     1     -11.103  10.436  65.348  1.00  0.00     0.000 HD 
ENDBRANCH   9  10
ENDBRANCH   8   9
ENDBRANCH   6   8
ENDBRANCH   5   6
ENDBRANCH   4   5
ENDBRANCH   3   4
ENDBRANCH   2   3
TORSDOF 7
ENDMDL
MODEL      308
REMARK 921   NORMALIZED FREE ENERGY PREDICTED BY IDOCK:   -1.47 KCAL/MOL
REMARK 922        TOTAL FREE ENERGY PREDICTED BY IDOCK:   -2.76 KCAL/MOL
REMARK 923 INTER-LIGAND FREE ENERGY PREDICTED BY IDOCK:   -3.50 KCAL/MOL
REMARK 924 INTRA-LIGAND FREE ENERGY PREDICTED BY IDOCK:    0.74 KCAL/MOL
REMARK 927      BINDING AFFINITY PREDICTED BY RF-SCORE:    0.00 PKD
ROOT
HETATM    1  C   UNL     1      -5.925   9.849  70.193  1.00  0.00    -0.058 C  
HETATM    2  C   UNL     1      -6.315  10.692  68.991  1.00  0.00    -0.046 C  
ENDROOT
BRANCH   2   3
HETATM    3  C   UNL     1      -5.203  11.666  68.612  1.00  0.00    -0.046 C  
BRANCH   3   4
HETATM    4  C   UNL     1      -5.776  12.920  67.950  1.00  0.00    -0.121 C  
BRANCH   4   5
HETATM    5  C   UNL     1      -6.898  13.509  68.820  1.00  0.00    -0.108 C  
BRANCH   5   6
HETATM    6  N   UNL     1      -6.928  14.987  68.869  1.00  0.00    -0.107 NA 
HETATM    7  C   UNL     1      -5.622  15.549  68.490  1.00  0.00    -0.101 C  
BRANCH   6   8
HETATM    8  C   UNL     1      -7.946  15.513  67.931  1.00  0.00    -0.136 C  
BRANCH   8   9
HETATM    9  C   UNL     1      -8.737  14.429  67.186  1.00  0.00    -0.243 C  
BRANCH   9  10
HETATM   10  C   UNL     1      -9.986  13.880  67.936  1.00  0.00    -0.242 C  
HETATM   11  P   UNL     1     -10.821  12.748  66.766  1.00  0.00    -0.278 P  
HETATM   12  P   UNL     1     -11.079  15.235  68.525  1.00  0.00    -0.316 P  
HETATM   13  O   UNL     1      -9.510  13.138  69.111  1.00  0.00    -0.281 OA 
HETATM   14  O   UNL     1     -11.061  16.367  67.387  1.00  0.00    -0.209 OA 
HETATM   15  O   UNL     1     -12.466  14.996  69.013  1.00  0.00    -0.069 OA 
HETATM   16  O   UNL     1     -10.233  15.959  69.691  1.00  0.00    -0.256 OA 
HETATM   17  O   UNL     1      -9.760  11.570  67.263  1.00  0.00    -0.181 OA 
HETATM   18  O   UNL     1     -11.930  12.387  67.918  1.00  0.00    -0.404 OA 
HETATM   19  O   UNL     1     -11.527  11.790  65.776  1.00  0.00    -0.300 OA 
HETATM   20  H   UNL     1     -10.271  12.803  69.569  1.00  0.00     0.000 HD 
ENDBRANCH   9  10
ENDBRANCH   8   9
ENDBRANCH   6   8
ENDBRANCH   5   6
ENDBRANCH   4   5
ENDBRANCH   3   4
ENDBRANCH   2   3
TORSDOF 7
ENDMDL
MODEL      309
REMARK 921   NORMALIZED FREE ENERGY PREDICTED BY IDOCK:   -1.42 KCAL/MOL
REMARK 922        TOTAL FREE ENERGY PREDICTED BY IDOCK:   -2.68 KCAL/MOL
REMARK 923 INTER-LIGAND FREE ENERGY PREDICTED BY IDOCK:   -2.02 KCAL/MOL
REMARK 924 INTRA-LIGAND FREE ENERGY PREDICTED BY IDOCK:   -0.66 KCAL/MOL
REMARK 927      BINDING AFFINITY PREDICTED BY RF-SCORE:    0.00 PKD
ROOT
HETATM    1  C   UNL     1      -5.951   7.890  67.886  1.00  0.00    -0.042 C  
HETATM    2  C   UNL     1      -5.258   6.736  68.591  1.00  0.00    -0.016 C  
ENDROOT
BRANCH   2   3
HETATM    3  C   UNL     1      -6.063   6.257  69.796  1.00  0.00    -0.026 C  
BRANCH   3   4
HETATM    4  C   UNL     1      -5.266   6.427  71.090  1.00  0.00    -0.018 C  
BRANCH   4   5
HETATM    5  C   UNL     1      -5.807   7.623  71.889  1.00  0.00    -0.036 C  
BRANCH   5   6
HETATM    6  N   UNL     1      -6.901   7.292  72.828  1.00  0.00    -0.067 NA 
HETATM    7  C   UNL     1      -6.424   7.335  74.219  1.00  0.00    -0.078 C  
BRANCH   6   8
HETATM    8  C   UNL     1      -8.009   8.265  72.691  1.00  0.00    -0.137 C  
BRANCH   8   9
HETATM    9  C   UNL     1      -9.359   7.762  73.220  1.00  0.00    -0.331 C  
BRANCH   9  10
HETATM   10  C   UNL     1     -10.322   7.181  72.144  1.00  0.00    -0.195 C  
HETATM   11  P   UNL     1     -11.779   8.287  72.119  1.00  0.00    -0.401 P  
HETATM   12  P   UNL     1     -10.759   5.430  72.494  1.00  0.00    -0.251 P  
HETATM   13  O   UNL     1      -9.627   7.224  70.852  1.00  0.00    -0.170 OA 
HETATM   14  O   UNL     1     -10.906   5.303  74.088  1.00  0.00    -0.258 OA 
HETATM   15  O   UNL     1     -11.873   4.724  71.801  1.00  0.00     1.058 OA 
HETATM   16  O   UNL     1      -9.391   4.615  72.248  1.00  0.00    -0.125 OA 
HETATM   17  O   UNL     1     -10.919   9.275  71.097  1.00  0.00    -0.281 OA 
HETATM   18  O   UNL     1     -12.422   7.402  70.898  1.00  0.00    -0.270 OA 
HETATM   19  O   UNL     1     -13.012   9.224  72.098  1.00  0.00    -0.380 OA 
HETATM   20  H   UNL     1     -10.215   6.869  70.195  1.00  0.00     0.000 HD 
ENDBRANCH   9  10
ENDBRANCH   8   9
ENDBRANCH   6   8
ENDBRANCH   5   6
ENDBRANCH   4   5
ENDBRANCH   3   4
ENDBRANCH   2   3
TORSDOF 7
ENDMDL
MODEL      310
REMARK 921   NORMALIZED FREE ENERGY PREDICTED BY IDOCK:   -1.41 KCAL/MOL
REMARK 922        TOTAL FREE ENERGY PREDICTED BY IDOCK:   -2.67 KCAL/MOL
REMARK 923 INTER-LIGAND FREE ENERGY PREDICTED BY IDOCK:   -2.35 KCAL/MOL
REMARK 924 INTRA-LIGAND FREE ENERGY PREDICTED BY IDOCK:   -0.32 KCAL/MOL
REMARK 927      BINDING AFFINITY PREDICTED BY RF-SCORE:    0.00 PKD
ROOT
HETATM    1  C   UNL     1      -6.290  13.497  67.969  1.00  0.00    -0.136 C  
HETATM    2  C   UNL     1      -5.652  12.433  68.846  1.00  0.00    -0.062 C  
ENDROOT
BRANCH   2   3
HETATM    3  C   UNL     1      -5.546  11.099  68.113  1.00  0.00    -0.042 C  
BRANCH   3   4
HETATM    4  C   UNL     1      -6.411  11.096  66.853  1.00  0.00    -0.117 C  
BRANCH   4   5
HETATM    5  C   UNL     1      -7.148   9.754  66.723  1.00  0.00    -0.089 C  
BRANCH   5   6
HETATM    6  N   UNL     1      -8.612   9.869  66.541  1.00  0.00    -0.124 NA 
HETATM    7  C   UNL     1      -8.951  10.000  65.115  1.00  0.00    -0.192 C  
BRANCH   6   8
HETATM    8  C   UNL     1      -9.293   8.664  67.067  1.00  0.00    -0.159 C  
BRANCH   8   9
HETATM    9  C   UNL     1      -8.372   7.452  67.261  1.00  0.00    -0.119 C  
BRANCH   9  10
HETATM   10  C   UNL     1      -8.673   6.579  68.514  1.00  0.00    -0.122 C  
HETATM   11  P   UNL     1     -10.044   7.412  69.394  1.00  0.00    -0.193 P  
HETATM   12  P   UNL     1      -7.181   6.354  69.563  1.00  0.00    -0.082 P  
HETATM   13  O   UNL     1      -9.099   5.255  68.043  1.00  0.00    -0.109 OA 
HETATM   14  O   UNL     1      -6.382   7.747  69.530  1.00  0.00    -0.033 OA 
HETATM   15  O   UNL     1      -7.246   5.814  70.951  1.00  0.00    -0.074 OA 
HETATM   16  O   UNL     1      -6.205   5.420  68.685  1.00  0.00    -0.027 OA 
HETATM   17  O   UNL     1     -11.084   6.633  68.358  1.00  0.00    -0.253 OA 
HETATM   18  O   UNL     1     -10.063   6.201  70.497  1.00  0.00    -0.180 OA 
HETATM   19  O   UNL     1     -11.205   8.117  70.137  1.00  0.00    -0.232 OA 
HETATM   20  H   UNL     1      -9.282   4.722  68.808  1.00  0.00     0.000 HD 
ENDBRANCH   9  10
ENDBRANCH   8   9
ENDBRANCH   6   8
ENDBRANCH   5   6
ENDBRANCH   4   5
ENDBRANCH   3   4
ENDBRANCH   2   3
TORSDOF 7
ENDMDL
MODEL      311
REMARK 921   NORMALIZED FREE ENERGY PREDICTED BY IDOCK:   -1.40 KCAL/MOL
REMARK 922        TOTAL FREE ENERGY PREDICTED BY IDOCK:   -2.65 KCAL/MOL
REMARK 923 INTER-LIGAND FREE ENERGY PREDICTED BY IDOCK:   -2.36 KCAL/MOL
REMARK 924 INTRA-LIGAND FREE ENERGY PREDICTED BY IDOCK:   -0.28 KCAL/MOL
REMARK 927      BINDING AFFINITY PREDICTED BY RF-SCORE:    0.00 PKD
ROOT
HETATM    1  C   UNL     1      -6.724  12.432  67.391  1.00  0.00    -0.152 C  
HETATM    2  C   UNL     1      -5.920  11.495  68.276  1.00  0.00    -0.045 C  
ENDROOT
BRANCH   2   3
HETATM    3  C   UNL     1      -6.618  10.147  68.438  1.00  0.00    -0.053 C  
BRANCH   3   4
HETATM    4  C   UNL     1      -5.615   9.050  68.796  1.00  0.00    -0.040 C  
BRANCH   4   5
HETATM    5  C   UNL     1      -6.345   7.712  68.992  1.00  0.00    -0.036 C  
BRANCH   5   6
HETATM    6  N   UNL     1      -7.441   7.461  68.030  1.00  0.00    -0.103 NA 
HETATM    7  C   UNL     1      -7.147   6.281  67.202  1.00  0.00    -0.073 C  
BRANCH   6   8
HETATM    8  C   UNL     1      -8.711   7.213  68.750  1.00  0.00    -0.124 C  
BRANCH   8   9
HETATM    9  C   UNL     1      -8.718   5.932  69.595  1.00  0.00    -0.128 C  
BRANCH   9  10
HETATM   10  C   UNL     1      -9.825   5.859  70.687  1.00  0.00    -0.183 C  
HETATM   11  P   UNL     1     -10.820   7.383  70.501  1.00  0.00    -0.250 P  
HETATM   12  P   UNL     1      -9.113   5.669  72.370  1.00  0.00    -0.139 P  
HETATM   13  O   UNL     1     -10.649   4.675  70.408  1.00  0.00    -0.032 OA 
HETATM   14  O   UNL     1      -7.781   6.566  72.409  1.00  0.00    -0.095 OA 
HETATM   15  O   UNL     1      -9.916   5.860  73.611  1.00  0.00    -0.168 OA 
HETATM   16  O   UNL     1      -8.484   4.186  72.378  1.00  0.00    -0.100 OA 
HETATM   17  O   UNL     1     -11.668   6.596  69.308  1.00  0.00    -0.189 OA 
HETATM   18  O   UNL     1     -11.816   6.871  71.698  1.00  0.00    -0.287 OA 
HETATM   19  O   UNL     1     -11.662   8.673  70.343  1.00  0.00    -0.164 OA 
HETATM   20  H   UNL     1     -11.325   4.630  71.074  1.00  0.00     0.000 HD 
ENDBRANCH   9  10
ENDBRANCH   8   9
ENDBRANCH   6   8
ENDBRANCH   5   6
ENDBRANCH   4   5
ENDBRANCH   3   4
ENDBRANCH   2   3
TORSDOF 7
ENDMDL
MODEL      312
REMARK 921   NORMALIZED FREE ENERGY PREDICTED BY IDOCK:   -1.29 KCAL/MOL
REMARK 922        TOTAL FREE ENERGY PREDICTED BY IDOCK:   -2.50 KCAL/MOL
REMARK 923 INTER-LIGAND FREE ENERGY PREDICTED BY IDOCK:   -2.08 KCAL/MOL
REMARK 924 INTRA-LIGAND FREE ENERGY PREDICTED BY IDOCK:   -0.42 KCAL/MOL
REMARK 927      BINDING AFFINITY PREDICTED BY RF-SCORE:    0.00 PKD
ROOT
HETATM    1  C   UNL     1      -5.699   7.830  67.580  1.00  0.00    -0.037 C  
HETATM    2  C   UNL     1      -5.126   6.580  68.226  1.00  0.00    -0.007 C  
ENDROOT
BRANCH   2   3
HETATM    3  C   UNL     1      -6.148   5.908  69.138  1.00  0.00    -0.031 C  
BRANCH   3   4
HETATM    4  C   UNL     1      -5.750   6.053  70.607  1.00  0.00    -0.018 C  
BRANCH   4   5
HETATM    5  C   UNL     1      -6.148   7.444  71.126  1.00  0.00    -0.036 C  
BRANCH   5   6
HETATM    6  N   UNL     1      -7.607   7.680  71.198  1.00  0.00    -0.078 NA 
HETATM    7  C   UNL     1      -8.105   7.459  72.564  1.00  0.00    -0.101 C  
BRANCH   6   8
HETATM    8  C   UNL     1      -7.922   9.075  70.813  1.00  0.00    -0.148 C  
BRANCH   8   9
HETATM    9  C   UNL     1      -9.423   9.394  70.771  1.00  0.00    -0.307 C  
BRANCH   9  10
HETATM   10  C   UNL     1      -9.992   9.737  69.363  1.00  0.00    -0.205 C  
HETATM   11  P   UNL     1     -11.486  10.752  69.656  1.00  0.00    -0.352 P  
HETATM   12  P   UNL     1     -10.336   8.224  68.378  1.00  0.00    -0.129 P  
HETATM   13  O   UNL     1      -8.975  10.521  68.649  1.00  0.00    -0.145 OA 
HETATM   14  O   UNL     1     -10.903   7.128  69.404  1.00  0.00    -0.235 OA 
HETATM   15  O   UNL     1     -11.143   8.245  67.126  1.00  0.00     0.009 OA 
HETATM   16  O   UNL     1      -8.880   7.615  68.051  1.00  0.00    -0.128 OA 
HETATM   17  O   UNL     1     -10.478  12.067  69.785  1.00  0.00     0.404 OA 
HETATM   18  O   UNL     1     -11.679  10.923  68.037  1.00  0.00    -0.540 OA 
HETATM   19  O   UNL     1     -12.750  11.612  69.904  1.00  0.00     0.002 OA 
HETATM   20  H   UNL     1      -9.323  10.730  67.790  1.00  0.00     0.000 HD 
ENDBRANCH   9  10
ENDBRANCH   8   9
ENDBRANCH   6   8
ENDBRANCH   5   6
ENDBRANCH   4   5
ENDBRANCH   3   4
ENDBRANCH   2   3
TORSDOF 7
ENDMDL
MODEL      313
REMARK 921   NORMALIZED FREE ENERGY PREDICTED BY IDOCK:   -1.27 KCAL/MOL
REMARK 922        TOTAL FREE ENERGY PREDICTED BY IDOCK:   -2.48 KCAL/MOL
REMARK 923 INTER-LIGAND FREE ENERGY PREDICTED BY IDOCK:   -2.56 KCAL/MOL
REMARK 924 INTRA-LIGAND FREE ENERGY PREDICTED BY IDOCK:    0.08 KCAL/MOL
REMARK 927      BINDING AFFINITY PREDICTED BY RF-SCORE:    0.00 PKD
ROOT
HETATM    1  C   UNL     1      -5.705   8.549  67.818  1.00  0.00    -0.039 C  
HETATM    2  C   UNL     1      -5.150   7.304  68.489  1.00  0.00    -0.020 C  
ENDROOT
BRANCH   2   3
HETATM    3  C   UNL     1      -5.980   6.915  69.710  1.00  0.00    -0.023 C  
BRANCH   3   4
HETATM    4  C   UNL     1      -5.135   6.958  70.983  1.00  0.00    -0.023 C  
BRANCH   4   5
HETATM    5  C   UNL     1      -5.797   7.875  72.024  1.00  0.00    -0.036 C  
BRANCH   5   6
HETATM    6  N   UNL     1      -7.086   7.378  72.552  1.00  0.00    -0.067 NA 
HETATM    7  C   UNL     1      -6.909   6.790  73.889  1.00  0.00    -0.072 C  
BRANCH   6   8
HETATM    8  C   UNL     1      -8.059   8.488  72.663  1.00  0.00    -0.047 C  
BRANCH   8   9
HETATM    9  C   UNL     1      -9.524   8.037  72.740  1.00  0.00    -0.336 C  
BRANCH   9  10
HETATM   10  C   UNL     1     -10.197   7.719  71.372  1.00  0.00    -0.182 C  
HETATM   11  P   UNL     1      -9.990   9.219  70.346  1.00  0.00    -0.273 P  
HETATM   12  P   UNL     1     -11.956   7.227  71.575  1.00  0.00    -0.354 P  
HETATM   13  O   UNL     1      -9.477   6.588  70.773  1.00  0.00    -0.170 OA 
HETATM   14  O   UNL     1     -12.555   8.138  72.753  1.00  0.00    -0.170 OA 
HETATM   15  O   UNL     1     -12.907   7.148  70.431  1.00  0.00     0.063 OA 
HETATM   16  O   UNL     1     -11.893   5.790  72.301  1.00  0.00    -0.273 OA 
HETATM   17  O   UNL     1      -8.477   8.654  69.956  1.00  0.00    -0.121 OA 
HETATM   18  O   UNL     1     -10.718   8.454  69.092  1.00  0.00    -0.200 OA 
HETATM   19  O   UNL     1      -9.814  10.489  69.477  1.00  0.00    -0.213 OA 
HETATM   20  H   UNL     1      -9.887   6.394  69.939  1.00  0.00     0.000 HD 
ENDBRANCH   9  10
ENDBRANCH   8   9
ENDBRANCH   6   8
ENDBRANCH   5   6
ENDBRANCH   4   5
ENDBRANCH   3   4
ENDBRANCH   2   3
TORSDOF 7
ENDMDL
MODEL      314
REMARK 921   NORMALIZED FREE ENERGY PREDICTED BY IDOCK:   -1.20 KCAL/MOL
REMARK 922        TOTAL FREE ENERGY PREDICTED BY IDOCK:   -2.37 KCAL/MOL
REMARK 923 INTER-LIGAND FREE ENERGY PREDICTED BY IDOCK:   -3.27 KCAL/MOL
REMARK 924 INTRA-LIGAND FREE ENERGY PREDICTED BY IDOCK:    0.90 KCAL/MOL
REMARK 927      BINDING AFFINITY PREDICTED BY RF-SCORE:    0.00 PKD
ROOT
HETATM    1  C   UNL     1      -8.116  11.438  66.640  1.00  0.00    -0.155 C  
HETATM    2  C   UNL     1      -7.105  11.315  67.767  1.00  0.00    -0.087 C  
ENDROOT
BRANCH   2   3
HETATM    3  C   UNL     1      -7.790  11.316  69.131  1.00  0.00    -0.020 C  
BRANCH   3   4
HETATM    4  C   UNL     1      -8.446   9.965  69.416  1.00  0.00    -0.169 C  
BRANCH   4   5
HETATM    5  C   UNL     1      -8.907   9.316  68.102  1.00  0.00    -0.129 C  
BRANCH   5   6
HETATM    6  N   UNL     1     -10.358   9.036  68.028  1.00  0.00    -0.216 NA 
HETATM    7  C   UNL     1     -11.115  10.272  67.778  1.00  0.00    -0.269 C  
BRANCH   6   8
HETATM    8  C   UNL     1     -10.645   8.090  66.926  1.00  0.00    -0.254 C  
BRANCH   8   9
HETATM    9  C   UNL     1      -9.410   7.359  66.384  1.00  0.00    -0.206 C  
BRANCH   9  10
HETATM   10  C   UNL     1      -9.466   5.805  66.460  1.00  0.00    -0.153 C  
HETATM   11  P   UNL     1      -9.272   5.378  68.228  1.00  0.00    -0.118 P  
HETATM   12  P   UNL     1      -8.193   5.023  65.390  1.00  0.00    -0.132 P  
HETATM   13  O   UNL     1     -10.787   5.382  65.974  1.00  0.00    -0.630 OA 
HETATM   14  O   UNL     1      -6.881   5.944  65.489  1.00  0.00    -0.050 OA 
HETATM   15  O   UNL     1      -7.835   3.580  65.488  1.00  0.00    -0.087 OA 
HETATM   16  O   UNL     1      -8.677   5.339  63.886  1.00  0.00    -0.107 OA 
HETATM   17  O   UNL     1     -10.905   5.642  68.395  1.00  0.00    -0.204 OA 
HETATM   18  O   UNL     1      -9.457   3.792  67.858  1.00  0.00    -0.176 OA 
HETATM   19  O   UNL     1      -9.109   5.017  69.725  1.00  0.00    -0.106 OA 
HETATM   20  H   UNL     1     -10.821   4.434  66.021  1.00  0.00     0.000 HD 
ENDBRANCH   9  10
ENDBRANCH   8   9
ENDBRANCH   6   8
ENDBRANCH   5   6
ENDBRANCH   4   5
ENDBRANCH   3   4
ENDBRANCH   2   3
TORSDOF 7
ENDMDL
MODEL      315
REMARK 921   NORMALIZED FREE ENERGY PREDICTED BY IDOCK:   -1.08 KCAL/MOL
REMARK 922        TOTAL FREE ENERGY PREDICTED BY IDOCK:   -2.21 KCAL/MOL
REMARK 923 INTER-LIGAND FREE ENERGY PREDICTED BY IDOCK:   -2.57 KCAL/MOL
REMARK 924 INTRA-LIGAND FREE ENERGY PREDICTED BY IDOCK:    0.36 KCAL/MOL
REMARK 927      BINDING AFFINITY PREDICTED BY RF-SCORE:    0.00 PKD
ROOT
HETATM    1  C   UNL     1     -11.373   9.140  70.716  1.00  0.00    -0.337 C  
HETATM    2  C   UNL     1     -11.419  10.077  69.522  1.00  0.00    -0.176 C  
ENDROOT
BRANCH   2   3
HETATM    3  C   UNL     1     -10.016  10.437  69.043  1.00  0.00    -0.224 C  
BRANCH   3   4
HETATM    4  C   UNL     1     -10.053  11.037  67.637  1.00  0.00    -0.208 C  
BRANCH   4   5
HETATM    5  C   UNL     1      -9.882   9.927  66.587  1.00  0.00    -0.207 C  
BRANCH   5   6
HETATM    6  N   UNL     1      -8.487   9.701  66.150  1.00  0.00    -0.119 NA 
HETATM    7  C   UNL     1      -7.580  10.674  66.779  1.00  0.00    -0.120 C  
BRANCH   6   8
HETATM    8  C   UNL     1      -8.041   8.343  66.533  1.00  0.00    -0.101 C  
BRANCH   8   9
HETATM    9  C   UNL     1      -8.868   7.209  65.912  1.00  0.00    -0.128 C  
BRANCH   9  10
HETATM   10  C   UNL     1      -8.571   5.785  66.467  1.00  0.00    -0.121 C  
HETATM   11  P   UNL     1      -6.751   5.597  66.429  1.00  0.00    -0.060 P  
HETATM   12  P   UNL     1      -9.445   4.483  65.508  1.00  0.00    -0.186 P  
HETATM   13  O   UNL     1      -9.060   5.734  67.851  1.00  0.00    -0.112 OA 
HETATM   14  O   UNL     1      -9.410   4.943  63.971  1.00  0.00    -0.011 OA 
HETATM   15  O   UNL     1      -9.120   3.034  65.635  1.00  0.00    -0.145 OA 
HETATM   16  O   UNL     1     -11.003   4.700  65.858  1.00  0.00    -0.195 OA 
HETATM   17  O   UNL     1      -6.713   6.388  67.890  1.00  0.00    -0.059 OA 
HETATM   18  O   UNL     1      -6.897   4.114  67.113  1.00  0.00    -0.050 OA 
HETATM   19  O   UNL     1      -5.211   5.439  66.398  1.00  0.00    -0.008 OA 
HETATM   20  H   UNL     1      -8.879   4.865  68.189  1.00  0.00     0.000 HD 
ENDBRANCH   9  10
ENDBRANCH   8   9
ENDBRANCH   6   8
ENDBRANCH   5   6
ENDBRANCH   4   5
ENDBRANCH   3   4
ENDBRANCH   2   3
TORSDOF 7
ENDMDL
MODEL      316
REMARK 921   NORMALIZED FREE ENERGY PREDICTED BY IDOCK:   -1.00 KCAL/MOL
REMARK 922        TOTAL FREE ENERGY PREDICTED BY IDOCK:   -2.10 KCAL/MOL
REMARK 923 INTER-LIGAND FREE ENERGY PREDICTED BY IDOCK:   -3.84 KCAL/MOL
REMARK 924 INTRA-LIGAND FREE ENERGY PREDICTED BY IDOCK:    1.75 KCAL/MOL
REMARK 927      BINDING AFFINITY PREDICTED BY RF-SCORE:    0.00 PKD
ROOT
HETATM    1  C   UNL     1     -12.382  16.587  71.866  1.00  0.00     0.223 C  
HETATM    2  C   UNL     1     -13.495  15.554  71.817  1.00  0.00    -0.576 C  
ENDROOT
BRANCH   2   3
HETATM    3  C   UNL     1     -12.980  14.165  72.187  1.00  0.00    -0.463 C  
BRANCH   3   4
HETATM    4  C   UNL     1     -13.311  13.149  71.093  1.00  0.00    -0.013 C  
BRANCH   4   5
HETATM    5  C   UNL     1     -12.257  13.215  69.977  1.00  0.00    -0.253 C  
BRANCH   5   6
HETATM    6  N   UNL     1     -11.845  14.584  69.598  1.00  0.00    -0.299 NA 
HETATM    7  C   UNL     1     -10.616  14.974  70.307  1.00  0.00    -0.084 C  
BRANCH   6   8
HETATM    8  C   UNL     1     -11.579  14.659  68.143  1.00  0.00    -0.335 C  
BRANCH   8   9
HETATM    9  C   UNL     1     -12.097  13.454  67.345  1.00  0.00    -0.338 C  
BRANCH   9  10
HETATM   10  C   UNL     1     -11.495  13.291  65.918  1.00  0.00    -0.332 C  
HETATM   11  P   UNL     1     -10.191  14.566  65.771  1.00  0.00    -0.369 P  
HETATM   12  P   UNL     1     -12.784  13.430  64.615  1.00  0.00    -0.009 P  
HETATM   13  O   UNL     1     -10.908  11.948  65.833  1.00  0.00    -0.277 OA 
HETATM   14  O   UNL     1     -13.810  14.564  65.103  1.00  0.00     0.347 OA 
HETATM   15  O   UNL     1     -12.454  13.599  63.172  1.00  0.00    -0.786 OA 
HETATM   16  O   UNL     1     -13.684  12.105  64.793  1.00  0.00     0.079 OA 
HETATM   17  O   UNL     1      -9.169  13.503  66.536  1.00  0.00    -0.243 OA 
HETATM   18  O   UNL     1      -9.825  14.007  64.273  1.00  0.00     0.125 OA 
HETATM   19  O   UNL     1      -9.087  15.644  65.646  1.00  0.00    -0.238 OA 
HETATM   20  H   UNL     1     -10.541  11.848  64.962  1.00  0.00     0.000 HD 
ENDBRANCH   9  10
ENDBRANCH   8   9
ENDBRANCH   6   8
ENDBRANCH   5   6
ENDBRANCH   4   5
ENDBRANCH   3   4
ENDBRANCH   2   3
TORSDOF 7
ENDMDL
MODEL      317
REMARK 921   NORMALIZED FREE ENERGY PREDICTED BY IDOCK:   -0.63 KCAL/MOL
REMARK 922        TOTAL FREE ENERGY PREDICTED BY IDOCK:   -1.57 KCAL/MOL
REMARK 923 INTER-LIGAND FREE ENERGY PREDICTED BY IDOCK:   -2.23 KCAL/MOL
REMARK 924 INTRA-LIGAND FREE ENERGY PREDICTED BY IDOCK:    0.66 KCAL/MOL
REMARK 927      BINDING AFFINITY PREDICTED BY RF-SCORE:    0.00 PKD
ROOT
HETATM    1  C   UNL     1     -11.341   9.170  70.744  1.00  0.00    -0.337 C  
HETATM    2  C   UNL     1     -11.267   9.988  69.466  1.00  0.00    -0.254 C  
ENDROOT
BRANCH   2   3
HETATM    3  C   UNL     1      -9.911  10.673  69.323  1.00  0.00    -0.201 C  
BRANCH   3   4
HETATM    4  C   UNL     1      -9.484  10.742  67.856  1.00  0.00    -0.165 C  
BRANCH   4   5
HETATM    5  C   UNL     1      -8.575   9.550  67.516  1.00  0.00    -0.126 C  
BRANCH   5   6
HETATM    6  N   UNL     1      -7.193   9.661  68.031  1.00  0.00    -0.080 NA 
HETATM    7  C   UNL     1      -7.129  10.615  69.150  1.00  0.00    -0.095 C  
BRANCH   6   8
HETATM    8  C   UNL     1      -6.718   8.346  68.520  1.00  0.00    -0.063 C  
BRANCH   8   9
HETATM    9  C   UNL     1      -6.962   7.186  67.546  1.00  0.00    -0.079 C  
BRANCH   9  10
HETATM   10  C   UNL     1      -7.241   5.805  68.209  1.00  0.00    -0.076 C  
HETATM   11  P   UNL     1      -7.454   4.617  66.834  1.00  0.00    -0.087 P  
HETATM   12  P   UNL     1      -8.696   5.869  69.331  1.00  0.00    -0.115 P  
HETATM   13  O   UNL     1      -6.065   5.450  69.013  1.00  0.00    -0.023 OA 
HETATM   14  O   UNL     1      -9.771   6.837  68.635  1.00  0.00    -0.131 OA 
HETATM   15  O   UNL     1      -9.354   4.644  69.866  1.00  0.00    -0.117 OA 
HETATM   16  O   UNL     1      -8.214   6.784  70.567  1.00  0.00    -0.114 OA 
HETATM   17  O   UNL     1      -5.798   4.483  66.793  1.00  0.00    -0.024 OA 
HETATM   18  O   UNL     1      -7.633   3.403  67.920  1.00  0.00    -0.064 OA 
HETATM   19  O   UNL     1      -7.632   3.612  65.670  1.00  0.00    -0.076 OA 
HETATM   20  H   UNL     1      -6.235   4.608  69.418  1.00  0.00     0.000 HD 
ENDBRANCH   9  10
ENDBRANCH   8   9
ENDBRANCH   6   8
ENDBRANCH   5   6
ENDBRANCH   4   5
ENDBRANCH   3   4
ENDBRANCH   2   3
TORSDOF 7
ENDMDL
MODEL      318
REMARK 921   NORMALIZED FREE ENERGY PREDICTED BY IDOCK:   -0.57 KCAL/MOL
REMARK 922        TOTAL FREE ENERGY PREDICTED BY IDOCK:   -1.49 KCAL/MOL
REMARK 923 INTER-LIGAND FREE ENERGY PREDICTED BY IDOCK:   -1.46 KCAL/MOL
REMARK 924 INTRA-LIGAND FREE ENERGY PREDICTED BY IDOCK:   -0.03 KCAL/MOL
REMARK 927      BINDING AFFINITY PREDICTED BY RF-SCORE:    0.00 PKD
ROOT
HETATM    1  C   UNL     1      -6.988  11.196  68.453  1.00  0.00    -0.072 C  
HETATM    2  C   UNL     1      -6.475  10.320  67.323  1.00  0.00    -0.067 C  
ENDROOT
BRANCH   2   3
HETATM    3  C   UNL     1      -7.027   8.901  67.426  1.00  0.00    -0.075 C  
BRANCH   3   4
HETATM    4  C   UNL     1      -7.885   8.557  66.208  1.00  0.00    -0.098 C  
BRANCH   4   5
HETATM    5  C   UNL     1      -8.848   9.715  65.899  1.00  0.00    -0.153 C  
BRANCH   5   6
HETATM    6  N   UNL     1      -8.236  10.849  65.174  1.00  0.00    -0.028 NA 
HETATM    7  C   UNL     1      -7.878  10.459  63.801  1.00  0.00    -0.065 C  
BRANCH   6   8
HETATM    8  C   UNL     1      -9.185  11.984  65.097  1.00  0.00     0.219 C  
BRANCH   8   9
HETATM    9  C   UNL     1     -10.014  12.200  66.370  1.00  0.00    -0.243 C  
BRANCH   9  10
HETATM   10  C   UNL     1     -10.437  13.672  66.649  1.00  0.00    -0.272 C  
HETATM   11  P   UNL     1      -9.414  14.235  68.058  1.00  0.00    -0.215 P  
HETATM   12  P   UNL     1     -12.241  13.814  66.972  1.00  0.00    -0.133 P  
HETATM   13  O   UNL     1     -10.129  14.460  65.448  1.00  0.00    -0.346 OA 
HETATM   14  O   UNL     1     -12.659  12.516  67.819  1.00  0.00     0.175 OA 
HETATM   15  O   UNL     1     -12.863  15.042  67.543  1.00  0.00     1.018 OA 
HETATM   16  O   UNL     1     -12.933  13.490  65.553  1.00  0.00    -0.586 OA 
HETATM   17  O   UNL     1      -8.219  14.581  66.956  1.00  0.00    -0.200 OA 
HETATM   18  O   UNL     1     -10.095  15.722  67.948  1.00  0.00    -0.226 OA 
HETATM   19  O   UNL     1      -8.548  14.711  69.249  1.00  0.00    -0.090 OA 
HETATM   20  H   UNL     1     -10.388  15.358  65.618  1.00  0.00     0.000 HD 
ENDBRANCH   9  10
ENDBRANCH   8   9
ENDBRANCH   6   8
ENDBRANCH   5   6
ENDBRANCH   4   5
ENDBRANCH   3   4
ENDBRANCH   2   3
TORSDOF 7
ENDMDL
MODEL      319
REMARK 921   NORMALIZED FREE ENERGY PREDICTED BY IDOCK:   -0.06 KCAL/MOL
REMARK 922        TOTAL FREE ENERGY PREDICTED BY IDOCK:   -0.76 KCAL/MOL
REMARK 923 INTER-LIGAND FREE ENERGY PREDICTED BY IDOCK:   -2.61 KCAL/MOL
REMARK 924 INTRA-LIGAND FREE ENERGY PREDICTED BY IDOCK:    1.84 KCAL/MOL
REMARK 927      BINDING AFFINITY PREDICTED BY RF-SCORE:    0.00 PKD
ROOT
HETATM    1  C   UNL     1     -10.875  20.182  65.354  1.00  0.00    -0.025 C  
HETATM    2  C   UNL     1     -10.127  19.931  66.652  1.00  0.00    -0.598 C  
ENDROOT
BRANCH   2   3
HETATM    3  C   UNL     1      -8.736  19.360  66.391  1.00  0.00    -0.376 C  
BRANCH   3   4
HETATM    4  C   UNL     1      -7.806  19.621  67.575  1.00  0.00    -0.309 C  
BRANCH   4   5
HETATM    5  C   UNL     1      -8.018  18.551  68.658  1.00  0.00    -0.309 C  
BRANCH   5   6
HETATM    6  N   UNL     1      -7.299  17.281  68.419  1.00  0.00    -0.214 NA 
HETATM    7  C   UNL     1      -5.856  17.520  68.263  1.00  0.00    -0.158 C  
BRANCH   6   8
HETATM    8  C   UNL     1      -7.492  16.357  69.560  1.00  0.00     0.001 C  
BRANCH   8   9
HETATM    9  C   UNL     1      -8.938  15.878  69.747  1.00  0.00     0.134 C  
BRANCH   9  10
HETATM   10  C   UNL     1      -9.573  15.172  68.513  1.00  0.00    -0.214 C  
HETATM   11  P   UNL     1      -8.283  15.168  67.214  1.00  0.00    -0.231 P  
HETATM   12  P   UNL     1     -11.125  15.998  67.978  1.00  0.00    -0.254 P  
HETATM   13  O   UNL     1      -9.904  13.797  68.907  1.00  0.00    -0.394 OA 
HETATM   14  O   UNL     1     -10.896  17.575  68.172  1.00  0.00    -0.361 OA 
HETATM   15  O   UNL     1     -11.778  15.715  66.669  1.00  0.00     0.131 OA 
HETATM   16  O   UNL     1     -12.175  15.692  69.161  1.00  0.00    -0.298 OA 
HETATM   17  O   UNL     1      -7.672  13.798  67.930  1.00  0.00    -0.129 OA 
HETATM   18  O   UNL     1      -9.291  14.333  66.227  1.00  0.00    -0.272 OA 
HETATM   19  O   UNL     1      -7.192  15.163  66.117  1.00  0.00     1.267 OA 
HETATM   20  H   UNL     1     -10.291  13.366  68.154  1.00  0.00     0.000 HD 
ENDBRANCH   9  10
ENDBRANCH   8   9
ENDBRANCH   6   8
ENDBRANCH   5   6
ENDBRANCH   4   5
ENDBRANCH   3   4
ENDBRANCH   2   3
TORSDOF 7
ENDMDL
