MODEL        1
REMARK 921   NORMALIZED FREE ENERGY PREDICTED BY IDOCK:   -9.45 KCAL/MOL
REMARK 922        TOTAL FREE ENERGY PREDICTED BY IDOCK:  -12.68 KCAL/MOL
REMARK 923 INTER-LIGAND FREE ENERGY PREDICTED BY IDOCK:  -12.21 KCAL/MOL
REMARK 924 INTRA-LIGAND FREE ENERGY PREDICTED BY IDOCK:   -0.47 KCAL/MOL
REMARK 927      BINDING AFFINITY PREDICTED BY RF-SCORE:    0.00 PKD
ROOT
HETATM    1  N   UNL     1     -12.623  12.930  66.018  1.00  0.00    -0.402 NA 
HETATM    2  C   UNL     1     -11.817  14.062  65.984  1.00  0.00    -0.388 A  
HETATM    3  H1  UNL     1     -12.860  12.604  66.955  1.00  0.00     0.000 HD 
HETATM    4  H2  UNL     1     -12.198  12.176  65.477  1.00  0.00     0.000 HD 
HETATM    5  N   UNL     1     -11.504  14.494  64.742  1.00  0.00    -0.396 NA 
HETATM    6  C   UNL     1     -10.812  15.639  64.607  1.00  0.00    -0.243 A  
HETATM    7  N   UNL     1     -10.399  16.459  65.579  1.00  0.00    -0.544 NA 
HETATM    8  C   UNL     1     -10.703  15.977  66.796  1.00  0.00    -0.259 A  
HETATM    9  C   UNL     1     -11.372  14.796  67.097  1.00  0.00    -0.363 A  
HETATM   10  C   UNL     1     -11.397  14.749  68.537  1.00  0.00    -0.290 A  
HETATM   11  N   UNL     1     -10.844  15.872  69.049  1.00  0.00    -0.247 NA 
HETATM   12  N   UNL     1     -10.439  16.589  67.986  1.00  0.00    -0.300 NA 
ENDROOT
BRANCH  10  13
HETATM   13  C   UNL     1     -11.931  13.739  69.481  1.00  0.00    -0.399 A  
HETATM   14  C   UNL     1     -12.693  14.056  70.612  1.00  0.00    -0.373 A  
HETATM   15  C   UNL     1     -13.139  13.045  71.485  1.00  0.00    -0.400 A  
HETATM   16  C   UNL     1     -11.689  12.373  69.231  1.00  0.00    -0.386 A  
HETATM   17  C   UNL     1     -12.873  11.695  71.225  1.00  0.00    -0.328 A  
HETATM   18  C   UNL     1     -12.150  11.360  70.087  1.00  0.00    -0.439 A  
BRANCH  17  19
HETATM   19  O   UNL     1     -13.274  10.804  72.195  1.00  0.00    -0.473 OA 
BRANCH  19  20
HETATM   20  C   UNL     1     -13.020   9.455  72.076  1.00  0.00    -0.423 A  
HETATM   21  C   UNL     1     -14.114   8.636  71.775  1.00  0.00    -0.499 A  
HETATM   22  C   UNL     1     -12.640   6.745  71.480  1.00  0.00    -0.371 A  
HETATM   23  C   UNL     1     -11.734   8.913  72.079  1.00  0.00    -0.438 A  
HETATM   24  C   UNL     1     -13.925   7.284  71.481  1.00  0.00    -0.486 A  
HETATM   25  C   UNL     1     -11.548   7.557  71.785  1.00  0.00    -0.304 A  
ENDBRANCH  19  20
ENDBRANCH  17  19
ENDBRANCH  10  13
BRANCH  12  26
HETATM   26  C   UNL     1      -9.853  17.917  68.168  1.00  0.00    -0.334 C  
HETATM   27  C   UNL     1      -6.654  19.720  68.624  1.00  0.00    -0.297 C  
HETATM   28  C   UNL     1     -10.586  18.992  67.342  1.00  0.00    -0.559 C  
HETATM   29  C   UNL     1      -8.418  20.202  67.018  1.00  0.00    -0.335 C  
HETATM   30  C   UNL     1      -9.877  20.344  67.429  1.00  0.00    -0.587 C  
HETATM   31  O   UNL     1      -6.274  20.890  68.551  1.00  0.00    -0.331 OA 
HETATM   32  N   UNL     1      -7.748  19.255  67.909  1.00  0.00    -0.275 N  
HETATM   33  C   UNL     1      -8.333  17.900  67.889  1.00  0.00    -0.247 C  
BRANCH  27  34
HETATM   34  C   UNL     1      -5.918  18.780  69.512  1.00  0.00    -0.275 C  
HETATM   35  C   UNL     1      -5.560  19.177  70.742  1.00  0.00    -0.217 C  
ENDBRANCH  27  34
ENDBRANCH  12  26
TORSDOF 5
ENDMDL
MODEL        2
REMARK 921   NORMALIZED FREE ENERGY PREDICTED BY IDOCK:   -8.90 KCAL/MOL
REMARK 922        TOTAL FREE ENERGY PREDICTED BY IDOCK:  -11.98 KCAL/MOL
REMARK 923 INTER-LIGAND FREE ENERGY PREDICTED BY IDOCK:  -11.47 KCAL/MOL
REMARK 924 INTRA-LIGAND FREE ENERGY PREDICTED BY IDOCK:   -0.51 KCAL/MOL
REMARK 927      BINDING AFFINITY PREDICTED BY RF-SCORE:    0.00 PKD
ROOT
HETATM    1  N   UNL     1     -12.028  15.842  63.761  1.00  0.00    -1.266 NA 
HETATM    2  C   UNL     1     -11.964  14.511  64.157  1.00  0.00    -0.321 A  
HETATM    3  H1  UNL     1     -11.530  16.492  64.369  1.00  0.00     0.000 HD 
HETATM    4  H2  UNL     1     -13.000  16.133  63.652  1.00  0.00     0.000 HD 
HETATM    5  N   UNL     1     -12.624  13.650  63.351  1.00  0.00    -0.781 NA 
HETATM    6  C   UNL     1     -12.536  12.332  63.596  1.00  0.00    -0.541 A  
HETATM    7  N   UNL     1     -11.828  11.729  64.558  1.00  0.00    -0.212 NA 
HETATM    8  C   UNL     1     -11.215  12.620  65.354  1.00  0.00    -0.299 A  
HETATM    9  C   UNL     1     -11.244  14.007  65.254  1.00  0.00    -0.319 A  
HETATM   10  C   UNL     1     -10.456  14.469  66.369  1.00  0.00    -0.295 A  
HETATM   11  N   UNL     1      -9.931  13.415  67.036  1.00  0.00    -0.242 NA 
HETATM   12  N   UNL     1     -10.400  12.323  66.407  1.00  0.00    -0.222 NA 
ENDROOT
BRANCH  10  13
HETATM   13  C   UNL     1     -10.125  15.833  66.844  1.00  0.00    -0.267 A  
HETATM   14  C   UNL     1      -9.447  16.785  66.072  1.00  0.00    -0.257 A  
HETATM   15  C   UNL     1      -9.137  18.051  66.603  1.00  0.00    -0.290 A  
HETATM   16  C   UNL     1     -10.530  16.224  68.137  1.00  0.00    -0.289 A  
HETATM   17  C   UNL     1      -9.534  18.412  67.897  1.00  0.00    -0.285 A  
HETATM   18  C   UNL     1     -10.242  17.493  68.662  1.00  0.00    -0.373 A  
BRANCH  17  19
HETATM   19  O   UNL     1      -9.093  19.637  68.343  1.00  0.00    -0.344 OA 
BRANCH  19  20
HETATM   20  C   UNL     1      -7.750  19.938  68.396  1.00  0.00    -0.249 A  
HETATM   21  C   UNL     1      -7.276  20.856  67.452  1.00  0.00    -0.396 A  
HETATM   22  C   UNL     1      -5.129  20.912  68.558  1.00  0.00    -0.321 A  
HETATM   23  C   UNL     1      -6.907  19.509  69.423  1.00  0.00    -0.365 A  
HETATM   24  C   UNL     1      -5.968  21.339  67.529  1.00  0.00    -0.427 A  
HETATM   25  C   UNL     1      -5.596  19.995  69.498  1.00  0.00    -0.293 A  
ENDBRANCH  19  20
ENDBRANCH  17  19
ENDBRANCH  10  13
BRANCH  12  26
HETATM   26  C   UNL     1      -9.971  10.988  66.823  1.00  0.00    -0.203 C  
HETATM   27  C   UNL     1     -10.302   8.459  69.504  1.00  0.00    -0.219 C  
HETATM   28  C   UNL     1      -9.854  10.019  65.630  1.00  0.00    -0.363 C  
HETATM   29  C   UNL     1     -10.585   8.134  67.108  1.00  0.00    -0.285 C  
HETATM   30  C   UNL     1      -9.547   8.595  66.095  1.00  0.00    -0.305 C  
HETATM   31  O   UNL     1     -10.048   7.259  69.631  1.00  0.00    -0.187 OA 
HETATM   32  N   UNL     1     -10.570   9.026  68.266  1.00  0.00    -0.196 N  
HETATM   33  C   UNL     1     -10.881  10.433  67.942  1.00  0.00    -0.279 C  
BRANCH  27  34
HETATM   34  C   UNL     1     -10.314   9.323  70.714  1.00  0.00    -0.348 C  
HETATM   35  C   UNL     1     -11.205   9.082  71.688  1.00  0.00    -0.431 C  
ENDBRANCH  27  34
ENDBRANCH  12  26
TORSDOF 5
ENDMDL
MODEL        3
REMARK 921   NORMALIZED FREE ENERGY PREDICTED BY IDOCK:   -8.84 KCAL/MOL
REMARK 922        TOTAL FREE ENERGY PREDICTED BY IDOCK:  -11.90 KCAL/MOL
REMARK 923 INTER-LIGAND FREE ENERGY PREDICTED BY IDOCK:  -10.71 KCAL/MOL
REMARK 924 INTRA-LIGAND FREE ENERGY PREDICTED BY IDOCK:   -1.19 KCAL/MOL
REMARK 927      BINDING AFFINITY PREDICTED BY RF-SCORE:    0.00 PKD
ROOT
HETATM    1  N   UNL     1     -13.040  12.503  64.565  1.00  0.00    -0.839 NA 
HETATM    2  C   UNL     1     -12.176  13.589  64.659  1.00  0.00    -0.406 A  
HETATM    3  H1  UNL     1     -12.740  11.675  65.079  1.00  0.00     0.000 HD 
HETATM    4  H2  UNL     1     -13.211  12.271  63.586  1.00  0.00     0.000 HD 
HETATM    5  N   UNL     1     -12.573  14.687  63.978  1.00  0.00    -0.805 NA 
HETATM    6  C   UNL     1     -11.854  15.817  64.090  1.00  0.00    -0.030 A  
HETATM    7  N   UNL     1     -10.767  16.017  64.842  1.00  0.00    -0.631 NA 
HETATM    8  C   UNL     1     -10.388  14.895  65.475  1.00  0.00    -0.365 A  
HETATM    9  C   UNL     1     -11.000  13.647  65.426  1.00  0.00    -0.302 A  
HETATM   10  C   UNL     1     -10.172  12.804  66.252  1.00  0.00    -0.253 A  
HETATM   11  N   UNL     1      -9.180  13.532  66.814  1.00  0.00    -0.251 NA 
HETATM   12  N   UNL     1      -9.334  14.779  66.333  1.00  0.00    -0.289 NA 
ENDROOT
BRANCH  10  13
HETATM   13  C   UNL     1     -10.257  11.362  66.585  1.00  0.00    -0.258 A  
HETATM   14  C   UNL     1      -9.829  10.338  65.730  1.00  0.00    -0.320 A  
HETATM   15  C   UNL     1      -9.972   8.988  66.100  1.00  0.00    -0.311 A  
HETATM   16  C   UNL     1     -10.772  10.979  67.841  1.00  0.00    -0.263 A  
HETATM   17  C   UNL     1     -10.502   8.629  67.346  1.00  0.00    -0.281 A  
HETATM   18  C   UNL     1     -10.896   9.634  68.222  1.00  0.00    -0.230 A  
BRANCH  17  19
HETATM   19  O   UNL     1     -10.683   7.282  67.560  1.00  0.00    -0.254 OA 
BRANCH  19  20
HETATM   20  C   UNL     1     -10.387   6.704  68.775  1.00  0.00    -0.194 A  
HETATM   21  C   UNL     1      -9.038   6.685  69.147  1.00  0.00    -0.137 A  
HETATM   22  C   UNL     1      -9.637   5.869  71.341  1.00  0.00    -0.189 A  
HETATM   23  C   UNL     1     -11.361   6.304  69.692  1.00  0.00    -0.492 A  
HETATM   24  C   UNL     1      -8.663   6.264  70.425  1.00  0.00    -0.146 A  
HETATM   25  C   UNL     1     -10.981   5.882  70.972  1.00  0.00    -0.335 A  
ENDBRANCH  19  20
ENDBRANCH  17  19
ENDBRANCH  10  13
BRANCH  12  26
HETATM   26  C   UNL     1      -8.465  15.862  66.792  1.00  0.00    -0.262 C  
HETATM   27  C   UNL     1      -8.443  19.101  68.582  1.00  0.00    -0.362 C  
HETATM   28  C   UNL     1      -7.098  15.342  67.277  1.00  0.00    -0.206 C  
HETATM   29  C   UNL     1      -7.032  17.162  68.997  1.00  0.00    -0.235 C  
HETATM   30  C   UNL     1      -6.257  16.465  67.888  1.00  0.00    -0.143 C  
HETATM   31  O   UNL     1      -7.590  19.826  69.099  1.00  0.00    -0.312 OA 
HETATM   32  N   UNL     1      -8.264  17.731  68.452  1.00  0.00    -0.291 N  
HETATM   33  C   UNL     1      -9.173  16.732  67.856  1.00  0.00    -0.225 C  
BRANCH  27  34
HETATM   34  C   UNL     1      -9.699  19.717  68.076  1.00  0.00    -0.505 C  
HETATM   35  C   UNL     1      -9.735  20.218  66.833  1.00  0.00    -0.584 C  
ENDBRANCH  27  34
ENDBRANCH  12  26
TORSDOF 5
ENDMDL
MODEL        4
REMARK 921   NORMALIZED FREE ENERGY PREDICTED BY IDOCK:   -8.58 KCAL/MOL
REMARK 922        TOTAL FREE ENERGY PREDICTED BY IDOCK:  -11.56 KCAL/MOL
REMARK 923 INTER-LIGAND FREE ENERGY PREDICTED BY IDOCK:  -10.73 KCAL/MOL
REMARK 924 INTRA-LIGAND FREE ENERGY PREDICTED BY IDOCK:   -0.84 KCAL/MOL
REMARK 927      BINDING AFFINITY PREDICTED BY RF-SCORE:    0.00 PKD
ROOT
HETATM    1  N   UNL     1     -13.214  15.682  70.554  1.00  0.00    -0.762 NA 
HETATM    2  C   UNL     1     -13.143  14.379  71.033  1.00  0.00    -0.353 A  
HETATM    3  H1  UNL     1     -12.620  15.873  69.747  1.00  0.00     0.000 HD 
HETATM    4  H2  UNL     1     -13.018  16.346  71.304  1.00  0.00     0.000 HD 
HETATM    5  N   UNL     1     -13.930  14.126  72.102  1.00  0.00    -0.491 NA 
HETATM    6  C   UNL     1     -14.005  12.870  72.573  1.00  0.00    -0.126 A  
HETATM    7  N   UNL     1     -13.398  11.782  72.085  1.00  0.00    -0.406 NA 
HETATM    8  C   UNL     1     -12.603  12.082  71.046  1.00  0.00    -0.273 A  
HETATM    9  C   UNL     1     -12.390  13.332  70.474  1.00  0.00    -0.389 A  
HETATM   10  C   UNL     1     -11.428  13.094  69.427  1.00  0.00    -0.260 A  
HETATM   11  N   UNL     1     -11.152  11.772  69.339  1.00  0.00    -0.216 NA 
HETATM   12  N   UNL     1     -11.869  11.191  70.318  1.00  0.00    -0.342 NA 
ENDROOT
BRANCH  10  13
HETATM   13  C   UNL     1     -10.764  14.012  68.472  1.00  0.00    -0.266 A  
HETATM   14  C   UNL     1      -9.535  14.638  68.719  1.00  0.00    -0.199 A  
HETATM   15  C   UNL     1      -8.980  15.526  67.777  1.00  0.00    -0.173 A  
HETATM   16  C   UNL     1     -11.376  14.264  67.227  1.00  0.00    -0.350 A  
HETATM   17  C   UNL     1      -9.614  15.774  66.553  1.00  0.00    -0.265 A  
HETATM   18  C   UNL     1     -10.815  15.131  66.277  1.00  0.00    -0.333 A  
BRANCH  17  19
HETATM   19  O   UNL     1      -9.029  16.730  65.755  1.00  0.00    -0.508 OA 
BRANCH  19  20
HETATM   20  C   UNL     1      -9.049  18.063  66.103  1.00  0.00    -0.102 A  
HETATM   21  C   UNL     1     -10.302  18.619  66.380  1.00  0.00    -0.472 A  
HETATM   22  C   UNL     1      -9.250  20.658  67.138  1.00  0.00    -0.429 A  
HETATM   23  C   UNL     1      -7.894  18.810  66.345  1.00  0.00    -0.297 A  
HETATM   24  C   UNL     1     -10.403  19.915  66.892  1.00  0.00    -0.596 A  
HETATM   25  C   UNL     1      -7.999  20.109  66.859  1.00  0.00    -0.356 A  
ENDBRANCH  19  20
ENDBRANCH  17  19
ENDBRANCH  10  13
BRANCH  12  26
HETATM   26  C   UNL     1     -11.869   9.737  70.472  1.00  0.00    -0.240 C  
HETATM   27  C   UNL     1     -10.775   6.579  68.884  1.00  0.00    -0.273 C  
HETATM   28  C   UNL     1     -11.689   9.309  71.941  1.00  0.00    -0.420 C  
HETATM   29  C   UNL     1     -10.413   7.291  71.182  1.00  0.00    -0.209 C  
HETATM   30  C   UNL     1     -11.546   7.791  72.068  1.00  0.00    -0.347 C  
HETATM   31  O   UNL     1     -10.650   5.403  69.234  1.00  0.00    -0.258 OA 
HETATM   32  N   UNL     1     -10.697   7.628  69.788  1.00  0.00    -0.245 N  
HETATM   33  C   UNL     1     -10.830   9.077  69.537  1.00  0.00    -0.166 C  
BRANCH  27  34
HETATM   34  C   UNL     1     -11.022   6.878  67.448  1.00  0.00    -0.374 C  
HETATM   35  C   UNL     1      -9.982   7.095  66.630  1.00  0.00    -0.234 C  
ENDBRANCH  27  34
ENDBRANCH  12  26
TORSDOF 5
ENDMDL
MODEL        5
REMARK 921   NORMALIZED FREE ENERGY PREDICTED BY IDOCK:   -8.52 KCAL/MOL
REMARK 922        TOTAL FREE ENERGY PREDICTED BY IDOCK:  -11.48 KCAL/MOL
REMARK 923 INTER-LIGAND FREE ENERGY PREDICTED BY IDOCK:  -10.29 KCAL/MOL
REMARK 924 INTRA-LIGAND FREE ENERGY PREDICTED BY IDOCK:   -1.19 KCAL/MOL
REMARK 927      BINDING AFFINITY PREDICTED BY RF-SCORE:    0.00 PKD
ROOT
HETATM    1  N   UNL     1     -11.791  15.778  63.737  1.00  0.00    -1.078 NA 
HETATM    2  C   UNL     1     -12.052  14.540  64.312  1.00  0.00    -0.425 A  
HETATM    3  H1  UNL     1     -11.299  16.434  64.343  1.00  0.00     0.000 HD 
HETATM    4  H2  UNL     1     -12.654  16.195  63.388  1.00  0.00     0.000 HD 
HETATM    5  N   UNL     1     -12.702  13.669  63.509  1.00  0.00    -0.638 NA 
HETATM    6  C   UNL     1     -12.910  12.414  63.942  1.00  0.00    -0.262 A  
HETATM    7  N   UNL     1     -12.515  11.879  65.102  1.00  0.00    -0.188 NA 
HETATM    8  C   UNL     1     -11.901  12.784  65.882  1.00  0.00    -0.437 A  
HETATM    9  C   UNL     1     -11.651  14.121  65.593  1.00  0.00    -0.339 A  
HETATM   10  C   UNL     1     -11.008  14.635  66.776  1.00  0.00    -0.323 A  
HETATM   11  N   UNL     1     -10.821  13.640  67.674  1.00  0.00    -0.254 NA 
HETATM   12  N   UNL     1     -11.364  12.545  67.113  1.00  0.00    -0.304 NA 
ENDROOT
BRANCH  10  13
HETATM   13  C   UNL     1     -10.520  15.990  67.123  1.00  0.00    -0.308 A  
HETATM   14  C   UNL     1     -10.880  16.673  68.292  1.00  0.00    -0.356 A  
HETATM   15  C   UNL     1     -10.403  17.974  68.539  1.00  0.00    -0.359 A  
HETATM   16  C   UNL     1      -9.621  16.638  66.251  1.00  0.00    -0.325 A  
HETATM   17  C   UNL     1      -9.524  18.606  67.650  1.00  0.00    -0.293 A  
HETATM   18  C   UNL     1      -9.127  17.927  66.504  1.00  0.00    -0.276 A  
BRANCH  17  19
HETATM   19  O   UNL     1      -9.201  19.910  67.946  1.00  0.00    -0.328 OA 
BRANCH  19  20
HETATM   20  C   UNL     1      -7.890  20.305  68.101  1.00  0.00    -0.105 A  
HETATM   21  C   UNL     1      -7.190  19.744  69.175  1.00  0.00    -0.319 A  
HETATM   22  C   UNL     1      -5.137  20.738  68.378  1.00  0.00    -0.296 A  
HETATM   23  C   UNL     1      -7.208  21.085  67.165  1.00  0.00    -0.348 A  
HETATM   24  C   UNL     1      -5.818  19.964  69.316  1.00  0.00    -0.295 A  
HETATM   25  C   UNL     1      -5.832  21.302  67.309  1.00  0.00    -0.409 A  
ENDBRANCH  19  20
ENDBRANCH  17  19
ENDBRANCH  10  13
BRANCH  12  26
HETATM   26  C   UNL     1     -11.276  11.249  67.784  1.00  0.00    -0.291 C  
HETATM   27  C   UNL     1      -9.125   8.272  68.236  1.00  0.00    -0.135 C  
HETATM   28  C   UNL     1     -11.885  11.286  69.199  1.00  0.00    -0.423 C  
HETATM   29  C   UNL     1     -10.175   9.624  69.965  1.00  0.00    -0.255 C  
HETATM   30  C   UNL     1     -11.657   9.969  69.942  1.00  0.00    -0.237 C  
HETATM   31  O   UNL     1      -9.076   7.319  69.018  1.00  0.00    -0.135 OA 
HETATM   32  N   UNL     1      -9.682   9.490  68.595  1.00  0.00    -0.152 N  
HETATM   33  C   UNL     1      -9.825  10.716  67.785  1.00  0.00    -0.165 C  
BRANCH  27  34
HETATM   34  C   UNL     1      -8.575   8.104  66.864  1.00  0.00    -0.126 C  
HETATM   35  C   UNL     1      -7.912   6.981  66.551  1.00  0.00    -0.108 C  
ENDBRANCH  27  34
ENDBRANCH  12  26
TORSDOF 5
ENDMDL
MODEL        6
REMARK 921   NORMALIZED FREE ENERGY PREDICTED BY IDOCK:   -8.40 KCAL/MOL
REMARK 922        TOTAL FREE ENERGY PREDICTED BY IDOCK:  -11.33 KCAL/MOL
REMARK 923 INTER-LIGAND FREE ENERGY PREDICTED BY IDOCK:  -10.77 KCAL/MOL
REMARK 924 INTRA-LIGAND FREE ENERGY PREDICTED BY IDOCK:   -0.55 KCAL/MOL
REMARK 927      BINDING AFFINITY PREDICTED BY RF-SCORE:    0.00 PKD
ROOT
HETATM    1  N   UNL     1     -12.785  13.029  65.693  1.00  0.00    -0.485 NA 
HETATM    2  C   UNL     1     -11.986  14.163  65.780  1.00  0.00    -0.402 A  
HETATM    3  H1  UNL     1     -12.873  12.502  66.562  1.00  0.00     0.000 HD 
HETATM    4  H2  UNL     1     -12.458  12.421  64.941  1.00  0.00     0.000 HD 
HETATM    5  N   UNL     1     -11.870  14.861  64.628  1.00  0.00    -0.429 NA 
HETATM    6  C   UNL     1     -11.199  16.026  64.638  1.00  0.00    -0.330 A  
HETATM    7  N   UNL     1     -10.631  16.627  65.688  1.00  0.00    -0.438 NA 
HETATM    8  C   UNL     1     -10.741  15.887  66.803  1.00  0.00    -0.281 A  
HETATM    9  C   UNL     1     -11.364  14.651  66.942  1.00  0.00    -0.361 A  
HETATM   10  C   UNL     1     -11.159  14.293  68.323  1.00  0.00    -0.258 A  
HETATM   11  N   UNL     1     -10.523  15.294  68.974  1.00  0.00    -0.238 NA 
HETATM   12  N   UNL     1     -10.286  16.234  68.042  1.00  0.00    -0.270 NA 
ENDROOT
BRANCH  10  13
HETATM   13  C   UNL     1     -11.545  13.090  69.097  1.00  0.00    -0.368 A  
HETATM   14  C   UNL     1     -12.140  13.136  70.364  1.00  0.00    -0.392 A  
HETATM   15  C   UNL     1     -12.449  11.949  71.056  1.00  0.00    -0.390 A  
HETATM   16  C   UNL     1     -11.331  11.815  68.532  1.00  0.00    -0.328 A  
HETATM   17  C   UNL     1     -12.212  10.693  70.483  1.00  0.00    -0.358 A  
HETATM   18  C   UNL     1     -11.657  10.631  69.210  1.00  0.00    -0.346 A  
BRANCH  17  19
HETATM   19  O   UNL     1     -12.464   9.605  71.288  1.00  0.00    -0.316 OA 
BRANCH  19  20
HETATM   20  C   UNL     1     -11.522   8.617  71.470  1.00  0.00    -0.295 A  
HETATM   21  C   UNL     1     -10.197   9.037  71.631  1.00  0.00    -0.418 A  
HETATM   22  C   UNL     1      -9.528   6.779  72.172  1.00  0.00    -0.145 A  
HETATM   23  C   UNL     1     -11.847   7.273  71.660  1.00  0.00    -0.330 A  
HETATM   24  C   UNL     1      -9.201   8.120  71.977  1.00  0.00    -0.253 A  
HETATM   25  C   UNL     1     -10.846   6.356  72.007  1.00  0.00    -0.277 A  
ENDBRANCH  19  20
ENDBRANCH  17  19
ENDBRANCH  10  13
BRANCH  12  26
HETATM   26  C   UNL     1      -9.668  17.506  68.414  1.00  0.00    -0.316 C  
HETATM   27  C   UNL     1      -6.423  19.257  68.730  1.00  0.00    -0.259 C  
HETATM   28  C   UNL     1     -10.519  18.714  67.975  1.00  0.00    -0.395 C  
HETATM   29  C   UNL     1      -8.423  20.028  67.578  1.00  0.00    -0.339 C  
HETATM   30  C   UNL     1      -9.794  20.035  68.240  1.00  0.00    -0.475 C  
HETATM   31  O   UNL     1      -6.051  20.426  68.855  1.00  0.00    -0.305 OA 
HETATM   32  N   UNL     1      -7.624  18.929  68.117  1.00  0.00    -0.268 N  
HETATM   33  C   UNL     1      -8.215  17.594  67.895  1.00  0.00    -0.234 C  
BRANCH  27  34
HETATM   34  C   UNL     1      -5.559  18.167  69.258  1.00  0.00    -0.213 C  
HETATM   35  C   UNL     1      -5.243  18.149  70.561  1.00  0.00    -0.260 C  
ENDBRANCH  27  34
ENDBRANCH  12  26
TORSDOF 5
ENDMDL
MODEL        7
REMARK 921   NORMALIZED FREE ENERGY PREDICTED BY IDOCK:   -8.25 KCAL/MOL
REMARK 922        TOTAL FREE ENERGY PREDICTED BY IDOCK:  -11.13 KCAL/MOL
REMARK 923 INTER-LIGAND FREE ENERGY PREDICTED BY IDOCK:  -10.20 KCAL/MOL
REMARK 924 INTRA-LIGAND FREE ENERGY PREDICTED BY IDOCK:   -0.93 KCAL/MOL
REMARK 927      BINDING AFFINITY PREDICTED BY RF-SCORE:    0.00 PKD
ROOT
HETATM    1  N   UNL     1     -13.601  12.628  73.043  1.00  0.00    -0.263 NA 
HETATM    2  C   UNL     1     -13.424  13.513  71.985  1.00  0.00    -0.494 A  
HETATM    3  H1  UNL     1     -13.202  11.702  72.894  1.00  0.00     0.000 HD 
HETATM    4  H2  UNL     1     -14.591  12.554  73.281  1.00  0.00     0.000 HD 
HETATM    5  N   UNL     1     -13.953  14.742  72.182  1.00  0.00    -0.444 NA 
HETATM    6  C   UNL     1     -13.746  15.695  71.258  1.00  0.00    -0.236 A  
HETATM    7  N   UNL     1     -13.030  15.595  70.133  1.00  0.00    -0.191 NA 
HETATM    8  C   UNL     1     -12.550  14.352  69.960  1.00  0.00    -0.233 A  
HETATM    9  C   UNL     1     -12.713  13.256  70.800  1.00  0.00    -0.284 A  
HETATM   10  C   UNL     1     -12.032  12.178  70.128  1.00  0.00    -0.314 A  
HETATM   11  N   UNL     1     -11.439  12.633  69.001  1.00  0.00    -0.284 NA 
HETATM   12  N   UNL     1     -11.764  13.936  68.926  1.00  0.00    -0.314 NA 
ENDROOT
BRANCH  10  13
HETATM   13  C   UNL     1     -11.864  10.748  70.479  1.00  0.00    -0.453 A  
HETATM   14  C   UNL     1     -10.636  10.076  70.442  1.00  0.00    -0.343 A  
HETATM   15  C   UNL     1     -10.558   8.705  70.756  1.00  0.00    -0.254 A  
HETATM   16  C   UNL     1     -12.990  10.010  70.899  1.00  0.00    -0.397 A  
HETATM   17  C   UNL     1     -11.692   7.987  71.155  1.00  0.00    -0.284 A  
HETATM   18  C   UNL     1     -12.912   8.649  71.233  1.00  0.00    -0.211 A  
BRANCH  17  19
HETATM   19  O   UNL     1     -11.515   6.635  71.344  1.00  0.00    -0.272 OA 
BRANCH  19  20
HETATM   20  C   UNL     1     -10.766   5.883  70.465  1.00  0.00    -0.294 A  
HETATM   21  C   UNL     1      -9.920   4.922  71.029  1.00  0.00    -0.282 A  
HETATM   22  C   UNL     1      -9.419   4.049  68.833  1.00  0.00    -0.237 A  
HETATM   23  C   UNL     1     -10.937   5.924  69.081  1.00  0.00    -0.382 A  
HETATM   24  C   UNL     1      -9.244   4.010  70.215  1.00  0.00    -0.210 A  
HETATM   25  C   UNL     1     -10.259   5.008  68.267  1.00  0.00    -0.143 A  
ENDBRANCH  19  20
ENDBRANCH  17  19
ENDBRANCH  10  13
BRANCH  12  26
HETATM   26  C   UNL     1     -11.225  14.773  67.855  1.00  0.00    -0.306 C  
HETATM   27  C   UNL     1      -9.117  17.737  67.170  1.00  0.00    -0.246 C  
HETATM   28  C   UNL     1     -10.839  13.947  66.612  1.00  0.00    -0.289 C  
HETATM   29  C   UNL     1      -8.946  15.526  66.167  1.00  0.00    -0.294 C  
HETATM   30  C   UNL     1     -10.145  14.812  65.559  1.00  0.00    -0.409 C  
HETATM   31  O   UNL     1      -8.556  18.221  66.185  1.00  0.00    -0.455 OA 
HETATM   32  N   UNL     1      -9.391  16.380  67.267  1.00  0.00    -0.219 N  
HETATM   33  C   UNL     1     -10.056  15.647  68.363  1.00  0.00    -0.214 C  
BRANCH  27  34
HETATM   34  C   UNL     1      -9.516  18.637  68.285  1.00  0.00    -0.369 C  
HETATM   35  C   UNL     1     -10.197  19.761  68.014  1.00  0.00    -0.581 C  
ENDBRANCH  27  34
ENDBRANCH  12  26
TORSDOF 5
ENDMDL
MODEL        8
REMARK 921   NORMALIZED FREE ENERGY PREDICTED BY IDOCK:   -8.24 KCAL/MOL
REMARK 922        TOTAL FREE ENERGY PREDICTED BY IDOCK:  -11.12 KCAL/MOL
REMARK 923 INTER-LIGAND FREE ENERGY PREDICTED BY IDOCK:  -10.13 KCAL/MOL
REMARK 924 INTRA-LIGAND FREE ENERGY PREDICTED BY IDOCK:   -0.99 KCAL/MOL
REMARK 927      BINDING AFFINITY PREDICTED BY RF-SCORE:    0.00 PKD
ROOT
HETATM    1  N   UNL     1     -13.545  12.541  73.076  1.00  0.00    -0.155 NA 
HETATM    2  C   UNL     1     -13.358  13.445  72.036  1.00  0.00    -0.479 A  
HETATM    3  H1  UNL     1     -13.221  11.594  72.881  1.00  0.00     0.000 HD 
HETATM    4  H2  UNL     1     -14.525  12.529  73.362  1.00  0.00     0.000 HD 
HETATM    5  N   UNL     1     -13.787  14.701  72.295  1.00  0.00    -0.440 NA 
HETATM    6  C   UNL     1     -13.558  15.666  71.389  1.00  0.00    -0.347 A  
HETATM    7  N   UNL     1     -12.908  15.552  70.226  1.00  0.00    -0.297 NA 
HETATM    8  C   UNL     1     -12.527  14.285  69.993  1.00  0.00    -0.300 A  
HETATM    9  C   UNL     1     -12.726  13.177  70.809  1.00  0.00    -0.260 A  
HETATM   10  C   UNL     1     -12.158  12.076  70.073  1.00  0.00    -0.280 A  
HETATM   11  N   UNL     1     -11.590  12.524  68.930  1.00  0.00    -0.296 NA 
HETATM   12  N   UNL     1     -11.824  13.848  68.908  1.00  0.00    -0.340 NA 
ENDROOT
BRANCH  10  13
HETATM   13  C   UNL     1     -12.076  10.627  70.374  1.00  0.00    -0.430 A  
HETATM   14  C   UNL     1     -13.105   9.898  70.984  1.00  0.00    -0.406 A  
HETATM   15  C   UNL     1     -12.943   8.529  71.270  1.00  0.00    -0.181 A  
HETATM   16  C   UNL     1     -10.913   9.917  70.010  1.00  0.00    -0.338 A  
HETATM   17  C   UNL     1     -11.772   7.848  70.915  1.00  0.00    -0.257 A  
HETATM   18  C   UNL     1     -10.757   8.548  70.274  1.00  0.00    -0.242 A  
BRANCH  17  19
HETATM   19  O   UNL     1     -11.687   6.538  71.329  1.00  0.00    -0.311 OA 
BRANCH  19  20
HETATM   20  C   UNL     1     -10.671   6.114  72.157  1.00  0.00    -0.236 A  
HETATM   21  C   UNL     1     -10.603   6.712  73.421  1.00  0.00    -0.333 A  
HETATM   22  C   UNL     1      -8.883   5.153  74.086  1.00  0.00    -0.113 A  
HETATM   23  C   UNL     1      -9.841   5.032  71.862  1.00  0.00    -0.236 A  
HETATM   24  C   UNL     1      -9.708   6.236  74.381  1.00  0.00    -0.291 A  
HETATM   25  C   UNL     1      -8.944   4.557  72.827  1.00  0.00    -0.128 A  
ENDBRANCH  19  20
ENDBRANCH  17  19
ENDBRANCH  10  13
BRANCH  12  26
HETATM   26  C   UNL     1     -11.281  14.679  67.835  1.00  0.00    -0.304 C  
HETATM   27  C   UNL     1      -9.371  17.772  67.145  1.00  0.00    -0.264 C  
HETATM   28  C   UNL     1     -10.747  13.834  66.662  1.00  0.00    -0.277 C  
HETATM   29  C   UNL     1      -8.958  15.541  66.265  1.00  0.00    -0.327 C  
HETATM   30  C   UNL     1     -10.052  14.706  65.615  1.00  0.00    -0.389 C  
HETATM   31  O   UNL     1      -8.783  18.258  66.176  1.00  0.00    -0.461 OA 
HETATM   32  N   UNL     1      -9.543  16.404  67.291  1.00  0.00    -0.232 N  
HETATM   33  C   UNL     1     -10.222  15.667  68.375  1.00  0.00    -0.222 C  
BRANCH  27  34
HETATM   34  C   UNL     1      -9.915  18.685  68.186  1.00  0.00    -0.397 C  
HETATM   35  C   UNL     1     -10.044  19.992  67.916  1.00  0.00    -0.559 C  
ENDBRANCH  27  34
ENDBRANCH  12  26
TORSDOF 5
ENDMDL
MODEL        9
REMARK 921   NORMALIZED FREE ENERGY PREDICTED BY IDOCK:   -8.22 KCAL/MOL
REMARK 922        TOTAL FREE ENERGY PREDICTED BY IDOCK:  -11.09 KCAL/MOL
REMARK 923 INTER-LIGAND FREE ENERGY PREDICTED BY IDOCK:  -10.10 KCAL/MOL
REMARK 924 INTRA-LIGAND FREE ENERGY PREDICTED BY IDOCK:   -0.99 KCAL/MOL
REMARK 927      BINDING AFFINITY PREDICTED BY RF-SCORE:    0.00 PKD
ROOT
HETATM    1  N   UNL     1     -13.127  12.646  65.197  1.00  0.00    -0.625 NA 
HETATM    2  C   UNL     1     -12.206  13.679  65.066  1.00  0.00    -0.421 A  
HETATM    3  H1  UNL     1     -12.901  11.962  65.920  1.00  0.00     0.000 HD 
HETATM    4  H2  UNL     1     -13.268  12.181  64.300  1.00  0.00     0.000 HD 
HETATM    5  N   UNL     1     -12.506  14.585  64.109  1.00  0.00    -0.784 NA 
HETATM    6  C   UNL     1     -11.728  15.672  63.976  1.00  0.00     0.070 A  
HETATM    7  N   UNL     1     -10.665  16.006  64.715  1.00  0.00    -0.621 NA 
HETATM    8  C   UNL     1     -10.382  15.066  65.631  1.00  0.00    -0.353 A  
HETATM    9  C   UNL     1     -11.064  13.876  65.861  1.00  0.00    -0.291 A  
HETATM   10  C   UNL     1     -10.326  13.233  66.919  1.00  0.00    -0.255 A  
HETATM   11  N   UNL     1      -9.318  14.033  67.337  1.00  0.00    -0.212 NA 
HETATM   12  N   UNL     1      -9.376  15.122  66.550  1.00  0.00    -0.261 NA 
ENDROOT
BRANCH  10  13
HETATM   13  C   UNL     1     -10.510  11.928  67.598  1.00  0.00    -0.232 A  
HETATM   14  C   UNL     1      -9.916  10.735  67.168  1.00  0.00    -0.230 A  
HETATM   15  C   UNL     1     -10.164   9.525  67.844  1.00  0.00    -0.251 A  
HETATM   16  C   UNL     1     -11.307  11.869  68.760  1.00  0.00    -0.330 A  
HETATM   17  C   UNL     1     -10.973   9.486  68.987  1.00  0.00    -0.100 A  
HETATM   18  C   UNL     1     -11.539  10.668  69.449  1.00  0.00    -0.352 A  
BRANCH  17  19
HETATM   19  O   UNL     1     -11.222   8.236  69.508  1.00  0.00    -0.032 OA 
BRANCH  19  20
HETATM   20  C   UNL     1     -10.979   7.952  70.834  1.00  0.00    -0.243 A  
HETATM   21  C   UNL     1     -11.634   6.835  71.364  1.00  0.00    -0.350 A  
HETATM   22  C   UNL     1     -10.358   7.036  73.406  1.00  0.00    -0.370 A  
HETATM   23  C   UNL     1     -10.012   8.611  71.595  1.00  0.00    -0.353 A  
HETATM   24  C   UNL     1     -11.328   6.381  72.649  1.00  0.00    -0.266 A  
HETATM   25  C   UNL     1      -9.707   8.152  72.883  1.00  0.00    -0.340 A  
ENDBRANCH  19  20
ENDBRANCH  17  19
ENDBRANCH  10  13
BRANCH  12  26
HETATM   26  C   UNL     1      -8.466  16.245  66.773  1.00  0.00    -0.247 C  
HETATM   27  C   UNL     1      -8.238  19.649  68.206  1.00  0.00    -0.322 C  
HETATM   28  C   UNL     1      -7.038  15.776  67.112  1.00  0.00    -0.225 C  
HETATM   29  C   UNL     1      -6.758  17.761  68.614  1.00  0.00    -0.230 C  
HETATM   30  C   UNL     1      -6.136  16.954  67.483  1.00  0.00    -0.171 C  
HETATM   31  O   UNL     1      -7.331  20.422  68.524  1.00  0.00    -0.152 OA 
HETATM   32  N   UNL     1      -8.060  18.274  68.192  1.00  0.00    -0.277 N  
HETATM   33  C   UNL     1      -9.030  17.220  67.832  1.00  0.00    -0.235 C  
BRANCH  27  34
HETATM   34  C   UNL     1      -9.560  20.213  67.822  1.00  0.00    -0.508 C  
HETATM   35  C   UNL     1      -9.880  20.320  66.524  1.00  0.00    -0.531 C  
ENDBRANCH  27  34
ENDBRANCH  12  26
TORSDOF 5
ENDMDL
MODEL       10
REMARK 921   NORMALIZED FREE ENERGY PREDICTED BY IDOCK:   -8.16 KCAL/MOL
REMARK 922        TOTAL FREE ENERGY PREDICTED BY IDOCK:  -11.02 KCAL/MOL
REMARK 923 INTER-LIGAND FREE ENERGY PREDICTED BY IDOCK:   -9.84 KCAL/MOL
REMARK 924 INTRA-LIGAND FREE ENERGY PREDICTED BY IDOCK:   -1.18 KCAL/MOL
REMARK 927      BINDING AFFINITY PREDICTED BY RF-SCORE:    0.00 PKD
ROOT
HETATM    1  N   UNL     1      -9.829  14.719  64.490  1.00  0.00    -0.355 NA 
HETATM    2  C   UNL     1     -10.529  13.689  65.109  1.00  0.00    -0.374 A  
HETATM    3  H1  UNL     1      -9.525  15.464  65.117  1.00  0.00     0.000 HD 
HETATM    4  H2  UNL     1     -10.375  15.104  63.719  1.00  0.00     0.000 HD 
HETATM    5  N   UNL     1     -10.931  12.701  64.279  1.00  0.00    -0.340 NA 
HETATM    6  C   UNL     1     -11.527  11.615  64.800  1.00  0.00    -0.155 A  
HETATM    7  N   UNL     1     -11.759  11.356  66.091  1.00  0.00    -0.182 NA 
HETATM    8  C   UNL     1     -11.373  12.374  66.878  1.00  0.00    -0.333 A  
HETATM    9  C   UNL     1     -10.785  13.572  66.486  1.00  0.00    -0.287 A  
HETATM   10  C   UNL     1     -10.613  14.311  67.711  1.00  0.00    -0.253 A  
HETATM   11  N   UNL     1     -11.005  13.560  68.767  1.00  0.00    -0.255 NA 
HETATM   12  N   UNL     1     -11.454  12.407  68.239  1.00  0.00    -0.286 NA 
ENDROOT
BRANCH  10  13
HETATM   13  C   UNL     1     -10.076  15.666  67.978  1.00  0.00    -0.224 A  
HETATM   14  C   UNL     1     -10.872  16.814  68.080  1.00  0.00    -0.341 A  
HETATM   15  C   UNL     1     -10.288  18.076  68.302  1.00  0.00    -0.389 A  
HETATM   16  C   UNL     1      -8.688  15.827  68.169  1.00  0.00    -0.173 A  
HETATM   17  C   UNL     1      -8.904  18.214  68.471  1.00  0.00    -0.299 A  
HETATM   18  C   UNL     1      -8.104  17.080  68.412  1.00  0.00    -0.245 A  
BRANCH  17  19
HETATM   19  O   UNL     1      -8.437  19.504  68.586  1.00  0.00    -0.357 OA 
BRANCH  19  20
HETATM   20  C   UNL     1      -7.607  20.052  67.633  1.00  0.00    -0.292 A  
HETATM   21  C   UNL     1      -6.499  20.765  68.104  1.00  0.00    -0.331 A  
HETATM   22  C   UNL     1      -5.642  20.954  65.854  1.00  0.00    -0.257 A  
HETATM   23  C   UNL     1      -7.729  19.791  66.268  1.00  0.00    -0.331 A  
HETATM   24  C   UNL     1      -5.520  21.219  67.217  1.00  0.00    -0.361 A  
HETATM   25  C   UNL     1      -6.746  20.247  65.380  1.00  0.00    -0.318 A  
ENDBRANCH  19  20
ENDBRANCH  17  19
ENDBRANCH  10  13
BRANCH  12  26
HETATM   26  C   UNL     1     -11.894  11.317  69.109  1.00  0.00    -0.355 C  
HETATM   27  C   UNL     1     -11.152   7.837  70.124  1.00  0.00    -0.209 C  
HETATM   28  C   UNL     1     -12.404  11.831  70.469  1.00  0.00    -0.387 C  
HETATM   29  C   UNL     1     -11.515   9.762  71.567  1.00  0.00    -0.323 C  
HETATM   30  C   UNL     1     -12.724  10.675  71.419  1.00  0.00    -0.545 C  
HETATM   31  O   UNL     1     -11.483   7.089  71.047  1.00  0.00    -0.273 OA 
HETATM   32  N   UNL     1     -11.149   9.217  70.261  1.00  0.00    -0.248 N  
HETATM   33  C   UNL     1     -10.791  10.245  69.262  1.00  0.00    -0.238 C  
BRANCH  27  34
HETATM   34  C   UNL     1     -10.748   7.238  68.823  1.00  0.00    -0.168 C  
HETATM   35  C   UNL     1     -10.669   5.904  68.707  1.00  0.00    -0.354 C  
ENDBRANCH  27  34
ENDBRANCH  12  26
TORSDOF 5
ENDMDL
MODEL       11
REMARK 921   NORMALIZED FREE ENERGY PREDICTED BY IDOCK:   -8.12 KCAL/MOL
REMARK 922        TOTAL FREE ENERGY PREDICTED BY IDOCK:  -10.97 KCAL/MOL
REMARK 923 INTER-LIGAND FREE ENERGY PREDICTED BY IDOCK:   -9.87 KCAL/MOL
REMARK 924 INTRA-LIGAND FREE ENERGY PREDICTED BY IDOCK:   -1.10 KCAL/MOL
REMARK 927      BINDING AFFINITY PREDICTED BY RF-SCORE:    0.00 PKD
ROOT
HETATM    1  N   UNL     1     -13.048  12.464  64.745  1.00  0.00    -0.735 NA 
HETATM    2  C   UNL     1     -12.180  13.549  64.781  1.00  0.00    -0.409 A  
HETATM    3  H1  UNL     1     -12.759  11.668  65.314  1.00  0.00     0.000 HD 
HETATM    4  H2  UNL     1     -13.209  12.172  63.781  1.00  0.00     0.000 HD 
HETATM    5  N   UNL     1     -12.563  14.605  64.028  1.00  0.00    -0.805 NA 
HETATM    6  C   UNL     1     -11.839  15.736  64.078  1.00  0.00     0.115 A  
HETATM    7  N   UNL     1     -10.759  15.978  64.828  1.00  0.00    -0.621 NA 
HETATM    8  C   UNL     1     -10.395  14.896  65.536  1.00  0.00    -0.365 A  
HETATM    9  C   UNL     1     -11.012  13.650  65.558  1.00  0.00    -0.297 A  
HETATM   10  C   UNL     1     -10.199  12.856  66.444  1.00  0.00    -0.267 A  
HETATM   11  N   UNL     1      -9.209  13.613  66.971  1.00  0.00    -0.242 NA 
HETATM   12  N   UNL     1      -9.351  14.828  66.412  1.00  0.00    -0.289 NA 
ENDROOT
BRANCH  10  13
HETATM   13  C   UNL     1     -10.295  11.439  66.866  1.00  0.00    -0.262 A  
HETATM   14  C   UNL     1     -10.117  10.354  65.999  1.00  0.00    -0.307 A  
HETATM   15  C   UNL     1     -10.257   9.032  66.463  1.00  0.00    -0.318 A  
HETATM   16  C   UNL     1     -10.556  11.144  68.220  1.00  0.00    -0.221 A  
HETATM   17  C   UNL     1     -10.534   8.763  67.810  1.00  0.00    -0.229 A  
HETATM   18  C   UNL     1     -10.676   9.828  68.691  1.00  0.00    -0.247 A  
BRANCH  17  19
HETATM   19  O   UNL     1     -10.743   7.441  68.130  1.00  0.00    -0.186 OA 
BRANCH  19  20
HETATM   20  C   UNL     1     -10.101   6.430  67.449  1.00  0.00    -0.158 A  
HETATM   21  C   UNL     1      -8.731   6.284  67.692  1.00  0.00    -0.113 A  
HETATM   22  C   UNL     1      -8.703   4.237  66.409  1.00  0.00    -0.113 A  
HETATM   23  C   UNL     1     -10.771   5.474  66.683  1.00  0.00    -0.332 A  
HETATM   24  C   UNL     1      -8.032   5.193  67.170  1.00  0.00    -0.100 A  
HETATM   25  C   UNL     1     -10.068   4.381  66.161  1.00  0.00    -0.257 A  
ENDBRANCH  19  20
ENDBRANCH  17  19
ENDBRANCH  10  13
BRANCH  12  26
HETATM   26  C   UNL     1      -8.482  15.934  66.813  1.00  0.00    -0.262 C  
HETATM   27  C   UNL     1      -8.424  19.175  68.598  1.00  0.00    -0.362 C  
HETATM   28  C   UNL     1      -7.072  15.451  67.205  1.00  0.00    -0.206 C  
HETATM   29  C   UNL     1      -6.939  17.273  68.918  1.00  0.00    -0.233 C  
HETATM   30  C   UNL     1      -6.222  16.595  67.759  1.00  0.00    -0.159 C  
HETATM   31  O   UNL     1      -7.557  19.922  69.058  1.00  0.00    -0.269 OA 
HETATM   32  N   UNL     1      -8.218  17.810  68.456  1.00  0.00    -0.294 N  
HETATM   33  C   UNL     1      -9.139  16.787  67.921  1.00  0.00    -0.224 C  
BRANCH  27  34
HETATM   34  C   UNL     1      -9.726  19.758  68.177  1.00  0.00    -0.506 C  
HETATM   35  C   UNL     1      -9.811  20.412  67.010  1.00  0.00    -0.594 C  
ENDBRANCH  27  34
ENDBRANCH  12  26
TORSDOF 5
ENDMDL
MODEL       12
REMARK 921   NORMALIZED FREE ENERGY PREDICTED BY IDOCK:   -8.08 KCAL/MOL
REMARK 922        TOTAL FREE ENERGY PREDICTED BY IDOCK:  -10.91 KCAL/MOL
REMARK 923 INTER-LIGAND FREE ENERGY PREDICTED BY IDOCK:   -9.87 KCAL/MOL
REMARK 924 INTRA-LIGAND FREE ENERGY PREDICTED BY IDOCK:   -1.04 KCAL/MOL
REMARK 927      BINDING AFFINITY PREDICTED BY RF-SCORE:    0.00 PKD
ROOT
HETATM    1  N   UNL     1      -9.167  12.550  65.671  1.00  0.00    -0.430 NA 
HETATM    2  C   UNL     1      -9.772  11.446  66.260  1.00  0.00    -0.212 A  
HETATM    3  H1  UNL     1      -9.241  13.414  66.209  1.00  0.00     0.000 HD 
HETATM    4  H2  UNL     1      -9.527  12.689  64.726  1.00  0.00     0.000 HD 
HETATM    5  N   UNL     1      -9.674  10.301  65.548  1.00  0.00    -0.244 NA 
HETATM    6  C   UNL     1     -10.140   9.160  66.083  1.00  0.00    -0.208 A  
HETATM    7  N   UNL     1     -10.687   8.993  67.292  1.00  0.00    -0.227 NA 
HETATM    8  C   UNL     1     -10.794  10.157  67.953  1.00  0.00    -0.284 A  
HETATM    9  C   UNL     1     -10.398  11.418  67.518  1.00  0.00    -0.224 A  
HETATM   10  C   UNL     1     -10.773  12.306  68.589  1.00  0.00    -0.233 A  
HETATM   11  N   UNL     1     -11.286  11.599  69.623  1.00  0.00    -0.258 NA 
HETATM   12  N   UNL     1     -11.286  10.318  69.215  1.00  0.00    -0.236 NA 
ENDROOT
BRANCH  10  13
HETATM   13  C   UNL     1     -10.658  13.776  68.737  1.00  0.00    -0.253 A  
HETATM   14  C   UNL     1      -9.458  14.483  68.589  1.00  0.00    -0.205 A  
HETATM   15  C   UNL     1      -9.418  15.878  68.777  1.00  0.00    -0.221 A  
HETATM   16  C   UNL     1     -11.817  14.529  69.018  1.00  0.00    -0.354 A  
HETATM   17  C   UNL     1     -10.579  16.603  69.072  1.00  0.00    -0.340 A  
HETATM   18  C   UNL     1     -11.785  15.922  69.185  1.00  0.00    -0.369 A  
BRANCH  17  19
HETATM   19  O   UNL     1     -10.404  17.944  69.329  1.00  0.00    -0.290 OA 
BRANCH  19  20
HETATM   20  C   UNL     1     -10.079  18.828  68.323  1.00  0.00    -0.383 A  
HETATM   21  C   UNL     1      -8.843  19.474  68.433  1.00  0.00    -0.389 A  
HETATM   22  C   UNL     1      -9.113  20.405  66.220  1.00  0.00    -0.181 A  
HETATM   23  C   UNL     1     -10.832  18.974  67.157  1.00  0.00    -0.473 A  
HETATM   24  C   UNL     1      -8.363  20.264  67.386  1.00  0.00    -0.396 A  
HETATM   25  C   UNL     1     -10.347  19.766  66.109  1.00  0.00    -0.627 A  
ENDBRANCH  19  20
ENDBRANCH  17  19
ENDBRANCH  10  13
BRANCH  12  26
HETATM   26  C   UNL     1     -11.713   9.252  70.122  1.00  0.00     0.027 C  
HETATM   27  C   UNL     1     -10.819   5.895  71.395  1.00  0.00    -0.271 C  
HETATM   28  C   UNL     1     -12.343   9.808  71.413  1.00  0.00    -0.480 C  
HETATM   29  C   UNL     1     -11.399   7.871  72.691  1.00  0.00    -0.408 C  
HETATM   30  C   UNL     1     -12.651   8.691  72.411  1.00  0.00    -0.426 C  
HETATM   31  O   UNL     1     -11.163   5.181  72.340  1.00  0.00    -0.198 OA 
HETATM   32  N   UNL     1     -10.913   7.278  71.446  1.00  0.00    -0.231 N  
HETATM   33  C   UNL     1     -10.556   8.268  70.410  1.00  0.00    -0.224 C  
BRANCH  27  34
HETATM   34  C   UNL     1     -10.293   5.250  70.161  1.00  0.00    -0.354 C  
HETATM   35  C   UNL     1      -9.775   4.015  70.232  1.00  0.00    -0.263 C  
ENDBRANCH  27  34
ENDBRANCH  12  26
TORSDOF 5
ENDMDL
MODEL       13
REMARK 921   NORMALIZED FREE ENERGY PREDICTED BY IDOCK:   -8.01 KCAL/MOL
REMARK 922        TOTAL FREE ENERGY PREDICTED BY IDOCK:  -10.82 KCAL/MOL
REMARK 923 INTER-LIGAND FREE ENERGY PREDICTED BY IDOCK:   -9.75 KCAL/MOL
REMARK 924 INTRA-LIGAND FREE ENERGY PREDICTED BY IDOCK:   -1.07 KCAL/MOL
REMARK 927      BINDING AFFINITY PREDICTED BY RF-SCORE:    0.00 PKD
ROOT
HETATM    1  N   UNL     1     -12.135  15.636  63.746  1.00  0.00    -1.074 NA 
HETATM    2  C   UNL     1     -12.053  14.278  64.032  1.00  0.00    -0.316 A  
HETATM    3  H1  UNL     1     -11.602  16.237  64.375  1.00  0.00     0.000 HD 
HETATM    4  H2  UNL     1     -13.111  15.933  63.714  1.00  0.00     0.000 HD 
HETATM    5  N   UNL     1     -12.759  13.481  63.198  1.00  0.00    -0.565 NA 
HETATM    6  C   UNL     1     -12.661  12.148  63.334  1.00  0.00    -0.463 A  
HETATM    7  N   UNL     1     -11.901  11.473  64.203  1.00  0.00    -0.149 NA 
HETATM    8  C   UNL     1     -11.242  12.300  65.031  1.00  0.00    -0.321 A  
HETATM    9  C   UNL     1     -11.273  13.690  65.043  1.00  0.00    -0.329 A  
HETATM   10  C   UNL     1     -10.422  14.064  66.145  1.00  0.00    -0.297 A  
HETATM   11  N   UNL     1      -9.864  12.962  66.696  1.00  0.00    -0.244 NA 
HETATM   12  N   UNL     1     -10.370  11.922  66.011  1.00  0.00    -0.225 NA 
ENDROOT
BRANCH  10  13
HETATM   13  C   UNL     1     -10.062  15.387  66.707  1.00  0.00    -0.266 A  
HETATM   14  C   UNL     1     -10.862  16.092  67.615  1.00  0.00    -0.297 A  
HETATM   15  C   UNL     1     -10.471  17.362  68.082  1.00  0.00    -0.389 A  
HETATM   16  C   UNL     1      -8.835  15.976  66.338  1.00  0.00    -0.363 A  
HETATM   17  C   UNL     1      -9.256  17.936  67.688  1.00  0.00    -0.258 A  
HETATM   18  C   UNL     1      -8.432  17.232  66.818  1.00  0.00    -0.275 A  
BRANCH  17  19
HETATM   19  O   UNL     1      -9.023  19.218  68.131  1.00  0.00    -0.303 OA 
BRANCH  19  20
HETATM   20  C   UNL     1      -7.744  19.721  68.227  1.00  0.00    -0.299 A  
HETATM   21  C   UNL     1      -7.357  20.639  67.245  1.00  0.00    -0.394 A  
HETATM   22  C   UNL     1      -5.309  21.087  68.445  1.00  0.00    -0.360 A  
HETATM   23  C   UNL     1      -6.908  19.487  69.321  1.00  0.00    -0.381 A  
HETATM   24  C   UNL     1      -6.141  21.317  67.351  1.00  0.00    -0.434 A  
HETATM   25  C   UNL     1      -5.689  20.169  69.424  1.00  0.00    -0.326 A  
ENDBRANCH  19  20
ENDBRANCH  17  19
ENDBRANCH  10  13
BRANCH  12  26
HETATM   26  C   UNL     1      -9.922  10.560  66.295  1.00  0.00    -0.221 C  
HETATM   27  C   UNL     1      -6.933   8.384  66.455  1.00  0.00    -0.074 C  
HETATM   28  C   UNL     1     -10.713   9.919  67.452  1.00  0.00    -0.323 C  
HETATM   29  C   UNL     1      -8.655   8.673  68.150  1.00  0.00    -0.141 C  
HETATM   30  C   UNL     1     -10.139   8.553  67.833  1.00  0.00    -0.258 C  
HETATM   31  O   UNL     1      -6.663   7.277  66.926  1.00  0.00    -0.060 OA 
HETATM   32  N   UNL     1      -7.943   9.179  66.978  1.00  0.00    -0.102 N  
HETATM   33  C   UNL     1      -8.395  10.511  66.531  1.00  0.00    -0.141 C  
BRANCH  27  34
HETATM   34  C   UNL     1      -6.156   8.876  65.286  1.00  0.00    -0.059 C  
HETATM   35  C   UNL     1      -5.205   9.804  65.469  1.00  0.00    -0.044 C  
ENDBRANCH  27  34
ENDBRANCH  12  26
TORSDOF 5
ENDMDL
MODEL       14
REMARK 921   NORMALIZED FREE ENERGY PREDICTED BY IDOCK:   -7.92 KCAL/MOL
REMARK 922        TOTAL FREE ENERGY PREDICTED BY IDOCK:  -10.71 KCAL/MOL
REMARK 923 INTER-LIGAND FREE ENERGY PREDICTED BY IDOCK:  -10.23 KCAL/MOL
REMARK 924 INTRA-LIGAND FREE ENERGY PREDICTED BY IDOCK:   -0.48 KCAL/MOL
REMARK 927      BINDING AFFINITY PREDICTED BY RF-SCORE:    0.00 PKD
ROOT
HETATM    1  N   UNL     1     -13.202  15.837  70.477  1.00  0.00    -0.767 NA 
HETATM    2  C   UNL     1     -13.122  14.541  70.975  1.00  0.00    -0.366 A  
HETATM    3  H1  UNL     1     -12.625  16.013  69.655  1.00  0.00     0.000 HD 
HETATM    4  H2  UNL     1     -12.989  16.512  71.212  1.00  0.00     0.000 HD 
HETATM    5  N   UNL     1     -13.888  14.306  72.064  1.00  0.00    -0.430 NA 
HETATM    6  C   UNL     1     -13.954  13.058  72.556  1.00  0.00    -0.216 A  
HETATM    7  N   UNL     1     -13.360  11.961  72.073  1.00  0.00    -0.441 NA 
HETATM    8  C   UNL     1     -12.585  12.243  71.013  1.00  0.00    -0.257 A  
HETATM    9  C   UNL     1     -12.383  13.484  70.417  1.00  0.00    -0.397 A  
HETATM   10  C   UNL     1     -11.444  13.228  69.354  1.00  0.00    -0.263 A  
HETATM   11  N   UNL     1     -11.172  11.905  69.281  1.00  0.00    -0.251 NA 
HETATM   12  N   UNL     1     -11.869  11.340  70.284  1.00  0.00    -0.341 NA 
ENDROOT
BRANCH  10  13
HETATM   13  C   UNL     1     -10.799  14.130  68.371  1.00  0.00    -0.266 A  
HETATM   14  C   UNL     1      -9.544  14.722  68.562  1.00  0.00    -0.218 A  
HETATM   15  C   UNL     1      -9.008  15.596  67.598  1.00  0.00    -0.183 A  
HETATM   16  C   UNL     1     -11.459  14.400  67.154  1.00  0.00    -0.379 A  
HETATM   17  C   UNL     1      -9.689  15.864  66.404  1.00  0.00    -0.287 A  
HETATM   18  C   UNL     1     -10.918  15.254  66.181  1.00  0.00    -0.307 A  
BRANCH  17  19
HETATM   19  O   UNL     1      -9.116  16.806  65.580  1.00  0.00    -0.489 OA 
BRANCH  19  20
HETATM   20  C   UNL     1      -9.000  18.122  65.970  1.00  0.00     0.036 A  
HETATM   21  C   UNL     1     -10.191  18.794  66.268  1.00  0.00    -0.466 A  
HETATM   22  C   UNL     1      -8.938  20.690  67.087  1.00  0.00    -0.358 A  
HETATM   23  C   UNL     1      -7.776  18.740  66.233  1.00  0.00    -0.295 A  
HETATM   24  C   UNL     1     -10.160  20.076  66.820  1.00  0.00    -0.607 A  
HETATM   25  C   UNL     1      -7.749  20.026  66.788  1.00  0.00    -0.335 A  
ENDBRANCH  19  20
ENDBRANCH  17  19
ENDBRANCH  10  13
BRANCH  12  26
HETATM   26  C   UNL     1     -11.868   9.888  70.460  1.00  0.00    -0.270 C  
HETATM   27  C   UNL     1      -9.695   6.983  71.191  1.00  0.00    -0.172 C  
HETATM   28  C   UNL     1     -13.136   9.390  71.179  1.00  0.00    -0.294 C  
HETATM   29  C   UNL     1     -11.791   7.583  72.273  1.00  0.00    -0.289 C  
HETATM   30  C   UNL     1     -13.055   7.894  71.485  1.00  0.00    -0.343 C  
HETATM   31  O   UNL     1      -9.863   5.809  71.529  1.00  0.00    -0.164 OA 
HETATM   32  N   UNL     1     -10.618   7.974  71.492  1.00  0.00    -0.221 N  
HETATM   33  C   UNL     1     -10.573   9.412  71.158  1.00  0.00    -0.333 C  
BRANCH  27  34
HETATM   34  C   UNL     1      -8.468   7.344  70.432  1.00  0.00    -0.142 C  
HETATM   35  C   UNL     1      -7.933   6.456  69.581  1.00  0.00    -0.116 C  
ENDBRANCH  27  34
ENDBRANCH  12  26
TORSDOF 5
ENDMDL
MODEL       15
REMARK 921   NORMALIZED FREE ENERGY PREDICTED BY IDOCK:   -7.87 KCAL/MOL
REMARK 922        TOTAL FREE ENERGY PREDICTED BY IDOCK:  -10.65 KCAL/MOL
REMARK 923 INTER-LIGAND FREE ENERGY PREDICTED BY IDOCK:   -9.93 KCAL/MOL
REMARK 924 INTRA-LIGAND FREE ENERGY PREDICTED BY IDOCK:   -0.71 KCAL/MOL
REMARK 927      BINDING AFFINITY PREDICTED BY RF-SCORE:    0.00 PKD
ROOT
HETATM    1  N   UNL     1     -13.557  15.841  70.624  1.00  0.00    -0.700 NA 
HETATM    2  C   UNL     1     -13.284  14.526  70.983  1.00  0.00    -0.354 A  
HETATM    3  H1  UNL     1     -13.022  16.185  69.827  1.00  0.00     0.000 HD 
HETATM    4  H2  UNL     1     -13.435  16.459  71.427  1.00  0.00     0.000 HD 
HETATM    5  N   UNL     1     -13.993  14.069  72.039  1.00  0.00    -0.478 NA 
HETATM    6  C   UNL     1     -13.870  12.780  72.397  1.00  0.00    -0.263 A  
HETATM    7  N   UNL     1     -13.130  11.838  71.803  1.00  0.00    -0.445 NA 
HETATM    8  C   UNL     1     -12.418  12.340  70.780  1.00  0.00    -0.265 A  
HETATM    9  C   UNL     1     -12.406  13.651  70.319  1.00  0.00    -0.392 A  
HETATM   10  C   UNL     1     -11.454  13.648  69.237  1.00  0.00    -0.291 A  
HETATM   11  N   UNL     1     -10.993  12.393  69.025  1.00  0.00    -0.225 NA 
HETATM   12  N   UNL     1     -11.588  11.631  69.961  1.00  0.00    -0.285 NA 
ENDROOT
BRANCH  10  13
HETATM   13  C   UNL     1     -10.959  14.732  68.355  1.00  0.00    -0.259 A  
HETATM   14  C   UNL     1     -10.987  14.672  66.956  1.00  0.00    -0.317 A  
HETATM   15  C   UNL     1     -10.467  15.727  66.182  1.00  0.00    -0.326 A  
HETATM   16  C   UNL     1     -10.450  15.910  68.939  1.00  0.00    -0.233 A  
HETATM   17  C   UNL     1      -9.951  16.881  66.783  1.00  0.00    -0.289 A  
HETATM   18  C   UNL     1      -9.951  16.973  68.170  1.00  0.00    -0.287 A  
BRANCH  17  19
HETATM   19  O   UNL     1      -9.385  17.803  65.932  1.00  0.00    -0.514 OA 
BRANCH  19  20
HETATM   20  C   UNL     1      -8.271  18.526  66.299  1.00  0.00    -0.225 A  
HETATM   21  C   UNL     1      -7.028  17.959  65.994  1.00  0.00    -0.346 A  
HETATM   22  C   UNL     1      -5.914  19.992  66.675  1.00  0.00    -0.189 A  
HETATM   23  C   UNL     1      -8.331  19.830  66.794  1.00  0.00    -0.354 A  
HETATM   24  C   UNL     1      -5.852  18.688  66.185  1.00  0.00    -0.195 A  
HETATM   25  C   UNL     1      -7.150  20.559  66.984  1.00  0.00    -0.351 A  
ENDBRANCH  19  20
ENDBRANCH  17  19
ENDBRANCH  10  13
BRANCH  12  26
HETATM   26  C   UNL     1     -11.374  10.185  69.984  1.00  0.00    -0.287 C  
HETATM   27  C   UNL     1      -9.754   7.390  68.178  1.00  0.00    -0.151 C  
HETATM   28  C   UNL     1     -11.187   9.649  71.416  1.00  0.00    -0.426 C  
HETATM   29  C   UNL     1      -9.593   7.923  70.548  1.00  0.00    -0.170 C  
HETATM   30  C   UNL     1     -10.821   8.164  71.414  1.00  0.00    -0.281 C  
HETATM   31  O   UNL     1      -9.467   6.217  68.428  1.00  0.00    -0.119 OA 
HETATM   32  N   UNL     1      -9.870   8.347  69.176  1.00  0.00    -0.178 N  
HETATM   33  C   UNL     1     -10.211   9.778  69.049  1.00  0.00    -0.203 C  
BRANCH  27  34
HETATM   34  C   UNL     1      -9.989   7.786  66.764  1.00  0.00    -0.331 C  
HETATM   35  C   UNL     1      -8.941   8.038  65.966  1.00  0.00    -0.205 C  
ENDBRANCH  27  34
ENDBRANCH  12  26
TORSDOF 5
ENDMDL
MODEL       16
REMARK 921   NORMALIZED FREE ENERGY PREDICTED BY IDOCK:   -7.84 KCAL/MOL
REMARK 922        TOTAL FREE ENERGY PREDICTED BY IDOCK:  -10.61 KCAL/MOL
REMARK 923 INTER-LIGAND FREE ENERGY PREDICTED BY IDOCK:   -9.36 KCAL/MOL
REMARK 924 INTRA-LIGAND FREE ENERGY PREDICTED BY IDOCK:   -1.25 KCAL/MOL
REMARK 927      BINDING AFFINITY PREDICTED BY RF-SCORE:    0.00 PKD
ROOT
HETATM    1  N   UNL     1     -12.237  12.271  70.700  1.00  0.00    -0.419 NA 
HETATM    2  C   UNL     1     -12.090  13.651  70.613  1.00  0.00    -0.323 A  
HETATM    3  H1  UNL     1     -11.806  11.748  69.938  1.00  0.00     0.000 HD 
HETATM    4  H2  UNL     1     -13.224  12.025  70.787  1.00  0.00     0.000 HD 
HETATM    5  N   UNL     1     -12.661  14.345  71.624  1.00  0.00    -0.338 NA 
HETATM    6  C   UNL     1     -12.486  15.676  71.679  1.00  0.00    -0.438 A  
HETATM    7  N   UNL     1     -11.767  16.436  70.847  1.00  0.00    -0.225 NA 
HETATM    8  C   UNL     1     -11.245  15.715  69.842  1.00  0.00    -0.331 A  
HETATM    9  C   UNL     1     -11.371  14.347  69.627  1.00  0.00    -0.309 A  
HETATM   10  C   UNL     1     -10.653  14.104  68.400  1.00  0.00    -0.259 A  
HETATM   11  N   UNL     1     -10.075  15.247  67.965  1.00  0.00    -0.227 NA 
HETATM   12  N   UNL     1     -10.445  16.194  68.846  1.00  0.00    -0.241 NA 
ENDROOT
BRANCH  10  13
HETATM   13  C   UNL     1     -10.437  12.867  67.613  1.00  0.00    -0.228 A  
HETATM   14  C   UNL     1     -11.246  12.475  66.540  1.00  0.00    -0.356 A  
HETATM   15  C   UNL     1     -11.001  11.267  65.858  1.00  0.00    -0.221 A  
HETATM   16  C   UNL     1      -9.343  12.036  67.932  1.00  0.00    -0.190 A  
HETATM   17  C   UNL     1      -9.918  10.448  66.203  1.00  0.00    -0.231 A  
HETATM   18  C   UNL     1      -9.082  10.842  67.241  1.00  0.00    -0.146 A  
BRANCH  17  19
HETATM   19  O   UNL     1      -9.832   9.249  65.533  1.00  0.00    -0.265 OA 
BRANCH  19  20
HETATM   20  C   UNL     1      -9.692   8.058  66.213  1.00  0.00    -0.126 A  
HETATM   21  C   UNL     1     -10.755   7.683  67.042  1.00  0.00    -0.340 A  
HETATM   22  C   UNL     1      -9.726   5.529  67.413  1.00  0.00    -0.147 A  
HETATM   23  C   UNL     1      -8.645   7.164  65.985  1.00  0.00    -0.158 A  
HETATM   24  C   UNL     1     -10.770   6.423  67.645  1.00  0.00    -0.387 A  
HETATM   25  C   UNL     1      -8.664   5.901  66.591  1.00  0.00    -0.121 A  
ENDBRANCH  19  20
ENDBRANCH  17  19
ENDBRANCH  10  13
BRANCH  12  26
HETATM   26  C   UNL     1      -9.934  17.558  68.724  1.00  0.00    -0.342 C  
HETATM   27  C   UNL     1      -6.841  19.589  68.736  1.00  0.00    -0.322 C  
HETATM   28  C   UNL     1     -10.725  18.383  67.690  1.00  0.00    -0.390 C  
HETATM   29  C   UNL     1      -8.627  19.608  67.082  1.00  0.00    -0.308 C  
HETATM   30  C   UNL     1     -10.092  19.757  67.468  1.00  0.00    -0.554 C  
HETATM   31  O   UNL     1      -6.526  20.734  68.401  1.00  0.00    -0.300 OA 
HETATM   32  N   UNL     1      -7.906  18.919  68.152  1.00  0.00    -0.287 N  
HETATM   33  C   UNL     1      -8.415  17.563  68.439  1.00  0.00    -0.275 C  
BRANCH  27  34
HETATM   34  C   UNL     1      -6.055  18.910  69.801  1.00  0.00    -0.272 C  
HETATM   35  C   UNL     1      -5.632  19.616  70.860  1.00  0.00    -0.284 C  
ENDBRANCH  27  34
ENDBRANCH  12  26
TORSDOF 5
ENDMDL
MODEL       17
REMARK 921   NORMALIZED FREE ENERGY PREDICTED BY IDOCK:   -7.76 KCAL/MOL
REMARK 922        TOTAL FREE ENERGY PREDICTED BY IDOCK:  -10.50 KCAL/MOL
REMARK 923 INTER-LIGAND FREE ENERGY PREDICTED BY IDOCK:   -9.34 KCAL/MOL
REMARK 924 INTRA-LIGAND FREE ENERGY PREDICTED BY IDOCK:   -1.16 KCAL/MOL
REMARK 927      BINDING AFFINITY PREDICTED BY RF-SCORE:    0.00 PKD
ROOT
HETATM    1  N   UNL     1     -11.990  12.571  70.356  1.00  0.00    -0.519 NA 
HETATM    2  C   UNL     1     -11.817  13.950  70.392  1.00  0.00    -0.265 A  
HETATM    3  H1  UNL     1     -11.655  12.121  69.504  1.00  0.00     0.000 HD 
HETATM    4  H2  UNL     1     -12.969  12.333  70.521  1.00  0.00     0.000 HD 
HETATM    5  N   UNL     1     -12.261  14.546  71.520  1.00  0.00    -0.344 NA 
HETATM    6  C   UNL     1     -12.046  15.862  71.689  1.00  0.00    -0.484 A  
HETATM    7  N   UNL     1     -11.397  16.691  70.866  1.00  0.00    -0.071 NA 
HETATM    8  C   UNL     1     -11.000  16.067  69.745  1.00  0.00    -0.334 A  
HETATM    9  C   UNL     1     -11.184  14.731  69.409  1.00  0.00    -0.308 A  
HETATM   10  C   UNL     1     -10.603  14.602  68.096  1.00  0.00    -0.237 A  
HETATM   11  N   UNL     1     -10.043  15.774  67.718  1.00  0.00    -0.236 NA 
HETATM   12  N   UNL     1     -10.294  16.632  68.723  1.00  0.00    -0.280 NA 
ENDROOT
BRANCH  10  13
HETATM   13  C   UNL     1     -10.502  13.448  67.171  1.00  0.00    -0.249 A  
HETATM   14  C   UNL     1     -11.551  13.011  66.352  1.00  0.00    -0.413 A  
HETATM   15  C   UNL     1     -11.393  11.885  65.522  1.00  0.00    -0.334 A  
HETATM   16  C   UNL     1      -9.280  12.751  67.078  1.00  0.00    -0.221 A  
HETATM   17  C   UNL     1     -10.174  11.197  65.458  1.00  0.00    -0.263 A  
HETATM   18  C   UNL     1      -9.112  11.641  66.236  1.00  0.00    -0.219 A  
BRANCH  17  19
HETATM   19  O   UNL     1     -10.166  10.057  64.687  1.00  0.00    -0.201 OA 
BRANCH  19  20
HETATM   20  C   UNL     1      -9.007   9.601  64.098  1.00  0.00    -0.229 A  
HETATM   21  C   UNL     1      -8.514  10.351  63.025  1.00  0.00    -0.180 A  
HETATM   22  C   UNL     1      -6.502   9.013  62.991  1.00  0.00    -0.090 A  
HETATM   23  C   UNL     1      -8.243   8.554  64.616  1.00  0.00    -0.162 A  
HETATM   24  C   UNL     1      -7.266  10.056  62.470  1.00  0.00    -0.134 A  
HETATM   25  C   UNL     1      -6.993   8.260  64.058  1.00  0.00    -0.075 A  
ENDBRANCH  19  20
ENDBRANCH  17  19
ENDBRANCH  10  13
BRANCH  12  26
HETATM   26  C   UNL     1      -9.763  17.993  68.684  1.00  0.00    -0.350 C  
HETATM   27  C   UNL     1      -6.640  19.973  68.836  1.00  0.00    -0.315 C  
HETATM   28  C   UNL     1     -10.533  18.888  67.694  1.00  0.00    -0.514 C  
HETATM   29  C   UNL     1      -8.412  20.115  67.174  1.00  0.00    -0.342 C  
HETATM   30  C   UNL     1      -9.878  20.264  67.556  1.00  0.00    -0.576 C  
HETATM   31  O   UNL     1      -6.306  21.130  68.571  1.00  0.00    -0.198 OA 
HETATM   32  N   UNL     1      -7.710  19.355  68.207  1.00  0.00    -0.309 N  
HETATM   33  C   UNL     1      -8.241  17.992  68.411  1.00  0.00    -0.298 C  
BRANCH  27  34
HETATM   34  C   UNL     1      -5.873  19.222  69.865  1.00  0.00    -0.282 C  
HETATM   35  C   UNL     1      -5.413  19.867  70.947  1.00  0.00    -0.303 C  
ENDBRANCH  27  34
ENDBRANCH  12  26
TORSDOF 5
ENDMDL
MODEL       18
REMARK 921   NORMALIZED FREE ENERGY PREDICTED BY IDOCK:   -7.74 KCAL/MOL
REMARK 922        TOTAL FREE ENERGY PREDICTED BY IDOCK:  -10.48 KCAL/MOL
REMARK 923 INTER-LIGAND FREE ENERGY PREDICTED BY IDOCK:   -9.92 KCAL/MOL
REMARK 924 INTRA-LIGAND FREE ENERGY PREDICTED BY IDOCK:   -0.56 KCAL/MOL
REMARK 927      BINDING AFFINITY PREDICTED BY RF-SCORE:    0.00 PKD
ROOT
HETATM    1  N   UNL     1     -12.178  15.446  64.147  1.00  0.00    -0.825 NA 
HETATM    2  C   UNL     1     -11.855  14.100  64.282  1.00  0.00    -0.397 A  
HETATM    3  H1  UNL     1     -11.681  16.069  64.783  1.00  0.00     0.000 HD 
HETATM    4  H2  UNL     1     -13.186  15.578  64.236  1.00  0.00     0.000 HD 
HETATM    5  N   UNL     1     -12.514  13.274  63.439  1.00  0.00    -0.744 NA 
HETATM    6  C   UNL     1     -12.195  11.969  63.426  1.00  0.00    -0.519 A  
HETATM    7  N   UNL     1     -11.251  11.355  64.148  1.00  0.00    -0.313 NA 
HETATM    8  C   UNL     1     -10.644  12.204  64.993  1.00  0.00    -0.291 A  
HETATM    9  C   UNL     1     -10.890  13.563  65.151  1.00  0.00    -0.336 A  
HETATM   10  C   UNL     1      -9.995  13.975  66.203  1.00  0.00    -0.312 A  
HETATM   11  N   UNL     1      -9.215  12.937  66.584  1.00  0.00    -0.240 NA 
HETATM   12  N   UNL     1      -9.624  11.891  65.844  1.00  0.00    -0.234 NA 
ENDROOT
BRANCH  10  13
HETATM   13  C   UNL     1      -9.787  15.285  66.864  1.00  0.00    -0.242 A  
HETATM   14  C   UNL     1     -10.804  16.006  67.503  1.00  0.00    -0.292 A  
HETATM   15  C   UNL     1     -10.540  17.262  68.081  1.00  0.00    -0.386 A  
HETATM   16  C   UNL     1      -8.493  15.845  66.882  1.00  0.00    -0.275 A  
HETATM   17  C   UNL     1      -9.249  17.807  68.073  1.00  0.00    -0.273 A  
HETATM   18  C   UNL     1      -8.221  17.087  67.476  1.00  0.00    -0.192 A  
BRANCH  17  19
HETATM   19  O   UNL     1      -9.129  19.080  68.581  1.00  0.00    -0.345 OA 
BRANCH  19  20
HETATM   20  C   UNL     1      -7.997  19.834  68.361  1.00  0.00    -0.280 A  
HETATM   21  C   UNL     1      -6.963  19.697  69.293  1.00  0.00    -0.375 A  
HETATM   22  C   UNL     1      -5.509  21.035  67.903  1.00  0.00    -0.348 A  
HETATM   23  C   UNL     1      -7.783  20.576  67.198  1.00  0.00    -0.368 A  
HETATM   24  C   UNL     1      -5.723  20.299  69.067  1.00  0.00    -0.323 A  
HETATM   25  C   UNL     1      -6.539  21.178  66.974  1.00  0.00    -0.405 A  
ENDBRANCH  19  20
ENDBRANCH  17  19
ENDBRANCH  10  13
BRANCH  12  26
HETATM   26  C   UNL     1      -8.942  10.602  65.943  1.00  0.00    -0.175 C  
HETATM   27  C   UNL     1      -9.472   6.999  66.599  1.00  0.00    -0.165 C  
HETATM   28  C   UNL     1      -7.808  10.465  64.909  1.00  0.00    -0.099 C  
HETATM   29  C   UNL     1      -8.286   8.013  64.731  1.00  0.00    -0.121 C  
HETATM   30  C   UNL     1      -7.200   9.061  64.928  1.00  0.00    -0.095 C  
HETATM   31  O   UNL     1      -8.826   5.961  66.439  1.00  0.00    -0.125 OA 
HETATM   32  N   UNL     1      -9.271   8.119  65.806  1.00  0.00    -0.095 N  
HETATM   33  C   UNL     1      -9.948   9.431  65.870  1.00  0.00    -0.256 C  
BRANCH  27  34
HETATM   34  C   UNL     1     -10.493   7.050  67.679  1.00  0.00    -0.301 C  
HETATM   35  C   UNL     1     -10.116   6.871  68.953  1.00  0.00    -0.174 C  
ENDBRANCH  27  34
ENDBRANCH  12  26
TORSDOF 5
ENDMDL
MODEL       19
REMARK 921   NORMALIZED FREE ENERGY PREDICTED BY IDOCK:   -7.58 KCAL/MOL
REMARK 922        TOTAL FREE ENERGY PREDICTED BY IDOCK:  -10.27 KCAL/MOL
REMARK 923 INTER-LIGAND FREE ENERGY PREDICTED BY IDOCK:   -9.54 KCAL/MOL
REMARK 924 INTRA-LIGAND FREE ENERGY PREDICTED BY IDOCK:   -0.73 KCAL/MOL
REMARK 927      BINDING AFFINITY PREDICTED BY RF-SCORE:    0.00 PKD
ROOT
HETATM    1  N   UNL     1      -9.599   7.902  67.021  1.00  0.00    -0.177 NA 
HETATM    2  C   UNL     1      -9.689   9.159  66.435  1.00  0.00    -0.262 A  
HETATM    3  H1  UNL     1      -9.908   7.861  67.992  1.00  0.00     0.000 HD 
HETATM    4  H2  UNL     1      -8.649   7.539  66.936  1.00  0.00     0.000 HD 
HETATM    5  N   UNL     1      -9.279   9.214  65.148  1.00  0.00    -0.196 NA 
HETATM    6  C   UNL     1      -9.422  10.363  64.468  1.00  0.00    -0.286 A  
HETATM    7  N   UNL     1      -9.967  11.504  64.904  1.00  0.00    -0.250 NA 
HETATM    8  C   UNL     1     -10.331  11.417  66.194  1.00  0.00    -0.248 A  
HETATM    9  C   UNL     1     -10.210  10.318  67.037  1.00  0.00    -0.282 A  
HETATM   10  C   UNL     1     -10.714  10.776  68.307  1.00  0.00    -0.213 A  
HETATM   11  N   UNL     1     -11.177  12.043  68.195  1.00  0.00    -0.240 NA 
HETATM   12  N   UNL     1     -10.936  12.401  66.921  1.00  0.00    -0.255 NA 
ENDROOT
BRANCH  10  13
HETATM   13  C   UNL     1     -10.829  10.103  69.623  1.00  0.00    -0.299 A  
HETATM   14  C   UNL     1      -9.747   9.528  70.301  1.00  0.00    -0.314 A  
HETATM   15  C   UNL     1      -9.937   8.875  71.533  1.00  0.00    -0.391 A  
HETATM   16  C   UNL     1     -12.087  10.050  70.257  1.00  0.00    -0.226 A  
HETATM   17  C   UNL     1     -11.200   8.820  72.137  1.00  0.00    -0.338 A  
HETATM   18  C   UNL     1     -12.277   9.419  71.496  1.00  0.00    -0.448 A  
BRANCH  17  19
HETATM   19  O   UNL     1     -11.284   8.074  73.291  1.00  0.00    -0.262 OA 
BRANCH  19  20
HETATM   20  C   UNL     1     -10.698   6.831  73.384  1.00  0.00    -0.305 A  
HETATM   21  C   UNL     1     -11.112   5.873  72.452  1.00  0.00    -0.328 A  
HETATM   22  C   UNL     1      -9.389   4.361  73.215  1.00  0.00    -0.132 A  
HETATM   23  C   UNL     1      -9.627   6.549  74.234  1.00  0.00    -0.280 A  
HETATM   24  C   UNL     1     -10.462   4.639  72.370  1.00  0.00    -0.250 A  
HETATM   25  C   UNL     1      -8.977   5.311  74.149  1.00  0.00    -0.118 A  
ENDBRANCH  19  20
ENDBRANCH  17  19
ENDBRANCH  10  13
BRANCH  12  26
HETATM   26  C   UNL     1     -11.378  13.702  66.422  1.00  0.00    -0.316 C  
HETATM   27  C   UNL     1     -10.400  17.257  66.110  1.00  0.00    -0.317 C  
HETATM   28  C   UNL     1     -12.160  13.580  65.100  1.00  0.00    -0.432 C  
HETATM   29  C   UNL     1     -11.220  15.780  64.358  1.00  0.00    -0.236 C  
HETATM   30  C   UNL     1     -12.490  14.955  64.516  1.00  0.00    -0.223 C  
HETATM   31  O   UNL     1     -10.785  18.232  65.461  1.00  0.00    -0.596 OA 
HETATM   32  N   UNL     1     -10.585  15.957  65.663  1.00  0.00    -0.366 N  
HETATM   33  C   UNL     1     -10.195  14.691  66.315  1.00  0.00    -0.292 C  
BRANCH  27  34
HETATM   34  C   UNL     1      -9.722  17.485  67.414  1.00  0.00    -0.274 C  
HETATM   35  C   UNL     1     -10.027  18.573  68.136  1.00  0.00    -0.393 C  
ENDBRANCH  27  34
ENDBRANCH  12  26
TORSDOF 5
ENDMDL
MODEL       20
REMARK 921   NORMALIZED FREE ENERGY PREDICTED BY IDOCK:   -7.58 KCAL/MOL
REMARK 922        TOTAL FREE ENERGY PREDICTED BY IDOCK:  -10.27 KCAL/MOL
REMARK 923 INTER-LIGAND FREE ENERGY PREDICTED BY IDOCK:  -10.25 KCAL/MOL
REMARK 924 INTRA-LIGAND FREE ENERGY PREDICTED BY IDOCK:   -0.01 KCAL/MOL
REMARK 927      BINDING AFFINITY PREDICTED BY RF-SCORE:    0.00 PKD
ROOT
HETATM    1  N   UNL     1      -8.376  11.068  64.040  1.00  0.00    -0.358 NA 
HETATM    2  C   UNL     1      -8.937  10.192  64.962  1.00  0.00    -0.195 A  
HETATM    3  H1  UNL     1      -8.601  12.051  64.194  1.00  0.00     0.000 HD 
HETATM    4  H2  UNL     1      -8.628  10.792  63.090  1.00  0.00     0.000 HD 
HETATM    5  N   UNL     1      -8.639   8.890  64.757  1.00  0.00    -0.176 NA 
HETATM    6  C   UNL     1      -9.053   7.979  65.654  1.00  0.00     0.007 A  
HETATM    7  N   UNL     1      -9.726   8.202  66.788  1.00  0.00    -0.214 NA 
HETATM    8  C   UNL     1     -10.029   9.502  66.937  1.00  0.00    -0.216 A  
HETATM    9  C   UNL     1      -9.709  10.550  66.081  1.00  0.00    -0.259 A  
HETATM   10  C   UNL     1     -10.299  11.714  66.693  1.00  0.00    -0.222 A  
HETATM   11  N   UNL     1     -10.864  11.381  67.876  1.00  0.00    -0.210 NA 
HETATM   12  N   UNL     1     -10.687  10.053  67.997  1.00  0.00    -0.240 NA 
ENDROOT
BRANCH  10  13
HETATM   13  C   UNL     1     -10.350  13.133  66.269  1.00  0.00    -0.291 A  
HETATM   14  C   UNL     1      -9.293  14.036  66.443  1.00  0.00    -0.242 A  
HETATM   15  C   UNL     1      -9.425  15.380  66.045  1.00  0.00    -0.381 A  
HETATM   16  C   UNL     1     -11.510  13.615  65.629  1.00  0.00    -0.320 A  
HETATM   17  C   UNL     1     -10.593  15.842  65.426  1.00  0.00    -0.421 A  
HETATM   18  C   UNL     1     -11.636  14.949  65.211  1.00  0.00    -0.300 A  
BRANCH  17  19
HETATM   19  O   UNL     1     -10.646  17.193  65.168  1.00  0.00    -0.695 OA 
BRANCH  19  20
HETATM   20  C   UNL     1     -10.511  18.120  66.178  1.00  0.00    -0.364 A  
HETATM   21  C   UNL     1     -10.466  17.620  67.485  1.00  0.00    -0.365 A  
HETATM   22  C   UNL     1      -9.917  19.817  68.325  1.00  0.00    -0.557 A  
HETATM   23  C   UNL     1     -10.258  19.473  65.949  1.00  0.00    -0.508 A  
HETATM   24  C   UNL     1     -10.174  18.467  68.556  1.00  0.00    -0.394 A  
HETATM   25  C   UNL     1      -9.965  20.320  67.026  1.00  0.00    -0.601 A  
ENDBRANCH  19  20
ENDBRANCH  17  19
ENDBRANCH  10  13
BRANCH  12  26
HETATM   26  C   UNL     1     -11.115   9.356  69.209  1.00  0.00    -0.045 C  
HETATM   27  C   UNL     1     -10.593   6.296  71.223  1.00  0.00    -0.236 C  
HETATM   28  C   UNL     1     -11.390  10.330  70.372  1.00  0.00    -0.410 C  
HETATM   29  C   UNL     1     -10.574   8.604  71.993  1.00  0.00    -0.351 C  
HETATM   30  C   UNL     1     -11.696   9.580  71.669  1.00  0.00    -0.460 C  
HETATM   31  O   UNL     1     -10.874   5.923  72.364  1.00  0.00    -0.219 OA 
HETATM   32  N   UNL     1     -10.437   7.637  70.905  1.00  0.00    -0.206 N  
HETATM   33  C   UNL     1     -10.113   8.246  69.600  1.00  0.00    -0.199 C  
BRANCH  27  34
HETATM   34  C   UNL     1     -10.423   5.274  70.155  1.00  0.00    -0.338 C  
HETATM   35  C   UNL     1      -9.646   4.205  70.381  1.00  0.00    -0.266 C  
ENDBRANCH  27  34
ENDBRANCH  12  26
TORSDOF 5
ENDMDL
MODEL       21
REMARK 921   NORMALIZED FREE ENERGY PREDICTED BY IDOCK:   -7.53 KCAL/MOL
REMARK 922        TOTAL FREE ENERGY PREDICTED BY IDOCK:  -10.21 KCAL/MOL
REMARK 923 INTER-LIGAND FREE ENERGY PREDICTED BY IDOCK:   -9.59 KCAL/MOL
REMARK 924 INTRA-LIGAND FREE ENERGY PREDICTED BY IDOCK:   -0.62 KCAL/MOL
REMARK 927      BINDING AFFINITY PREDICTED BY RF-SCORE:    0.00 PKD
ROOT
HETATM    1  N   UNL     1     -12.883  12.612  65.011  1.00  0.00    -0.816 NA 
HETATM    2  C   UNL     1     -12.175  13.804  65.118  1.00  0.00    -0.431 A  
HETATM    3  H1  UNL     1     -12.688  11.934  65.747  1.00  0.00     0.000 HD 
HETATM    4  H2  UNL     1     -12.733  12.193  64.093  1.00  0.00     0.000 HD 
HETATM    5  N   UNL     1     -12.434  14.704  64.142  1.00  0.00    -0.796 NA 
HETATM    6  C   UNL     1     -11.873  15.923  64.216  1.00  0.00    -0.071 A  
HETATM    7  N   UNL     1     -11.082  16.396  65.185  1.00  0.00    -0.328 NA 
HETATM    8  C   UNL     1     -10.825  15.462  66.116  1.00  0.00    -0.313 A  
HETATM    9  C   UNL     1     -11.294  14.154  66.155  1.00  0.00    -0.337 A  
HETATM   10  C   UNL     1     -10.690  13.587  67.334  1.00  0.00    -0.263 A  
HETATM   11  N   UNL     1      -9.973  14.529  67.990  1.00  0.00    -0.219 NA 
HETATM   12  N   UNL     1     -10.072  15.640  67.239  1.00  0.00    -0.251 NA 
ENDROOT
BRANCH  10  13
HETATM   13  C   UNL     1     -10.758  12.227  67.920  1.00  0.00    -0.243 A  
HETATM   14  C   UNL     1     -11.228  11.957  69.211  1.00  0.00    -0.304 A  
HETATM   15  C   UNL     1     -11.232  10.642  69.714  1.00  0.00    -0.363 A  
HETATM   16  C   UNL     1     -10.354  11.125  67.139  1.00  0.00    -0.249 A  
HETATM   17  C   UNL     1     -10.810   9.563  68.926  1.00  0.00    -0.150 A  
HETATM   18  C   UNL     1     -10.376   9.810  67.629  1.00  0.00    -0.281 A  
BRANCH  17  19
HETATM   19  O   UNL     1     -10.767   8.339  69.553  1.00  0.00    -0.227 OA 
BRANCH  19  20
HETATM   20  C   UNL     1     -10.217   7.237  68.934  1.00  0.00    -0.193 A  
HETATM   21  C   UNL     1     -11.107   6.376  68.283  1.00  0.00    -0.359 A  
HETATM   22  C   UNL     1      -9.254   5.134  67.356  1.00  0.00    -0.121 A  
HETATM   23  C   UNL     1      -8.842   7.042  68.794  1.00  0.00    -0.129 A  
HETATM   24  C   UNL     1     -10.627   5.325  67.499  1.00  0.00    -0.147 A  
HETATM   25  C   UNL     1      -8.364   5.987  68.007  1.00  0.00    -0.116 A  
ENDBRANCH  19  20
ENDBRANCH  17  19
ENDBRANCH  10  13
BRANCH  12  26
HETATM   26  C   UNL     1      -9.470  16.894  67.691  1.00  0.00    -0.241 C  
HETATM   27  C   UNL     1      -6.993  19.495  66.799  1.00  0.00    -0.196 C  
HETATM   28  C   UNL     1     -10.492  17.807  68.396  1.00  0.00    -0.351 C  
HETATM   29  C   UNL     1      -9.308  19.816  67.480  1.00  0.00    -0.340 C  
HETATM   30  C   UNL     1      -9.885  19.170  68.732  1.00  0.00    -0.502 C  
HETATM   31  O   UNL     1      -6.729  20.639  67.176  1.00  0.00    -0.247 OA 
HETATM   32  N   UNL     1      -8.266  18.955  66.922  1.00  0.00    -0.260 N  
HETATM   33  C   UNL     1      -8.743  17.613  66.532  1.00  0.00    -0.263 C  
BRANCH  27  34
HETATM   34  C   UNL     1      -5.912  18.668  66.199  1.00  0.00    -0.202 C  
HETATM   35  C   UNL     1      -5.622  18.804  64.897  1.00  0.00    -0.279 C  
ENDBRANCH  27  34
ENDBRANCH  12  26
TORSDOF 5
ENDMDL
MODEL       22
REMARK 921   NORMALIZED FREE ENERGY PREDICTED BY IDOCK:   -7.51 KCAL/MOL
REMARK 922        TOTAL FREE ENERGY PREDICTED BY IDOCK:  -10.18 KCAL/MOL
REMARK 923 INTER-LIGAND FREE ENERGY PREDICTED BY IDOCK:   -9.52 KCAL/MOL
REMARK 924 INTRA-LIGAND FREE ENERGY PREDICTED BY IDOCK:   -0.66 KCAL/MOL
REMARK 927      BINDING AFFINITY PREDICTED BY RF-SCORE:    0.00 PKD
ROOT
HETATM    1  N   UNL     1      -8.403  10.599  64.818  1.00  0.00    -0.320 NA 
HETATM    2  C   UNL     1      -8.965   9.672  65.689  1.00  0.00    -0.169 A  
HETATM    3  H1  UNL     1      -8.670  11.567  64.996  1.00  0.00     0.000 HD 
HETATM    4  H2  UNL     1      -8.610  10.345  63.851  1.00  0.00     0.000 HD 
HETATM    5  N   UNL     1      -8.612   8.389  65.454  1.00  0.00    -0.176 NA 
HETATM    6  C   UNL     1      -9.025   7.434  66.305  1.00  0.00    -0.162 A  
HETATM    7  N   UNL     1      -9.747   7.595  67.419  1.00  0.00    -0.151 NA 
HETATM    8  C   UNL     1     -10.103   8.878  67.598  1.00  0.00    -0.218 A  
HETATM    9  C   UNL     1      -9.790   9.964  66.789  1.00  0.00    -0.256 A  
HETATM   10  C   UNL     1     -10.446  11.085  67.416  1.00  0.00    -0.218 A  
HETATM   11  N   UNL     1     -11.041  10.692  68.566  1.00  0.00    -0.244 NA 
HETATM   12  N   UNL     1     -10.819   9.368  68.650  1.00  0.00    -0.159 NA 
ENDROOT
BRANCH  10  13
HETATM   13  C   UNL     1     -10.533  12.515  67.036  1.00  0.00    -0.246 A  
HETATM   14  C   UNL     1     -11.738  13.220  66.928  1.00  0.00    -0.437 A  
HETATM   15  C   UNL     1     -11.746  14.571  66.529  1.00  0.00    -0.380 A  
HETATM   16  C   UNL     1      -9.343  13.231  66.789  1.00  0.00    -0.254 A  
HETATM   17  C   UNL     1     -10.553  15.258  66.272  1.00  0.00    -0.309 A  
HETATM   18  C   UNL     1      -9.346  14.582  66.412  1.00  0.00    -0.300 A  
BRANCH  17  19
HETATM   19  O   UNL     1     -10.687  16.543  65.797  1.00  0.00    -0.310 OA 
BRANCH  19  20
HETATM   20  C   UNL     1     -10.390  17.632  66.587  1.00  0.00    -0.333 A  
HETATM   21  C   UNL     1     -10.480  18.889  65.979  1.00  0.00    -0.507 A  
HETATM   22  C   UNL     1     -10.140  19.965  68.115  1.00  0.00    -0.569 A  
HETATM   23  C   UNL     1     -10.173  17.545  67.963  1.00  0.00    -0.354 A  
HETATM   24  C   UNL     1     -10.352  20.053  66.740  1.00  0.00    -0.564 A  
HETATM   25  C   UNL     1     -10.045  18.715  68.723  1.00  0.00    -0.398 A  
ENDBRANCH  19  20
ENDBRANCH  17  19
ENDBRANCH  10  13
BRANCH  12  26
HETATM   26  C   UNL     1     -11.266   8.616  69.822  1.00  0.00     0.016 C  
HETATM   27  C   UNL     1     -10.397   5.796  72.055  1.00  0.00    -0.208 C  
HETATM   28  C   UNL     1     -11.929   9.524  70.875  1.00  0.00    -0.372 C  
HETATM   29  C   UNL     1     -11.013   8.063  72.692  1.00  0.00    -0.382 C  
HETATM   30  C   UNL     1     -12.260   8.750  72.153  1.00  0.00    -0.448 C  
HETATM   31  O   UNL     1     -10.762   5.392  73.161  1.00  0.00    -0.222 OA 
HETATM   32  N   UNL     1     -10.496   7.131  71.691  1.00  0.00    -0.199 N  
HETATM   33  C   UNL     1     -10.115   7.773  70.416  1.00  0.00    -0.194 C  
BRANCH  27  34
HETATM   34  C   UNL     1      -9.839   4.820  71.081  1.00  0.00    -0.260 C  
HETATM   35  C   UNL     1      -9.521   3.584  71.494  1.00  0.00    -0.222 C  
ENDBRANCH  27  34
ENDBRANCH  12  26
TORSDOF 5
ENDMDL
MODEL       23
REMARK 921   NORMALIZED FREE ENERGY PREDICTED BY IDOCK:   -7.51 KCAL/MOL
REMARK 922        TOTAL FREE ENERGY PREDICTED BY IDOCK:  -10.18 KCAL/MOL
REMARK 923 INTER-LIGAND FREE ENERGY PREDICTED BY IDOCK:   -9.52 KCAL/MOL
REMARK 924 INTRA-LIGAND FREE ENERGY PREDICTED BY IDOCK:   -0.66 KCAL/MOL
REMARK 927      BINDING AFFINITY PREDICTED BY RF-SCORE:    0.00 PKD
ROOT
HETATM    1  N   UNL     1     -11.208  11.253  62.872  1.00  0.00    -0.734 NA 
HETATM    2  C   UNL     1     -11.556  12.193  63.835  1.00  0.00    -0.448 A  
HETATM    3  H1  UNL     1     -10.741  10.423  63.237  1.00  0.00     0.000 HD 
HETATM    4  H2  UNL     1     -10.642  11.686  62.142  1.00  0.00     0.000 HD 
HETATM    5  N   UNL     1     -12.176  13.293  63.352  1.00  0.00    -0.707 NA 
HETATM    6  C   UNL     1     -12.639  14.212  64.216  1.00  0.00    -0.122 A  
HETATM    7  N   UNL     1     -12.592  14.167  65.552  1.00  0.00    -0.496 NA 
HETATM    8  C   UNL     1     -11.942  13.076  65.989  1.00  0.00    -0.440 A  
HETATM    9  C   UNL     1     -11.374  12.065  65.223  1.00  0.00    -0.366 A  
HETATM   10  C   UNL     1     -10.780  11.170  66.184  1.00  0.00    -0.225 A  
HETATM   11  N   UNL     1     -11.051  11.590  67.441  1.00  0.00    -0.264 NA 
HETATM   12  N   UNL     1     -11.748  12.731  67.294  1.00  0.00    -0.369 NA 
ENDROOT
BRANCH  10  13
HETATM   13  C   UNL     1      -9.998   9.922  66.017  1.00  0.00    -0.338 A  
HETATM   14  C   UNL     1     -10.285   8.727  66.688  1.00  0.00    -0.340 A  
HETATM   15  C   UNL     1      -9.477   7.588  66.506  1.00  0.00    -0.237 A  
HETATM   16  C   UNL     1      -8.912   9.910  65.117  1.00  0.00    -0.235 A  
HETATM   17  C   UNL     1      -8.393   7.604  65.619  1.00  0.00    -0.140 A  
HETATM   18  C   UNL     1      -8.117   8.771  64.917  1.00  0.00    -0.147 A  
BRANCH  17  19
HETATM   19  O   UNL     1      -7.618   6.466  65.594  1.00  0.00    -0.080 OA 
BRANCH  19  20
HETATM   20  C   UNL     1      -8.173   5.219  65.777  1.00  0.00    -0.119 A  
HETATM   21  C   UNL     1      -8.904   4.696  64.704  1.00  0.00    -0.153 A  
HETATM   22  C   UNL     1      -9.094   2.575  65.844  1.00  0.00    -0.099 A  
HETATM   23  C   UNL     1      -7.904   4.414  66.885  1.00  0.00    -0.098 A  
HETATM   24  C   UNL     1      -9.368   3.379  64.739  1.00  0.00    -0.148 A  
HETATM   25  C   UNL     1      -8.370   3.093  66.917  1.00  0.00    -0.091 A  
ENDBRANCH  19  20
ENDBRANCH  17  19
ENDBRANCH  10  13
BRANCH  12  26
HETATM   26  C   UNL     1     -12.276  13.431  68.465  1.00  0.00    -0.097 C  
HETATM   27  C   UNL     1     -13.176  13.007  72.029  1.00  0.00    -0.444 C  
HETATM   28  C   UNL     1     -11.777  14.887  68.544  1.00  0.00    -0.338 C  
HETATM   29  C   UNL     1     -11.774  14.735  71.044  1.00  0.00    -0.306 C  
HETATM   30  C   UNL     1     -12.219  15.560  69.845  1.00  0.00    -0.351 C  
HETATM   31  O   UNL     1     -13.418  13.753  72.980  1.00  0.00    -0.613 OA 
HETATM   32  N   UNL     1     -12.371  13.402  70.971  1.00  0.00    -0.358 N  
HETATM   33  C   UNL     1     -11.991  12.642  69.763  1.00  0.00    -0.295 C  
BRANCH  27  34
HETATM   34  C   UNL     1     -13.772  11.644  72.014  1.00  0.00     0.039 C  
HETATM   35  C   UNL     1     -12.978  10.574  72.168  1.00  0.00    -0.366 C  
ENDBRANCH  27  34
ENDBRANCH  12  26
TORSDOF 5
ENDMDL
MODEL       24
REMARK 921   NORMALIZED FREE ENERGY PREDICTED BY IDOCK:   -7.51 KCAL/MOL
REMARK 922        TOTAL FREE ENERGY PREDICTED BY IDOCK:  -10.17 KCAL/MOL
REMARK 923 INTER-LIGAND FREE ENERGY PREDICTED BY IDOCK:   -9.02 KCAL/MOL
REMARK 924 INTRA-LIGAND FREE ENERGY PREDICTED BY IDOCK:   -1.15 KCAL/MOL
REMARK 927      BINDING AFFINITY PREDICTED BY RF-SCORE:    0.00 PKD
ROOT
HETATM    1  N   UNL     1     -12.844  15.881  70.833  1.00  0.00    -0.582 NA 
HETATM    2  C   UNL     1     -12.440  14.577  70.566  1.00  0.00    -0.344 A  
HETATM    3  H1  UNL     1     -12.326  16.599  70.327  1.00  0.00     0.000 HD 
HETATM    4  H2  UNL     1     -12.814  16.062  71.837  1.00  0.00     0.000 HD 
HETATM    5  N   UNL     1     -13.127  13.625  71.236  1.00  0.00    -0.312 NA 
HETATM    6  C   UNL     1     -12.876  12.332  70.969  1.00  0.00    -0.160 A  
HETATM    7  N   UNL     1     -12.020  11.840  70.067  1.00  0.00    -0.341 NA 
HETATM    8  C   UNL     1     -11.337  12.816  69.447  1.00  0.00    -0.202 A  
HETATM    9  C   UNL     1     -11.454  14.188  69.644  1.00  0.00    -0.329 A  
HETATM   10  C   UNL     1     -10.475  14.767  68.758  1.00  0.00    -0.250 A  
HETATM   11  N   UNL     1      -9.875  13.797  68.029  1.00  0.00    -0.232 NA 
HETATM   12  N   UNL     1     -10.411  12.641  68.461  1.00  0.00    -0.235 NA 
ENDROOT
BRANCH  10  13
HETATM   13  C   UNL     1     -10.075  16.173  68.515  1.00  0.00    -0.241 A  
HETATM   14  C   UNL     1     -10.917  17.134  67.941  1.00  0.00    -0.208 A  
HETATM   15  C   UNL     1     -10.457  18.444  67.708  1.00  0.00    -0.433 A  
HETATM   16  C   UNL     1      -8.785  16.594  68.898  1.00  0.00    -0.238 A  
HETATM   17  C   UNL     1      -9.165  18.836  68.082  1.00  0.00    -0.314 A  
HETATM   18  C   UNL     1      -8.330  17.904  68.688  1.00  0.00    -0.276 A  
BRANCH  17  19
HETATM   19  O   UNL     1      -8.792  20.111  67.719  1.00  0.00    -0.316 OA 
BRANCH  19  20
HETATM   20  C   UNL     1      -7.669  20.337  66.955  1.00  0.00    -0.312 A  
HETATM   21  C   UNL     1      -6.650  21.091  67.548  1.00  0.00    -0.438 A  
HETATM   22  C   UNL     1      -5.193  20.623  65.679  1.00  0.00    -0.221 A  
HETATM   23  C   UNL     1      -7.446  19.727  65.719  1.00  0.00    -0.325 A  
HETATM   24  C   UNL     1      -5.416  21.237  66.910  1.00  0.00    -0.332 A  
HETATM   25  C   UNL     1      -6.207  19.876  65.082  1.00  0.00    -0.294 A  
ENDBRANCH  19  20
ENDBRANCH  17  19
ENDBRANCH  10  13
BRANCH  12  26
HETATM   26  C   UNL     1     -10.042  11.374  67.832  1.00  0.00    -0.183 C  
HETATM   27  C   UNL     1      -8.964   9.840  64.642  1.00  0.00    -0.230 C  
HETATM   28  C   UNL     1      -9.243  10.465  68.785  1.00  0.00    -0.172 C  
HETATM   29  C   UNL     1      -7.938   9.590  66.835  1.00  0.00    -0.109 C  
HETATM   30  C   UNL     1      -8.740   9.209  68.071  1.00  0.00    -0.129 C  
HETATM   31  O   UNL     1      -8.469   8.765  64.294  1.00  0.00    -0.167 OA 
HETATM   32  N   UNL     1      -8.783  10.353  65.918  1.00  0.00    -0.152 N  
HETATM   33  C   UNL     1      -9.307  11.608  66.493  1.00  0.00    -0.206 C  
BRANCH  27  34
HETATM   34  C   UNL     1      -9.784  10.604  63.664  1.00  0.00    -0.383 C  
HETATM   35  C   UNL     1      -9.189  11.172  62.605  1.00  0.00    -0.357 C  
ENDBRANCH  27  34
ENDBRANCH  12  26
TORSDOF 5
ENDMDL
MODEL       25
REMARK 921   NORMALIZED FREE ENERGY PREDICTED BY IDOCK:   -7.46 KCAL/MOL
REMARK 922        TOTAL FREE ENERGY PREDICTED BY IDOCK:  -10.11 KCAL/MOL
REMARK 923 INTER-LIGAND FREE ENERGY PREDICTED BY IDOCK:   -9.31 KCAL/MOL
REMARK 924 INTRA-LIGAND FREE ENERGY PREDICTED BY IDOCK:   -0.80 KCAL/MOL
REMARK 927      BINDING AFFINITY PREDICTED BY RF-SCORE:    0.00 PKD
ROOT
HETATM    1  N   UNL     1     -10.075  13.559  64.089  1.00  0.00    -0.761 NA 
HETATM    2  C   UNL     1     -10.208  12.528  65.012  1.00  0.00    -0.279 A  
HETATM    3  H1  UNL     1      -9.950  14.485  64.500  1.00  0.00     0.000 HD 
HETATM    4  H2  UNL     1     -10.866  13.561  63.444  1.00  0.00     0.000 HD 
HETATM    5  N   UNL     1     -10.372  11.301  64.468  1.00  0.00    -0.299 NA 
HETATM    6  C   UNL     1     -10.409  10.230  65.278  1.00  0.00    -0.148 A  
HETATM    7  N   UNL     1     -10.269  10.211  66.608  1.00  0.00    -0.224 NA 
HETATM    8  C   UNL     1     -10.140  11.450  67.110  1.00  0.00    -0.198 A  
HETATM    9  C   UNL     1     -10.125  12.651  66.410  1.00  0.00    -0.263 A  
HETATM   10  C   UNL     1     -10.000  13.664  67.427  1.00  0.00    -0.234 A  
HETATM   11  N   UNL     1      -9.869  13.088  68.644  1.00  0.00    -0.131 NA 
HETATM   12  N   UNL     1      -9.956  11.763  68.425  1.00  0.00    -0.200 NA 
ENDROOT
BRANCH  10  13
HETATM   13  C   UNL     1      -9.960  15.143  67.346  1.00  0.00    -0.226 A  
HETATM   14  C   UNL     1      -9.183  15.852  66.420  1.00  0.00    -0.344 A  
HETATM   15  C   UNL     1      -9.169  17.260  66.424  1.00  0.00    -0.278 A  
HETATM   16  C   UNL     1     -10.761  15.899  68.226  1.00  0.00    -0.291 A  
HETATM   17  C   UNL     1      -9.960  17.991  67.319  1.00  0.00    -0.323 A  
HETATM   18  C   UNL     1     -10.765  17.302  68.219  1.00  0.00    -0.349 A  
BRANCH  17  19
HETATM   19  O   UNL     1      -9.793  19.357  67.295  1.00  0.00    -0.317 OA 
BRANCH  19  20
HETATM   20  C   UNL     1      -8.555  19.929  67.490  1.00  0.00    -0.337 A  
HETATM   21  C   UNL     1      -7.946  19.696  68.728  1.00  0.00    -0.314 A  
HETATM   22  C   UNL     1      -5.912  20.737  67.943  1.00  0.00    -0.341 A  
HETATM   23  C   UNL     1      -7.838  20.570  66.479  1.00  0.00    -0.156 A  
HETATM   24  C   UNL     1      -6.629  20.103  68.956  1.00  0.00    -0.321 A  
HETATM   25  C   UNL     1      -6.517  20.976  66.710  1.00  0.00    -0.382 A  
ENDBRANCH  19  20
ENDBRANCH  17  19
ENDBRANCH  10  13
BRANCH  12  26
HETATM   26  C   UNL     1      -9.781  10.818  69.526  1.00  0.00     0.017 C  
HETATM   27  C   UNL     1     -11.604   8.575  71.837  1.00  0.00    -0.341 C  
HETATM   28  C   UNL     1      -8.509   9.964  69.362  1.00  0.00    -0.169 C  
HETATM   29  C   UNL     1      -9.679   8.035  70.449  1.00  0.00    -0.178 C  
HETATM   30  C   UNL     1      -8.416   8.884  70.441  1.00  0.00    -0.181 C  
HETATM   31  O   UNL     1     -11.308   7.649  72.597  1.00  0.00    -0.332 OA 
HETATM   32  N   UNL     1     -10.839   8.883  70.722  1.00  0.00    -0.227 N  
HETATM   33  C   UNL     1     -11.046   9.952  69.725  1.00  0.00    -0.254 C  
BRANCH  27  34
HETATM   34  C   UNL     1     -12.815   9.387  72.131  1.00  0.00    -0.480 C  
HETATM   35  C   UNL     1     -14.025   8.908  71.808  1.00  0.00    -0.448 C  
ENDBRANCH  27  34
ENDBRANCH  12  26
TORSDOF 5
ENDMDL
MODEL       26
REMARK 921   NORMALIZED FREE ENERGY PREDICTED BY IDOCK:   -7.41 KCAL/MOL
REMARK 922        TOTAL FREE ENERGY PREDICTED BY IDOCK:  -10.05 KCAL/MOL
REMARK 923 INTER-LIGAND FREE ENERGY PREDICTED BY IDOCK:   -9.05 KCAL/MOL
REMARK 924 INTRA-LIGAND FREE ENERGY PREDICTED BY IDOCK:   -1.01 KCAL/MOL
REMARK 927      BINDING AFFINITY PREDICTED BY RF-SCORE:    0.00 PKD
ROOT
HETATM    1  N   UNL     1     -14.012  12.603  72.949  1.00  0.00    -0.429 NA 
HETATM    2  C   UNL     1     -13.633  13.536  71.991  1.00  0.00    -0.499 A  
HETATM    3  H1  UNL     1     -13.657  11.660  72.789  1.00  0.00     0.000 HD 
HETATM    4  H2  UNL     1     -15.028  12.588  73.047  1.00  0.00     0.000 HD 
HETATM    5  N   UNL     1     -14.103  14.786  72.202  1.00  0.00    -0.468 NA 
HETATM    6  C   UNL     1     -13.708  15.776  71.385  1.00  0.00    -0.057 A  
HETATM    7  N   UNL     1     -12.852  15.693  70.361  1.00  0.00    -0.366 NA 
HETATM    8  C   UNL     1     -12.435  14.431  70.166  1.00  0.00    -0.339 A  
HETATM    9  C   UNL     1     -12.784  13.301  70.896  1.00  0.00    -0.332 A  
HETATM   10  C   UNL     1     -12.088  12.219  70.246  1.00  0.00    -0.295 A  
HETATM   11  N   UNL     1     -11.316  12.697  69.243  1.00  0.00    -0.260 NA 
HETATM   12  N   UNL     1     -11.542  14.023  69.218  1.00  0.00    -0.287 NA 
ENDROOT
BRANCH  10  13
HETATM   13  C   UNL     1     -12.064  10.761  70.512  1.00  0.00    -0.459 A  
HETATM   14  C   UNL     1     -13.147  10.047  71.040  1.00  0.00    -0.435 A  
HETATM   15  C   UNL     1     -13.041   8.667  71.299  1.00  0.00    -0.192 A  
HETATM   16  C   UNL     1     -10.901  10.027  70.200  1.00  0.00    -0.365 A  
HETATM   17  C   UNL     1     -11.869   7.962  70.997  1.00  0.00    -0.268 A  
HETATM   18  C   UNL     1     -10.798   8.648  70.437  1.00  0.00    -0.250 A  
BRANCH  17  19
HETATM   19  O   UNL     1     -11.845   6.640  71.380  1.00  0.00    -0.307 OA 
BRANCH  19  20
HETATM   20  C   UNL     1     -10.702   5.881  71.260  1.00  0.00    -0.264 A  
HETATM   21  C   UNL     1      -9.919   5.741  72.411  1.00  0.00    -0.194 A  
HETATM   22  C   UNL     1      -8.527   4.117  71.289  1.00  0.00    -0.102 A  
HETATM   23  C   UNL     1     -10.393   5.134  70.121  1.00  0.00    -0.340 A  
HETATM   24  C   UNL     1      -8.832   4.865  72.425  1.00  0.00    -0.130 A  
HETATM   25  C   UNL     1      -9.302   4.256  70.138  1.00  0.00    -0.228 A  
ENDBRANCH  19  20
ENDBRANCH  17  19
ENDBRANCH  10  13
BRANCH  12  26
HETATM   26  C   UNL     1     -10.807  14.882  68.291  1.00  0.00    -0.257 C  
HETATM   27  C   UNL     1      -7.409  15.915  67.252  1.00  0.00    -0.216 C  
HETATM   28  C   UNL     1     -11.482  14.955  66.908  1.00  0.00    -0.318 C  
HETATM   29  C   UNL     1      -9.228  15.144  65.832  1.00  0.00    -0.158 C  
HETATM   30  C   UNL     1     -10.629  15.737  65.909  1.00  0.00    -0.350 C  
HETATM   31  O   UNL     1      -6.913  16.504  66.289  1.00  0.00    -0.122 OA 
HETATM   32  N   UNL     1      -8.597  15.207  67.150  1.00  0.00    -0.207 N  
HETATM   33  C   UNL     1      -9.322  14.461  68.197  1.00  0.00    -0.203 C  
BRANCH  27  34
HETATM   34  C   UNL     1      -6.711  15.972  68.565  1.00  0.00    -0.124 C  
HETATM   35  C   UNL     1      -6.503  17.161  69.151  1.00  0.00    -0.223 C  
ENDBRANCH  27  34
ENDBRANCH  12  26
TORSDOF 5
ENDMDL
MODEL       27
REMARK 921   NORMALIZED FREE ENERGY PREDICTED BY IDOCK:   -7.38 KCAL/MOL
REMARK 922        TOTAL FREE ENERGY PREDICTED BY IDOCK:  -10.01 KCAL/MOL
REMARK 923 INTER-LIGAND FREE ENERGY PREDICTED BY IDOCK:   -9.73 KCAL/MOL
REMARK 924 INTRA-LIGAND FREE ENERGY PREDICTED BY IDOCK:   -0.28 KCAL/MOL
REMARK 927      BINDING AFFINITY PREDICTED BY RF-SCORE:    0.00 PKD
ROOT
HETATM    1  N   UNL     1     -12.670  13.973  70.262  1.00  0.00    -0.323 NA 
HETATM    2  C   UNL     1     -12.290  12.642  70.385  1.00  0.00    -0.237 A  
HETATM    3  H1  UNL     1     -12.179  14.491  69.533  1.00  0.00     0.000 HD 
HETATM    4  H2  UNL     1     -12.580  14.451  71.159  1.00  0.00     0.000 HD 
HETATM    5  N   UNL     1     -12.941  11.955  71.351  1.00  0.00    -0.356 NA 
HETATM    6  C   UNL     1     -12.714  10.637  71.478  1.00  0.00    -0.444 A  
HETATM    7  N   UNL     1     -11.915   9.874  70.725  1.00  0.00    -0.307 NA 
HETATM    8  C   UNL     1     -11.265  10.598  69.799  1.00  0.00    -0.297 A  
HETATM    9  C   UNL     1     -11.362  11.967  69.573  1.00  0.00    -0.306 A  
HETATM   10  C   UNL     1     -10.434  12.225  68.501  1.00  0.00    -0.232 A  
HETATM   11  N   UNL     1      -9.884  11.066  68.072  1.00  0.00    -0.167 NA 
HETATM   12  N   UNL     1     -10.400  10.110  68.865  1.00  0.00    -0.194 NA 
ENDROOT
BRANCH  10  13
HETATM   13  C   UNL     1     -10.041  13.480  67.818  1.00  0.00    -0.236 A  
HETATM   14  C   UNL     1     -10.382  13.787  66.495  1.00  0.00    -0.286 A  
HETATM   15  C   UNL     1      -9.945  14.986  65.900  1.00  0.00    -0.353 A  
HETATM   16  C   UNL     1      -9.302  14.446  68.533  1.00  0.00    -0.204 A  
HETATM   17  C   UNL     1      -9.197  15.923  66.623  1.00  0.00    -0.252 A  
HETATM   18  C   UNL     1      -8.883  15.651  67.949  1.00  0.00    -0.171 A  
BRANCH  17  19
HETATM   19  O   UNL     1      -8.744  17.012  65.913  1.00  0.00    -0.524 OA 
BRANCH  19  20
HETATM   20  C   UNL     1      -8.978  18.298  66.347  1.00  0.00    -0.243 A  
HETATM   21  C   UNL     1     -10.312  18.642  66.592  1.00  0.00    -0.456 A  
HETATM   22  C   UNL     1      -9.612  20.751  67.539  1.00  0.00    -0.439 A  
HETATM   23  C   UNL     1      -7.961  19.186  66.701  1.00  0.00    -0.283 A  
HETATM   24  C   UNL     1     -10.629  19.868  67.182  1.00  0.00    -0.527 A  
HETATM   25  C   UNL     1      -8.282  20.414  67.293  1.00  0.00    -0.390 A  
ENDBRANCH  19  20
ENDBRANCH  17  19
ENDBRANCH  10  13
BRANCH  12  26
HETATM   26  C   UNL     1     -10.075   8.703  68.634  1.00  0.00    -0.190 C  
HETATM   27  C   UNL     1     -10.092   5.351  70.203  1.00  0.00    -0.252 C  
HETATM   28  C   UNL     1     -10.393   8.263  67.192  1.00  0.00    -0.387 C  
HETATM   29  C   UNL     1     -10.998   5.983  68.035  1.00  0.00    -0.245 C  
HETATM   30  C   UNL     1     -10.186   6.759  67.007  1.00  0.00    -0.304 C  
HETATM   31  O   UNL     1      -9.987   4.186  69.813  1.00  0.00    -0.206 OA 
HETATM   32  N   UNL     1     -10.572   6.360  69.382  1.00  0.00    -0.229 N  
HETATM   33  C   UNL     1     -10.751   7.794  69.687  1.00  0.00    -0.223 C  
BRANCH  27  34
HETATM   34  C   UNL     1      -9.684   5.683  71.595  1.00  0.00    -0.196 C  
HETATM   35  C   UNL     1     -10.544   5.471  72.602  1.00  0.00    -0.270 C  
ENDBRANCH  27  34
ENDBRANCH  12  26
TORSDOF 5
ENDMDL
MODEL       28
REMARK 921   NORMALIZED FREE ENERGY PREDICTED BY IDOCK:   -7.35 KCAL/MOL
REMARK 922        TOTAL FREE ENERGY PREDICTED BY IDOCK:   -9.97 KCAL/MOL
REMARK 923 INTER-LIGAND FREE ENERGY PREDICTED BY IDOCK:   -8.83 KCAL/MOL
REMARK 924 INTRA-LIGAND FREE ENERGY PREDICTED BY IDOCK:   -1.15 KCAL/MOL
REMARK 927      BINDING AFFINITY PREDICTED BY RF-SCORE:    0.00 PKD
ROOT
HETATM    1  N   UNL     1     -10.970   8.622  70.901  1.00  0.00    -0.244 NA 
HETATM    2  C   UNL     1     -11.448   9.811  70.363  1.00  0.00    -0.280 A  
HETATM    3  H1  UNL     1     -10.584   7.970  70.219  1.00  0.00     0.000 HD 
HETATM    4  H2  UNL     1     -11.696   8.167  71.456  1.00  0.00     0.000 HD 
HETATM    5  N   UNL     1     -11.960  10.676  71.267  1.00  0.00    -0.300 NA 
HETATM    6  C   UNL     1     -12.355  11.892  70.853  1.00  0.00    -0.300 A  
HETATM    7  N   UNL     1     -12.280  12.394  69.616  1.00  0.00    -0.171 NA 
HETATM    8  C   UNL     1     -11.797  11.493  68.745  1.00  0.00    -0.330 A  
HETATM    9  C   UNL     1     -11.387  10.191  69.011  1.00  0.00    -0.188 A  
HETATM   10  C   UNL     1     -10.997   9.663  67.728  1.00  0.00    -0.139 A  
HETATM   11  N   UNL     1     -11.098  10.622  66.779  1.00  0.00    -0.147 NA 
HETATM   12  N   UNL     1     -11.577  11.706  67.415  1.00  0.00    -0.539 NA 
ENDROOT
BRANCH  10  13
HETATM   13  C   UNL     1     -10.503   8.327  67.321  1.00  0.00    -0.373 A  
HETATM   14  C   UNL     1     -11.035   7.121  67.795  1.00  0.00    -0.187 A  
HETATM   15  C   UNL     1     -10.491   5.887  67.390  1.00  0.00    -0.311 A  
HETATM   16  C   UNL     1      -9.452   8.242  66.384  1.00  0.00    -0.287 A  
HETATM   17  C   UNL     1      -9.435   5.827  66.471  1.00  0.00    -0.153 A  
HETATM   18  C   UNL     1      -8.922   7.013  65.961  1.00  0.00    -0.135 A  
BRANCH  17  19
HETATM   19  O   UNL     1      -8.923   4.574  66.223  1.00  0.00    -0.115 OA 
BRANCH  19  20
HETATM   20  C   UNL     1      -9.096   3.960  65.002  1.00  0.00    -0.142 A  
HETATM   21  C   UNL     1      -8.023   3.195  64.528  1.00  0.00    -0.082 A  
HETATM   22  C   UNL     1      -9.384   2.383  62.705  1.00  0.00    -0.090 A  
HETATM   23  C   UNL     1     -10.314   3.933  64.321  1.00  0.00    -0.245 A  
HETATM   24  C   UNL     1      -8.165   2.412  63.380  1.00  0.00    -0.081 A  
HETATM   25  C   UNL     1     -10.453   3.147  63.171  1.00  0.00    -0.202 A  
ENDBRANCH  19  20
ENDBRANCH  17  19
ENDBRANCH  10  13
BRANCH  12  26
HETATM   26  C   UNL     1     -11.744  12.971  66.700  1.00  0.00    -0.381 C  
HETATM   27  C   UNL     1     -10.404  16.405  66.376  1.00  0.00    -0.313 C  
HETATM   28  C   UNL     1     -12.134  12.755  65.225  1.00  0.00    -0.505 C  
HETATM   29  C   UNL     1     -10.832  14.801  64.596  1.00  0.00    -0.292 C  
HETATM   30  C   UNL     1     -12.163  14.077  64.455  1.00  0.00    -0.457 C  
HETATM   31  O   UNL     1     -10.504  17.326  65.562  1.00  0.00    -0.609 OA 
HETATM   32  N   UNL     1     -10.572  15.078  66.008  1.00  0.00    -0.308 N  
HETATM   33  C   UNL     1     -10.494  13.868  66.851  1.00  0.00    -0.276 C  
BRANCH  27  34
HETATM   34  C   UNL     1     -10.099  16.729  67.795  1.00  0.00    -0.281 C  
HETATM   35  C   UNL     1     -10.446  17.927  68.288  1.00  0.00    -0.362 C  
ENDBRANCH  27  34
ENDBRANCH  12  26
TORSDOF 5
ENDMDL
MODEL       29
REMARK 921   NORMALIZED FREE ENERGY PREDICTED BY IDOCK:   -7.33 KCAL/MOL
REMARK 922        TOTAL FREE ENERGY PREDICTED BY IDOCK:   -9.95 KCAL/MOL
REMARK 923 INTER-LIGAND FREE ENERGY PREDICTED BY IDOCK:   -9.38 KCAL/MOL
REMARK 924 INTRA-LIGAND FREE ENERGY PREDICTED BY IDOCK:   -0.57 KCAL/MOL
REMARK 927      BINDING AFFINITY PREDICTED BY RF-SCORE:    0.00 PKD
ROOT
HETATM    1  N   UNL     1     -12.486  13.727  72.274  1.00  0.00    -0.046 NA 
HETATM    2  C   UNL     1     -12.427  14.022  70.916  1.00  0.00    -0.369 A  
HETATM    3  H1  UNL     1     -12.299  12.752  72.506  1.00  0.00     0.000 HD 
HETATM    4  H2  UNL     1     -13.384  14.019  72.661  1.00  0.00     0.000 HD 
HETATM    5  N   UNL     1     -12.673  15.314  70.608  1.00  0.00    -0.404 NA 
HETATM    6  C   UNL     1     -12.541  15.715  69.332  1.00  0.00     0.209 A  
HETATM    7  N   UNL     1     -12.153  14.980  68.285  1.00  0.00    -0.174 NA 
HETATM    8  C   UNL     1     -11.949  13.697  68.628  1.00  0.00    -0.360 A  
HETATM    9  C   UNL     1     -12.085  13.126  69.889  1.00  0.00    -0.357 A  
HETATM   10  C   UNL     1     -11.784  11.730  69.690  1.00  0.00    -0.344 A  
HETATM   11  N   UNL     1     -11.419  11.511  68.406  1.00  0.00    -0.270 NA 
HETATM   12  N   UNL     1     -11.525  12.704  67.794  1.00  0.00    -0.300 NA 
ENDROOT
BRANCH  10  13
HETATM   13  C   UNL     1     -11.782  10.580  70.623  1.00  0.00    -0.453 A  
HETATM   14  C   UNL     1     -10.644   9.817  70.917  1.00  0.00    -0.344 A  
HETATM   15  C   UNL     1     -10.724   8.715  71.789  1.00  0.00    -0.392 A  
HETATM   16  C   UNL     1     -12.978  10.231  71.284  1.00  0.00    -0.517 A  
HETATM   17  C   UNL     1     -11.927   8.376  72.422  1.00  0.00    -0.384 A  
HETATM   18  C   UNL     1     -13.057   9.147  72.171  1.00  0.00    -0.516 A  
BRANCH  17  19
HETATM   19  O   UNL     1     -11.909   7.225  73.176  1.00  0.00     0.077 OA 
BRANCH  19  20
HETATM   20  C   UNL     1     -10.808   6.397  73.192  1.00  0.00    -0.254 A  
HETATM   21  C   UNL     1      -9.990   6.465  74.325  1.00  0.00    -0.346 A  
HETATM   22  C   UNL     1      -8.719   4.566  73.542  1.00  0.00    -0.099 A  
HETATM   23  C   UNL     1     -10.578   5.410  72.233  1.00  0.00    -0.280 A  
HETATM   24  C   UNL     1      -8.945   5.554  74.498  1.00  0.00    -0.121 A  
HETATM   25  C   UNL     1      -9.529   4.498  72.410  1.00  0.00    -0.176 A  
ENDBRANCH  19  20
ENDBRANCH  17  19
ENDBRANCH  10  13
BRANCH  12  26
HETATM   26  C   UNL     1     -11.133  12.856  66.394  1.00  0.00    -0.285 C  
HETATM   27  C   UNL     1      -9.526  11.117  63.550  1.00  0.00    -0.276 C  
HETATM   28  C   UNL     1     -12.161  13.674  65.589  1.00  0.00    -0.490 C  
HETATM   29  C   UNL     1     -11.662  12.284  63.566  1.00  0.00    -0.499 C  
HETATM   30  C   UNL     1     -11.812  13.701  64.100  1.00  0.00    -0.463 C  
HETATM   31  O   UNL     1      -9.447  11.289  62.331  1.00  0.00    -0.232 OA 
HETATM   32  N   UNL     1     -10.595  11.597  64.292  1.00  0.00    -0.313 N  
HETATM   33  C   UNL     1     -10.836  11.485  65.745  1.00  0.00    -0.262 C  
BRANCH  27  34
HETATM   34  C   UNL     1      -8.437  10.377  64.243  1.00  0.00    -0.159 C  
HETATM   35  C   UNL     1      -8.338   9.049  64.086  1.00  0.00    -0.178 C  
ENDBRANCH  27  34
ENDBRANCH  12  26
TORSDOF 5
ENDMDL
MODEL       30
REMARK 921   NORMALIZED FREE ENERGY PREDICTED BY IDOCK:   -7.32 KCAL/MOL
REMARK 922        TOTAL FREE ENERGY PREDICTED BY IDOCK:   -9.93 KCAL/MOL
REMARK 923 INTER-LIGAND FREE ENERGY PREDICTED BY IDOCK:   -8.84 KCAL/MOL
REMARK 924 INTRA-LIGAND FREE ENERGY PREDICTED BY IDOCK:   -1.09 KCAL/MOL
REMARK 927      BINDING AFFINITY PREDICTED BY RF-SCORE:    0.00 PKD
ROOT
HETATM    1  N   UNL     1     -12.910  13.131  66.033  1.00  0.00    -0.213 NA 
HETATM    2  C   UNL     1     -11.774  13.918  65.876  1.00  0.00    -0.359 A  
HETATM    3  H1  UNL     1     -12.901  12.531  66.858  1.00  0.00     0.000 HD 
HETATM    4  H2  UNL     1     -13.075  12.576  65.193  1.00  0.00     0.000 HD 
HETATM    5  N   UNL     1     -11.784  14.713  64.783  1.00  0.00    -0.410 NA 
HETATM    6  C   UNL     1     -10.776  15.582  64.601  1.00  0.00    -0.165 A  
HETATM    7  N   UNL     1      -9.731  15.795  65.408  1.00  0.00    -0.377 NA 
HETATM    8  C   UNL     1      -9.742  14.964  66.463  1.00  0.00    -0.276 A  
HETATM    9  C   UNL     1     -10.687  13.990  66.765  1.00  0.00    -0.285 A  
HETATM   10  C   UNL     1     -10.202  13.374  67.974  1.00  0.00    -0.243 A  
HETATM   11  N   UNL     1      -9.080  14.001  68.398  1.00  0.00    -0.194 NA 
HETATM   12  N   UNL     1      -8.829  14.948  67.477  1.00  0.00    -0.180 NA 
ENDROOT
BRANCH  10  13
HETATM   13  C   UNL     1     -10.727  12.254  68.789  1.00  0.00    -0.247 A  
HETATM   14  C   UNL     1     -11.906  12.324  69.543  1.00  0.00    -0.380 A  
HETATM   15  C   UNL     1     -12.327  11.230  70.322  1.00  0.00    -0.389 A  
HETATM   16  C   UNL     1     -10.029  11.029  68.801  1.00  0.00    -0.215 A  
HETATM   17  C   UNL     1     -11.608  10.028  70.332  1.00  0.00    -0.302 A  
HETATM   18  C   UNL     1     -10.457   9.928  69.559  1.00  0.00    -0.261 A  
BRANCH  17  19
HETATM   19  O   UNL     1     -12.059   9.062  71.202  1.00  0.00    -0.291 OA 
BRANCH  19  20
HETATM   20  C   UNL     1     -11.301   7.948  71.491  1.00  0.00    -0.256 A  
HETATM   21  C   UNL     1     -10.572   7.981  72.685  1.00  0.00    -0.419 A  
HETATM   22  C   UNL     1      -9.967   5.660  72.399  1.00  0.00    -0.198 A  
HETATM   23  C   UNL     1     -11.361   6.766  70.752  1.00  0.00    -0.374 A  
HETATM   24  C   UNL     1      -9.902   6.841  73.136  1.00  0.00    -0.201 A  
HETATM   25  C   UNL     1     -10.689   5.624  71.207  1.00  0.00    -0.312 A  
ENDBRANCH  19  20
ENDBRANCH  17  19
ENDBRANCH  10  13
BRANCH  12  26
HETATM   26  C   UNL     1      -7.714  15.877  67.655  1.00  0.00    -0.150 C  
HETATM   27  C   UNL     1      -6.871  19.436  68.218  1.00  0.00    -0.274 C  
HETATM   28  C   UNL     1      -6.566  15.256  68.474  1.00  0.00    -0.109 C  
HETATM   29  C   UNL     1      -6.071  17.503  69.462  1.00  0.00    -0.252 C  
HETATM   30  C   UNL     1      -5.474  16.283  68.776  1.00  0.00    -0.109 C  
HETATM   31  O   UNL     1      -5.873  20.069  68.571  1.00  0.00    -0.224 OA 
HETATM   32  N   UNL     1      -7.073  18.115  68.589  1.00  0.00    -0.260 N  
HETATM   33  C   UNL     1      -8.197  17.220  68.249  1.00  0.00    -0.237 C  
BRANCH  27  34
HETATM   34  C   UNL     1      -7.884  20.111  67.363  1.00  0.00    -0.348 C  
HETATM   35  C   UNL     1      -7.842  19.945  66.033  1.00  0.00    -0.335 C  
ENDBRANCH  27  34
ENDBRANCH  12  26
TORSDOF 5
ENDMDL
MODEL       31
REMARK 921   NORMALIZED FREE ENERGY PREDICTED BY IDOCK:   -7.30 KCAL/MOL
REMARK 922        TOTAL FREE ENERGY PREDICTED BY IDOCK:   -9.90 KCAL/MOL
REMARK 923 INTER-LIGAND FREE ENERGY PREDICTED BY IDOCK:   -9.10 KCAL/MOL
REMARK 924 INTRA-LIGAND FREE ENERGY PREDICTED BY IDOCK:   -0.81 KCAL/MOL
REMARK 927      BINDING AFFINITY PREDICTED BY RF-SCORE:    0.00 PKD
ROOT
HETATM    1  N   UNL     1     -11.832  11.287  63.153  1.00  0.00    -0.763 NA 
HETATM    2  C   UNL     1     -11.939  12.430  63.936  1.00  0.00    -0.486 A  
HETATM    3  H1  UNL     1     -11.406  10.488  63.622  1.00  0.00     0.000 HD 
HETATM    4  H2  UNL     1     -11.334  11.496  62.287  1.00  0.00     0.000 HD 
HETATM    5  N   UNL     1     -12.504  13.490  63.314  1.00  0.00    -0.765 NA 
HETATM    6  C   UNL     1     -12.742  14.608  64.020  1.00  0.00     0.376 A  
HETATM    7  N   UNL     1     -12.511  14.812  65.321  1.00  0.00    -0.157 NA 
HETATM    8  C   UNL     1     -11.921  13.749  65.893  1.00  0.00    -0.406 A  
HETATM    9  C   UNL     1     -11.576  12.545  65.289  1.00  0.00    -0.406 A  
HETATM   10  C   UNL     1     -10.947  11.780  66.336  1.00  0.00    -0.294 A  
HETATM   11  N   UNL     1     -10.991  12.463  67.503  1.00  0.00    -0.242 NA 
HETATM   12  N   UNL     1     -11.580  13.636  67.209  1.00  0.00    -0.335 NA 
ENDROOT
BRANCH  10  13
HETATM   13  C   UNL     1     -10.330  10.432  66.338  1.00  0.00    -0.278 A  
HETATM   14  C   UNL     1      -9.324  10.035  65.448  1.00  0.00    -0.284 A  
HETATM   15  C   UNL     1      -8.808   8.726  65.487  1.00  0.00    -0.229 A  
HETATM   16  C   UNL     1     -10.750   9.489  67.298  1.00  0.00    -0.269 A  
HETATM   17  C   UNL     1      -9.251   7.799  66.439  1.00  0.00    -0.180 A  
HETATM   18  C   UNL     1     -10.222   8.190  67.353  1.00  0.00    -0.327 A  
BRANCH  17  19
HETATM   19  O   UNL     1      -8.747   6.524  66.320  1.00  0.00    -0.134 OA 
BRANCH  19  20
HETATM   20  C   UNL     1      -8.212   5.863  67.404  1.00  0.00    -0.105 A  
HETATM   21  C   UNL     1      -8.831   4.663  67.772  1.00  0.00    -0.115 A  
HETATM   22  C   UNL     1      -7.072   4.225  69.369  1.00  0.00    -0.050 A  
HETATM   23  C   UNL     1      -7.020   6.242  68.024  1.00  0.00    -0.080 A  
HETATM   24  C   UNL     1      -8.265   3.848  68.755  1.00  0.00    -0.083 A  
HETATM   25  C   UNL     1      -6.455   5.422  69.009  1.00  0.00    -0.042 A  
ENDBRANCH  19  20
ENDBRANCH  17  19
ENDBRANCH  10  13
BRANCH  12  26
HETATM   26  C   UNL     1     -11.861  14.609  68.264  1.00  0.00    -0.298 C  
HETATM   27  C   UNL     1     -12.797  14.941  71.829  1.00  0.00    -0.330 C  
HETATM   28  C   UNL     1     -10.952  15.849  68.168  1.00  0.00    -0.335 C  
HETATM   29  C   UNL     1     -10.960  16.033  70.666  1.00  0.00    -0.253 C  
HETATM   30  C   UNL     1     -11.157  16.787  69.358  1.00  0.00    -0.083 C  
HETATM   31  O   UNL     1     -12.794  15.844  72.670  1.00  0.00    -0.424 OA 
HETATM   32  N   UNL     1     -11.925  14.938  70.750  1.00  0.00    -0.292 N  
HETATM   33  C   UNL     1     -11.805  13.948  69.661  1.00  0.00    -0.327 C  
BRANCH  27  34
HETATM   34  C   UNL     1     -13.770  13.825  71.976  1.00  0.00    -0.572 C  
HETATM   35  C   UNL     1     -13.320  12.566  72.075  1.00  0.00    -0.528 C  
ENDBRANCH  27  34
ENDBRANCH  12  26
TORSDOF 5
ENDMDL
MODEL       32
REMARK 921   NORMALIZED FREE ENERGY PREDICTED BY IDOCK:   -7.25 KCAL/MOL
REMARK 922        TOTAL FREE ENERGY PREDICTED BY IDOCK:   -9.84 KCAL/MOL
REMARK 923 INTER-LIGAND FREE ENERGY PREDICTED BY IDOCK:   -9.16 KCAL/MOL
REMARK 924 INTRA-LIGAND FREE ENERGY PREDICTED BY IDOCK:   -0.68 KCAL/MOL
REMARK 927      BINDING AFFINITY PREDICTED BY RF-SCORE:    0.00 PKD
ROOT
HETATM    1  N   UNL     1     -13.940  12.425  73.179  1.00  0.00     0.504 NA 
HETATM    2  C   UNL     1     -13.592  13.178  72.063  1.00  0.00    -0.465 A  
HETATM    3  H1  UNL     1     -13.586  11.468  73.174  1.00  0.00     0.000 HD 
HETATM    4  H2  UNL     1     -14.953  12.427  73.305  1.00  0.00     0.000 HD 
HETATM    5  N   UNL     1     -14.061  14.446  72.068  1.00  0.00    -0.488 NA 
HETATM    6  C   UNL     1     -13.693  15.279  71.081  1.00  0.00    -0.443 A  
HETATM    7  N   UNL     1     -12.865  15.020  70.064  1.00  0.00    -0.154 NA 
HETATM    8  C   UNL     1     -12.447  13.743  70.078  1.00  0.00    -0.240 A  
HETATM    9  C   UNL     1     -12.771  12.756  71.002  1.00  0.00    -0.331 A  
HETATM   10  C   UNL     1     -12.089  11.578  70.530  1.00  0.00    -0.378 A  
HETATM   11  N   UNL     1     -11.347  11.875  69.439  1.00  0.00    -0.268 NA 
HETATM   12  N   UNL     1     -11.579  13.177  69.192  1.00  0.00    -0.297 NA 
ENDROOT
BRANCH  10  13
HETATM   13  C   UNL     1     -12.051  10.188  71.044  1.00  0.00    -0.476 A  
HETATM   14  C   UNL     1     -13.184   9.486  71.476  1.00  0.00    -0.468 A  
HETATM   15  C   UNL     1     -13.067   8.178  71.985  1.00  0.00    -0.317 A  
HETATM   16  C   UNL     1     -10.817   9.507  71.085  1.00  0.00    -0.425 A  
HETATM   17  C   UNL     1     -11.828   7.527  72.032  1.00  0.00    -0.294 A  
HETATM   18  C   UNL     1     -10.701   8.196  71.572  1.00  0.00    -0.286 A  
BRANCH  17  19
HETATM   19  O   UNL     1     -11.820   6.290  72.636  1.00  0.00    -0.195 OA 
BRANCH  19  20
HETATM   20  C   UNL     1     -10.677   5.522  72.678  1.00  0.00    -0.243 A  
HETATM   21  C   UNL     1     -10.028   5.432  73.914  1.00  0.00    -0.203 A  
HETATM   22  C   UNL     1      -8.534   3.753  73.028  1.00  0.00    -0.094 A  
HETATM   23  C   UNL     1     -10.249   4.724  71.615  1.00  0.00    -0.249 A  
HETATM   24  C   UNL     1      -8.957   4.553  74.088  1.00  0.00    -0.108 A  
HETATM   25  C   UNL     1      -9.175   3.844  71.793  1.00  0.00    -0.184 A  
ENDBRANCH  19  20
ENDBRANCH  17  19
ENDBRANCH  10  13
BRANCH  12  26
HETATM   26  C   UNL     1     -10.873  13.862  68.110  1.00  0.00    -0.249 C  
HETATM   27  C   UNL     1     -11.337  15.500  64.824  1.00  0.00    -0.357 C  
HETATM   28  C   UNL     1      -9.738  14.762  68.637  1.00  0.00    -0.225 C  
HETATM   29  C   UNL     1     -10.172  16.377  66.772  1.00  0.00    -0.285 C  
HETATM   30  C   UNL     1      -9.105  15.581  67.511  1.00  0.00    -0.198 C  
HETATM   31  O   UNL     1     -10.672  16.243  64.099  1.00  0.00    -0.320 OA 
HETATM   32  N   UNL     1     -11.158  15.462  66.199  1.00  0.00    -0.280 N  
HETATM   33  C   UNL     1     -11.857  14.632  67.201  1.00  0.00    -0.345 C  
BRANCH  27  34
HETATM   34  C   UNL     1     -12.357  14.613  64.203  1.00  0.00    -0.294 C  
HETATM   35  C   UNL     1     -11.980  13.437  63.681  1.00  0.00    -0.504 C  
ENDBRANCH  27  34
ENDBRANCH  12  26
TORSDOF 5
ENDMDL
MODEL       33
REMARK 921   NORMALIZED FREE ENERGY PREDICTED BY IDOCK:   -7.23 KCAL/MOL
REMARK 922        TOTAL FREE ENERGY PREDICTED BY IDOCK:   -9.81 KCAL/MOL
REMARK 923 INTER-LIGAND FREE ENERGY PREDICTED BY IDOCK:   -8.92 KCAL/MOL
REMARK 924 INTRA-LIGAND FREE ENERGY PREDICTED BY IDOCK:   -0.89 KCAL/MOL
REMARK 927      BINDING AFFINITY PREDICTED BY RF-SCORE:    0.00 PKD
ROOT
HETATM    1  N   UNL     1      -7.165  13.091  66.848  1.00  0.00    -0.328 NA 
HETATM    2  C   UNL     1      -7.841  11.943  67.247  1.00  0.00    -0.168 A  
HETATM    3  H1  UNL     1      -7.658  13.963  67.038  1.00  0.00     0.000 HD 
HETATM    4  H2  UNL     1      -6.918  13.030  65.860  1.00  0.00     0.000 HD 
HETATM    5  N   UNL     1      -7.188  10.787  66.997  1.00  0.00    -0.103 NA 
HETATM    6  C   UNL     1      -7.717   9.633  67.436  1.00  0.00    -0.095 A  
HETATM    7  N   UNL     1      -8.839   9.471  68.146  1.00  0.00    -0.124 NA 
HETATM    8  C   UNL     1      -9.472  10.638  68.345  1.00  0.00    -0.165 A  
HETATM    9  C   UNL     1      -9.075  11.901  67.919  1.00  0.00    -0.183 A  
HETATM   10  C   UNL     1     -10.124  12.782  68.366  1.00  0.00    -0.226 A  
HETATM   11  N   UNL     1     -11.043  12.090  69.079  1.00  0.00    -0.238 NA 
HETATM   12  N   UNL     1     -10.627  10.811  69.051  1.00  0.00    -0.207 NA 
ENDROOT
BRANCH  10  13
HETATM   13  C   UNL     1     -10.321  14.242  68.204  1.00  0.00    -0.233 A  
HETATM   14  C   UNL     1     -10.262  14.905  66.971  1.00  0.00    -0.256 A  
HETATM   15  C   UNL     1     -10.425  16.301  66.897  1.00  0.00    -0.302 A  
HETATM   16  C   UNL     1     -10.611  15.024  69.341  1.00  0.00    -0.262 A  
HETATM   17  C   UNL     1     -10.696  17.061  68.043  1.00  0.00    -0.365 A  
HETATM   18  C   UNL     1     -10.796  16.413  69.268  1.00  0.00    -0.327 A  
BRANCH  17  19
HETATM   19  O   UNL     1     -10.741  18.425  67.865  1.00  0.00    -0.392 OA 
BRANCH  19  20
HETATM   20  C   UNL     1      -9.605  19.146  67.570  1.00  0.00    -0.310 A  
HETATM   21  C   UNL     1      -8.646  19.246  68.584  1.00  0.00    -0.401 A  
HETATM   22  C   UNL     1      -7.104  20.291  67.046  1.00  0.00    -0.309 A  
HETATM   23  C   UNL     1      -9.309  19.622  66.291  1.00  0.00    -0.453 A  
HETATM   24  C   UNL     1      -7.400  19.821  68.324  1.00  0.00    -0.349 A  
HETATM   25  C   UNL     1      -8.058  20.198  66.034  1.00  0.00    -0.218 A  
ENDBRANCH  19  20
ENDBRANCH  17  19
ENDBRANCH  10  13
BRANCH  12  26
HETATM   26  C   UNL     1     -11.352   9.781  69.793  1.00  0.00    -0.158 C  
HETATM   27  C   UNL     1     -10.928   6.663  71.741  1.00  0.00    -0.240 C  
HETATM   28  C   UNL     1     -12.541  10.363  70.582  1.00  0.00    -0.435 C  
HETATM   29  C   UNL     1     -12.167   8.658  72.378  1.00  0.00    -0.349 C  
HETATM   30  C   UNL     1     -13.200   9.302  71.465  1.00  0.00    -0.433 C  
HETATM   31  O   UNL     1     -11.620   5.993  72.511  1.00  0.00    -0.295 OA 
HETATM   32  N   UNL     1     -11.125   8.025  71.570  1.00  0.00    -0.242 N  
HETATM   33  C   UNL     1     -10.397   8.962  70.692  1.00  0.00    -0.215 C  
BRANCH  27  34
HETATM   34  C   UNL     1      -9.852   5.985  70.968  1.00  0.00    -0.220 C  
HETATM   35  C   UNL     1     -10.135   4.866  70.285  1.00  0.00    -0.322 C  
ENDBRANCH  27  34
ENDBRANCH  12  26
TORSDOF 5
ENDMDL
MODEL       34
REMARK 921   NORMALIZED FREE ENERGY PREDICTED BY IDOCK:   -7.23 KCAL/MOL
REMARK 922        TOTAL FREE ENERGY PREDICTED BY IDOCK:   -9.81 KCAL/MOL
REMARK 923 INTER-LIGAND FREE ENERGY PREDICTED BY IDOCK:   -9.62 KCAL/MOL
REMARK 924 INTRA-LIGAND FREE ENERGY PREDICTED BY IDOCK:   -0.19 KCAL/MOL
REMARK 927      BINDING AFFINITY PREDICTED BY RF-SCORE:    0.00 PKD
ROOT
HETATM    1  N   UNL     1     -13.015  14.667  70.186  1.00  0.00    -0.559 NA 
HETATM    2  C   UNL     1     -12.701  13.373  70.586  1.00  0.00    -0.176 A  
HETATM    3  H1  UNL     1     -12.448  15.024  69.417  1.00  0.00     0.000 HD 
HETATM    4  H2  UNL     1     -12.974  15.303  70.983  1.00  0.00     0.000 HD 
HETATM    5  N   UNL     1     -13.452  12.898  71.605  1.00  0.00    -0.270 NA 
HETATM    6  C   UNL     1     -13.289  11.623  71.994  1.00  0.00    -0.300 A  
HETATM    7  N   UNL     1     -12.467  10.710  71.466  1.00  0.00    -0.380 NA 
HETATM    8  C   UNL     1     -11.719  11.230  70.479  1.00  0.00    -0.247 A  
HETATM    9  C   UNL     1     -11.741  12.533  69.995  1.00  0.00    -0.297 A  
HETATM   10  C   UNL     1     -10.724  12.560  68.975  1.00  0.00    -0.097 A  
HETATM   11  N   UNL     1     -10.190  11.326  68.816  1.00  0.00    -0.203 NA 
HETATM   12  N   UNL     1     -10.804  10.551  69.728  1.00  0.00    -0.273 NA 
ENDROOT
BRANCH  10  13
HETATM   13  C   UNL     1     -10.228  13.652  68.105  1.00  0.00    -0.247 A  
HETATM   14  C   UNL     1      -9.074  14.400  68.373  1.00  0.00    -0.193 A  
HETATM   15  C   UNL     1      -8.682  15.447  67.518  1.00  0.00    -0.186 A  
HETATM   16  C   UNL     1     -10.931  13.957  66.921  1.00  0.00    -0.300 A  
HETATM   17  C   UNL     1      -9.405  15.744  66.356  1.00  0.00    -0.301 A  
HETATM   18  C   UNL     1     -10.531  14.987  66.056  1.00  0.00    -0.326 A  
BRANCH  17  19
HETATM   19  O   UNL     1      -8.985  16.848  65.649  1.00  0.00    -0.486 OA 
BRANCH  19  20
HETATM   20  C   UNL     1      -9.167  18.122  66.139  1.00  0.00    -0.119 A  
HETATM   21  C   UNL     1     -10.481  18.603  66.159  1.00  0.00    -0.473 A  
HETATM   22  C   UNL     1      -9.767  20.553  67.393  1.00  0.00    -0.587 A  
HETATM   23  C   UNL     1      -8.152  18.863  66.748  1.00  0.00    -0.278 A  
HETATM   24  C   UNL     1     -10.780  19.818  66.781  1.00  0.00    -0.526 A  
HETATM   25  C   UNL     1      -8.455  20.080  67.371  1.00  0.00    -0.391 A  
ENDBRANCH  19  20
ENDBRANCH  17  19
ENDBRANCH  10  13
BRANCH  12  26
HETATM   26  C   UNL     1     -10.521   9.118  69.792  1.00  0.00    -0.223 C  
HETATM   27  C   UNL     1     -11.002   6.080  71.849  1.00  0.00    -0.264 C  
HETATM   28  C   UNL     1     -10.599   8.449  68.406  1.00  0.00    -0.155 C  
HETATM   29  C   UNL     1     -11.469   6.359  69.477  1.00  0.00    -0.343 C  
HETATM   30  C   UNL     1     -10.444   6.931  68.507  1.00  0.00    -0.229 C  
HETATM   31  O   UNL     1     -10.893   4.863  71.679  1.00  0.00    -0.075 OA 
HETATM   32  N   UNL     1     -11.271   6.948  70.801  1.00  0.00    -0.277 N  
HETATM   33  C   UNL     1     -11.424   8.416  70.832  1.00  0.00    -0.267 C  
BRANCH  27  34
HETATM   34  C   UNL     1     -10.833   6.631  73.221  1.00  0.00    -0.290 C  
HETATM   35  C   UNL     1      -9.652   7.155  73.581  1.00  0.00    -0.287 C  
ENDBRANCH  27  34
ENDBRANCH  12  26
TORSDOF 5
ENDMDL
MODEL       35
REMARK 921   NORMALIZED FREE ENERGY PREDICTED BY IDOCK:   -7.22 KCAL/MOL
REMARK 922        TOTAL FREE ENERGY PREDICTED BY IDOCK:   -9.80 KCAL/MOL
REMARK 923 INTER-LIGAND FREE ENERGY PREDICTED BY IDOCK:   -9.21 KCAL/MOL
REMARK 924 INTRA-LIGAND FREE ENERGY PREDICTED BY IDOCK:   -0.59 KCAL/MOL
REMARK 927      BINDING AFFINITY PREDICTED BY RF-SCORE:    0.00 PKD
ROOT
HETATM    1  N   UNL     1     -12.254  12.765  70.117  1.00  0.00    -0.289 NA 
HETATM    2  C   UNL     1     -11.734  11.485  69.952  1.00  0.00    -0.343 A  
HETATM    3  H1  UNL     1     -12.067  13.403  69.343  1.00  0.00     0.000 HD 
HETATM    4  H2  UNL     1     -11.929  13.168  70.996  1.00  0.00     0.000 HD 
HETATM    5  N   UNL     1     -11.982  10.639  70.976  1.00  0.00    -0.350 NA 
HETATM    6  C   UNL     1     -11.607   9.354  70.864  1.00  0.00    -0.312 A  
HETATM    7  N   UNL     1     -11.020   8.767  69.815  1.00  0.00    -0.190 NA 
HETATM    8  C   UNL     1     -10.764   9.648  68.834  1.00  0.00    -0.206 A  
HETATM    9  C   UNL     1     -11.051  11.008  68.820  1.00  0.00    -0.293 A  
HETATM   10  C   UNL     1     -10.536  11.476  67.558  1.00  0.00    -0.206 A  
HETATM   11  N   UNL     1     -10.046  10.439  66.841  1.00  0.00    -0.210 NA 
HETATM   12  N   UNL     1     -10.196   9.358  67.628  1.00  0.00    -0.212 NA 
ENDROOT
BRANCH  10  13
HETATM   13  C   UNL     1     -10.495  12.827  66.949  1.00  0.00    -0.250 A  
HETATM   14  C   UNL     1      -9.310  13.501  66.627  1.00  0.00    -0.254 A  
HETATM   15  C   UNL     1      -9.347  14.798  66.081  1.00  0.00    -0.292 A  
HETATM   16  C   UNL     1     -11.709  13.479  66.648  1.00  0.00    -0.425 A  
HETATM   17  C   UNL     1     -10.565  15.434  65.806  1.00  0.00    -0.348 A  
HETATM   18  C   UNL     1     -11.750  14.764  66.085  1.00  0.00    -0.255 A  
BRANCH  17  19
HETATM   19  O   UNL     1     -10.479  16.735  65.364  1.00  0.00    -0.592 OA 
BRANCH  19  20
HETATM   20  C   UNL     1     -10.479  17.792  66.248  1.00  0.00    -0.307 A  
HETATM   21  C   UNL     1     -10.294  17.477  67.599  1.00  0.00    -0.360 A  
HETATM   22  C   UNL     1     -10.126  19.826  68.141  1.00  0.00    -0.574 A  
HETATM   23  C   UNL     1     -10.487  19.128  65.846  1.00  0.00    -0.500 A  
HETATM   24  C   UNL     1     -10.122  18.492  68.544  1.00  0.00    -0.414 A  
HETATM   25  C   UNL     1     -10.315  20.143  66.796  1.00  0.00    -0.505 A  
ENDBRANCH  19  20
ENDBRANCH  17  19
ENDBRANCH  10  13
BRANCH  12  26
HETATM   26  C   UNL     1      -9.833   8.029  67.137  1.00  0.00    -0.210 C  
HETATM   27  C   UNL     1      -7.134   5.498  67.122  1.00  0.00    -0.074 C  
HETATM   28  C   UNL     1     -11.032   7.060  67.146  1.00  0.00    -0.393 C  
HETATM   29  C   UNL     1      -9.480   5.167  67.676  1.00  0.00    -0.127 C  
HETATM   30  C   UNL     1     -10.607   5.641  66.769  1.00  0.00    -0.372 C  
HETATM   31  O   UNL     1      -7.037   4.301  66.839  1.00  0.00    -0.065 OA 
HETATM   32  N   UNL     1      -8.331   6.061  67.538  1.00  0.00    -0.109 N  
HETATM   33  C   UNL     1      -8.616   7.463  67.903  1.00  0.00    -0.125 C  
BRANCH  27  34
HETATM   34  C   UNL     1      -5.929   6.363  67.005  1.00  0.00    -0.024 C  
HETATM   35  C   UNL     1      -5.520   6.765  65.793  1.00  0.00    -0.026 C  
ENDBRANCH  27  34
ENDBRANCH  12  26
TORSDOF 5
ENDMDL
MODEL       36
REMARK 921   NORMALIZED FREE ENERGY PREDICTED BY IDOCK:   -7.21 KCAL/MOL
REMARK 922        TOTAL FREE ENERGY PREDICTED BY IDOCK:   -9.79 KCAL/MOL
REMARK 923 INTER-LIGAND FREE ENERGY PREDICTED BY IDOCK:   -8.91 KCAL/MOL
REMARK 924 INTRA-LIGAND FREE ENERGY PREDICTED BY IDOCK:   -0.88 KCAL/MOL
REMARK 927      BINDING AFFINITY PREDICTED BY RF-SCORE:    0.00 PKD
ROOT
HETATM    1  N   UNL     1     -10.216   8.516  66.313  1.00  0.00    -0.416 NA 
HETATM    2  C   UNL     1     -10.245   7.390  67.126  1.00  0.00    -0.277 A  
HETATM    3  H1  UNL     1     -10.424   9.393  66.791  1.00  0.00     0.000 HD 
HETATM    4  H2  UNL     1     -10.839   8.392  65.514  1.00  0.00     0.000 HD 
HETATM    5  N   UNL     1      -9.969   6.228  66.493  1.00  0.00    -0.148 NA 
HETATM    6  C   UNL     1      -9.874   5.099  67.215  1.00  0.00    -0.168 A  
HETATM    7  N   UNL     1      -9.993   4.970  68.541  1.00  0.00    -0.156 NA 
HETATM    8  C   UNL     1     -10.298   6.139  69.127  1.00  0.00    -0.218 A  
HETATM    9  C   UNL     1     -10.469   7.376  68.514  1.00  0.00    -0.215 A  
HETATM   10  C   UNL     1     -10.816   8.270  69.589  1.00  0.00    -0.150 A  
HETATM   11  N   UNL     1     -10.774   7.615  70.772  1.00  0.00    -0.222 NA 
HETATM   12  N   UNL     1     -10.461   6.343  70.466  1.00  0.00    -0.211 NA 
ENDROOT
BRANCH  10  13
HETATM   13  C   UNL     1     -11.156   9.713  69.601  1.00  0.00    -0.223 A  
HETATM   14  C   UNL     1     -10.720  10.624  68.631  1.00  0.00    -0.239 A  
HETATM   15  C   UNL     1     -11.055  11.988  68.724  1.00  0.00    -0.298 A  
HETATM   16  C   UNL     1     -11.987  10.212  70.625  1.00  0.00    -0.423 A  
HETATM   17  C   UNL     1     -11.868  12.465  69.761  1.00  0.00    -0.317 A  
HETATM   18  C   UNL     1     -12.341  11.567  70.710  1.00  0.00    -0.472 A  
BRANCH  17  19
HETATM   19  O   UNL     1     -12.050  13.829  69.805  1.00  0.00    -0.315 OA 
BRANCH  19  20
HETATM   20  C   UNL     1     -12.486  14.455  70.952  1.00  0.00    -0.354 A  
HETATM   21  C   UNL     1     -11.512  15.099  71.723  1.00  0.00    -0.452 A  
HETATM   22  C   UNL     1     -13.230  16.049  73.132  1.00  0.00    -0.633 A  
HETATM   23  C   UNL     1     -13.835  14.611  71.275  1.00  0.00    -0.420 A  
HETATM   24  C   UNL     1     -11.882  15.890  72.813  1.00  0.00    -0.583 A  
HETATM   25  C   UNL     1     -14.203  15.405  72.368  1.00  0.00    -0.584 A  
ENDBRANCH  19  20
ENDBRANCH  17  19
ENDBRANCH  10  13
BRANCH  12  26
HETATM   26  C   UNL     1     -10.256   5.356  71.526  1.00  0.00    -0.219 C  
HETATM   27  C   UNL     1      -7.661   3.547  73.445  1.00  0.00    -0.062 C  
HETATM   28  C   UNL     1     -11.298   5.491  72.653  1.00  0.00    -0.346 C  
HETATM   29  C   UNL     1      -9.567   4.782  74.319  1.00  0.00    -0.130 C  
HETATM   30  C   UNL     1     -10.986   4.552  73.819  1.00  0.00    -0.361 C  
HETATM   31  O   UNL     1      -7.623   2.882  74.483  1.00  0.00    -0.050 OA 
HETATM   32  N   UNL     1      -8.618   4.529  73.235  1.00  0.00    -0.101 N  
HETATM   33  C   UNL     1      -8.806   5.401  72.059  1.00  0.00    -0.134 C  
BRANCH  27  34
HETATM   34  C   UNL     1      -6.651   3.283  72.385  1.00  0.00    -0.015 C  
HETATM   35  C   UNL     1      -5.399   3.740  72.537  1.00  0.00     0.000 C  
ENDBRANCH  27  34
ENDBRANCH  12  26
TORSDOF 5
ENDMDL
MODEL       37
REMARK 921   NORMALIZED FREE ENERGY PREDICTED BY IDOCK:   -7.19 KCAL/MOL
REMARK 922        TOTAL FREE ENERGY PREDICTED BY IDOCK:   -9.77 KCAL/MOL
REMARK 923 INTER-LIGAND FREE ENERGY PREDICTED BY IDOCK:   -8.59 KCAL/MOL
REMARK 924 INTRA-LIGAND FREE ENERGY PREDICTED BY IDOCK:   -1.18 KCAL/MOL
REMARK 927      BINDING AFFINITY PREDICTED BY RF-SCORE:    0.00 PKD
ROOT
HETATM    1  N   UNL     1     -10.823   8.593  70.679  1.00  0.00    -0.223 NA 
HETATM    2  C   UNL     1     -11.331   9.800  70.213  1.00  0.00    -0.272 A  
HETATM    3  H1  UNL     1     -10.398   8.005  69.962  1.00  0.00     0.000 HD 
HETATM    4  H2  UNL     1     -11.546   8.076  71.181  1.00  0.00     0.000 HD 
HETATM    5  N   UNL     1     -11.894  10.581  71.162  1.00  0.00    -0.332 NA 
HETATM    6  C   UNL     1     -12.323  11.809  70.825  1.00  0.00    -0.337 A  
HETATM    7  N   UNL     1     -12.237  12.400  69.629  1.00  0.00    -0.171 NA 
HETATM    8  C   UNL     1     -11.702  11.581  68.709  1.00  0.00    -0.334 A  
HETATM    9  C   UNL     1     -11.252  10.278  68.893  1.00  0.00    -0.259 A  
HETATM   10  C   UNL     1     -10.814   9.856  67.587  1.00  0.00    -0.257 A  
HETATM   11  N   UNL     1     -10.926  10.876  66.705  1.00  0.00    -0.228 NA 
HETATM   12  N   UNL     1     -11.459  11.895  67.404  1.00  0.00    -0.402 NA 
ENDROOT
BRANCH  10  13
HETATM   13  C   UNL     1     -10.262   8.569  67.100  1.00  0.00    -0.355 A  
HETATM   14  C   UNL     1      -9.016   8.443  66.472  1.00  0.00    -0.190 A  
HETATM   15  C   UNL     1      -8.571   7.192  66.005  1.00  0.00    -0.158 A  
HETATM   16  C   UNL     1     -11.008   7.388  67.292  1.00  0.00    -0.234 A  
HETATM   17  C   UNL     1      -9.337   6.034  66.191  1.00  0.00    -0.118 A  
HETATM   18  C   UNL     1     -10.558   6.136  66.846  1.00  0.00    -0.380 A  
BRANCH  17  19
HETATM   19  O   UNL     1      -8.847   4.887  65.609  1.00  0.00    -0.129 OA 
BRANCH  19  20
HETATM   20  C   UNL     1      -8.334   3.861  66.372  1.00  0.00    -0.105 A  
HETATM   21  C   UNL     1      -9.225   2.844  66.733  1.00  0.00    -0.147 A  
HETATM   22  C   UNL     1      -7.402   1.544  67.639  1.00  0.00    -0.053 A  
HETATM   23  C   UNL     1      -6.973   3.715  66.647  1.00  0.00    -0.058 A  
HETATM   24  C   UNL     1      -8.761   1.690  67.369  1.00  0.00    -0.125 A  
HETATM   25  C   UNL     1      -6.512   2.557  67.285  1.00  0.00    -0.035 A  
ENDBRANCH  19  20
ENDBRANCH  17  19
ENDBRANCH  10  13
BRANCH  12  26
HETATM   26  C   UNL     1     -11.654  13.201  66.775  1.00  0.00    -0.366 C  
HETATM   27  C   UNL     1     -10.109  16.527  66.284  1.00  0.00    -0.333 C  
HETATM   28  C   UNL     1     -12.350  13.086  65.405  1.00  0.00    -0.538 C  
HETATM   29  C   UNL     1     -11.026  15.048  64.584  1.00  0.00    -0.303 C  
HETATM   30  C   UNL     1     -12.417  14.440  64.696  1.00  0.00    -0.364 C  
HETATM   31  O   UNL     1     -10.289  17.491  65.536  1.00  0.00    -0.620 OA 
HETATM   32  N   UNL     1     -10.464  15.237  65.920  1.00  0.00    -0.311 N  
HETATM   33  C   UNL     1     -10.325  13.987  66.694  1.00  0.00    -0.278 C  
BRANCH  27  34
HETATM   34  C   UNL     1      -9.497  16.760  67.621  1.00  0.00    -0.234 C  
HETATM   35  C   UNL     1     -10.267  17.181  68.635  1.00  0.00    -0.336 C  
ENDBRANCH  27  34
ENDBRANCH  12  26
TORSDOF 5
ENDMDL
MODEL       38
REMARK 921   NORMALIZED FREE ENERGY PREDICTED BY IDOCK:   -7.14 KCAL/MOL
REMARK 922        TOTAL FREE ENERGY PREDICTED BY IDOCK:   -9.71 KCAL/MOL
REMARK 923 INTER-LIGAND FREE ENERGY PREDICTED BY IDOCK:   -8.74 KCAL/MOL
REMARK 924 INTRA-LIGAND FREE ENERGY PREDICTED BY IDOCK:   -0.96 KCAL/MOL
REMARK 927      BINDING AFFINITY PREDICTED BY RF-SCORE:    0.00 PKD
ROOT
HETATM    1  N   UNL     1     -12.070  13.484  70.673  1.00  0.00    -0.466 NA 
HETATM    2  C   UNL     1     -11.762  13.418  69.319  1.00  0.00    -0.330 A  
HETATM    3  H1  UNL     1     -11.880  12.629  71.196  1.00  0.00     0.000 HD 
HETATM    4  H2  UNL     1     -13.041  13.770  70.802  1.00  0.00     0.000 HD 
HETATM    5  N   UNL     1     -12.013  14.551  68.627  1.00  0.00    -0.312 NA 
HETATM    6  C   UNL     1     -11.655  14.616  67.333  1.00  0.00    -0.389 A  
HETATM    7  N   UNL     1     -11.029  13.677  66.615  1.00  0.00    -0.290 NA 
HETATM    8  C   UNL     1     -10.827  12.559  67.330  1.00  0.00    -0.245 A  
HETATM    9  C   UNL     1     -11.176  12.326  68.656  1.00  0.00    -0.305 A  
HETATM   10  C   UNL     1     -10.767  10.967  68.906  1.00  0.00    -0.215 A  
HETATM   11  N   UNL     1     -10.145  10.459  67.817  1.00  0.00    -0.174 NA 
HETATM   12  N   UNL     1     -10.194  11.433  66.890  1.00  0.00    -0.213 NA 
ENDROOT
BRANCH  10  13
HETATM   13  C   UNL     1     -10.885  10.107  70.108  1.00  0.00    -0.368 A  
HETATM   14  C   UNL     1      -9.800   9.458  70.712  1.00  0.00    -0.348 A  
HETATM   15  C   UNL     1      -9.993   8.629  71.833  1.00  0.00    -0.392 A  
HETATM   16  C   UNL     1     -12.150   9.939  70.707  1.00  0.00    -0.396 A  
HETATM   17  C   UNL     1     -11.262   8.463  72.402  1.00  0.00    -0.368 A  
HETATM   18  C   UNL     1     -12.343   9.130  71.838  1.00  0.00    -0.455 A  
BRANCH  17  19
HETATM   19  O   UNL     1     -11.347   7.556  73.434  1.00  0.00    -0.249 OA 
BRANCH  19  20
HETATM   20  C   UNL     1     -10.649   6.369  73.401  1.00  0.00    -0.276 A  
HETATM   21  C   UNL     1      -9.588   6.241  74.306  1.00  0.00    -0.240 A  
HETATM   22  C   UNL     1      -9.330   3.917  73.702  1.00  0.00    -0.116 A  
HETATM   23  C   UNL     1     -11.047   5.264  72.646  1.00  0.00    -0.319 A  
HETATM   24  C   UNL     1      -8.927   5.019  74.453  1.00  0.00    -0.111 A  
HETATM   25  C   UNL     1     -10.382   4.041  72.796  1.00  0.00    -0.239 A  
ENDBRANCH  19  20
ENDBRANCH  17  19
ENDBRANCH  10  13
BRANCH  12  26
HETATM   26  C   UNL     1      -9.543  11.254  65.594  1.00  0.00    -0.229 C  
HETATM   27  C   UNL     1      -6.798   9.474  63.864  1.00  0.00    -0.105 C  
HETATM   28  C   UNL     1     -10.554  11.265  64.431  1.00  0.00    -0.410 C  
HETATM   29  C   UNL     1      -9.135   9.609  63.199  1.00  0.00    -0.199 C  
HETATM   30  C   UNL     1      -9.878  10.933  63.099  1.00  0.00    -0.392 C  
HETATM   31  O   UNL     1      -6.483   9.246  62.694  1.00  0.00    -0.094 OA 
HETATM   32  N   UNL     1      -8.114   9.698  64.242  1.00  0.00    -0.136 N  
HETATM   33  C   UNL     1      -8.653   9.989  65.585  1.00  0.00    -0.155 C  
BRANCH  27  34
HETATM   34  C   UNL     1      -5.730   9.516  64.900  1.00  0.00    -0.065 C  
HETATM   35  C   UNL     1      -5.137  10.683  65.189  1.00  0.00    -0.141 C  
ENDBRANCH  27  34
ENDBRANCH  12  26
TORSDOF 5
ENDMDL
MODEL       39
REMARK 921   NORMALIZED FREE ENERGY PREDICTED BY IDOCK:   -7.14 KCAL/MOL
REMARK 922        TOTAL FREE ENERGY PREDICTED BY IDOCK:   -9.70 KCAL/MOL
REMARK 923 INTER-LIGAND FREE ENERGY PREDICTED BY IDOCK:   -8.61 KCAL/MOL
REMARK 924 INTRA-LIGAND FREE ENERGY PREDICTED BY IDOCK:   -1.09 KCAL/MOL
REMARK 927      BINDING AFFINITY PREDICTED BY RF-SCORE:    0.00 PKD
ROOT
HETATM    1  N   UNL     1      -9.253  11.975  65.335  1.00  0.00    -0.432 NA 
HETATM    2  C   UNL     1      -9.513  10.785  66.006  1.00  0.00    -0.194 A  
HETATM    3  H1  UNL     1      -9.416  12.818  65.884  1.00  0.00     0.000 HD 
HETATM    4  H2  UNL     1      -9.782  12.011  64.463  1.00  0.00     0.000 HD 
HETATM    5  N   UNL     1      -9.297   9.667  65.279  1.00  0.00    -0.244 NA 
HETATM    6  C   UNL     1      -9.424   8.469  65.874  1.00  0.00    -0.137 A  
HETATM    7  N   UNL     1      -9.722   8.225  67.154  1.00  0.00    -0.177 NA 
HETATM    8  C   UNL     1      -9.959   9.359  67.833  1.00  0.00    -0.182 A  
HETATM    9  C   UNL     1      -9.908  10.662  67.350  1.00  0.00    -0.198 A  
HETATM   10  C   UNL     1     -10.280  11.482  68.475  1.00  0.00    -0.213 A  
HETATM   11  N   UNL     1     -10.462  10.713  69.573  1.00  0.00    -0.223 NA 
HETATM   12  N   UNL     1     -10.263   9.448  69.160  1.00  0.00    -0.194 NA 
ENDROOT
BRANCH  10  13
HETATM   13  C   UNL     1     -10.450  12.948  68.613  1.00  0.00    -0.231 A  
HETATM   14  C   UNL     1      -9.402  13.869  68.487  1.00  0.00    -0.164 A  
HETATM   15  C   UNL     1      -9.631  15.247  68.665  1.00  0.00    -0.206 A  
HETATM   16  C   UNL     1     -11.737  13.468  68.861  1.00  0.00    -0.379 A  
HETATM   17  C   UNL     1     -10.916  15.740  68.928  1.00  0.00    -0.283 A  
HETATM   18  C   UNL     1     -11.973  14.842  69.018  1.00  0.00    -0.307 A  
BRANCH  17  19
HETATM   19  O   UNL     1     -11.004  17.090  69.178  1.00  0.00    -0.234 OA 
BRANCH  19  20
HETATM   20  C   UNL     1     -10.474  18.015  68.305  1.00  0.00    -0.343 A  
HETATM   21  C   UNL     1     -10.977  18.004  66.999  1.00  0.00     0.033 A  
HETATM   22  C   UNL     1      -9.754  20.024  66.491  1.00  0.00    -0.564 A  
HETATM   23  C   UNL     1      -9.608  19.036  68.701  1.00  0.00    -0.458 A  
HETATM   24  C   UNL     1     -10.614  19.003  66.093  1.00  0.00    -0.495 A  
HETATM   25  C   UNL     1      -9.247  20.036  67.790  1.00  0.00    -0.435 A  
ENDBRANCH  19  20
ENDBRANCH  17  19
ENDBRANCH  10  13
BRANCH  12  26
HETATM   26  C   UNL     1     -10.308   8.342  70.116  1.00  0.00    -0.212 C  
HETATM   27  C   UNL     1      -9.586   7.411  73.624  1.00  0.00    -0.287 C  
HETATM   28  C   UNL     1     -11.545   7.448  69.910  1.00  0.00     0.053 C  
HETATM   29  C   UNL     1     -11.643   7.037  72.378  1.00  0.00    -0.245 C  
HETATM   30  C   UNL     1     -11.656   6.384  71.003  1.00  0.00    -0.386 C  
HETATM   31  O   UNL     1      -9.876   6.477  74.374  1.00  0.00    -0.271 OA 
HETATM   32  N   UNL     1     -10.395   7.777  72.558  1.00  0.00    -0.244 N  
HETATM   33  C   UNL     1     -10.190   8.855  71.569  1.00  0.00    -0.328 C  
BRANCH  27  34
HETATM   34  C   UNL     1      -8.325   8.163  73.867  1.00  0.00    -0.311 C  
HETATM   35  C   UNL     1      -7.201   7.789  73.239  1.00  0.00    -0.120 C  
ENDBRANCH  27  34
ENDBRANCH  12  26
TORSDOF 5
ENDMDL
MODEL       40
REMARK 921   NORMALIZED FREE ENERGY PREDICTED BY IDOCK:   -7.12 KCAL/MOL
REMARK 922        TOTAL FREE ENERGY PREDICTED BY IDOCK:   -9.67 KCAL/MOL
REMARK 923 INTER-LIGAND FREE ENERGY PREDICTED BY IDOCK:   -8.58 KCAL/MOL
REMARK 924 INTRA-LIGAND FREE ENERGY PREDICTED BY IDOCK:   -1.09 KCAL/MOL
REMARK 927      BINDING AFFINITY PREDICTED BY RF-SCORE:    0.00 PKD
ROOT
HETATM    1  N   UNL     1     -13.105  13.118  70.750  1.00  0.00     0.016 NA 
HETATM    2  C   UNL     1     -12.679  11.819  71.000  1.00  0.00    -0.275 A  
HETATM    3  H1  UNL     1     -12.623  13.584  69.981  1.00  0.00     0.000 HD 
HETATM    4  H2  UNL     1     -13.044  13.681  71.599  1.00  0.00     0.000 HD 
HETATM    5  N   UNL     1     -13.318  11.201  72.019  1.00  0.00    -0.401 NA 
HETATM    6  C   UNL     1     -13.045   9.910  72.271  1.00  0.00    -0.327 A  
HETATM    7  N   UNL     1     -12.209   9.110  71.601  1.00  0.00    -0.337 NA 
HETATM    8  C   UNL     1     -11.572   9.770  70.619  1.00  0.00    -0.313 A  
HETATM    9  C   UNL     1     -11.716  11.107  70.265  1.00  0.00    -0.431 A  
HETATM   10  C   UNL     1     -10.783  11.298  69.183  1.00  0.00    -0.207 A  
HETATM   11  N   UNL     1     -10.185  10.126  68.870  1.00  0.00    -0.188 NA 
HETATM   12  N   UNL     1     -10.677   9.229  69.744  1.00  0.00    -0.227 NA 
ENDROOT
BRANCH  10  13
HETATM   13  C   UNL     1     -10.426  12.498  68.390  1.00  0.00    -0.250 A  
HETATM   14  C   UNL     1      -9.112  12.941  68.195  1.00  0.00    -0.207 A  
HETATM   15  C   UNL     1      -8.850  14.111  67.456  1.00  0.00    -0.202 A  
HETATM   16  C   UNL     1     -11.453  13.237  67.767  1.00  0.00    -0.354 A  
HETATM   17  C   UNL     1      -9.888  14.839  66.860  1.00  0.00    -0.243 A  
HETATM   18  C   UNL     1     -11.195  14.391  67.012  1.00  0.00    -0.336 A  
BRANCH  17  19
HETATM   19  O   UNL     1      -9.524  16.015  66.245  1.00  0.00    -0.265 OA 
BRANCH  19  20
HETATM   20  C   UNL     1      -9.958  17.234  66.717  1.00  0.00    -0.301 A  
HETATM   21  C   UNL     1      -9.671  17.525  68.056  1.00  0.00    -0.287 A  
HETATM   22  C   UNL     1     -10.474  19.784  67.755  1.00  0.00    -0.555 A  
HETATM   23  C   UNL     1     -10.506  18.224  65.899  1.00  0.00    -0.324 A  
HETATM   24  C   UNL     1      -9.932  18.796  68.575  1.00  0.00    -0.450 A  
HETATM   25  C   UNL     1     -10.766  19.496  66.422  1.00  0.00    -0.528 A  
ENDBRANCH  19  20
ENDBRANCH  17  19
ENDBRANCH  10  13
BRANCH  12  26
HETATM   26  C   UNL     1     -10.299   7.819  69.649  1.00  0.00    -0.212 C  
HETATM   27  C   UNL     1      -9.612   5.078  67.260  1.00  0.00    -0.148 C  
HETATM   28  C   UNL     1      -9.276   7.419  70.730  1.00  0.00    -0.159 C  
HETATM   29  C   UNL     1      -8.228   5.809  69.123  1.00  0.00    -0.101 C  
HETATM   30  C   UNL     1      -8.782   5.986  70.530  1.00  0.00    -0.138 C  
HETATM   31  O   UNL     1      -9.083   3.965  67.310  1.00  0.00    -0.131 OA 
HETATM   32  N   UNL     1      -9.276   6.093  68.144  1.00  0.00    -0.118 N  
HETATM   33  C   UNL     1      -9.815   7.465  68.224  1.00  0.00    -0.160 C  
BRANCH  27  34
HETATM   34  C   UNL     1     -10.646   5.336  66.222  1.00  0.00    -0.308 C  
HETATM   35  C   UNL     1     -10.713   4.540  65.144  1.00  0.00    -0.116 C  
ENDBRANCH  27  34
ENDBRANCH  12  26
TORSDOF 5
ENDMDL
MODEL       41
REMARK 921   NORMALIZED FREE ENERGY PREDICTED BY IDOCK:   -7.11 KCAL/MOL
REMARK 922        TOTAL FREE ENERGY PREDICTED BY IDOCK:   -9.66 KCAL/MOL
REMARK 923 INTER-LIGAND FREE ENERGY PREDICTED BY IDOCK:   -9.01 KCAL/MOL
REMARK 924 INTRA-LIGAND FREE ENERGY PREDICTED BY IDOCK:   -0.65 KCAL/MOL
REMARK 927      BINDING AFFINITY PREDICTED BY RF-SCORE:    0.00 PKD
ROOT
HETATM    1  N   UNL     1     -12.355   8.240  72.418  1.00  0.00    -0.494 NA 
HETATM    2  C   UNL     1     -11.460   7.382  71.789  1.00  0.00    -0.265 A  
HETATM    3  H1  UNL     1     -12.428   9.165  71.995  1.00  0.00     0.000 HD 
HETATM    4  H2  UNL     1     -12.131   8.320  73.411  1.00  0.00     0.000 HD 
HETATM    5  N   UNL     1     -11.364   6.156  72.349  1.00  0.00    -0.283 NA 
HETATM    6  C   UNL     1     -10.600   5.226  71.751  1.00  0.00    -0.201 A  
HETATM    7  N   UNL     1      -9.914   5.348  70.610  1.00  0.00    -0.200 NA 
HETATM    8  C   UNL     1     -10.011   6.589  70.104  1.00  0.00    -0.167 A  
HETATM    9  C   UNL     1     -10.723   7.663  70.625  1.00  0.00    -0.237 A  
HETATM   10  C   UNL     1     -10.458   8.750  69.717  1.00  0.00    -0.219 A  
HETATM   11  N   UNL     1      -9.699   8.319  68.684  1.00  0.00    -0.153 NA 
HETATM   12  N   UNL     1      -9.447   7.023  68.940  1.00  0.00    -0.138 NA 
ENDROOT
BRANCH  10  13
HETATM   13  C   UNL     1     -10.890  10.168  69.724  1.00  0.00    -0.320 A  
HETATM   14  C   UNL     1     -11.818  10.696  70.631  1.00  0.00    -0.463 A  
HETATM   15  C   UNL     1     -12.207  12.047  70.556  1.00  0.00    -0.414 A  
HETATM   16  C   UNL     1     -10.328  11.059  68.787  1.00  0.00    -0.217 A  
HETATM   17  C   UNL     1     -11.648  12.910  69.605  1.00  0.00    -0.248 A  
HETATM   18  C   UNL     1     -10.697  12.412  68.723  1.00  0.00    -0.242 A  
BRANCH  17  19
HETATM   19  O   UNL     1     -12.172  14.182  69.564  1.00  0.00    -0.326 OA 
BRANCH  19  20
HETATM   20  C   UNL     1     -12.500  14.859  70.718  1.00  0.00    -0.339 A  
HETATM   21  C   UNL     1     -13.848  14.841  71.092  1.00  0.00    -0.388 A  
HETATM   22  C   UNL     1     -13.297  15.900  73.192  1.00  0.00    -0.681 A  
HETATM   23  C   UNL     1     -11.550  15.400  71.586  1.00  0.00    -0.492 A  
HETATM   24  C   UNL     1     -14.247  15.365  72.325  1.00  0.00    -0.639 A  
HETATM   25  C   UNL     1     -11.953  15.924  72.821  1.00  0.00    -0.616 A  
ENDBRANCH  19  20
ENDBRANCH  17  19
ENDBRANCH  10  13
BRANCH  12  26
HETATM   26  C   UNL     1      -8.702   6.210  67.980  1.00  0.00    -0.113 C  
HETATM   27  C   UNL     1      -8.892   4.636  64.636  1.00  0.00    -0.153 C  
HETATM   28  C   UNL     1      -7.202   6.559  67.965  1.00  0.00    -0.088 C  
HETATM   29  C   UNL     1      -7.124   6.062  65.512  1.00  0.00    -0.069 C  
HETATM   30  C   UNL     1      -6.463   5.805  66.858  1.00  0.00    -0.050 C  
HETATM   31  O   UNL     1      -8.091   4.143  63.838  1.00  0.00    -0.087 OA 
HETATM   32  N   UNL     1      -8.513   5.606  65.553  1.00  0.00    -0.141 N  
HETATM   33  C   UNL     1      -9.336   6.287  66.572  1.00  0.00    -0.151 C  
BRANCH  27  34
HETATM   34  C   UNL     1     -10.305   4.171  64.617  1.00  0.00    -0.193 C  
HETATM   35  C   UNL     1     -10.681   3.241  63.727  1.00  0.00    -0.225 C  
ENDBRANCH  27  34
ENDBRANCH  12  26
TORSDOF 5
ENDMDL
MODEL       42
REMARK 921   NORMALIZED FREE ENERGY PREDICTED BY IDOCK:   -7.09 KCAL/MOL
REMARK 922        TOTAL FREE ENERGY PREDICTED BY IDOCK:   -9.64 KCAL/MOL
REMARK 923 INTER-LIGAND FREE ENERGY PREDICTED BY IDOCK:   -9.40 KCAL/MOL
REMARK 924 INTRA-LIGAND FREE ENERGY PREDICTED BY IDOCK:   -0.23 KCAL/MOL
REMARK 927      BINDING AFFINITY PREDICTED BY RF-SCORE:    0.00 PKD
ROOT
HETATM    1  N   UNL     1      -8.924  11.456  63.296  1.00  0.00    -0.493 NA 
HETATM    2  C   UNL     1      -9.135  10.568  64.344  1.00  0.00    -0.225 A  
HETATM    3  H1  UNL     1      -9.082  12.436  63.530  1.00  0.00     0.000 HD 
HETATM    4  H2  UNL     1      -9.487  11.189  62.487  1.00  0.00     0.000 HD 
HETATM    5  N   UNL     1      -8.926   9.269  64.035  1.00  0.00    -0.142 NA 
HETATM    6  C   UNL     1      -9.008   8.347  65.009  1.00  0.00     0.112 A  
HETATM    7  N   UNL     1      -9.251   8.555  66.307  1.00  0.00    -0.193 NA 
HETATM    8  C   UNL     1      -9.484   9.852  66.566  1.00  0.00    -0.181 A  
HETATM    9  C   UNL     1      -9.477  10.910  65.664  1.00  0.00    -0.252 A  
HETATM   10  C   UNL     1      -9.822  12.065  66.455  1.00  0.00    -0.209 A  
HETATM   11  N   UNL     1      -9.947  11.717  67.757  1.00  0.00    -0.186 NA 
HETATM   12  N   UNL     1      -9.739  10.389  67.794  1.00  0.00    -0.158 NA 
ENDROOT
BRANCH  10  13
HETATM   13  C   UNL     1     -10.014  13.488  66.090  1.00  0.00    -0.310 A  
HETATM   14  C   UNL     1      -9.065  14.490  66.332  1.00  0.00    -0.217 A  
HETATM   15  C   UNL     1      -9.330  15.829  65.988  1.00  0.00    -0.384 A  
HETATM   16  C   UNL     1     -11.204  13.873  65.439  1.00  0.00    -0.306 A  
HETATM   17  C   UNL     1     -10.527  16.192  65.357  1.00  0.00    -0.373 A  
HETATM   18  C   UNL     1     -11.463  15.204  65.075  1.00  0.00    -0.339 A  
BRANCH  17  19
HETATM   19  O   UNL     1     -10.718  17.540  65.155  1.00  0.00    -0.673 OA 
BRANCH  19  20
HETATM   20  C   UNL     1     -10.530  18.449  66.173  1.00  0.00    -0.395 A  
HETATM   21  C   UNL     1     -10.638  17.958  67.479  1.00  0.00    -0.386 A  
HETATM   22  C   UNL     1      -9.862  20.071  68.356  1.00  0.00    -0.436 A  
HETATM   23  C   UNL     1     -10.085  19.756  65.962  1.00  0.00    -0.574 A  
HETATM   24  C   UNL     1     -10.309  18.768  68.568  1.00  0.00    -0.312 A  
HETATM   25  C   UNL     1      -9.756  20.565  67.057  1.00  0.00    -0.548 A  
ENDBRANCH  19  20
ENDBRANCH  17  19
ENDBRANCH  10  13
BRANCH  12  26
HETATM   26  C   UNL     1      -9.726   9.677  69.071  1.00  0.00    -0.169 C  
HETATM   27  C   UNL     1     -11.862   7.855  71.482  1.00  0.00    -0.289 C  
HETATM   28  C   UNL     1      -8.439   8.852  69.263  1.00  0.00    -0.121 C  
HETATM   29  C   UNL     1      -9.748   7.126  70.520  1.00  0.00    -0.176 C  
HETATM   30  C   UNL     1      -8.503   8.002  70.533  1.00  0.00    -0.125 C  
HETATM   31  O   UNL     1     -11.678   7.102  72.442  1.00  0.00    -0.270 OA 
HETATM   32  N   UNL     1     -10.940   7.971  70.452  1.00  0.00    -0.249 N  
HETATM   33  C   UNL     1     -11.002   8.822  69.247  1.00  0.00     0.014 C  
BRANCH  27  34
HETATM   34  C   UNL     1     -13.108   8.666  71.433  1.00  0.00    -0.277 C  
HETATM   35  C   UNL     1     -13.059   9.971  71.741  1.00  0.00    -0.562 C  
ENDBRANCH  27  34
ENDBRANCH  12  26
TORSDOF 5
ENDMDL
MODEL       43
REMARK 921   NORMALIZED FREE ENERGY PREDICTED BY IDOCK:   -7.09 KCAL/MOL
REMARK 922        TOTAL FREE ENERGY PREDICTED BY IDOCK:   -9.63 KCAL/MOL
REMARK 923 INTER-LIGAND FREE ENERGY PREDICTED BY IDOCK:   -8.89 KCAL/MOL
REMARK 924 INTRA-LIGAND FREE ENERGY PREDICTED BY IDOCK:   -0.75 KCAL/MOL
REMARK 927      BINDING AFFINITY PREDICTED BY RF-SCORE:    0.00 PKD
ROOT
HETATM    1  N   UNL     1     -12.820  14.760  70.288  1.00  0.00    -0.567 NA 
HETATM    2  C   UNL     1     -12.627  13.427  70.633  1.00  0.00    -0.253 A  
HETATM    3  H1  UNL     1     -12.235  15.091  69.521  1.00  0.00     0.000 HD 
HETATM    4  H2  UNL     1     -12.702  15.358  71.107  1.00  0.00     0.000 HD 
HETATM    5  N   UNL     1     -13.403  12.988  71.650  1.00  0.00    -0.344 NA 
HETATM    6  C   UNL     1     -13.359  11.689  71.987  1.00  0.00    -0.300 A  
HETATM    7  N   UNL     1     -12.641  10.722  71.407  1.00  0.00    -0.401 NA 
HETATM    8  C   UNL     1     -11.863  11.204  70.424  1.00  0.00    -0.369 A  
HETATM    9  C   UNL     1     -11.766  12.522  69.989  1.00  0.00    -0.297 A  
HETATM   10  C   UNL     1     -10.770  12.489  68.948  1.00  0.00    -0.165 A  
HETATM   11  N   UNL     1     -10.363  11.217  68.732  1.00  0.00    -0.199 NA 
HETATM   12  N   UNL     1     -11.034  10.470  69.627  1.00  0.00    -0.264 NA 
ENDROOT
BRANCH  10  13
HETATM   13  C   UNL     1     -10.185  13.562  68.109  1.00  0.00    -0.249 A  
HETATM   14  C   UNL     1      -8.849  13.974  68.191  1.00  0.00    -0.182 A  
HETATM   15  C   UNL     1      -8.371  15.025  67.385  1.00  0.00    -0.210 A  
HETATM   16  C   UNL     1     -10.998  14.200  67.151  1.00  0.00    -0.304 A  
HETATM   17  C   UNL     1      -9.202  15.657  66.450  1.00  0.00    -0.311 A  
HETATM   18  C   UNL     1     -10.520  15.234  66.330  1.00  0.00    -0.307 A  
BRANCH  17  19
HETATM   19  O   UNL     1      -8.654  16.732  65.787  1.00  0.00    -0.485 OA 
BRANCH  19  20
HETATM   20  C   UNL     1      -8.642  17.989  66.350  1.00  0.00    -0.228 A  
HETATM   21  C   UNL     1      -7.402  18.465  66.791  1.00  0.00    -0.234 A  
HETATM   22  C   UNL     1      -8.369  20.637  67.219  1.00  0.00    -0.305 A  
HETATM   23  C   UNL     1      -9.747  18.842  66.346  1.00  0.00    -0.395 A  
HETATM   24  C   UNL     1      -7.267  19.785  67.229  1.00  0.00    -0.262 A  
HETATM   25  C   UNL     1      -9.607  20.165  66.786  1.00  0.00    -0.559 A  
ENDBRANCH  19  20
ENDBRANCH  17  19
ENDBRANCH  10  13
BRANCH  12  26
HETATM   26  C   UNL     1     -10.892   9.014  69.631  1.00  0.00    -0.186 C  
HETATM   27  C   UNL     1      -9.333   6.174  67.844  1.00  0.00    -0.113 C  
HETATM   28  C   UNL     1     -10.796   8.444  71.059  1.00  0.00    -0.280 C  
HETATM   29  C   UNL     1      -9.251   6.657  70.228  1.00  0.00    -0.156 C  
HETATM   30  C   UNL     1     -10.504   6.943  71.044  1.00  0.00    -0.235 C  
HETATM   31  O   UNL     1      -9.115   4.984  68.083  1.00  0.00    -0.109 OA 
HETATM   32  N   UNL     1      -9.446   7.118  68.854  1.00  0.00    -0.143 N  
HETATM   33  C   UNL     1      -9.711   8.566  68.740  1.00  0.00    -0.164 C  
BRANCH  27  34
HETATM   34  C   UNL     1      -9.485   6.606  66.429  1.00  0.00    -0.166 C  
HETATM   35  C   UNL     1      -8.401   6.684  65.642  1.00  0.00    -0.144 C  
ENDBRANCH  27  34
ENDBRANCH  12  26
TORSDOF 5
ENDMDL
MODEL       44
REMARK 921   NORMALIZED FREE ENERGY PREDICTED BY IDOCK:   -7.05 KCAL/MOL
REMARK 922        TOTAL FREE ENERGY PREDICTED BY IDOCK:   -9.58 KCAL/MOL
REMARK 923 INTER-LIGAND FREE ENERGY PREDICTED BY IDOCK:   -8.76 KCAL/MOL
REMARK 924 INTRA-LIGAND FREE ENERGY PREDICTED BY IDOCK:   -0.82 KCAL/MOL
REMARK 927      BINDING AFFINITY PREDICTED BY RF-SCORE:    0.00 PKD
ROOT
HETATM    1  N   UNL     1     -10.284  12.941  63.416  1.00  0.00    -0.540 NA 
HETATM    2  C   UNL     1      -9.801  11.652  63.610  1.00  0.00    -0.345 A  
HETATM    3  H1  UNL     1     -10.476  13.458  64.274  1.00  0.00     0.000 HD 
HETATM    4  H2  UNL     1     -11.113  12.922  62.820  1.00  0.00     0.000 HD 
HETATM    5  N   UNL     1      -9.547  10.967  62.473  1.00  0.00    -0.239 NA 
HETATM    6  C   UNL     1      -8.983   9.750  62.558  1.00  0.00    -0.268 A  
HETATM    7  N   UNL     1      -8.596   9.110  63.667  1.00  0.00    -0.193 NA 
HETATM    8  C   UNL     1      -8.895   9.810  64.773  1.00  0.00    -0.207 A  
HETATM    9  C   UNL     1      -9.511  11.054  64.848  1.00  0.00    -0.270 A  
HETATM   10  C   UNL     1      -9.622  11.320  66.261  1.00  0.00    -0.209 A  
HETATM   11  N   UNL     1      -9.035  10.328  66.969  1.00  0.00    -0.136 NA 
HETATM   12  N   UNL     1      -8.609   9.439  66.055  1.00  0.00    -0.137 NA 
ENDROOT
BRANCH  10  13
HETATM   13  C   UNL     1     -10.211  12.458  67.006  1.00  0.00    -0.232 A  
HETATM   14  C   UNL     1      -9.535  13.167  68.007  1.00  0.00    -0.220 A  
HETATM   15  C   UNL     1     -10.170  14.217  68.697  1.00  0.00    -0.238 A  
HETATM   16  C   UNL     1     -11.517  12.882  66.687  1.00  0.00    -0.393 A  
HETATM   17  C   UNL     1     -11.476  14.611  68.375  1.00  0.00    -0.311 A  
HETATM   18  C   UNL     1     -12.146  13.942  67.358  1.00  0.00    -0.380 A  
BRANCH  17  19
HETATM   19  O   UNL     1     -12.028  15.582  69.179  1.00  0.00    -0.348 OA 
BRANCH  19  20
HETATM   20  C   UNL     1     -12.315  15.337  70.504  1.00  0.00    -0.387 A  
HETATM   21  C   UNL     1     -11.777  16.230  71.436  1.00  0.00    -0.427 A  
HETATM   22  C   UNL     1     -13.055  15.186  73.200  1.00  0.00    -0.625 A  
HETATM   23  C   UNL     1     -13.225  14.366  70.925  1.00  0.00    -0.347 A  
HETATM   24  C   UNL     1     -12.143  16.153  72.782  1.00  0.00    -0.653 A  
HETATM   25  C   UNL     1     -13.590  14.291  72.275  1.00  0.00    -0.573 A  
ENDBRANCH  19  20
ENDBRANCH  17  19
ENDBRANCH  10  13
BRANCH  12  26
HETATM   26  C   UNL     1      -7.853   8.257  66.468  1.00  0.00    -0.093 C  
HETATM   27  C   UNL     1      -8.179   4.682  67.366  1.00  0.00    -0.101 C  
HETATM   28  C   UNL     1      -6.478   8.177  65.777  1.00  0.00    -0.052 C  
HETATM   29  C   UNL     1      -6.647   5.678  65.759  1.00  0.00    -0.041 C  
HETATM   30  C   UNL     1      -5.762   6.867  66.106  1.00  0.00    -0.030 C  
HETATM   31  O   UNL     1      -7.415   3.723  67.492  1.00  0.00    -0.066 OA 
HETATM   32  N   UNL     1      -7.888   5.750  66.530  1.00  0.00    -0.100 N  
HETATM   33  C   UNL     1      -8.683   6.968  66.273  1.00  0.00    -0.146 C  
BRANCH  27  34
HETATM   34  C   UNL     1      -9.450   4.695  68.140  1.00  0.00    -0.195 C  
HETATM   35  C   UNL     1      -9.526   4.019  69.296  1.00  0.00    -0.260 C  
ENDBRANCH  27  34
ENDBRANCH  12  26
TORSDOF 5
ENDMDL
MODEL       45
REMARK 921   NORMALIZED FREE ENERGY PREDICTED BY IDOCK:   -7.04 KCAL/MOL
REMARK 922        TOTAL FREE ENERGY PREDICTED BY IDOCK:   -9.57 KCAL/MOL
REMARK 923 INTER-LIGAND FREE ENERGY PREDICTED BY IDOCK:   -8.84 KCAL/MOL
REMARK 924 INTRA-LIGAND FREE ENERGY PREDICTED BY IDOCK:   -0.73 KCAL/MOL
REMARK 927      BINDING AFFINITY PREDICTED BY RF-SCORE:    0.00 PKD
ROOT
HETATM    1  N   UNL     1     -12.986  15.001  70.269  1.00  0.00    -0.627 NA 
HETATM    2  C   UNL     1     -12.404  13.740  70.206  1.00  0.00    -0.337 A  
HETATM    3  H1  UNL     1     -12.569  15.694  69.647  1.00  0.00     0.000 HD 
HETATM    4  H2  UNL     1     -12.987  15.342  71.231  1.00  0.00     0.000 HD 
HETATM    5  N   UNL     1     -12.956  12.821  71.029  1.00  0.00    -0.156 NA 
HETATM    6  C   UNL     1     -12.527  11.549  70.966  1.00  0.00    -0.356 A  
HETATM    7  N   UNL     1     -11.606  11.042  70.140  1.00  0.00    -0.319 NA 
HETATM    8  C   UNL     1     -11.061  11.992  69.362  1.00  0.00    -0.133 A  
HETATM    9  C   UNL     1     -11.368  13.348  69.341  1.00  0.00    -0.286 A  
HETATM   10  C   UNL     1     -10.473  13.908  68.359  1.00  0.00    -0.247 A  
HETATM   11  N   UNL     1      -9.741  12.927  67.783  1.00  0.00    -0.208 NA 
HETATM   12  N   UNL     1     -10.114  11.792  68.401  1.00  0.00    -0.198 NA 
ENDROOT
BRANCH  10  13
HETATM   13  C   UNL     1     -10.270  15.299  67.889  1.00  0.00    -0.235 A  
HETATM   14  C   UNL     1     -10.154  15.657  66.540  1.00  0.00    -0.293 A  
HETATM   15  C   UNL     1      -9.928  16.996  66.170  1.00  0.00    -0.314 A  
HETATM   16  C   UNL     1     -10.213  16.340  68.839  1.00  0.00    -0.256 A  
HETATM   17  C   UNL     1      -9.858  18.013  67.131  1.00  0.00    -0.316 A  
HETATM   18  C   UNL     1     -10.009  17.679  68.472  1.00  0.00    -0.368 A  
BRANCH  17  19
HETATM   19  O   UNL     1      -9.539  19.266  66.661  1.00  0.00    -0.315 OA 
BRANCH  19  20
HETATM   20  C   UNL     1      -8.265  19.775  66.787  1.00  0.00    -0.312 A  
HETATM   21  C   UNL     1      -7.578  20.044  65.598  1.00  0.00    -0.231 A  
HETATM   22  C   UNL     1      -5.802  21.108  66.844  1.00  0.00    -0.338 A  
HETATM   23  C   UNL     1      -7.715  20.175  68.006  1.00  0.00    -0.267 A  
HETATM   24  C   UNL     1      -6.348  20.705  65.626  1.00  0.00    -0.272 A  
HETATM   25  C   UNL     1      -6.481  20.838  68.031  1.00  0.00    -0.362 A  
ENDBRANCH  19  20
ENDBRANCH  17  19
ENDBRANCH  10  13
BRANCH  12  26
HETATM   26  C   UNL     1      -9.569  10.504  67.975  1.00  0.00    -0.148 C  
HETATM   27  C   UNL     1     -10.449   6.965  67.343  1.00  0.00    -0.269 C  
HETATM   28  C   UNL     1      -8.510  10.660  66.866  1.00  0.00    -0.127 C  
HETATM   29  C   UNL     1      -9.257   8.488  65.866  1.00  0.00    -0.182 C  
HETATM   30  C   UNL     1      -8.056   9.301  66.330  1.00  0.00    -0.107 C  
HETATM   31  O   UNL     1      -9.926   6.007  66.768  1.00  0.00    -0.153 OA 
HETATM   32  N   UNL     1     -10.169   8.277  66.988  1.00  0.00    -0.282 N  
HETATM   33  C   UNL     1     -10.697   9.525  67.574  1.00  0.00    -0.245 C  
BRANCH  27  34
HETATM   34  C   UNL     1     -11.403   6.703  68.454  1.00  0.00    -0.110 C  
HETATM   35  C   UNL     1     -10.984   6.038  69.540  1.00  0.00    -0.467 C  
ENDBRANCH  27  34
ENDBRANCH  12  26
TORSDOF 5
ENDMDL
MODEL       46
REMARK 921   NORMALIZED FREE ENERGY PREDICTED BY IDOCK:   -7.02 KCAL/MOL
REMARK 922        TOTAL FREE ENERGY PREDICTED BY IDOCK:   -9.54 KCAL/MOL
REMARK 923 INTER-LIGAND FREE ENERGY PREDICTED BY IDOCK:   -8.65 KCAL/MOL
REMARK 924 INTRA-LIGAND FREE ENERGY PREDICTED BY IDOCK:   -0.89 KCAL/MOL
REMARK 927      BINDING AFFINITY PREDICTED BY RF-SCORE:    0.00 PKD
ROOT
HETATM    1  N   UNL     1      -8.932   7.180  66.727  1.00  0.00    -0.131 NA 
HETATM    2  C   UNL     1      -9.141   8.465  66.241  1.00  0.00    -0.194 A  
HETATM    3  H1  UNL     1      -9.204   7.043  67.700  1.00  0.00     0.000 HD 
HETATM    4  H2  UNL     1      -7.959   6.903  66.588  1.00  0.00     0.000 HD 
HETATM    5  N   UNL     1      -8.781   8.647  64.951  1.00  0.00    -0.139 NA 
HETATM    6  C   UNL     1      -9.038   9.828  64.364  1.00  0.00    -0.248 A  
HETATM    7  N   UNL     1      -9.657  10.885  64.900  1.00  0.00    -0.231 NA 
HETATM    8  C   UNL     1      -9.970  10.674  66.189  1.00  0.00    -0.228 A  
HETATM    9  C   UNL     1      -9.732   9.530  66.943  1.00  0.00    -0.237 A  
HETATM   10  C   UNL     1     -10.229   9.850  68.257  1.00  0.00    -0.176 A  
HETATM   11  N   UNL     1     -10.795  11.079  68.255  1.00  0.00    -0.198 NA 
HETATM   12  N   UNL     1     -10.626  11.549  67.005  1.00  0.00    -0.231 NA 
ENDROOT
BRANCH  10  13
HETATM   13  C   UNL     1     -10.246   9.076  69.521  1.00  0.00    -0.205 A  
HETATM   14  C   UNL     1      -9.540   9.448  70.672  1.00  0.00    -0.331 A  
HETATM   15  C   UNL     1      -9.576   8.644  71.827  1.00  0.00    -0.360 A  
HETATM   16  C   UNL     1     -11.030   7.906  69.596  1.00  0.00    -0.114 A  
HETATM   17  C   UNL     1     -10.348   7.477  71.875  1.00  0.00    -0.193 A  
HETATM   18  C   UNL     1     -11.084   7.114  70.753  1.00  0.00    -0.296 A  
BRANCH  17  19
HETATM   19  O   UNL     1     -10.231   6.722  73.020  1.00  0.00    -0.187 OA 
BRANCH  19  20
HETATM   20  C   UNL     1     -10.154   5.348  72.966  1.00  0.00    -0.176 A  
HETATM   21  C   UNL     1      -8.928   4.804  72.568  1.00  0.00    -0.135 A  
HETATM   22  C   UNL     1      -9.715   2.586  73.110  1.00  0.00    -0.152 A  
HETATM   23  C   UNL     1     -11.162   4.504  73.436  1.00  0.00    -0.404 A  
HETATM   24  C   UNL     1      -8.710   3.426  72.636  1.00  0.00    -0.094 A  
HETATM   25  C   UNL     1     -10.940   3.123  73.502  1.00  0.00    -0.323 A  
ENDBRANCH  19  20
ENDBRANCH  17  19
ENDBRANCH  10  13
BRANCH  12  26
HETATM   26  C   UNL     1     -11.188  12.842  66.619  1.00  0.00    -0.304 C  
HETATM   27  C   UNL     1     -10.303  16.328  65.747  1.00  0.00    -0.374 C  
HETATM   28  C   UNL     1     -12.400  12.691  65.680  1.00  0.00    -0.390 C  
HETATM   29  C   UNL     1     -11.742  14.805  64.510  1.00  0.00    -0.391 C  
HETATM   30  C   UNL     1     -12.886  14.048  65.170  1.00  0.00    -0.368 C  
HETATM   31  O   UNL     1     -10.874  17.286  65.221  1.00  0.00    -0.576 OA 
HETATM   32  N   UNL     1     -10.670  15.017  65.481  1.00  0.00    -0.334 N  
HETATM   33  C   UNL     1     -10.101  13.768  66.027  1.00  0.00    -0.311 C  
BRANCH  27  34
HETATM   34  C   UNL     1      -9.190  16.589  66.700  1.00  0.00    -0.275 C  
HETATM   35  C   UNL     1      -7.976  16.905  66.226  1.00  0.00    -0.350 C  
ENDBRANCH  27  34
ENDBRANCH  12  26
TORSDOF 5
ENDMDL
MODEL       47
REMARK 921   NORMALIZED FREE ENERGY PREDICTED BY IDOCK:   -6.99 KCAL/MOL
REMARK 922        TOTAL FREE ENERGY PREDICTED BY IDOCK:   -9.51 KCAL/MOL
REMARK 923 INTER-LIGAND FREE ENERGY PREDICTED BY IDOCK:   -8.79 KCAL/MOL
REMARK 924 INTRA-LIGAND FREE ENERGY PREDICTED BY IDOCK:   -0.71 KCAL/MOL
REMARK 927      BINDING AFFINITY PREDICTED BY RF-SCORE:    0.00 PKD
ROOT
HETATM    1  N   UNL     1      -9.964  13.200  64.682  1.00  0.00    -0.603 NA 
HETATM    2  C   UNL     1      -9.983  11.920  65.225  1.00  0.00    -0.251 A  
HETATM    3  H1  UNL     1      -9.979  13.954  65.369  1.00  0.00     0.000 HD 
HETATM    4  H2  UNL     1     -10.728  13.312  64.015  1.00  0.00     0.000 HD 
HETATM    5  N   UNL     1      -9.963  10.920  64.316  1.00  0.00    -0.304 NA 
HETATM    6  C   UNL     1      -9.878   9.650  64.746  1.00  0.00     0.085 A  
HETATM    7  N   UNL     1      -9.777   9.226  66.010  1.00  0.00    -0.275 NA 
HETATM    8  C   UNL     1      -9.833  10.246  66.882  1.00  0.00    -0.197 A  
HETATM    9  C   UNL     1      -9.961  11.600  66.594  1.00  0.00    -0.230 A  
HETATM   10  C   UNL     1     -10.005  12.244  67.883  1.00  0.00    -0.202 A  
HETATM   11  N   UNL     1      -9.834  11.330  68.866  1.00  0.00    -0.178 NA 
HETATM   12  N   UNL     1      -9.733  10.144  68.239  1.00  0.00    -0.139 NA 
ENDROOT
BRANCH  10  13
HETATM   13  C   UNL     1     -10.163  13.666  68.270  1.00  0.00    -0.243 A  
HETATM   14  C   UNL     1     -11.363  14.378  68.145  1.00  0.00    -0.317 A  
HETATM   15  C   UNL     1     -11.431  15.738  68.502  1.00  0.00    -0.381 A  
HETATM   16  C   UNL     1      -9.062  14.352  68.820  1.00  0.00    -0.133 A  
HETATM   17  C   UNL     1     -10.319  16.405  69.031  1.00  0.00    -0.278 A  
HETATM   18  C   UNL     1      -9.132  15.702  69.197  1.00  0.00    -0.256 A  
BRANCH  17  19
HETATM   19  O   UNL     1     -10.474  17.755  69.254  1.00  0.00    -0.267 OA 
BRANCH  19  20
HETATM   20  C   UNL     1     -10.023  18.686  68.345  1.00  0.00    -0.387 A  
HETATM   21  C   UNL     1      -8.727  19.175  68.541  1.00  0.00    -0.401 A  
HETATM   22  C   UNL     1      -8.824  20.333  66.424  1.00  0.00    -0.267 A  
HETATM   23  C   UNL     1     -10.719  19.025  67.183  1.00  0.00    -0.541 A  
HETATM   24  C   UNL     1      -8.130  20.000  67.585  1.00  0.00    -0.341 A  
HETATM   25  C   UNL     1     -10.117  19.852  66.226  1.00  0.00    -0.613 A  
ENDBRANCH  19  20
ENDBRANCH  17  19
ENDBRANCH  10  13
BRANCH  12  26
HETATM   26  C   UNL     1      -9.465   8.925  69.000  1.00  0.00    -0.156 C  
HETATM   27  C   UNL     1     -11.055   6.298  71.065  1.00  0.00    -0.298 C  
HETATM   28  C   UNL     1      -8.391   8.047  68.329  1.00  0.00    -0.123 C  
HETATM   29  C   UNL     1      -9.567   5.998  69.162  1.00  0.00    -0.132 C  
HETATM   30  C   UNL     1      -8.226   6.711  69.056  1.00  0.00    -0.117 C  
HETATM   31  O   UNL     1     -10.739   5.181  71.481  1.00  0.00    -0.189 OA 
HETATM   32  N   UNL     1     -10.508   6.833  69.907  1.00  0.00    -0.203 N  
HETATM   33  C   UNL     1     -10.769   8.145  69.282  1.00  0.00    -0.129 C  
BRANCH  27  34
HETATM   34  C   UNL     1     -12.047   7.097  71.832  1.00  0.00    -0.357 C  
HETATM   35  C   UNL     1     -13.353   6.971  71.555  1.00  0.00    -0.370 C  
ENDBRANCH  27  34
ENDBRANCH  12  26
TORSDOF 5
ENDMDL
MODEL       48
REMARK 921   NORMALIZED FREE ENERGY PREDICTED BY IDOCK:   -6.97 KCAL/MOL
REMARK 922        TOTAL FREE ENERGY PREDICTED BY IDOCK:   -9.48 KCAL/MOL
REMARK 923 INTER-LIGAND FREE ENERGY PREDICTED BY IDOCK:   -8.79 KCAL/MOL
REMARK 924 INTRA-LIGAND FREE ENERGY PREDICTED BY IDOCK:   -0.69 KCAL/MOL
REMARK 927      BINDING AFFINITY PREDICTED BY RF-SCORE:    0.00 PKD
ROOT
HETATM    1  N   UNL     1      -8.584  11.171  63.939  1.00  0.00    -0.370 NA 
HETATM    2  C   UNL     1      -8.790  10.169  64.880  1.00  0.00    -0.190 A  
HETATM    3  H1  UNL     1      -8.858  12.105  64.244  1.00  0.00     0.000 HD 
HETATM    4  H2  UNL     1      -9.049  10.934  63.062  1.00  0.00     0.000 HD 
HETATM    5  N   UNL     1      -8.426   8.931  64.476  1.00  0.00    -0.174 NA 
HETATM    6  C   UNL     1      -8.494   7.914  65.352  1.00  0.00    -0.119 A  
HETATM    7  N   UNL     1      -8.862   7.971  66.636  1.00  0.00    -0.138 NA 
HETATM    8  C   UNL     1      -9.245   9.210  66.988  1.00  0.00    -0.135 A  
HETATM    9  C   UNL     1      -9.270  10.348  66.189  1.00  0.00    -0.199 A  
HETATM   10  C   UNL     1      -9.792  11.382  67.045  1.00  0.00    -0.191 A  
HETATM   11  N   UNL     1      -9.988  10.899  68.294  1.00  0.00    -0.170 NA 
HETATM   12  N   UNL     1      -9.651   9.598  68.231  1.00  0.00    -0.140 NA 
ENDROOT
BRANCH  10  13
HETATM   13  C   UNL     1     -10.096  12.811  66.793  1.00  0.00    -0.239 A  
HETATM   14  C   UNL     1     -11.389  13.349  66.816  1.00  0.00    -0.353 A  
HETATM   15  C   UNL     1     -11.606  14.711  66.534  1.00  0.00    -0.350 A  
HETATM   16  C   UNL     1      -9.033  13.702  66.538  1.00  0.00    -0.068 A  
HETATM   17  C   UNL     1     -10.536  15.574  66.266  1.00  0.00    -0.307 A  
HETATM   18  C   UNL     1      -9.244  15.065  66.277  1.00  0.00    -0.324 A  
BRANCH  17  19
HETATM   19  O   UNL     1     -10.874  16.860  65.910  1.00  0.00    -0.193 OA 
BRANCH  19  20
HETATM   20  C   UNL     1     -10.455  17.942  66.653  1.00  0.00    -0.316 A  
HETATM   21  C   UNL     1     -10.289  19.148  65.964  1.00  0.00    -0.538 A  
HETATM   22  C   UNL     1      -9.924  20.310  68.050  1.00  0.00    -0.459 A  
HETATM   23  C   UNL     1     -10.354  17.924  68.045  1.00  0.00    -0.394 A  
HETATM   24  C   UNL     1     -10.020  20.329  66.660  1.00  0.00    -0.561 A  
HETATM   25  C   UNL     1     -10.084  19.109  68.740  1.00  0.00    -0.445 A  
ENDBRANCH  19  20
ENDBRANCH  17  19
ENDBRANCH  10  13
BRANCH  12  26
HETATM   26  C   UNL     1      -9.671   8.769  69.435  1.00  0.00    -0.172 C  
HETATM   27  C   UNL     1     -11.868   6.732  71.607  1.00  0.00    -0.326 C  
HETATM   28  C   UNL     1      -8.389   7.927  69.581  1.00  0.00    -0.131 C  
HETATM   29  C   UNL     1      -9.730   6.093  70.636  1.00  0.00    -0.174 C  
HETATM   30  C   UNL     1      -8.486   6.961  70.763  1.00  0.00    -0.136 C  
HETATM   31  O   UNL     1     -11.709   5.892  72.496  1.00  0.00    -0.303 OA 
HETATM   32  N   UNL     1     -10.920   6.943  70.617  1.00  0.00    -0.252 N  
HETATM   33  C   UNL     1     -10.951   7.904  69.497  1.00  0.00    -0.071 C  
BRANCH  27  34
HETATM   34  C   UNL     1     -13.113   7.547  71.603  1.00  0.00    -0.401 C  
HETATM   35  C   UNL     1     -13.123   8.740  72.216  1.00  0.00    -0.458 C  
ENDBRANCH  27  34
ENDBRANCH  12  26
TORSDOF 5
ENDMDL
MODEL       49
REMARK 921   NORMALIZED FREE ENERGY PREDICTED BY IDOCK:   -6.93 KCAL/MOL
REMARK 922        TOTAL FREE ENERGY PREDICTED BY IDOCK:   -9.43 KCAL/MOL
REMARK 923 INTER-LIGAND FREE ENERGY PREDICTED BY IDOCK:   -9.30 KCAL/MOL
REMARK 924 INTRA-LIGAND FREE ENERGY PREDICTED BY IDOCK:   -0.13 KCAL/MOL
REMARK 927      BINDING AFFINITY PREDICTED BY RF-SCORE:    0.00 PKD
ROOT
HETATM    1  N   UNL     1     -12.734  12.856  70.748  1.00  0.00    -0.207 NA 
HETATM    2  C   UNL     1     -12.175  11.583  70.727  1.00  0.00    -0.363 A  
HETATM    3  H1  UNL     1     -12.485  13.443  69.953  1.00  0.00     0.000 HD 
HETATM    4  H2  UNL     1     -12.505  13.328  71.624  1.00  0.00     0.000 HD 
HETATM    5  N   UNL     1     -12.505  10.803  71.781  1.00  0.00    -0.270 NA 
HETATM    6  C   UNL     1     -12.094   9.524  71.798  1.00  0.00    -0.384 A  
HETATM    7  N   UNL     1     -11.396   8.882  70.855  1.00  0.00    -0.273 NA 
HETATM    8  C   UNL     1     -11.062   9.699  69.843  1.00  0.00    -0.235 A  
HETATM    9  C   UNL     1     -11.375  11.047  69.703  1.00  0.00    -0.363 A  
HETATM   10  C   UNL     1     -10.748  11.439  68.466  1.00  0.00    -0.201 A  
HETATM   11  N   UNL     1     -10.169  10.368  67.877  1.00  0.00    -0.170 NA 
HETATM   12  N   UNL     1     -10.373   9.341  68.721  1.00  0.00    -0.206 NA 
ENDROOT
BRANCH  10  13
HETATM   13  C   UNL     1     -10.675  12.745  67.769  1.00  0.00    -0.237 A  
HETATM   14  C   UNL     1      -9.475  13.362  67.395  1.00  0.00    -0.222 A  
HETATM   15  C   UNL     1      -9.481  14.621  66.764  1.00  0.00    -0.275 A  
HETATM   16  C   UNL     1     -11.872  13.409  67.432  1.00  0.00    -0.418 A  
HETATM   17  C   UNL     1     -10.682  15.271  66.454  1.00  0.00    -0.318 A  
HETATM   18  C   UNL     1     -11.883  14.654  66.784  1.00  0.00    -0.334 A  
BRANCH  17  19
HETATM   19  O   UNL     1     -10.565  16.537  65.927  1.00  0.00    -0.325 OA 
BRANCH  19  20
HETATM   20  C   UNL     1     -10.315  17.627  66.731  1.00  0.00    -0.331 A  
HETATM   21  C   UNL     1     -10.371  18.883  66.118  1.00  0.00    -0.517 A  
HETATM   22  C   UNL     1     -10.156  19.962  68.269  1.00  0.00    -0.571 A  
HETATM   23  C   UNL     1     -10.178  17.542  68.118  1.00  0.00    -0.359 A  
HETATM   24  C   UNL     1     -10.287  20.048  66.884  1.00  0.00    -0.567 A  
HETATM   25  C   UNL     1     -10.094  18.712  68.883  1.00  0.00    -0.357 A  
ENDBRANCH  19  20
ENDBRANCH  17  19
ENDBRANCH  10  13
BRANCH  12  26
HETATM   26  C   UNL     1      -9.938   7.991  68.364  1.00  0.00    -0.185 C  
HETATM   27  C   UNL     1      -9.880   4.479  69.529  1.00  0.00    -0.207 C  
HETATM   28  C   UNL     1     -10.091   7.712  66.857  1.00  0.00    -0.348 C  
HETATM   29  C   UNL     1     -10.621   5.318  67.368  1.00  0.00    -0.093 C  
HETATM   30  C   UNL     1      -9.770   6.254  66.522  1.00  0.00    -0.180 C  
HETATM   31  O   UNL     1      -9.663   3.377  69.021  1.00  0.00    -0.114 OA 
HETATM   32  N   UNL     1     -10.347   5.553  68.785  1.00  0.00    -0.205 N  
HETATM   33  C   UNL     1     -10.647   6.927  69.233  1.00  0.00    -0.226 C  
BRANCH  27  34
HETATM   34  C   UNL     1      -9.625   4.663  70.983  1.00  0.00    -0.245 C  
HETATM   35  C   UNL     1     -10.439   4.078  71.875  1.00  0.00     0.007 C  
ENDBRANCH  27  34
ENDBRANCH  12  26
TORSDOF 5
ENDMDL
MODEL       50
REMARK 921   NORMALIZED FREE ENERGY PREDICTED BY IDOCK:   -6.91 KCAL/MOL
REMARK 922        TOTAL FREE ENERGY PREDICTED BY IDOCK:   -9.41 KCAL/MOL
REMARK 923 INTER-LIGAND FREE ENERGY PREDICTED BY IDOCK:   -8.18 KCAL/MOL
REMARK 924 INTRA-LIGAND FREE ENERGY PREDICTED BY IDOCK:   -1.22 KCAL/MOL
REMARK 927      BINDING AFFINITY PREDICTED BY RF-SCORE:    0.00 PKD
ROOT
HETATM    1  N   UNL     1      -6.052  13.164  69.096  1.00  0.00    -0.088 NA 
HETATM    2  C   UNL     1      -6.337  11.823  69.325  1.00  0.00    -0.103 A  
HETATM    3  H1  UNL     1      -6.835  13.712  68.741  1.00  0.00     0.000 HD 
HETATM    4  H2  UNL     1      -5.247  13.253  68.474  1.00  0.00     0.000 HD 
HETATM    5  N   UNL     1      -5.299  11.096  69.795  1.00  0.00    -0.046 NA 
HETATM    6  C   UNL     1      -5.506   9.815  70.142  1.00  0.00    -0.041 A  
HETATM    7  N   UNL     1      -6.659   9.140  70.109  1.00  0.00    -0.044 NA 
HETATM    8  C   UNL     1      -7.657   9.886  69.608  1.00  0.00    -0.136 A  
HETATM    9  C   UNL     1      -7.590  11.205  69.170  1.00  0.00    -0.098 A  
HETATM   10  C   UNL     1      -8.921  11.500  68.702  1.00  0.00    -0.112 A  
HETATM   11  N   UNL     1      -9.738  10.445  68.924  1.00  0.00    -0.188 NA 
HETATM   12  N   UNL     1      -8.956   9.495  69.467  1.00  0.00    -0.167 NA 
ENDROOT
BRANCH  10  13
HETATM   13  C   UNL     1      -9.502  12.716  68.086  1.00  0.00    -0.218 A  
HETATM   14  C   UNL     1      -8.914  13.406  67.018  1.00  0.00    -0.228 A  
HETATM   15  C   UNL     1      -9.507  14.576  66.505  1.00  0.00    -0.310 A  
HETATM   16  C   UNL     1     -10.730  13.210  68.572  1.00  0.00    -0.277 A  
HETATM   17  C   UNL     1     -10.719  15.058  67.015  1.00  0.00    -0.304 A  
HETATM   18  C   UNL     1     -11.335  14.363  68.049  1.00  0.00    -0.316 A  
BRANCH  17  19
HETATM   19  O   UNL     1     -11.154  16.259  66.503  1.00  0.00    -0.084 OA 
BRANCH  19  20
HETATM   20  C   UNL     1     -10.636  17.456  66.947  1.00  0.00    -0.216 A  
HETATM   21  C   UNL     1     -10.534  18.483  66.002  1.00  0.00    -0.433 A  
HETATM   22  C   UNL     1      -9.916  20.043  67.740  1.00  0.00    -0.560 A  
HETATM   23  C   UNL     1     -10.376  17.727  68.292  1.00  0.00    -0.387 A  
HETATM   24  C   UNL     1     -10.171  19.773  66.397  1.00  0.00    -0.614 A  
HETATM   25  C   UNL     1     -10.012  19.021  68.684  1.00  0.00    -0.482 A  
ENDBRANCH  19  20
ENDBRANCH  17  19
ENDBRANCH  10  13
BRANCH  12  26
HETATM   26  C   UNL     1      -9.531   8.225  69.908  1.00  0.00    -0.167 C  
HETATM   27  C   UNL     1     -10.975   6.468  72.828  1.00  0.00    -0.253 C  
HETATM   28  C   UNL     1     -10.402   7.573  68.817  1.00  0.00    -0.212 C  
HETATM   29  C   UNL     1     -11.914   6.655  70.590  1.00  0.00    -0.343 C  
HETATM   30  C   UNL     1     -11.112   6.323  69.340  1.00  0.00    -0.477 C  
HETATM   31  O   UNL     1     -11.634   5.442  73.013  1.00  0.00    -0.296 OA 
HETATM   32  N   UNL     1     -11.017   7.162  71.628  1.00  0.00    -0.226 N  
HETATM   33  C   UNL     1     -10.292   8.390  71.244  1.00  0.00    -0.214 C  
BRANCH  27  34
HETATM   34  C   UNL     1     -10.106   6.971  73.925  1.00  0.00    -0.386 C  
HETATM   35  C   UNL     1      -8.908   6.405  74.131  1.00  0.00    -0.155 C  
ENDBRANCH  27  34
ENDBRANCH  12  26
TORSDOF 5
ENDMDL
MODEL       51
REMARK 921   NORMALIZED FREE ENERGY PREDICTED BY IDOCK:   -6.91 KCAL/MOL
REMARK 922        TOTAL FREE ENERGY PREDICTED BY IDOCK:   -9.40 KCAL/MOL
REMARK 923 INTER-LIGAND FREE ENERGY PREDICTED BY IDOCK:   -8.86 KCAL/MOL
REMARK 924 INTRA-LIGAND FREE ENERGY PREDICTED BY IDOCK:   -0.54 KCAL/MOL
REMARK 927      BINDING AFFINITY PREDICTED BY RF-SCORE:    0.00 PKD
ROOT
HETATM    1  N   UNL     1     -13.253  15.709  70.600  1.00  0.00    -0.755 NA 
HETATM    2  C   UNL     1     -12.780  14.406  70.708  1.00  0.00    -0.360 A  
HETATM    3  H1  UNL     1     -12.783  16.275  69.893  1.00  0.00     0.000 HD 
HETATM    4  H2  UNL     1     -13.220  16.174  71.507  1.00  0.00     0.000 HD 
HETATM    5  N   UNL     1     -13.403  13.655  71.644  1.00  0.00    -0.358 NA 
HETATM    6  C   UNL     1     -13.084  12.355  71.753  1.00  0.00    -0.342 A  
HETATM    7  N   UNL     1     -12.213  11.666  71.007  1.00  0.00    -0.300 NA 
HETATM    8  C   UNL     1     -11.595  12.454  70.112  1.00  0.00    -0.077 A  
HETATM    9  C   UNL     1     -11.786  13.817  69.909  1.00  0.00    -0.353 A  
HETATM   10  C   UNL     1     -10.853  14.163  68.866  1.00  0.00    -0.258 A  
HETATM   11  N   UNL     1     -10.209  13.055  68.431  1.00  0.00    -0.247 NA 
HETATM   12  N   UNL     1     -10.673  12.048  69.192  1.00  0.00    -0.135 NA 
ENDROOT
BRANCH  10  13
HETATM   13  C   UNL     1     -10.535  15.457  68.217  1.00  0.00    -0.241 A  
HETATM   14  C   UNL     1     -10.713  15.707  66.850  1.00  0.00    -0.307 A  
HETATM   15  C   UNL     1     -10.358  16.951  66.296  1.00  0.00    -0.312 A  
HETATM   16  C   UNL     1     -10.049  16.518  69.007  1.00  0.00    -0.279 A  
HETATM   17  C   UNL     1      -9.860  17.986  67.097  1.00  0.00    -0.316 A  
HETATM   18  C   UNL     1      -9.713  17.767  68.462  1.00  0.00    -0.343 A  
BRANCH  17  19
HETATM   19  O   UNL     1      -9.457  19.123  66.433  1.00  0.00    -0.334 OA 
BRANCH  19  20
HETATM   20  C   UNL     1      -8.137  19.518  66.427  1.00  0.00    -0.320 A  
HETATM   21  C   UNL     1      -7.832  20.695  67.119  1.00  0.00    -0.334 A  
HETATM   22  C   UNL     1      -5.472  20.296  66.793  1.00  0.00    -0.186 A  
HETATM   23  C   UNL     1      -7.103  18.730  65.917  1.00  0.00    -0.290 A  
HETATM   24  C   UNL     1      -6.504  21.086  67.299  1.00  0.00    -0.418 A  
HETATM   25  C   UNL     1      -5.772  19.125  66.099  1.00  0.00    -0.177 A  
ENDBRANCH  19  20
ENDBRANCH  17  19
ENDBRANCH  10  13
BRANCH  12  26
HETATM   26  C   UNL     1     -10.242  10.673  68.945  1.00  0.00    -0.201 C  
HETATM   27  C   UNL     1      -9.161   7.550  70.609  1.00  0.00    -0.159 C  
HETATM   28  C   UNL     1     -10.993  10.034  67.761  1.00  0.00    -0.310 C  
HETATM   29  C   UNL     1     -10.885   7.812  68.912  1.00  0.00     0.006 C  
HETATM   30  C   UNL     1     -10.637   8.554  67.606  1.00  0.00    -0.268 C  
HETATM   31  O   UNL     1      -9.027   6.368  70.283  1.00  0.00    -0.152 OA 
HETATM   32  N   UNL     1     -10.060   8.392  69.970  1.00  0.00    -0.189 N  
HETATM   33  C   UNL     1     -10.335   9.819  70.229  1.00  0.00    -0.291 C  
BRANCH  27  34
HETATM   34  C   UNL     1      -8.329   8.088  71.719  1.00  0.00    -0.159 C  
HETATM   35  C   UNL     1      -7.086   8.522  71.461  1.00  0.00    -0.096 C  
ENDBRANCH  27  34
ENDBRANCH  12  26
TORSDOF 5
ENDMDL
MODEL       52
REMARK 921   NORMALIZED FREE ENERGY PREDICTED BY IDOCK:   -6.89 KCAL/MOL
REMARK 922        TOTAL FREE ENERGY PREDICTED BY IDOCK:   -9.37 KCAL/MOL
REMARK 923 INTER-LIGAND FREE ENERGY PREDICTED BY IDOCK:   -8.21 KCAL/MOL
REMARK 924 INTRA-LIGAND FREE ENERGY PREDICTED BY IDOCK:   -1.16 KCAL/MOL
REMARK 927      BINDING AFFINITY PREDICTED BY RF-SCORE:    0.00 PKD
ROOT
HETATM    1  N   UNL     1      -7.213   7.094  68.327  1.00  0.00    -0.088 NA 
HETATM    2  C   UNL     1      -7.266   8.303  67.642  1.00  0.00    -0.088 A  
HETATM    3  H1  UNL     1      -7.781   7.059  69.173  1.00  0.00     0.000 HD 
HETATM    4  H2  UNL     1      -6.245   6.849  68.538  1.00  0.00     0.000 HD 
HETATM    5  N   UNL     1      -6.514   8.351  66.520  1.00  0.00    -0.054 NA 
HETATM    6  C   UNL     1      -6.578   9.442  65.739  1.00  0.00    -0.073 A  
HETATM    7  N   UNL     1      -7.344  10.524  65.916  1.00  0.00    -0.142 NA 
HETATM    8  C   UNL     1      -8.050  10.450  67.056  1.00  0.00    -0.116 A  
HETATM    9  C   UNL     1      -8.058   9.414  67.983  1.00  0.00    -0.106 A  
HETATM   10  C   UNL     1      -8.950   9.861  69.022  1.00  0.00    -0.160 A  
HETATM   11  N   UNL     1      -9.494  11.054  68.687  1.00  0.00    -0.191 NA 
HETATM   12  N   UNL     1      -8.939  11.382  67.507  1.00  0.00    -0.148 NA 
ENDROOT
BRANCH  10  13
HETATM   13  C   UNL     1      -9.364   9.239  70.302  1.00  0.00    -0.277 A  
HETATM   14  C   UNL     1      -8.466   8.843  71.302  1.00  0.00    -0.239 A  
HETATM   15  C   UNL     1      -8.929   8.227  72.480  1.00  0.00    -0.305 A  
HETATM   16  C   UNL     1     -10.737   9.047  70.558  1.00  0.00    -0.285 A  
HETATM   17  C   UNL     1     -10.297   8.031  72.706  1.00  0.00    -0.339 A  
HETATM   18  C   UNL     1     -11.204   8.452  71.740  1.00  0.00    -0.360 A  
BRANCH  17  19
HETATM   19  O   UNL     1     -10.627   7.333  73.846  1.00  0.00    -0.344 OA 
BRANCH  19  20
HETATM   20  C   UNL     1     -10.373   5.984  73.957  1.00  0.00    -0.291 A  
HETATM   21  C   UNL     1     -11.248   5.125  73.283  1.00  0.00    -0.389 A  
HETATM   22  C   UNL     1      -9.827   3.241  73.803  1.00  0.00    -0.154 A  
HETATM   23  C   UNL     1      -9.223   5.466  74.555  1.00  0.00    -0.124 A  
HETATM   24  C   UNL     1     -10.978   3.756  73.210  1.00  0.00    -0.282 A  
HETATM   25  C   UNL     1      -8.955   4.093  74.480  1.00  0.00    -0.106 A  
ENDBRANCH  19  20
ENDBRANCH  17  19
ENDBRANCH  10  13
BRANCH  12  26
HETATM   26  C   UNL     1      -9.357  12.594  66.804  1.00  0.00    -0.232 C  
HETATM   27  C   UNL     1     -11.857  13.946  64.435  1.00  0.00    -0.429 C  
HETATM   28  C   UNL     1      -9.181  13.856  67.670  1.00  0.00    -0.199 C  
HETATM   29  C   UNL     1     -11.210  14.859  66.596  1.00  0.00    -0.340 C  
HETATM   30  C   UNL     1      -9.755  15.094  66.978  1.00  0.00    -0.237 C  
HETATM   31  O   UNL     1     -12.233  15.066  64.080  1.00  0.00    -0.589 OA 
HETATM   32  N   UNL     1     -11.299  13.719  65.684  1.00  0.00    -0.303 N  
HETATM   33  C   UNL     1     -10.795  12.454  66.256  1.00  0.00    -0.266 C  
BRANCH  27  34
HETATM   34  C   UNL     1     -12.003  12.806  63.490  1.00  0.00    -0.633 C  
HETATM   35  C   UNL     1     -13.031  11.957  63.633  1.00  0.00    -0.317 C  
ENDBRANCH  27  34
ENDBRANCH  12  26
TORSDOF 5
ENDMDL
MODEL       53
REMARK 921   NORMALIZED FREE ENERGY PREDICTED BY IDOCK:   -6.87 KCAL/MOL
REMARK 922        TOTAL FREE ENERGY PREDICTED BY IDOCK:   -9.35 KCAL/MOL
REMARK 923 INTER-LIGAND FREE ENERGY PREDICTED BY IDOCK:   -8.13 KCAL/MOL
REMARK 924 INTRA-LIGAND FREE ENERGY PREDICTED BY IDOCK:   -1.22 KCAL/MOL
REMARK 927      BINDING AFFINITY PREDICTED BY RF-SCORE:    0.00 PKD
ROOT
HETATM    1  N   UNL     1      -9.942  13.566  64.207  1.00  0.00    -0.752 NA 
HETATM    2  C   UNL     1      -9.937  12.235  64.607  1.00  0.00    -0.186 A  
HETATM    3  H1  UNL     1      -9.977  14.240  64.972  1.00  0.00     0.000 HD 
HETATM    4  H2  UNL     1     -10.704  13.736  63.550  1.00  0.00     0.000 HD 
HETATM    5  N   UNL     1      -9.890  11.341  63.593  1.00  0.00    -0.305 NA 
HETATM    6  C   UNL     1      -9.781  10.034  63.883  1.00  0.00    -0.039 A  
HETATM    7  N   UNL     1      -9.678   9.475  65.094  1.00  0.00    -0.226 NA 
HETATM    8  C   UNL     1      -9.761  10.393  66.071  1.00  0.00    -0.211 A  
HETATM    9  C   UNL     1      -9.916  11.767  65.932  1.00  0.00    -0.266 A  
HETATM   10  C   UNL     1      -9.981  12.265  67.284  1.00  0.00    -0.204 A  
HETATM   11  N   UNL     1      -9.797  11.252  68.162  1.00  0.00    -0.177 NA 
HETATM   12  N   UNL     1      -9.666  10.145  67.410  1.00  0.00    -0.157 NA 
ENDROOT
BRANCH  10  13
HETATM   13  C   UNL     1     -10.172  13.632  67.823  1.00  0.00    -0.242 A  
HETATM   14  C   UNL     1     -11.316  14.407  67.593  1.00  0.00    -0.348 A  
HETATM   15  C   UNL     1     -11.414  15.713  68.110  1.00  0.00    -0.325 A  
HETATM   16  C   UNL     1      -9.167  14.194  68.636  1.00  0.00    -0.146 A  
HETATM   17  C   UNL     1     -10.395  16.258  68.902  1.00  0.00    -0.263 A  
HETATM   18  C   UNL     1      -9.271  15.487  69.171  1.00  0.00    -0.246 A  
BRANCH  17  19
HETATM   19  O   UNL     1     -10.557  17.574  69.271  1.00  0.00    -0.268 OA 
BRANCH  19  20
HETATM   20  C   UNL     1     -10.032  18.599  68.515  1.00  0.00    -0.388 A  
HETATM   21  C   UNL     1      -8.721  18.988  68.813  1.00  0.00    -0.351 A  
HETATM   22  C   UNL     1      -8.693  20.433  66.877  1.00  0.00    -0.345 A  
HETATM   23  C   UNL     1     -10.672  19.131  67.394  1.00  0.00    -0.578 A  
HETATM   24  C   UNL     1      -8.055  19.907  67.999  1.00  0.00    -0.307 A  
HETATM   25  C   UNL     1     -10.000  20.051  66.580  1.00  0.00    -0.603 A  
ENDBRANCH  19  20
ENDBRANCH  17  19
ENDBRANCH  10  13
BRANCH  12  26
HETATM   26  C   UNL     1      -9.377   8.855  68.035  1.00  0.00    -0.142 C  
HETATM   27  C   UNL     1      -7.326   7.204  70.636  1.00  0.00    -0.075 C  
HETATM   28  C   UNL     1     -10.639   7.982  68.175  1.00  0.00    -0.174 C  
HETATM   29  C   UNL     1      -9.732   7.036  70.309  1.00  0.00    -0.175 C  
HETATM   30  C   UNL     1     -10.349   6.701  68.959  1.00  0.00    -0.216 C  
HETATM   31  O   UNL     1      -7.335   6.118  71.219  1.00  0.00    -0.077 OA 
HETATM   32  N   UNL     1      -8.480   7.765  70.109  1.00  0.00    -0.132 N  
HETATM   33  C   UNL     1      -8.640   9.040  69.382  1.00  0.00    -0.137 C  
BRANCH  27  34
HETATM   34  C   UNL     1      -6.036   7.931  70.489  1.00  0.00    -0.033 C  
HETATM   35  C   UNL     1      -5.530   8.595  71.539  1.00  0.00    -0.038 C  
ENDBRANCH  27  34
ENDBRANCH  12  26
TORSDOF 5
ENDMDL
MODEL       54
REMARK 921   NORMALIZED FREE ENERGY PREDICTED BY IDOCK:   -6.84 KCAL/MOL
REMARK 922        TOTAL FREE ENERGY PREDICTED BY IDOCK:   -9.31 KCAL/MOL
REMARK 923 INTER-LIGAND FREE ENERGY PREDICTED BY IDOCK:   -9.16 KCAL/MOL
REMARK 924 INTRA-LIGAND FREE ENERGY PREDICTED BY IDOCK:   -0.14 KCAL/MOL
REMARK 927      BINDING AFFINITY PREDICTED BY RF-SCORE:    0.00 PKD
ROOT
HETATM    1  N   UNL     1      -7.265   9.441  69.846  1.00  0.00    -0.072 NA 
HETATM    2  C   UNL     1      -7.714  10.581  69.188  1.00  0.00    -0.131 A  
HETATM    3  H1  UNL     1      -8.004   8.826  70.184  1.00  0.00     0.000 HD 
HETATM    4  H2  UNL     1      -6.639   9.697  70.610  1.00  0.00     0.000 HD 
HETATM    5  N   UNL     1      -6.734  11.397  68.739  1.00  0.00    -0.066 NA 
HETATM    6  C   UNL     1      -7.068  12.471  68.004  1.00  0.00    -0.103 A  
HETATM    7  N   UNL     1      -8.292  12.841  67.615  1.00  0.00    -0.162 NA 
HETATM    8  C   UNL     1      -9.237  12.024  68.108  1.00  0.00    -0.195 A  
HETATM    9  C   UNL     1      -9.054  10.904  68.912  1.00  0.00    -0.151 A  
HETATM   10  C   UNL     1     -10.386  10.424  69.178  1.00  0.00    -0.222 A  
HETATM   11  N   UNL     1     -11.293  11.171  68.506  1.00  0.00    -0.256 NA 
HETATM   12  N   UNL     1     -10.578  12.119  67.874  1.00  0.00    -0.201 NA 
ENDROOT
BRANCH  10  13
HETATM   13  C   UNL     1     -10.882   9.291  69.994  1.00  0.00    -0.264 A  
HETATM   14  C   UNL     1     -11.566   9.444  71.206  1.00  0.00    -0.434 A  
HETATM   15  C   UNL     1     -11.978   8.318  71.945  1.00  0.00    -0.383 A  
HETATM   16  C   UNL     1     -10.685   7.975  69.527  1.00  0.00    -0.185 A  
HETATM   17  C   UNL     1     -11.756   7.019  71.471  1.00  0.00    -0.300 A  
HETATM   18  C   UNL     1     -11.113   6.851  70.251  1.00  0.00    -0.342 A  
BRANCH  17  19
HETATM   19  O   UNL     1     -12.116   5.997  72.321  1.00  0.00    -0.301 OA 
BRANCH  19  20
HETATM   20  C   UNL     1     -11.180   5.353  73.100  1.00  0.00    -0.297 A  
HETATM   21  C   UNL     1     -11.461   4.027  73.447  1.00  0.00    -0.208 A  
HETATM   22  C   UNL     1      -9.254   3.789  74.399  1.00  0.00    -0.110 A  
HETATM   23  C   UNL     1      -9.931   5.895  73.406  1.00  0.00    -0.182 A  
HETATM   24  C   UNL     1     -10.503   3.248  74.099  1.00  0.00    -0.249 A  
HETATM   25  C   UNL     1      -8.972   5.112  74.059  1.00  0.00    -0.116 A  
ENDBRANCH  19  20
ENDBRANCH  17  19
ENDBRANCH  10  13
BRANCH  12  26
HETATM   26  C   UNL     1     -11.237  13.073  66.982  1.00  0.00    -0.289 C  
HETATM   27  C   UNL     1     -10.767  16.263  65.167  1.00  0.00    -0.331 C  
HETATM   28  C   UNL     1     -12.138  12.371  65.948  1.00  0.00    -0.352 C  
HETATM   29  C   UNL     1     -11.579  14.149  64.275  1.00  0.00    -0.309 C  
HETATM   30  C   UNL     1     -12.705  13.366  64.934  1.00  0.00    -0.365 C  
HETATM   31  O   UNL     1     -11.344  16.863  64.257  1.00  0.00    -1.202 OA 
HETATM   32  N   UNL     1     -10.831  14.883  65.295  1.00  0.00    -0.359 N  
HETATM   33  C   UNL     1     -10.211  14.019  66.319  1.00  0.00    -0.296 C  
BRANCH  27  34
HETATM   34  C   UNL     1      -9.983  17.046  66.160  1.00  0.00    -0.314 C  
HETATM   35  C   UNL     1     -10.270  18.342  66.354  1.00  0.00    -0.417 C  
ENDBRANCH  27  34
ENDBRANCH  12  26
TORSDOF 5
ENDMDL
MODEL       55
REMARK 921   NORMALIZED FREE ENERGY PREDICTED BY IDOCK:   -6.82 KCAL/MOL
REMARK 922        TOTAL FREE ENERGY PREDICTED BY IDOCK:   -9.28 KCAL/MOL
REMARK 923 INTER-LIGAND FREE ENERGY PREDICTED BY IDOCK:   -8.60 KCAL/MOL
REMARK 924 INTRA-LIGAND FREE ENERGY PREDICTED BY IDOCK:   -0.68 KCAL/MOL
REMARK 927      BINDING AFFINITY PREDICTED BY RF-SCORE:    0.00 PKD
ROOT
HETATM    1  N   UNL     1     -12.158  11.346  63.198  1.00  0.00    -0.857 NA 
HETATM    2  C   UNL     1     -11.791  12.559  63.770  1.00  0.00    -0.496 A  
HETATM    3  H1  UNL     1     -11.653  10.536  63.556  1.00  0.00     0.000 HD 
HETATM    4  H2  UNL     1     -12.076  11.395  62.182  1.00  0.00     0.000 HD 
HETATM    5  N   UNL     1     -12.461  13.633  63.295  1.00  0.00    -0.773 NA 
HETATM    6  C   UNL     1     -12.246  14.834  63.858  1.00  0.00     0.012 A  
HETATM    7  N   UNL     1     -11.444  15.117  64.889  1.00  0.00    -0.389 NA 
HETATM    8  C   UNL     1     -10.775  14.031  65.309  1.00  0.00    -0.358 A  
HETATM    9  C   UNL     1     -10.857  12.738  64.805  1.00  0.00    -0.335 A  
HETATM   10  C   UNL     1      -9.912  11.981  65.587  1.00  0.00    -0.245 A  
HETATM   11  N   UNL     1      -9.365  12.766  66.544  1.00  0.00    -0.239 NA 
HETATM   12  N   UNL     1      -9.900  13.986  66.355  1.00  0.00    -0.287 NA 
ENDROOT
BRANCH  10  13
HETATM   13  C   UNL     1      -9.499  10.559  65.530  1.00  0.00    -0.265 A  
HETATM   14  C   UNL     1     -10.071   9.549  66.315  1.00  0.00    -0.327 A  
HETATM   15  C   UNL     1      -9.604   8.224  66.231  1.00  0.00    -0.266 A  
HETATM   16  C   UNL     1      -8.492  10.175  64.621  1.00  0.00    -0.178 A  
HETATM   17  C   UNL     1      -8.590   7.868  65.333  1.00  0.00    -0.095 A  
HETATM   18  C   UNL     1      -8.039   8.851  64.519  1.00  0.00    -0.150 A  
BRANCH  17  19
HETATM   19  O   UNL     1      -8.149   6.566  65.406  1.00  0.00    -0.117 OA 
BRANCH  19  20
HETATM   20  C   UNL     1      -8.749   5.566  64.672  1.00  0.00    -0.013 A  
HETATM   21  C   UNL     1      -8.208   5.307  63.408  1.00  0.00    -0.117 A  
HETATM   22  C   UNL     1      -9.625   3.363  63.181  1.00  0.00    -0.101 A  
HETATM   23  C   UNL     1      -9.731   4.719  65.189  1.00  0.00    -0.068 A  
HETATM   24  C   UNL     1      -8.648   4.211  62.662  1.00  0.00    -0.090 A  
HETATM   25  C   UNL     1     -10.170   3.621  64.438  1.00  0.00    -0.203 A  
ENDBRANCH  19  20
ENDBRANCH  17  19
ENDBRANCH  10  13
BRANCH  12  26
HETATM   26  C   UNL     1      -9.584  15.082  67.270  1.00  0.00    -0.207 C  
HETATM   27  C   UNL     1      -8.107  18.471  67.454  1.00  0.00    -0.240 C  
HETATM   28  C   UNL     1     -10.664  15.263  68.353  1.00  0.00    -0.250 C  
HETATM   29  C   UNL     1     -10.254  17.734  68.331  1.00  0.00    -0.384 C  
HETATM   30  C   UNL     1     -10.395  16.500  69.211  1.00  0.00    -0.318 C  
HETATM   31  O   UNL     1      -8.095  19.393  68.272  1.00  0.00    -0.313 OA 
HETATM   32  N   UNL     1      -9.142  17.548  67.401  1.00  0.00    -0.236 N  
HETATM   33  C   UNL     1      -9.304  16.392  66.497  1.00  0.00    -0.273 C  
BRANCH  27  34
HETATM   34  C   UNL     1      -6.974  18.342  66.499  1.00  0.00    -0.247 C  
HETATM   35  C   UNL     1      -5.961  19.220  66.555  1.00  0.00    -0.175 C  
ENDBRANCH  27  34
ENDBRANCH  12  26
TORSDOF 5
ENDMDL
MODEL       56
REMARK 921   NORMALIZED FREE ENERGY PREDICTED BY IDOCK:   -6.77 KCAL/MOL
REMARK 922        TOTAL FREE ENERGY PREDICTED BY IDOCK:   -9.22 KCAL/MOL
REMARK 923 INTER-LIGAND FREE ENERGY PREDICTED BY IDOCK:   -8.25 KCAL/MOL
REMARK 924 INTRA-LIGAND FREE ENERGY PREDICTED BY IDOCK:   -0.97 KCAL/MOL
REMARK 927      BINDING AFFINITY PREDICTED BY RF-SCORE:    0.00 PKD
ROOT
HETATM    1  N   UNL     1     -11.569  11.184  63.118  1.00  0.00    -0.647 NA 
HETATM    2  C   UNL     1     -11.677  12.328  63.900  1.00  0.00    -0.451 A  
HETATM    3  H1  UNL     1     -11.177  10.374  63.598  1.00  0.00     0.000 HD 
HETATM    4  H2  UNL     1     -11.038  11.385  62.269  1.00  0.00     0.000 HD 
HETATM    5  N   UNL     1     -12.197  13.401  63.264  1.00  0.00    -0.637 NA 
HETATM    6  C   UNL     1     -12.433  14.522  63.965  1.00  0.00    -0.055 A  
HETATM    7  N   UNL     1     -12.241  14.718  65.274  1.00  0.00    -0.222 NA 
HETATM    8  C   UNL     1     -11.696  13.641  65.861  1.00  0.00    -0.354 A  
HETATM    9  C   UNL     1     -11.357  12.431  65.265  1.00  0.00    -0.374 A  
HETATM   10  C   UNL     1     -10.781  11.649  66.330  1.00  0.00    -0.272 A  
HETATM   11  N   UNL     1     -10.850  12.330  67.497  1.00  0.00    -0.227 NA 
HETATM   12  N   UNL     1     -11.401  13.517  67.188  1.00  0.00    -0.309 NA 
ENDROOT
BRANCH  10  13
HETATM   13  C   UNL     1     -10.195  10.288  66.348  1.00  0.00    -0.290 A  
HETATM   14  C   UNL     1      -8.906   9.988  65.890  1.00  0.00    -0.164 A  
HETATM   15  C   UNL     1      -8.428   8.664  65.906  1.00  0.00    -0.158 A  
HETATM   16  C   UNL     1     -10.954   9.223  66.876  1.00  0.00     0.140 A  
HETATM   17  C   UNL     1      -9.206   7.619  66.419  1.00  0.00    -0.175 A  
HETATM   18  C   UNL     1     -10.472   7.905  66.914  1.00  0.00    -0.388 A  
BRANCH  17  19
HETATM   19  O   UNL     1      -8.674   6.355  66.297  1.00  0.00    -0.133 OA 
BRANCH  19  20
HETATM   20  C   UNL     1      -7.865   6.019  65.233  1.00  0.00    -0.107 A  
HETATM   21  C   UNL     1      -6.532   5.717  65.532  1.00  0.00    -0.039 A  
HETATM   22  C   UNL     1      -6.164   5.006  63.253  1.00  0.00    -0.022 A  
HETATM   23  C   UNL     1      -8.345   5.814  63.939  1.00  0.00    -0.027 A  
HETATM   24  C   UNL     1      -5.682   5.215  64.544  1.00  0.00    -0.017 A  
HETATM   25  C   UNL     1      -7.490   5.311  62.950  1.00  0.00    -0.051 A  
ENDBRANCH  19  20
ENDBRANCH  17  19
ENDBRANCH  10  13
BRANCH  12  26
HETATM   26  C   UNL     1     -11.696  14.492  68.236  1.00  0.00    -0.335 C  
HETATM   27  C   UNL     1     -12.800  14.838  71.752  1.00  0.00    -0.325 C  
HETATM   28  C   UNL     1     -10.732  15.694  68.198  1.00  0.00    -0.287 C  
HETATM   29  C   UNL     1     -10.861  15.860  70.694  1.00  0.00    -0.213 C  
HETATM   30  C   UNL     1     -10.959  16.631  69.385  1.00  0.00    -0.235 C  
HETATM   31  O   UNL     1     -12.803  15.734  72.599  1.00  0.00    -0.397 OA 
HETATM   32  N   UNL     1     -11.875  14.807  70.719  1.00  0.00    -0.295 N  
HETATM   33  C   UNL     1     -11.739  13.820  69.628  1.00  0.00    -0.318 C  
BRANCH  27  34
HETATM   34  C   UNL     1     -13.825  13.763  71.838  1.00  0.00    -0.496 C  
HETATM   35  C   UNL     1     -13.486  12.567  72.341  1.00  0.00    -0.372 C  
ENDBRANCH  27  34
ENDBRANCH  12  26
TORSDOF 5
ENDMDL
MODEL       57
REMARK 921   NORMALIZED FREE ENERGY PREDICTED BY IDOCK:   -6.77 KCAL/MOL
REMARK 922        TOTAL FREE ENERGY PREDICTED BY IDOCK:   -9.22 KCAL/MOL
REMARK 923 INTER-LIGAND FREE ENERGY PREDICTED BY IDOCK:   -8.24 KCAL/MOL
REMARK 924 INTRA-LIGAND FREE ENERGY PREDICTED BY IDOCK:   -0.98 KCAL/MOL
REMARK 927      BINDING AFFINITY PREDICTED BY RF-SCORE:    0.00 PKD
ROOT
HETATM    1  N   UNL     1      -9.976  13.404  63.957  1.00  0.00    -0.703 NA 
HETATM    2  C   UNL     1     -10.162  12.245  64.701  1.00  0.00    -0.285 A  
HETATM    3  H1  UNL     1      -9.991  14.266  64.501  1.00  0.00     0.000 HD 
HETATM    4  H2  UNL     1     -10.657  13.450  63.198  1.00  0.00     0.000 HD 
HETATM    5  N   UNL     1     -10.142  11.101  63.981  1.00  0.00    -0.304 NA 
HETATM    6  C   UNL     1     -10.213   9.924  64.626  1.00  0.00     0.392 A  
HETATM    7  N   UNL     1     -10.276   9.724  65.946  1.00  0.00    -0.228 NA 
HETATM    8  C   UNL     1     -10.326  10.883  66.622  1.00  0.00    -0.239 A  
HETATM    9  C   UNL     1     -10.304  12.171  66.098  1.00  0.00    -0.264 A  
HETATM   10  C   UNL     1     -10.418  13.034  67.247  1.00  0.00    -0.238 A  
HETATM   11  N   UNL     1     -10.427  12.298  68.382  1.00  0.00    -0.228 NA 
HETATM   12  N   UNL     1     -10.371  11.016  67.979  1.00  0.00    -0.178 NA 
ENDROOT
BRANCH  10  13
HETATM   13  C   UNL     1     -10.487  14.509  67.369  1.00  0.00    -0.264 A  
HETATM   14  C   UNL     1      -9.704  15.391  66.613  1.00  0.00    -0.269 A  
HETATM   15  C   UNL     1      -9.799  16.782  66.807  1.00  0.00    -0.282 A  
HETATM   16  C   UNL     1     -11.405  15.079  68.275  1.00  0.00    -0.331 A  
HETATM   17  C   UNL     1     -10.706  17.326  67.726  1.00  0.00    -0.333 A  
HETATM   18  C   UNL     1     -11.517  16.466  68.456  1.00  0.00    -0.209 A  
BRANCH  17  19
HETATM   19  O   UNL     1     -10.644  18.690  67.900  1.00  0.00    -0.394 OA 
BRANCH  19  20
HETATM   20  C   UNL     1      -9.439  19.357  67.898  1.00  0.00    -0.330 A  
HETATM   21  C   UNL     1      -8.527  19.006  68.900  1.00  0.00    -0.295 A  
HETATM   22  C   UNL     1      -6.828  20.369  67.857  1.00  0.00    -0.336 A  
HETATM   23  C   UNL     1      -9.039  20.217  66.874  1.00  0.00    -0.448 A  
HETATM   24  C   UNL     1      -7.226  19.514  68.882  1.00  0.00    -0.397 A  
HETATM   25  C   UNL     1      -7.734  20.725  66.859  1.00  0.00    -0.214 A  
ENDBRANCH  19  20
ENDBRANCH  17  19
ENDBRANCH  10  13
BRANCH  12  26
HETATM   26  C   UNL     1     -10.289   9.935  68.960  1.00  0.00    -0.209 C  
HETATM   27  C   UNL     1      -8.066   7.299  70.302  1.00  0.00    -0.121 C  
HETATM   28  C   UNL     1     -11.018  10.285  70.271  1.00  0.00    -0.375 C  
HETATM   29  C   UNL     1      -9.315   8.971  71.554  1.00  0.00    -0.224 C  
HETATM   30  C   UNL     1     -10.802   9.208  71.336  1.00  0.00    -0.419 C  
HETATM   31  O   UNL     1      -8.046   6.574  71.300  1.00  0.00    -0.110 OA 
HETATM   32  N   UNL     1      -8.700   8.532  70.301  1.00  0.00    -0.137 N  
HETATM   33  C   UNL     1      -8.823   9.508  69.200  1.00  0.00    -0.147 C  
BRANCH  27  34
HETATM   34  C   UNL     1      -7.393   6.830  69.061  1.00  0.00    -0.094 C  
HETATM   35  C   UNL     1      -6.055   6.752  69.024  1.00  0.00    -0.026 C  
ENDBRANCH  27  34
ENDBRANCH  12  26
TORSDOF 5
ENDMDL
MODEL       58
REMARK 921   NORMALIZED FREE ENERGY PREDICTED BY IDOCK:   -6.76 KCAL/MOL
REMARK 922        TOTAL FREE ENERGY PREDICTED BY IDOCK:   -9.21 KCAL/MOL
REMARK 923 INTER-LIGAND FREE ENERGY PREDICTED BY IDOCK:   -8.71 KCAL/MOL
REMARK 924 INTRA-LIGAND FREE ENERGY PREDICTED BY IDOCK:   -0.51 KCAL/MOL
REMARK 927      BINDING AFFINITY PREDICTED BY RF-SCORE:    0.00 PKD
ROOT
HETATM    1  N   UNL     1     -12.726   9.756  72.626  1.00  0.00    -0.154 NA 
HETATM    2  C   UNL     1     -12.646  10.815  71.729  1.00  0.00    -0.277 A  
HETATM    3  H1  UNL     1     -12.191   8.930  72.359  1.00  0.00     0.000 HD 
HETATM    4  H2  UNL     1     -13.702   9.507  72.793  1.00  0.00     0.000 HD 
HETATM    5  N   UNL     1     -13.355  11.910  72.083  1.00  0.00    -0.420 NA 
HETATM    6  C   UNL     1     -13.259  13.019  71.331  1.00  0.00    -0.192 A  
HETATM    7  N   UNL     1     -12.499  13.202  70.246  1.00  0.00    -0.217 NA 
HETATM    8  C   UNL     1     -11.837  12.083  69.911  1.00  0.00    -0.331 A  
HETATM    9  C   UNL     1     -11.866  10.854  70.561  1.00  0.00    -0.457 A  
HETATM   10  C   UNL     1     -11.012  10.003  69.770  1.00  0.00    -0.276 A  
HETATM   11  N   UNL     1     -10.454  10.712  68.762  1.00  0.00    -0.182 NA 
HETATM   12  N   UNL     1     -10.964  11.952  68.870  1.00  0.00    -0.231 NA 
ENDROOT
BRANCH  10  13
HETATM   13  C   UNL     1     -10.648   8.573  69.904  1.00  0.00    -0.228 A  
HETATM   14  C   UNL     1      -9.344   8.083  69.756  1.00  0.00    -0.159 A  
HETATM   15  C   UNL     1      -9.078   6.705  69.864  1.00  0.00    -0.143 A  
HETATM   16  C   UNL     1     -11.654   7.638  70.224  1.00  0.00    -0.079 A  
HETATM   17  C   UNL     1     -10.096   5.792  70.165  1.00  0.00    -0.212 A  
HETATM   18  C   UNL     1     -11.389   6.266  70.353  1.00  0.00    -0.440 A  
BRANCH  17  19
HETATM   19  O   UNL     1      -9.738   4.463  70.151  1.00  0.00    -0.186 OA 
BRANCH  19  20
HETATM   20  C   UNL     1      -9.824   3.687  71.286  1.00  0.00    -0.141 A  
HETATM   21  C   UNL     1      -9.497   2.333  71.145  1.00  0.00    -0.218 A  
HETATM   22  C   UNL     1      -9.628   2.034  73.538  1.00  0.00    -0.107 A  
HETATM   23  C   UNL     1     -10.053   4.212  72.559  1.00  0.00    -0.233 A  
HETATM   24  C   UNL     1      -9.404   1.508  72.268  1.00  0.00    -0.126 A  
HETATM   25  C   UNL     1      -9.958   3.381  73.683  1.00  0.00    -0.169 A  
ENDBRANCH  19  20
ENDBRANCH  17  19
ENDBRANCH  10  13
BRANCH  12  26
HETATM   26  C   UNL     1     -10.518  13.017  67.973  1.00  0.00    -0.228 C  
HETATM   27  C   UNL     1     -11.479  14.997  64.998  1.00  0.00    -0.364 C  
HETATM   28  C   UNL     1      -9.745  14.121  68.722  1.00  0.00    -0.148 C  
HETATM   29  C   UNL     1     -10.678  15.826  67.142  1.00  0.00    -0.312 C  
HETATM   30  C   UNL     1      -9.412  15.294  67.799  1.00  0.00    -0.197 C  
HETATM   31  O   UNL     1     -11.093  16.037  64.458  1.00  0.00    -0.572 OA 
HETATM   32  N   UNL     1     -11.304  14.765  66.355  1.00  0.00    -0.348 N  
HETATM   33  C   UNL     1     -11.696  13.583  67.148  1.00  0.00    -0.379 C  
BRANCH  27  34
HETATM   34  C   UNL     1     -12.147  13.961  64.167  1.00  0.00    -0.464 C  
HETATM   35  C   UNL     1     -11.437  12.916  63.717  1.00  0.00    -0.519 C  
ENDBRANCH  27  34
ENDBRANCH  12  26
TORSDOF 5
ENDMDL
MODEL       59
REMARK 921   NORMALIZED FREE ENERGY PREDICTED BY IDOCK:   -6.75 KCAL/MOL
REMARK 922        TOTAL FREE ENERGY PREDICTED BY IDOCK:   -9.19 KCAL/MOL
REMARK 923 INTER-LIGAND FREE ENERGY PREDICTED BY IDOCK:   -8.24 KCAL/MOL
REMARK 924 INTRA-LIGAND FREE ENERGY PREDICTED BY IDOCK:   -0.95 KCAL/MOL
REMARK 927      BINDING AFFINITY PREDICTED BY RF-SCORE:    0.00 PKD
ROOT
HETATM    1  N   UNL     1      -6.567   8.674  70.501  1.00  0.00    -0.037 NA 
HETATM    2  C   UNL     1      -6.936   9.811  69.792  1.00  0.00    -0.087 A  
HETATM    3  H1  UNL     1      -7.347   8.105  70.829  1.00  0.00     0.000 HD 
HETATM    4  H2  UNL     1      -5.958   8.925  71.280  1.00  0.00     0.000 HD 
HETATM    5  N   UNL     1      -5.903  10.566  69.355  1.00  0.00    -0.038 NA 
HETATM    6  C   UNL     1      -6.158  11.630  68.576  1.00  0.00    -0.050 A  
HETATM    7  N   UNL     1      -7.348  12.045  68.130  1.00  0.00    -0.086 NA 
HETATM    8  C   UNL     1      -8.348  11.288  68.611  1.00  0.00    -0.146 A  
HETATM    9  C   UNL     1      -8.248  10.188  69.455  1.00  0.00    -0.176 A  
HETATM   10  C   UNL     1      -9.611   9.780  69.685  1.00  0.00    -0.221 A  
HETATM   11  N   UNL     1     -10.456  10.546  68.957  1.00  0.00    -0.203 NA 
HETATM   12  N   UNL     1      -9.673  11.439  68.324  1.00  0.00    -0.195 NA 
ENDROOT
BRANCH  10  13
HETATM   13  C   UNL     1     -10.190   8.697  70.516  1.00  0.00    -0.229 A  
HETATM   14  C   UNL     1     -10.169   8.694  71.916  1.00  0.00    -0.404 A  
HETATM   15  C   UNL     1     -10.709   7.614  72.640  1.00  0.00    -0.377 A  
HETATM   16  C   UNL     1     -10.824   7.611  69.879  1.00  0.00    -0.241 A  
HETATM   17  C   UNL     1     -11.319   6.536  71.986  1.00  0.00    -0.285 A  
HETATM   18  C   UNL     1     -11.382   6.542  70.598  1.00  0.00    -0.409 A  
BRANCH  17  19
HETATM   19  O   UNL     1     -11.725   5.495  72.789  1.00  0.00    -0.297 OA 
BRANCH  19  20
HETATM   20  C   UNL     1     -10.896   4.425  73.046  1.00  0.00    -0.212 A  
HETATM   21  C   UNL     1     -10.065   4.011  71.999  1.00  0.00    -0.227 A  
HETATM   22  C   UNL     1      -8.924   2.486  73.484  1.00  0.00    -0.081 A  
HETATM   23  C   UNL     1     -10.738   3.864  74.315  1.00  0.00    -0.233 A  
HETATM   24  C   UNL     1      -9.084   3.041  72.216  1.00  0.00    -0.142 A  
HETATM   25  C   UNL     1      -9.753   2.891  74.529  1.00  0.00    -0.140 A  
ENDBRANCH  19  20
ENDBRANCH  17  19
ENDBRANCH  10  13
BRANCH  12  26
HETATM   26  C   UNL     1     -10.253  12.393  67.379  1.00  0.00    -0.208 C  
HETATM   27  C   UNL     1     -11.880  12.683  64.068  1.00  0.00    -0.431 C  
HETATM   28  C   UNL     1     -11.022  13.522  68.093  1.00  0.00    -0.275 C  
HETATM   29  C   UNL     1     -12.646  13.601  66.188  1.00  0.00    -0.335 C  
HETATM   30  C   UNL     1     -11.742  14.427  67.093  1.00  0.00    -0.424 C  
HETATM   31  O   UNL     1     -12.528  13.544  63.468  1.00  0.00    -0.745 OA 
HETATM   32  N   UNL     1     -11.844  12.624  65.454  1.00  0.00    -0.404 N  
HETATM   33  C   UNL     1     -11.119  11.673  66.320  1.00  0.00    -0.290 C  
BRANCH  27  34
HETATM   34  C   UNL     1     -11.110  11.684  63.280  1.00  0.00    -0.333 C  
HETATM   35  C   UNL     1      -9.788  11.843  63.125  1.00  0.00    -0.279 C  
ENDBRANCH  27  34
ENDBRANCH  12  26
TORSDOF 5
ENDMDL
MODEL       60
REMARK 921   NORMALIZED FREE ENERGY PREDICTED BY IDOCK:   -6.75 KCAL/MOL
REMARK 922        TOTAL FREE ENERGY PREDICTED BY IDOCK:   -9.19 KCAL/MOL
REMARK 923 INTER-LIGAND FREE ENERGY PREDICTED BY IDOCK:   -8.17 KCAL/MOL
REMARK 924 INTRA-LIGAND FREE ENERGY PREDICTED BY IDOCK:   -1.03 KCAL/MOL
REMARK 927      BINDING AFFINITY PREDICTED BY RF-SCORE:    0.00 PKD
ROOT
HETATM    1  N   UNL     1     -12.021  11.518  66.426  1.00  0.00    -0.201 NA 
HETATM    2  C   UNL     1     -11.410  12.698  66.018  1.00  0.00    -0.327 A  
HETATM    3  H1  UNL     1     -11.520  11.008  67.154  1.00  0.00     0.000 HD 
HETATM    4  H2  UNL     1     -12.192  10.912  65.622  1.00  0.00     0.000 HD 
HETATM    5  N   UNL     1     -12.073  13.373  65.053  1.00  0.00    -0.379 NA 
HETATM    6  C   UNL     1     -11.612  14.575  64.666  1.00  0.00    -0.408 A  
HETATM    7  N   UNL     1     -10.554  15.233  65.149  1.00  0.00    -0.411 NA 
HETATM    8  C   UNL     1      -9.906  14.515  66.080  1.00  0.00    -0.318 A  
HETATM    9  C   UNL     1     -10.233  13.250  66.554  1.00  0.00    -0.283 A  
HETATM   10  C   UNL     1      -9.197  12.938  67.506  1.00  0.00    -0.192 A  
HETATM   11  N   UNL     1      -8.357  13.990  67.641  1.00  0.00    -0.173 NA 
HETATM   12  N   UNL     1      -8.805  14.919  66.778  1.00  0.00    -0.257 NA 
ENDROOT
BRANCH  10  13
HETATM   13  C   UNL     1      -8.948  11.734  68.333  1.00  0.00    -0.168 A  
HETATM   14  C   UNL     1      -7.705  11.094  68.423  1.00  0.00    -0.125 A  
HETATM   15  C   UNL     1      -7.550   9.932  69.202  1.00  0.00    -0.090 A  
HETATM   16  C   UNL     1     -10.003  11.200  69.100  1.00  0.00    -0.104 A  
HETATM   17  C   UNL     1      -8.617   9.409  69.943  1.00  0.00    -0.191 A  
HETATM   18  C   UNL     1      -9.847  10.054  69.896  1.00  0.00    -0.266 A  
BRANCH  17  19
HETATM   19  O   UNL     1      -8.376   8.218  70.591  1.00  0.00    -0.112 OA 
BRANCH  19  20
HETATM   20  C   UNL     1      -8.785   7.017  70.056  1.00  0.00    -0.142 A  
HETATM   21  C   UNL     1      -7.985   6.479  69.041  1.00  0.00    -0.111 A  
HETATM   22  C   UNL     1      -9.277   4.439  69.080  1.00  0.00    -0.201 A  
HETATM   23  C   UNL     1      -9.834   6.260  70.581  1.00  0.00    -0.213 A  
HETATM   24  C   UNL     1      -8.233   5.195  68.551  1.00  0.00    -0.089 A  
HETATM   25  C   UNL     1     -10.079   4.973  70.087  1.00  0.00    -0.338 A  
ENDBRANCH  19  20
ENDBRANCH  17  19
ENDBRANCH  10  13
BRANCH  12  26
HETATM   26  C   UNL     1      -8.168  16.234  66.709  1.00  0.00    -0.259 C  
HETATM   27  C   UNL     1      -8.688  19.831  67.405  1.00  0.00    -0.326 C  
HETATM   28  C   UNL     1      -6.665  16.168  67.043  1.00  0.00    -0.183 C  
HETATM   29  C   UNL     1      -6.814  18.439  68.091  1.00  0.00    -0.228 C  
HETATM   30  C   UNL     1      -6.046  17.565  67.109  1.00  0.00    -0.167 C  
HETATM   31  O   UNL     1      -7.974  20.831  67.501  1.00  0.00    -0.287 OA 
HETATM   32  N   UNL     1      -8.205  18.555  67.658  1.00  0.00    -0.252 N  
HETATM   33  C   UNL     1      -8.919  17.264  67.582  1.00  0.00    -0.224 C  
BRANCH  27  34
HETATM   34  C   UNL     1     -10.110  19.999  67.000  1.00  0.00    -0.594 C  
HETATM   35  C   UNL     1     -10.457  19.817  65.718  1.00  0.00    -0.545 C  
ENDBRANCH  27  34
ENDBRANCH  12  26
TORSDOF 5
ENDMDL
MODEL       61
REMARK 921   NORMALIZED FREE ENERGY PREDICTED BY IDOCK:   -6.69 KCAL/MOL
REMARK 922        TOTAL FREE ENERGY PREDICTED BY IDOCK:   -9.11 KCAL/MOL
REMARK 923 INTER-LIGAND FREE ENERGY PREDICTED BY IDOCK:   -8.46 KCAL/MOL
REMARK 924 INTRA-LIGAND FREE ENERGY PREDICTED BY IDOCK:   -0.66 KCAL/MOL
REMARK 927      BINDING AFFINITY PREDICTED BY RF-SCORE:    0.00 PKD
ROOT
HETATM    1  N   UNL     1     -10.145   8.662  66.247  1.00  0.00    -0.424 NA 
HETATM    2  C   UNL     1      -9.892   7.604  67.112  1.00  0.00    -0.202 A  
HETATM    3  H1  UNL     1     -10.413   9.533  66.705  1.00  0.00     0.000 HD 
HETATM    4  H2  UNL     1     -10.848   8.394  65.556  1.00  0.00     0.000 HD 
HETATM    5  N   UNL     1      -9.537   6.450  66.505  1.00  0.00    -0.161 NA 
HETATM    6  C   UNL     1      -9.175   5.400  67.262  1.00  0.00    -0.111 A  
HETATM    7  N   UNL     1      -9.088   5.352  68.595  1.00  0.00    -0.113 NA 
HETATM    8  C   UNL     1      -9.480   6.506  69.160  1.00  0.00    -0.135 A  
HETATM    9  C   UNL     1      -9.917   7.659  68.517  1.00  0.00    -0.190 A  
HETATM   10  C   UNL     1     -10.241   8.571  69.584  1.00  0.00    -0.209 A  
HETATM   11  N   UNL     1      -9.938   8.015  70.780  1.00  0.00    -0.187 NA 
HETATM   12  N   UNL     1      -9.484   6.781  70.496  1.00  0.00    -0.169 NA 
ENDROOT
BRANCH  10  13
HETATM   13  C   UNL     1     -10.788   9.948  69.572  1.00  0.00    -0.274 A  
HETATM   14  C   UNL     1     -10.394  10.935  68.659  1.00  0.00    -0.206 A  
HETATM   15  C   UNL     1     -10.933  12.234  68.729  1.00  0.00    -0.277 A  
HETATM   16  C   UNL     1     -11.781  10.299  70.510  1.00  0.00    -0.418 A  
HETATM   17  C   UNL     1     -11.906  12.565  69.681  1.00  0.00    -0.314 A  
HETATM   18  C   UNL     1     -12.336  11.586  70.569  1.00  0.00    -0.432 A  
BRANCH  17  19
HETATM   19  O   UNL     1     -12.289  13.886  69.717  1.00  0.00    -0.329 OA 
BRANCH  19  20
HETATM   20  C   UNL     1     -12.657  14.492  70.898  1.00  0.00    -0.344 A  
HETATM   21  C   UNL     1     -11.629  15.067  71.653  1.00  0.00    -0.416 A  
HETATM   22  C   UNL     1     -13.252  16.042  73.154  1.00  0.00    -0.633 A  
HETATM   23  C   UNL     1     -13.985  14.695  71.276  1.00  0.00    -0.400 A  
HETATM   24  C   UNL     1     -11.925  15.837  72.781  1.00  0.00    -0.598 A  
HETATM   25  C   UNL     1     -14.279  15.467  72.407  1.00  0.00    -0.571 A  
ENDBRANCH  19  20
ENDBRANCH  17  19
ENDBRANCH  10  13
BRANCH  12  26
HETATM   26  C   UNL     1      -8.989   5.911  71.563  1.00  0.00    -0.143 C  
HETATM   27  C   UNL     1      -9.712   2.808  73.445  1.00  0.00    -0.097 C  
HETATM   28  C   UNL     1      -7.452   5.802  71.556  1.00  0.00    -0.093 C  
HETATM   29  C   UNL     1      -7.631   3.432  72.348  1.00  0.00    -0.058 C  
HETATM   30  C   UNL     1      -6.960   4.779  72.581  1.00  0.00    -0.075 C  
HETATM   31  O   UNL     1      -9.086   2.055  74.194  1.00  0.00    -0.067 OA 
HETATM   32  N   UNL     1      -9.080   3.578  72.479  1.00  0.00    -0.095 N  
HETATM   33  C   UNL     1      -9.676   4.527  71.517  1.00  0.00    -0.175 C  
BRANCH  27  34
HETATM   34  C   UNL     1     -11.191   2.895  73.586  1.00  0.00    -0.305 C  
HETATM   35  C   UNL     1     -11.927   1.776  73.526  1.00  0.00    -0.238 C  
ENDBRANCH  27  34
ENDBRANCH  12  26
TORSDOF 5
ENDMDL
MODEL       62
REMARK 921   NORMALIZED FREE ENERGY PREDICTED BY IDOCK:   -6.69 KCAL/MOL
REMARK 922        TOTAL FREE ENERGY PREDICTED BY IDOCK:   -9.11 KCAL/MOL
REMARK 923 INTER-LIGAND FREE ENERGY PREDICTED BY IDOCK:   -8.09 KCAL/MOL
REMARK 924 INTRA-LIGAND FREE ENERGY PREDICTED BY IDOCK:   -1.03 KCAL/MOL
REMARK 927      BINDING AFFINITY PREDICTED BY RF-SCORE:    0.00 PKD
ROOT
HETATM    1  N   UNL     1     -13.524  11.822  72.225  1.00  0.00    -0.547 NA 
HETATM    2  C   UNL     1     -13.228  13.059  71.663  1.00  0.00    -0.336 A  
HETATM    3  H1  UNL     1     -13.042  11.032  71.796  1.00  0.00     0.000 HD 
HETATM    4  H2  UNL     1     -14.533  11.665  72.223  1.00  0.00     0.000 HD 
HETATM    5  N   UNL     1     -13.867  14.105  72.232  1.00  0.00    -0.501 NA 
HETATM    6  C   UNL     1     -13.569  15.350  71.823  1.00  0.00    -0.498 A  
HETATM    7  N   UNL     1     -12.663  15.710  70.908  1.00  0.00    -0.463 NA 
HETATM    8  C   UNL     1     -12.075  14.641  70.346  1.00  0.00    -0.319 A  
HETATM    9  C   UNL     1     -12.305  13.300  70.631  1.00  0.00    -0.416 A  
HETATM   10  C   UNL     1     -11.444  12.582  69.725  1.00  0.00    -0.141 A  
HETATM   11  N   UNL     1     -10.696  13.451  69.007  1.00  0.00    -0.179 NA 
HETATM   12  N   UNL     1     -11.093  14.675  69.399  1.00  0.00    -0.261 NA 
ENDROOT
BRANCH  10  13
HETATM   13  C   UNL     1     -11.240  11.132  69.498  1.00  0.00    -0.341 A  
HETATM   14  C   UNL     1     -11.198  10.181  70.526  1.00  0.00    -0.411 A  
HETATM   15  C   UNL     1     -10.967   8.822  70.239  1.00  0.00    -0.255 A  
HETATM   16  C   UNL     1     -11.103  10.658  68.177  1.00  0.00    -0.343 A  
HETATM   17  C   UNL     1     -10.817   8.376  68.919  1.00  0.00     0.034 A  
HETATM   18  C   UNL     1     -10.894   9.301  67.885  1.00  0.00    -0.181 A  
BRANCH  17  19
HETATM   19  O   UNL     1     -10.501   7.045  68.765  1.00  0.00    -0.193 OA 
BRANCH  19  20
HETATM   20  C   UNL     1      -9.726   6.611  67.712  1.00  0.00    -0.123 A  
HETATM   21  C   UNL     1      -8.339   6.713  67.871  1.00  0.00    -0.119 A  
HETATM   22  C   UNL     1      -7.996   5.485  65.819  1.00  0.00    -0.108 A  
HETATM   23  C   UNL     1     -10.245   5.944  66.601  1.00  0.00    -0.258 A  
HETATM   24  C   UNL     1      -7.476   6.155  66.925  1.00  0.00    -0.087 A  
HETATM   25  C   UNL     1      -9.377   5.386  65.655  1.00  0.00    -0.098 A  
ENDBRANCH  19  20
ENDBRANCH  17  19
ENDBRANCH  10  13
BRANCH  12  26
HETATM   26  C   UNL     1     -10.435  15.871  68.874  1.00  0.00    -0.233 C  
HETATM   27  C   UNL     1      -7.152  17.275  67.903  1.00  0.00    -0.167 C  
HETATM   28  C   UNL     1     -11.294  16.586  67.814  1.00  0.00     0.005 C  
HETATM   29  C   UNL     1      -9.209  17.264  66.602  1.00  0.00    -0.257 C  
HETATM   30  C   UNL     1     -10.535  17.748  67.171  1.00  0.00    -0.338 C  
HETATM   31  O   UNL     1      -6.756  18.250  67.259  1.00  0.00    -0.191 OA 
HETATM   32  N   UNL     1      -8.393  16.698  67.676  1.00  0.00    -0.172 N  
HETATM   33  C   UNL     1      -9.015  15.545  68.356  1.00  0.00    -0.189 C  
BRANCH  27  34
HETATM   34  C   UNL     1      -6.272  16.707  68.959  1.00  0.00    -0.172 C  
HETATM   35  C   UNL     1      -5.894  17.478  69.989  1.00  0.00    -0.234 C  
ENDBRANCH  27  34
ENDBRANCH  12  26
TORSDOF 5
ENDMDL
MODEL       63
REMARK 921   NORMALIZED FREE ENERGY PREDICTED BY IDOCK:   -6.64 KCAL/MOL
REMARK 922        TOTAL FREE ENERGY PREDICTED BY IDOCK:   -9.05 KCAL/MOL
REMARK 923 INTER-LIGAND FREE ENERGY PREDICTED BY IDOCK:   -8.41 KCAL/MOL
REMARK 924 INTRA-LIGAND FREE ENERGY PREDICTED BY IDOCK:   -0.65 KCAL/MOL
REMARK 927      BINDING AFFINITY PREDICTED BY RF-SCORE:    0.00 PKD
ROOT
HETATM    1  N   UNL     1     -12.469   8.437  72.466  1.00  0.00    -0.555 NA 
HETATM    2  C   UNL     1     -11.667   7.406  71.990  1.00  0.00    -0.289 A  
HETATM    3  H1  UNL     1     -12.513   9.256  71.859  1.00  0.00     0.000 HD 
HETATM    4  H2  UNL     1     -12.177   8.707  73.406  1.00  0.00     0.000 HD 
HETATM    5  N   UNL     1     -11.608   6.320  72.793  1.00  0.00    -0.167 NA 
HETATM    6  C   UNL     1     -10.939   5.234  72.371  1.00  0.00    -0.212 A  
HETATM    7  N   UNL     1     -10.321   5.065  71.197  1.00  0.00    -0.210 NA 
HETATM    8  C   UNL     1     -10.377   6.176  70.444  1.00  0.00    -0.213 A  
HETATM    9  C   UNL     1     -10.991   7.383  70.758  1.00  0.00    -0.272 A  
HETATM   10  C   UNL     1     -10.720   8.235  69.627  1.00  0.00    -0.194 A  
HETATM   11  N   UNL     1     -10.054   7.544  68.673  1.00  0.00    -0.179 NA 
HETATM   12  N   UNL     1      -9.863   6.316  69.187  1.00  0.00    -0.141 NA 
ENDROOT
BRANCH  10  13
HETATM   13  C   UNL     1     -11.066   9.649  69.353  1.00  0.00    -0.170 A  
HETATM   14  C   UNL     1     -11.471  10.558  70.339  1.00  0.00    -0.427 A  
HETATM   15  C   UNL     1     -11.817  11.880  69.999  1.00  0.00    -0.407 A  
HETATM   16  C   UNL     1     -10.965  10.135  68.033  1.00  0.00    -0.326 A  
HETATM   17  C   UNL     1     -11.725  12.336  68.678  1.00  0.00    -0.328 A  
HETATM   18  C   UNL     1     -11.289  11.458  67.694  1.00  0.00    -0.359 A  
BRANCH  17  19
HETATM   19  O   UNL     1     -12.180  13.615  68.449  1.00  0.00    -0.332 OA 
BRANCH  19  20
HETATM   20  C   UNL     1     -11.907  14.270  67.269  1.00  0.00    -0.413 A  
HETATM   21  C   UNL     1     -10.848  15.184  67.291  1.00  0.00    -0.316 A  
HETATM   22  C   UNL     1     -11.004  15.450  64.895  1.00  0.00    -0.453 A  
HETATM   23  C   UNL     1     -12.515  13.948  66.054  1.00  0.00    -0.501 A  
HETATM   24  C   UNL     1     -10.400  15.776  66.107  1.00  0.00    -0.333 A  
HETATM   25  C   UNL     1     -12.063  14.543  64.869  1.00  0.00    -0.421 A  
ENDBRANCH  19  20
ENDBRANCH  17  19
ENDBRANCH  10  13
BRANCH  12  26
HETATM   26  C   UNL     1      -9.230   5.268  68.387  1.00  0.00    -0.113 C  
HETATM   27  C   UNL     1      -9.096   3.785  65.000  1.00  0.00    -0.141 C  
HETATM   28  C   UNL     1      -7.751   5.063  68.767  1.00  0.00    -0.078 C  
HETATM   29  C   UNL     1      -7.229   4.512  66.380  1.00  0.00    -0.076 C  
HETATM   30  C   UNL     1      -7.065   4.070  67.828  1.00  0.00    -0.059 C  
HETATM   31  O   UNL     1      -8.343   3.021  64.392  1.00  0.00    -0.086 OA 
HETATM   32  N   UNL     1      -8.650   4.579  66.046  1.00  0.00    -0.114 N  
HETATM   33  C   UNL     1      -9.416   5.531  66.875  1.00  0.00    -0.135 C  
BRANCH  27  34
HETATM   34  C   UNL     1     -10.528   3.851  64.600  1.00  0.00    -0.196 C  
HETATM   35  C   UNL     1     -10.880   3.517  63.350  1.00  0.00    -0.193 C  
ENDBRANCH  27  34
ENDBRANCH  12  26
TORSDOF 5
ENDMDL
MODEL       64
REMARK 921   NORMALIZED FREE ENERGY PREDICTED BY IDOCK:   -6.57 KCAL/MOL
REMARK 922        TOTAL FREE ENERGY PREDICTED BY IDOCK:   -8.97 KCAL/MOL
REMARK 923 INTER-LIGAND FREE ENERGY PREDICTED BY IDOCK:   -8.51 KCAL/MOL
REMARK 924 INTRA-LIGAND FREE ENERGY PREDICTED BY IDOCK:   -0.46 KCAL/MOL
REMARK 927      BINDING AFFINITY PREDICTED BY RF-SCORE:    0.00 PKD
ROOT
HETATM    1  N   UNL     1     -11.374   7.136  73.222  1.00  0.00    -0.558 NA 
HETATM    2  C   UNL     1     -10.665   6.541  72.185  1.00  0.00    -0.221 A  
HETATM    3  H1  UNL     1     -11.786   8.041  72.992  1.00  0.00     0.000 HD 
HETATM    4  H2  UNL     1     -10.788   7.215  74.053  1.00  0.00     0.000 HD 
HETATM    5  N   UNL     1     -10.120   5.342  72.490  1.00  0.00    -0.176 NA 
HETATM    6  C   UNL     1      -9.501   4.644  71.523  1.00  0.00    -0.155 A  
HETATM    7  N   UNL     1      -9.372   4.979  70.235  1.00  0.00    -0.145 NA 
HETATM    8  C   UNL     1      -9.898   6.188  69.982  1.00  0.00    -0.170 A  
HETATM    9  C   UNL     1     -10.529   7.042  70.879  1.00  0.00    -0.233 A  
HETATM   10  C   UNL     1     -10.864   8.207  70.099  1.00  0.00    -0.241 A  
HETATM   11  N   UNL     1     -10.521   8.015  68.805  1.00  0.00    -0.200 NA 
HETATM   12  N   UNL     1      -9.946   6.800  68.763  1.00  0.00    -0.143 NA 
ENDROOT
BRANCH  10  13
HETATM   13  C   UNL     1     -11.517   9.486  70.467  1.00  0.00    -0.337 A  
HETATM   14  C   UNL     1     -12.510   9.600  71.448  1.00  0.00    -0.465 A  
HETATM   15  C   UNL     1     -13.110  10.843  71.722  1.00  0.00    -0.564 A  
HETATM   16  C   UNL     1     -11.111  10.672  69.822  1.00  0.00    -0.358 A  
HETATM   17  C   UNL     1     -12.703  12.007  71.056  1.00  0.00    -0.241 A  
HETATM   18  C   UNL     1     -11.692  11.917  70.107  1.00  0.00    -0.337 A  
BRANCH  17  19
HETATM   19  O   UNL     1     -13.424  13.145  71.335  1.00  0.00    -0.213 OA 
BRANCH  19  20
HETATM   20  C   UNL     1     -12.829  14.245  71.913  1.00  0.00    -0.348 A  
HETATM   21  C   UNL     1     -12.165  15.123  71.049  1.00  0.00    -0.393 A  
HETATM   22  C   UNL     1     -11.845  16.690  72.860  1.00  0.00    -0.297 A  
HETATM   23  C   UNL     1     -13.000  14.594  73.254  1.00  0.00    -0.569 A  
HETATM   24  C   UNL     1     -11.669  16.340  71.522  1.00  0.00    -0.467 A  
HETATM   25  C   UNL     1     -12.502  15.816  73.725  1.00  0.00    -0.727 A  
ENDBRANCH  19  20
ENDBRANCH  17  19
ENDBRANCH  10  13
BRANCH  12  26
HETATM   26  C   UNL     1      -9.513   6.229  67.488  1.00  0.00    -0.112 C  
HETATM   27  C   UNL     1      -6.605   5.860  65.230  1.00  0.00    -0.043 C  
HETATM   28  C   UNL     1     -10.172   4.864  67.210  1.00  0.00    -0.190 C  
HETATM   29  C   UNL     1      -8.086   4.110  66.046  1.00  0.00    -0.098 C  
HETATM   30  C   UNL     1      -9.602   4.214  65.948  1.00  0.00    -0.193 C  
HETATM   31  O   UNL     1      -6.315   5.155  64.261  1.00  0.00    -0.025 OA 
HETATM   32  N   UNL     1      -7.512   5.446  66.195  1.00  0.00    -0.082 N  
HETATM   33  C   UNL     1      -7.971   6.165  67.400  1.00  0.00    -0.105 C  
BRANCH  27  34
HETATM   34  C   UNL     1      -5.966   7.197  65.363  1.00  0.00    -0.037 C  
HETATM   35  C   UNL     1      -6.346   8.194  64.550  1.00  0.00    -0.064 C  
ENDBRANCH  27  34
ENDBRANCH  12  26
TORSDOF 5
ENDMDL
MODEL       65
REMARK 921   NORMALIZED FREE ENERGY PREDICTED BY IDOCK:   -6.56 KCAL/MOL
REMARK 922        TOTAL FREE ENERGY PREDICTED BY IDOCK:   -8.94 KCAL/MOL
REMARK 923 INTER-LIGAND FREE ENERGY PREDICTED BY IDOCK:   -7.82 KCAL/MOL
REMARK 924 INTRA-LIGAND FREE ENERGY PREDICTED BY IDOCK:   -1.12 KCAL/MOL
REMARK 927      BINDING AFFINITY PREDICTED BY RF-SCORE:    0.00 PKD
ROOT
HETATM    1  N   UNL     1     -12.988  11.155  71.260  1.00  0.00    -0.390 NA 
HETATM    2  C   UNL     1     -12.210  10.005  71.323  1.00  0.00    -0.402 A  
HETATM    3  H1  UNL     1     -12.748  11.790  70.499  1.00  0.00     0.000 HD 
HETATM    4  H2  UNL     1     -12.966  11.647  72.153  1.00  0.00     0.000 HD 
HETATM    5  N   UNL     1     -12.529   9.162  72.331  1.00  0.00    -0.325 NA 
HETATM    6  C   UNL     1     -11.899   7.978  72.413  1.00  0.00    -0.372 A  
HETATM    7  N   UNL     1     -10.978   7.487  71.576  1.00  0.00    -0.228 NA 
HETATM    8  C   UNL     1     -10.669   8.367  70.609  1.00  0.00    -0.220 A  
HETATM    9  C   UNL     1     -11.199   9.638  70.418  1.00  0.00    -0.342 A  
HETATM   10  C   UNL     1     -10.497  10.156  69.271  1.00  0.00    -0.225 A  
HETATM   11  N   UNL     1      -9.661   9.217  68.772  1.00  0.00    -0.159 NA 
HETATM   12  N   UNL     1      -9.785   8.157  69.591  1.00  0.00    -0.169 NA 
ENDROOT
BRANCH  10  13
HETATM   13  C   UNL     1     -10.571  11.465  68.579  1.00  0.00    -0.225 A  
HETATM   14  C   UNL     1     -11.772  12.110  68.259  1.00  0.00    -0.401 A  
HETATM   15  C   UNL     1     -11.766  13.337  67.569  1.00  0.00    -0.410 A  
HETATM   16  C   UNL     1      -9.374  12.126  68.235  1.00  0.00    -0.198 A  
HETATM   17  C   UNL     1     -10.564  13.968  67.222  1.00  0.00    -0.273 A  
HETATM   18  C   UNL     1      -9.364  13.359  67.566  1.00  0.00    -0.218 A  
BRANCH  17  19
HETATM   19  O   UNL     1     -10.680  15.113  66.467  1.00  0.00    -0.299 OA 
BRANCH  19  20
HETATM   20  C   UNL     1     -10.040  16.278  66.831  1.00  0.00    -0.278 A  
HETATM   21  C   UNL     1     -10.531  16.934  67.965  1.00  0.00    -0.347 A  
HETATM   22  C   UNL     1      -8.668  18.471  67.903  1.00  0.00    -0.301 A  
HETATM   23  C   UNL     1      -8.860  16.723  66.233  1.00  0.00    -0.334 A  
HETATM   24  C   UNL     1      -9.849  18.031  68.498  1.00  0.00    -0.383 A  
HETATM   25  C   UNL     1      -8.179  17.823  66.770  1.00  0.00    -0.275 A  
ENDBRANCH  19  20
ENDBRANCH  17  19
ENDBRANCH  10  13
BRANCH  12  26
HETATM   26  C   UNL     1      -9.069   6.914  69.306  1.00  0.00    -0.140 C  
HETATM   27  C   UNL     1      -8.029   4.639  66.579  1.00  0.00    -0.103 C  
HETATM   28  C   UNL     1      -7.838   6.732  70.215  1.00  0.00    -0.110 C  
HETATM   29  C   UNL     1      -6.639   5.586  68.338  1.00  0.00    -0.049 C  
HETATM   30  C   UNL     1      -7.020   5.505  69.810  1.00  0.00    -0.062 C  
HETATM   31  O   UNL     1      -7.226   3.711  66.451  1.00  0.00    -0.062 OA 
HETATM   32  N   UNL     1      -7.850   5.641  67.521  1.00  0.00    -0.100 N  
HETATM   33  C   UNL     1      -8.712   6.806  67.806  1.00  0.00    -0.120 C  
BRANCH  27  34
HETATM   34  C   UNL     1      -9.228   4.678  65.699  1.00  0.00    -0.151 C  
HETATM   35  C   UNL     1      -9.097   4.404  64.392  1.00  0.00    -0.152 C  
ENDBRANCH  27  34
ENDBRANCH  12  26
TORSDOF 5
ENDMDL
MODEL       66
REMARK 921   NORMALIZED FREE ENERGY PREDICTED BY IDOCK:   -6.54 KCAL/MOL
REMARK 922        TOTAL FREE ENERGY PREDICTED BY IDOCK:   -8.92 KCAL/MOL
REMARK 923 INTER-LIGAND FREE ENERGY PREDICTED BY IDOCK:   -7.95 KCAL/MOL
REMARK 924 INTRA-LIGAND FREE ENERGY PREDICTED BY IDOCK:   -0.97 KCAL/MOL
REMARK 927      BINDING AFFINITY PREDICTED BY RF-SCORE:    0.00 PKD
ROOT
HETATM    1  N   UNL     1     -12.722  11.641  71.073  1.00  0.00    -0.341 NA 
HETATM    2  C   UNL     1     -11.849  10.620  70.713  1.00  0.00    -0.357 A  
HETATM    3  H1  UNL     1     -12.620  12.499  70.530  1.00  0.00     0.000 HD 
HETATM    4  H2  UNL     1     -12.642  11.840  72.070  1.00  0.00     0.000 HD 
HETATM    5  N   UNL     1     -11.984   9.483  71.432  1.00  0.00    -0.358 NA 
HETATM    6  C   UNL     1     -11.253   8.408  71.091  1.00  0.00    -0.263 A  
HETATM    7  N   UNL     1     -10.394   8.299  70.073  1.00  0.00    -0.207 NA 
HETATM    8  C   UNL     1     -10.266   9.457  69.406  1.00  0.00    -0.207 A  
HETATM    9  C   UNL     1     -10.917  10.659  69.662  1.00  0.00    -0.331 A  
HETATM   10  C   UNL     1     -10.392  11.574  68.680  1.00  0.00    -0.210 A  
HETATM   11  N   UNL     1      -9.541  10.928  67.850  1.00  0.00    -0.163 NA 
HETATM   12  N   UNL     1      -9.486   9.664  68.306  1.00  0.00    -0.136 NA 
ENDROOT
BRANCH  10  13
HETATM   13  C   UNL     1     -10.649  13.013  68.437  1.00  0.00    -0.264 A  
HETATM   14  C   UNL     1     -11.594  13.491  67.519  1.00  0.00    -0.385 A  
HETATM   15  C   UNL     1     -11.761  14.874  67.315  1.00  0.00    -0.308 A  
HETATM   16  C   UNL     1      -9.930  13.972  69.179  1.00  0.00     0.063 A  
HETATM   17  C   UNL     1     -11.023  15.810  68.052  1.00  0.00    -0.330 A  
HETATM   18  C   UNL     1     -10.109  15.352  68.994  1.00  0.00    -0.234 A  
BRANCH  17  19
HETATM   19  O   UNL     1     -11.200  17.129  67.701  1.00  0.00    -0.132 OA 
BRANCH  19  20
HETATM   20  C   UNL     1     -10.185  17.857  67.121  1.00  0.00    -0.353 A  
HETATM   21  C   UNL     1     -10.320  19.250  67.148  1.00  0.00    -0.533 A  
HETATM   22  C   UNL     1      -8.078  19.501  66.284  1.00  0.00    -0.344 A  
HETATM   23  C   UNL     1      -8.992  17.289  66.672  1.00  0.00    -0.279 A  
HETATM   24  C   UNL     1      -9.271  20.070  66.727  1.00  0.00    -0.494 A  
HETATM   25  C   UNL     1      -7.942  18.114  66.250  1.00  0.00    -0.271 A  
ENDBRANCH  19  20
ENDBRANCH  17  19
ENDBRANCH  10  13
BRANCH  12  26
HETATM   26  C   UNL     1      -8.706   8.654  67.593  1.00  0.00    -0.136 C  
HETATM   27  C   UNL     1      -8.952   5.430  65.793  1.00  0.00    -0.158 C  
HETATM   28  C   UNL     1      -7.576   9.279  66.753  1.00  0.00    -0.090 C  
HETATM   29  C   UNL     1      -7.867   7.474  65.041  1.00  0.00    -0.127 C  
HETATM   30  C   UNL     1      -6.863   8.227  65.902  1.00  0.00    -0.064 C  
HETATM   31  O   UNL     1      -8.230   4.775  65.037  1.00  0.00    -0.116 OA 
HETATM   32  N   UNL     1      -8.846   6.809  65.899  1.00  0.00    -0.142 N  
HETATM   33  C   UNL     1      -9.620   7.733  66.753  1.00  0.00    -0.212 C  
BRANCH  27  34
HETATM   34  C   UNL     1      -9.963   4.716  66.619  1.00  0.00    -0.260 C  
HETATM   35  C   UNL     1      -9.555   3.874  67.580  1.00  0.00    -0.212 C  
ENDBRANCH  27  34
ENDBRANCH  12  26
TORSDOF 5
ENDMDL
MODEL       67
REMARK 921   NORMALIZED FREE ENERGY PREDICTED BY IDOCK:   -6.54 KCAL/MOL
REMARK 922        TOTAL FREE ENERGY PREDICTED BY IDOCK:   -8.92 KCAL/MOL
REMARK 923 INTER-LIGAND FREE ENERGY PREDICTED BY IDOCK:   -8.85 KCAL/MOL
REMARK 924 INTRA-LIGAND FREE ENERGY PREDICTED BY IDOCK:   -0.07 KCAL/MOL
REMARK 927      BINDING AFFINITY PREDICTED BY RF-SCORE:    0.00 PKD
ROOT
HETATM    1  N   UNL     1     -10.878   7.334  73.818  1.00  0.00    -0.528 NA 
HETATM    2  C   UNL     1     -10.125   6.666  72.860  1.00  0.00    -0.182 A  
HETATM    3  H1  UNL     1     -11.390   8.144  73.468  1.00  0.00     0.000 HD 
HETATM    4  H2  UNL     1     -10.289   7.601  74.608  1.00  0.00     0.000 HD 
HETATM    5  N   UNL     1      -9.446   5.592  73.323  1.00  0.00    -0.142 NA 
HETATM    6  C   UNL     1      -8.770   4.824  72.452  1.00  0.00    -0.119 A  
HETATM    7  N   UNL     1      -8.701   4.969  71.124  1.00  0.00    -0.126 NA 
HETATM    8  C   UNL     1      -9.361   6.063  70.710  1.00  0.00    -0.154 A  
HETATM    9  C   UNL     1     -10.067   6.972  71.489  1.00  0.00    -0.197 A  
HETATM   10  C   UNL     1     -10.542   7.961  70.554  1.00  0.00    -0.223 A  
HETATM   11  N   UNL     1     -10.202   7.611  69.293  1.00  0.00    -0.205 NA 
HETATM   12  N   UNL     1      -9.497   6.472  69.415  1.00  0.00    -0.145 NA 
ENDROOT
BRANCH  10  13
HETATM   13  C   UNL     1     -11.325   9.205  70.747  1.00  0.00    -0.337 A  
HETATM   14  C   UNL     1     -12.334   9.349  71.708  1.00  0.00    -0.471 A  
HETATM   15  C   UNL     1     -13.061  10.550  71.812  1.00  0.00    -0.570 A  
HETATM   16  C   UNL     1     -11.036  10.327  69.944  1.00  0.00    -0.362 A  
HETATM   17  C   UNL     1     -12.768  11.647  70.992  1.00  0.00    -0.298 A  
HETATM   18  C   UNL     1     -11.744  11.533  70.059  1.00  0.00    -0.414 A  
BRANCH  17  19
HETATM   19  O   UNL     1     -13.605  12.733  71.116  1.00  0.00     0.191 OA 
BRANCH  19  20
HETATM   20  C   UNL     1     -13.122  13.969  71.489  1.00  0.00    -0.363 A  
HETATM   21  C   UNL     1     -13.278  14.321  72.835  1.00  0.00    -0.593 A  
HETATM   22  C   UNL     1     -11.920  16.290  72.495  1.00  0.00    -0.648 A  
HETATM   23  C   UNL     1     -12.363  14.783  70.647  1.00  0.00    -0.401 A  
HETATM   24  C   UNL     1     -12.683  15.480  73.336  1.00  0.00    -0.653 A  
HETATM   25  C   UNL     1     -11.767  15.945  71.153  1.00  0.00    -0.490 A  
ENDBRANCH  19  20
ENDBRANCH  17  19
ENDBRANCH  10  13
BRANCH  12  26
HETATM   26  C   UNL     1      -9.026   5.762  68.227  1.00  0.00    -0.115 C  
HETATM   27  C   UNL     1      -8.911   2.442  66.596  1.00  0.00    -0.129 C  
HETATM   28  C   UNL     1      -9.146   6.619  66.953  1.00  0.00    -0.144 C  
HETATM   29  C   UNL     1      -9.632   4.553  65.624  1.00  0.00    -0.187 C  
HETATM   30  C   UNL     1      -8.787   5.816  65.702  1.00  0.00    -0.141 C  
HETATM   31  O   UNL     1      -8.661   2.013  65.467  1.00  0.00    -0.108 OA 
HETATM   32  N   UNL     1      -9.389   3.727  66.806  1.00  0.00    -0.179 N  
HETATM   33  C   UNL     1      -9.727   4.392  68.080  1.00  0.00    -0.123 C  
BRANCH  27  34
HETATM   34  C   UNL     1      -8.687   1.553  67.768  1.00  0.00    -0.119 C  
HETATM   35  C   UNL     1      -9.559   1.571  68.787  1.00  0.00    -0.175 C  
ENDBRANCH  27  34
ENDBRANCH  12  26
TORSDOF 5
ENDMDL
MODEL       68
REMARK 921   NORMALIZED FREE ENERGY PREDICTED BY IDOCK:   -6.52 KCAL/MOL
REMARK 922        TOTAL FREE ENERGY PREDICTED BY IDOCK:   -8.90 KCAL/MOL
REMARK 923 INTER-LIGAND FREE ENERGY PREDICTED BY IDOCK:   -8.22 KCAL/MOL
REMARK 924 INTRA-LIGAND FREE ENERGY PREDICTED BY IDOCK:   -0.68 KCAL/MOL
REMARK 927      BINDING AFFINITY PREDICTED BY RF-SCORE:    0.00 PKD
ROOT
HETATM    1  N   UNL     1      -7.193  10.255  70.800  1.00  0.00    -0.399 NA 
HETATM    2  C   UNL     1      -7.210   9.056  70.098  1.00  0.00    -0.062 A  
HETATM    3  H1  UNL     1      -8.111  10.668  70.962  1.00  0.00     0.000 HD 
HETATM    4  H2  UNL     1      -6.578  10.927  70.339  1.00  0.00     0.000 HD 
HETATM    5  N   UNL     1      -5.993   8.508  69.884  1.00  0.00    -0.028 NA 
HETATM    6  C   UNL     1      -5.917   7.300  69.302  1.00  0.00    -0.030 A  
HETATM    7  N   UNL     1      -6.930   6.518  68.914  1.00  0.00    -0.076 NA 
HETATM    8  C   UNL     1      -8.118   7.112  69.115  1.00  0.00    -0.121 A  
HETATM    9  C   UNL     1      -8.356   8.366  69.665  1.00  0.00    -0.122 A  
HETATM   10  C   UNL     1      -9.789   8.520  69.615  1.00  0.00    -0.183 A  
HETATM   11  N   UNL     1     -10.361   7.391  69.137  1.00  0.00    -0.204 NA 
HETATM   12  N   UNL     1      -9.339   6.565  68.848  1.00  0.00    -0.132 NA 
ENDROOT
BRANCH  10  13
HETATM   13  C   UNL     1     -10.675   9.639  70.013  1.00  0.00    -0.298 A  
HETATM   14  C   UNL     1     -11.507   9.611  71.139  1.00  0.00    -0.456 A  
HETATM   15  C   UNL     1     -12.349  10.700  71.437  1.00  0.00    -0.455 A  
HETATM   16  C   UNL     1     -10.677  10.818  69.240  1.00  0.00    -0.268 A  
HETATM   17  C   UNL     1     -12.347  11.855  70.645  1.00  0.00    -0.313 A  
HETATM   18  C   UNL     1     -11.499  11.914  69.546  1.00  0.00    -0.357 A  
BRANCH  17  19
HETATM   19  O   UNL     1     -13.278  12.814  70.976  1.00  0.00    -0.063 OA 
BRANCH  19  20
HETATM   20  C   UNL     1     -12.900  14.014  71.537  1.00  0.00    -0.362 A  
HETATM   21  C   UNL     1     -13.191  14.189  72.895  1.00  0.00    -0.553 A  
HETATM   22  C   UNL     1     -11.923  16.245  72.919  1.00  0.00    -0.615 A  
HETATM   23  C   UNL     1     -12.119  14.960  70.871  1.00  0.00    -0.377 A  
HETATM   24  C   UNL     1     -12.707  15.304  73.583  1.00  0.00    -0.703 A  
HETATM   25  C   UNL     1     -11.635  16.077  71.565  1.00  0.00    -0.529 A  
ENDBRANCH  19  20
ENDBRANCH  17  19
ENDBRANCH  10  13
BRANCH  12  26
HETATM   26  C   UNL     1      -9.597   5.207  68.371  1.00  0.00    -0.139 C  
HETATM   27  C   UNL     1      -9.295   2.979  65.432  1.00  0.00    -0.114 C  
HETATM   28  C   UNL     1      -9.343   4.151  69.464  1.00  0.00    -0.238 C  
HETATM   29  C   UNL     1      -8.560   2.544  67.710  1.00  0.00    -0.096 C  
HETATM   30  C   UNL     1      -9.476   2.731  68.912  1.00  0.00    -0.171 C  
HETATM   31  O   UNL     1      -9.358   1.765  65.225  1.00  0.00    -0.097 OA 
HETATM   32  N   UNL     1      -8.924   3.498  66.664  1.00  0.00    -0.138 N  
HETATM   33  C   UNL     1      -8.808   4.911  67.075  1.00  0.00    -0.106 C  
BRANCH  27  34
HETATM   34  C   UNL     1      -9.635   3.915  64.326  1.00  0.00    -0.168 C  
HETATM   35  C   UNL     1     -10.693   3.655  63.543  1.00  0.00    -0.248 C  
ENDBRANCH  27  34
ENDBRANCH  12  26
TORSDOF 5
ENDMDL
MODEL       69
REMARK 921   NORMALIZED FREE ENERGY PREDICTED BY IDOCK:   -6.49 KCAL/MOL
REMARK 922        TOTAL FREE ENERGY PREDICTED BY IDOCK:   -8.85 KCAL/MOL
REMARK 923 INTER-LIGAND FREE ENERGY PREDICTED BY IDOCK:   -8.72 KCAL/MOL
REMARK 924 INTRA-LIGAND FREE ENERGY PREDICTED BY IDOCK:   -0.13 KCAL/MOL
REMARK 927      BINDING AFFINITY PREDICTED BY RF-SCORE:    0.00 PKD
ROOT
HETATM    1  N   UNL     1     -11.188  11.505  63.188  1.00  0.00    -0.833 NA 
HETATM    2  C   UNL     1     -11.371  12.016  64.468  1.00  0.00    -0.330 A  
HETATM    3  H1  UNL     1     -10.618  10.660  63.144  1.00  0.00     0.000 HD 
HETATM    4  H2  UNL     1     -10.806  12.223  62.572  1.00  0.00     0.000 HD 
HETATM    5  N   UNL     1     -12.127  13.135  64.527  1.00  0.00    -0.384 NA 
HETATM    6  C   UNL     1     -12.442  13.645  65.729  1.00  0.00    -0.477 A  
HETATM    7  N   UNL     1     -12.118  13.155  66.930  1.00  0.00    -0.358 NA 
HETATM    8  C   UNL     1     -11.342  12.064  66.827  1.00  0.00    -0.339 A  
HETATM    9  C   UNL     1     -10.900  11.445  65.663  1.00  0.00    -0.280 A  
HETATM   10  C   UNL     1     -10.080  10.352  66.121  1.00  0.00    -0.237 A  
HETATM   11  N   UNL     1     -10.103  10.286  67.472  1.00  0.00    -0.189 NA 
HETATM   12  N   UNL     1     -10.866  11.321  67.868  1.00  0.00    -0.211 NA 
ENDROOT
BRANCH  10  13
HETATM   13  C   UNL     1      -9.293   9.334  65.385  1.00  0.00    -0.292 A  
HETATM   14  C   UNL     1      -8.780   9.528  64.096  1.00  0.00    -0.239 A  
HETATM   15  C   UNL     1      -8.069   8.502  63.444  1.00  0.00    -0.160 A  
HETATM   16  C   UNL     1      -9.014   8.102  66.010  1.00  0.00    -0.213 A  
HETATM   17  C   UNL     1      -7.818   7.279  64.078  1.00  0.00    -0.114 A  
HETATM   18  C   UNL     1      -8.287   7.085  65.371  1.00  0.00    -0.121 A  
BRANCH  17  19
HETATM   19  O   UNL     1      -7.199   6.318  63.311  1.00  0.00    -0.049 OA 
BRANCH  19  20
HETATM   20  C   UNL     1      -7.765   5.076  63.127  1.00  0.00    -0.069 A  
HETATM   21  C   UNL     1      -7.177   4.012  63.821  1.00  0.00    -0.051 A  
HETATM   22  C   UNL     1      -8.971   2.548  63.131  1.00  0.00    -0.088 A  
HETATM   23  C   UNL     1      -8.959   4.871  62.434  1.00  0.00    -0.104 A  
HETATM   24  C   UNL     1      -7.776   2.750  63.819  1.00  0.00    -0.068 A  
HETATM   25  C   UNL     1      -9.557   3.605  62.435  1.00  0.00    -0.104 A  
ENDBRANCH  19  20
ENDBRANCH  17  19
ENDBRANCH  10  13
BRANCH  12  26
HETATM   26  C   UNL     1     -11.172  11.516  69.284  1.00  0.00    -0.272 C  
HETATM   27  C   UNL     1     -12.931  13.731  71.670  1.00  0.00    -0.364 C  
HETATM   28  C   UNL     1     -11.419  10.181  70.013  1.00  0.00    -0.344 C  
HETATM   29  C   UNL     1     -13.102  11.311  71.484  1.00  0.00    -0.355 C  
HETATM   30  C   UNL     1     -11.878  10.407  71.455  1.00  0.00    -0.312 C  
HETATM   31  O   UNL     1     -13.297  13.661  72.846  1.00  0.00    -0.587 OA 
HETATM   32  N   UNL     1     -12.773  12.602  70.881  1.00  0.00    -0.246 N  
HETATM   33  C   UNL     1     -12.340  12.511  69.472  1.00  0.00     0.066 C  
BRANCH  27  34
HETATM   34  C   UNL     1     -12.645  15.069  71.085  1.00  0.00    -0.416 C  
HETATM   35  C   UNL     1     -11.827  15.911  71.732  1.00  0.00    -0.579 C  
ENDBRANCH  27  34
ENDBRANCH  12  26
TORSDOF 5
ENDMDL
MODEL       70
REMARK 921   NORMALIZED FREE ENERGY PREDICTED BY IDOCK:   -6.45 KCAL/MOL
REMARK 922        TOTAL FREE ENERGY PREDICTED BY IDOCK:   -8.81 KCAL/MOL
REMARK 923 INTER-LIGAND FREE ENERGY PREDICTED BY IDOCK:   -8.19 KCAL/MOL
REMARK 924 INTRA-LIGAND FREE ENERGY PREDICTED BY IDOCK:   -0.61 KCAL/MOL
REMARK 927      BINDING AFFINITY PREDICTED BY RF-SCORE:    0.00 PKD
ROOT
HETATM    1  N   UNL     1     -12.521  11.731  70.660  1.00  0.00    -0.307 NA 
HETATM    2  C   UNL     1     -12.110  12.941  70.114  1.00  0.00    -0.302 A  
HETATM    3  H1  UNL     1     -12.018  10.914  70.313  1.00  0.00     0.000 HD 
HETATM    4  H2  UNL     1     -13.527  11.609  70.532  1.00  0.00     0.000 HD 
HETATM    5  N   UNL     1     -12.776  14.024  70.574  1.00  0.00    -0.312 NA 
HETATM    6  C   UNL     1     -12.381  15.246  70.180  1.00  0.00    -0.353 A  
HETATM    7  N   UNL     1     -11.353  15.551  69.382  1.00  0.00    -0.291 NA 
HETATM    8  C   UNL     1     -10.739  14.448  68.923  1.00  0.00    -0.253 A  
HETATM    9  C   UNL     1     -11.054  13.123  69.204  1.00  0.00    -0.248 A  
HETATM   10  C   UNL     1     -10.112  12.353  68.431  1.00  0.00    -0.217 A  
HETATM   11  N   UNL     1      -9.247  13.177  67.796  1.00  0.00    -0.194 NA 
HETATM   12  N   UNL     1      -9.644  14.423  68.109  1.00  0.00    -0.212 NA 
ENDROOT
BRANCH  10  13
HETATM   13  C   UNL     1      -9.937  10.891  68.264  1.00  0.00    -0.187 A  
HETATM   14  C   UNL     1     -10.659  10.120  67.344  1.00  0.00    -0.329 A  
HETATM   15  C   UNL     1     -10.463   8.728  67.264  1.00  0.00    -0.353 A  
HETATM   16  C   UNL     1      -8.975  10.223  69.049  1.00  0.00    -0.175 A  
HETATM   17  C   UNL     1      -9.513   8.082  68.066  1.00  0.00    -0.146 A  
HETATM   18  C   UNL     1      -8.762   8.839  68.956  1.00  0.00    -0.133 A  
BRANCH  17  19
HETATM   19  O   UNL     1      -9.476   6.710  67.970  1.00  0.00    -0.120 OA 
BRANCH  19  20
HETATM   20  C   UNL     1      -9.733   5.909  69.061  1.00  0.00    -0.136 A  
HETATM   21  C   UNL     1      -8.687   5.086  69.493  1.00  0.00    -0.109 A  
HETATM   22  C   UNL     1      -9.963   4.461  71.447  1.00  0.00    -0.248 A  
HETATM   23  C   UNL     1     -10.896   6.006  69.827  1.00  0.00    -0.433 A  
HETATM   24  C   UNL     1      -8.803   4.360  70.681  1.00  0.00    -0.139 A  
HETATM   25  C   UNL     1     -11.009   5.277  71.018  1.00  0.00    -0.036 A  
ENDBRANCH  19  20
ENDBRANCH  17  19
ENDBRANCH  10  13
BRANCH  12  26
HETATM   26  C   UNL     1      -8.880  15.581  67.647  1.00  0.00    -0.179 C  
HETATM   27  C   UNL     1      -8.297  19.188  68.237  1.00  0.00    -0.335 C  
HETATM   28  C   UNL     1      -7.447  15.201  67.228  1.00  0.00    -0.228 C  
HETATM   29  C   UNL     1      -6.632  17.423  68.047  1.00  0.00    -0.167 C  
HETATM   30  C   UNL     1      -6.617  16.439  66.886  1.00  0.00    -0.170 C  
HETATM   31  O   UNL     1      -7.448  20.018  67.905  1.00  0.00    -0.287 OA 
HETATM   32  N   UNL     1      -8.008  17.834  68.323  1.00  0.00    -0.272 N  
HETATM   33  C   UNL     1      -8.902  16.719  68.693  1.00  0.00    -0.255 C  
BRANCH  27  34
HETATM   34  C   UNL     1      -9.675  19.655  68.548  1.00  0.00    -0.493 C  
HETATM   35  C   UNL     1     -10.592  19.703  67.571  1.00  0.00    -0.577 C  
ENDBRANCH  27  34
ENDBRANCH  12  26
TORSDOF 5
ENDMDL
MODEL       71
REMARK 921   NORMALIZED FREE ENERGY PREDICTED BY IDOCK:   -6.45 KCAL/MOL
REMARK 922        TOTAL FREE ENERGY PREDICTED BY IDOCK:   -8.81 KCAL/MOL
REMARK 923 INTER-LIGAND FREE ENERGY PREDICTED BY IDOCK:   -7.69 KCAL/MOL
REMARK 924 INTRA-LIGAND FREE ENERGY PREDICTED BY IDOCK:   -1.12 KCAL/MOL
REMARK 927      BINDING AFFINITY PREDICTED BY RF-SCORE:    0.00 PKD
ROOT
HETATM    1  N   UNL     1      -5.961  12.590  70.759  1.00  0.00    -0.520 NA 
HETATM    2  C   UNL     1      -6.009  13.965  70.559  1.00  0.00    -0.172 A  
HETATM    3  H1  UNL     1      -6.553  12.047  70.130  1.00  0.00     0.000 HD 
HETATM    4  H2  UNL     1      -6.176  12.365  71.731  1.00  0.00     0.000 HD 
HETATM    5  N   UNL     1      -5.224  14.684  71.392  1.00  0.00    -0.138 NA 
HETATM    6  C   UNL     1      -5.127  16.012  71.210  1.00  0.00    -0.119 A  
HETATM    7  N   UNL     1      -5.708  16.746  70.255  1.00  0.00    -0.203 NA 
HETATM    8  C   UNL     1      -6.502  15.999  69.470  1.00  0.00    -0.187 A  
HETATM    9  C   UNL     1      -6.736  14.631  69.558  1.00  0.00    -0.158 A  
HETATM   10  C   UNL     1      -7.686  14.356  68.509  1.00  0.00    -0.135 A  
HETATM   11  N   UNL     1      -7.934  15.481  67.799  1.00  0.00    -0.136 NA 
HETATM   12  N   UNL     1      -7.212  16.447  68.395  1.00  0.00    -0.152 NA 
ENDROOT
BRANCH  10  13
HETATM   13  C   UNL     1      -8.361  13.104  68.094  1.00  0.00    -0.161 A  
HETATM   14  C   UNL     1      -7.681  11.933  67.738  1.00  0.00    -0.136 A  
HETATM   15  C   UNL     1      -8.390  10.790  67.321  1.00  0.00    -0.124 A  
HETATM   16  C   UNL     1      -9.771  13.062  68.074  1.00  0.00    -0.224 A  
HETATM   17  C   UNL     1      -9.790  10.775  67.293  1.00  0.00    -0.179 A  
HETATM   18  C   UNL     1     -10.481  11.917  67.680  1.00  0.00    -0.232 A  
BRANCH  17  19
HETATM   19  O   UNL     1     -10.371   9.638  66.778  1.00  0.00    -0.239 OA 
BRANCH  19  20
HETATM   20  C   UNL     1     -10.653   8.554  67.579  1.00  0.00    -0.214 A  
HETATM   21  C   UNL     1     -10.880   7.336  66.928  1.00  0.00    -0.265 A  
HETATM   22  C   UNL     1     -10.919   6.187  69.052  1.00  0.00    -0.436 A  
HETATM   23  C   UNL     1     -10.560   8.584  68.972  1.00  0.00    -0.173 A  
HETATM   24  C   UNL     1     -11.017   6.156  67.662  1.00  0.00    -0.400 A  
HETATM   25  C   UNL     1     -10.698   7.398  69.705  1.00  0.00    -0.252 A  
ENDBRANCH  19  20
ENDBRANCH  17  19
ENDBRANCH  10  13
BRANCH  12  26
HETATM   26  C   UNL     1      -7.184  17.799  67.839  1.00  0.00    -0.210 C  
HETATM   27  C   UNL     1      -6.552  19.730  64.746  1.00  0.00    -0.121 C  
HETATM   28  C   UNL     1      -8.300  18.689  68.420  1.00  0.00    -0.362 C  
HETATM   29  C   UNL     1      -8.483  19.872  66.219  1.00  0.00    -0.338 C  
HETATM   30  C   UNL     1      -8.348  20.051  67.725  1.00  0.00    -0.329 C  
HETATM   31  O   UNL     1      -6.776  20.877  64.351  1.00  0.00    -0.247 OA 
HETATM   32  N   UNL     1      -7.338  19.118  65.711  1.00  0.00    -0.261 N  
HETATM   33  C   UNL     1      -7.204  17.768  66.293  1.00  0.00    -0.296 C  
BRANCH  27  34
HETATM   34  C   UNL     1      -5.400  18.985  64.172  1.00  0.00    -0.287 C  
HETATM   35  C   UNL     1      -5.190  19.011  62.847  1.00  0.00    -0.284 C  
ENDBRANCH  27  34
ENDBRANCH  12  26
TORSDOF 5
ENDMDL
MODEL       72
REMARK 921   NORMALIZED FREE ENERGY PREDICTED BY IDOCK:   -6.41 KCAL/MOL
REMARK 922        TOTAL FREE ENERGY PREDICTED BY IDOCK:   -8.76 KCAL/MOL
REMARK 923 INTER-LIGAND FREE ENERGY PREDICTED BY IDOCK:   -7.52 KCAL/MOL
REMARK 924 INTRA-LIGAND FREE ENERGY PREDICTED BY IDOCK:   -1.24 KCAL/MOL
REMARK 927      BINDING AFFINITY PREDICTED BY RF-SCORE:    0.00 PKD
ROOT
HETATM    1  N   UNL     1     -12.278  13.047  69.506  1.00  0.00    -0.203 NA 
HETATM    2  C   UNL     1     -11.681  11.822  69.783  1.00  0.00    -0.335 A  
HETATM    3  H1  UNL     1     -11.753  13.640  68.863  1.00  0.00     0.000 HD 
HETATM    4  H2  UNL     1     -12.475  13.549  70.372  1.00  0.00     0.000 HD 
HETATM    5  N   UNL     1     -12.377  11.035  70.635  1.00  0.00    -0.358 NA 
HETATM    6  C   UNL     1     -11.930   9.793  70.885  1.00  0.00    -0.328 A  
HETATM    7  N   UNL     1     -10.857   9.194  70.358  1.00  0.00    -0.230 NA 
HETATM    8  C   UNL     1     -10.178  10.019  69.544  1.00  0.00    -0.234 A  
HETATM    9  C   UNL     1     -10.489  11.335  69.221  1.00  0.00    -0.145 A  
HETATM   10  C   UNL     1      -9.422  11.758  68.348  1.00  0.00    -0.188 A  
HETATM   11  N   UNL     1      -8.579  10.726  68.110  1.00  0.00    -0.125 NA 
HETATM   12  N   UNL     1      -9.056   9.700  68.837  1.00  0.00    -0.139 NA 
ENDROOT
BRANCH  10  13
HETATM   13  C   UNL     1      -9.145  13.054  67.686  1.00  0.00    -0.198 A  
HETATM   14  C   UNL     1      -8.125  13.929  68.081  1.00  0.00    -0.150 A  
HETATM   15  C   UNL     1      -7.942  15.161  67.426  1.00  0.00    -0.215 A  
HETATM   16  C   UNL     1      -9.926  13.437  66.576  1.00  0.00    -0.286 A  
HETATM   17  C   UNL     1      -8.741  15.529  66.336  1.00  0.00    -0.298 A  
HETATM   18  C   UNL     1      -9.732  14.655  65.907  1.00  0.00    -0.341 A  
BRANCH  17  19
HETATM   19  O   UNL     1      -8.534  16.794  65.836  1.00  0.00    -0.484 OA 
BRANCH  19  20
HETATM   20  C   UNL     1      -9.020  17.908  66.485  1.00  0.00    -0.261 A  
HETATM   21  C   UNL     1     -10.391  18.160  66.354  1.00  0.00    -0.404 A  
HETATM   22  C   UNL     1     -10.239  19.930  67.991  1.00  0.00    -0.572 A  
HETATM   23  C   UNL     1      -8.261  18.672  67.372  1.00  0.00    -0.267 A  
HETATM   24  C   UNL     1     -10.998  19.171  67.102  1.00  0.00    -0.389 A  
HETATM   25  C   UNL     1      -8.873  19.686  68.121  1.00  0.00    -0.370 A  
ENDBRANCH  19  20
ENDBRANCH  17  19
ENDBRANCH  10  13
BRANCH  12  26
HETATM   26  C   UNL     1      -8.423   8.384  68.762  1.00  0.00    -0.124 C  
HETATM   27  C   UNL     1      -7.576   5.617  66.455  1.00  0.00    -0.092 C  
HETATM   28  C   UNL     1      -7.187   8.281  69.678  1.00  0.00    -0.061 C  
HETATM   29  C   UNL     1      -6.097   6.759  68.014  1.00  0.00    -0.032 C  
HETATM   30  C   UNL     1      -6.454   6.954  69.481  1.00  0.00    -0.044 C  
HETATM   31  O   UNL     1      -6.834   4.632  66.481  1.00  0.00    -0.055 OA 
HETATM   32  N   UNL     1      -7.319   6.752  67.210  1.00  0.00    -0.088 N  
HETATM   33  C   UNL     1      -8.102   8.000  67.300  1.00  0.00    -0.121 C  
BRANCH  27  34
HETATM   34  C   UNL     1      -8.787   5.582  65.592  1.00  0.00    -0.154 C  
HETATM   35  C   UNL     1      -9.824   4.805  65.940  1.00  0.00    -0.225 C  
ENDBRANCH  27  34
ENDBRANCH  12  26
TORSDOF 5
ENDMDL
MODEL       73
REMARK 921   NORMALIZED FREE ENERGY PREDICTED BY IDOCK:   -6.37 KCAL/MOL
REMARK 922        TOTAL FREE ENERGY PREDICTED BY IDOCK:   -8.70 KCAL/MOL
REMARK 923 INTER-LIGAND FREE ENERGY PREDICTED BY IDOCK:   -7.74 KCAL/MOL
REMARK 924 INTRA-LIGAND FREE ENERGY PREDICTED BY IDOCK:   -0.96 KCAL/MOL
REMARK 927      BINDING AFFINITY PREDICTED BY RF-SCORE:    0.00 PKD
ROOT
HETATM    1  N   UNL     1      -8.542   9.938  65.075  1.00  0.00    -0.150 NA 
HETATM    2  C   UNL     1      -8.980   8.816  65.769  1.00  0.00    -0.206 A  
HETATM    3  H1  UNL     1      -8.914  10.824  65.419  1.00  0.00     0.000 HD 
HETATM    4  H2  UNL     1      -8.736   9.836  64.078  1.00  0.00     0.000 HD 
HETATM    5  N   UNL     1      -8.487   7.642  65.313  1.00  0.00    -0.116 NA 
HETATM    6  C   UNL     1      -8.773   6.513  65.982  1.00  0.00    -0.148 A  
HETATM    7  N   UNL     1      -9.489   6.393  67.106  1.00  0.00    -0.126 NA 
HETATM    8  C   UNL     1      -9.985   7.575  67.506  1.00  0.00    -0.174 A  
HETATM    9  C   UNL     1      -9.813   8.815  66.901  1.00  0.00    -0.295 A  
HETATM   10  C   UNL     1     -10.580   9.726  67.713  1.00  0.00    -0.266 A  
HETATM   11  N   UNL     1     -11.107   9.073  68.774  1.00  0.00     0.082 NA 
HETATM   12  N   UNL     1     -10.734   7.789  68.626  1.00  0.00    -0.110 NA 
ENDROOT
BRANCH  10  13
HETATM   13  C   UNL     1     -10.836  11.180  67.589  1.00  0.00    -0.295 A  
HETATM   14  C   UNL     1     -11.373  11.783  66.444  1.00  0.00    -0.361 A  
HETATM   15  C   UNL     1     -11.557  13.177  66.386  1.00  0.00    -0.394 A  
HETATM   16  C   UNL     1     -10.553  12.020  68.686  1.00  0.00    -0.253 A  
HETATM   17  C   UNL     1     -11.252  13.995  67.482  1.00  0.00    -0.309 A  
HETATM   18  C   UNL     1     -10.755  13.408  68.639  1.00  0.00    -0.275 A  
BRANCH  17  19
HETATM   19  O   UNL     1     -11.382  15.350  67.278  1.00  0.00    -0.309 OA 
BRANCH  19  20
HETATM   20  C   UNL     1     -10.278  16.165  67.160  1.00  0.00    -0.281 A  
HETATM   21  C   UNL     1     -10.064  17.082  68.196  1.00  0.00    -0.308 A  
HETATM   22  C   UNL     1      -7.919  17.671  67.254  1.00  0.00    -0.222 A  
HETATM   23  C   UNL     1      -9.307  16.004  66.170  1.00  0.00    -0.377 A  
HETATM   24  C   UNL     1      -8.889  17.836  68.241  1.00  0.00    -0.277 A  
HETATM   25  C   UNL     1      -8.130  16.762  66.218  1.00  0.00    -0.365 A  
ENDBRANCH  19  20
ENDBRANCH  17  19
ENDBRANCH  10  13
BRANCH  12  26
HETATM   26  C   UNL     1     -11.071   6.798  69.647  1.00  0.00    -0.292 C  
HETATM   27  C   UNL     1      -9.779   3.849  71.471  1.00  0.00    -0.177 C  
HETATM   28  C   UNL     1     -11.908   7.404  70.790  1.00  0.00    -0.288 C  
HETATM   29  C   UNL     1     -10.796   5.851  72.410  1.00  0.00    -0.244 C  
HETATM   30  C   UNL     1     -12.130   6.394  71.917  1.00  0.00    -0.362 C  
HETATM   31  O   UNL     1     -10.095   3.220  72.484  1.00  0.00    -0.149 OA 
HETATM   32  N   UNL     1     -10.100   5.189  71.307  1.00  0.00    -0.202 N  
HETATM   33  C   UNL     1      -9.806   6.077  70.165  1.00  0.00    -0.173 C  
BRANCH  27  34
HETATM   34  C   UNL     1      -9.036   3.146  70.391  1.00  0.00    -0.170 C  
HETATM   35  C   UNL     1      -9.064   1.806  70.335  1.00  0.00    -0.150 C  
ENDBRANCH  27  34
ENDBRANCH  12  26
TORSDOF 5
ENDMDL
MODEL       74
REMARK 921   NORMALIZED FREE ENERGY PREDICTED BY IDOCK:   -6.32 KCAL/MOL
REMARK 922        TOTAL FREE ENERGY PREDICTED BY IDOCK:   -8.65 KCAL/MOL
REMARK 923 INTER-LIGAND FREE ENERGY PREDICTED BY IDOCK:   -8.10 KCAL/MOL
REMARK 924 INTRA-LIGAND FREE ENERGY PREDICTED BY IDOCK:   -0.55 KCAL/MOL
REMARK 927      BINDING AFFINITY PREDICTED BY RF-SCORE:    0.00 PKD
ROOT
HETATM    1  N   UNL     1      -9.942  13.566  64.207  1.00  0.00    -0.752 NA 
HETATM    2  C   UNL     1      -9.924  12.237  64.614  1.00  0.00    -0.186 A  
HETATM    3  H1  UNL     1      -9.970  14.244  64.969  1.00  0.00     0.000 HD 
HETATM    4  H2  UNL     1     -10.714  13.728  63.560  1.00  0.00     0.000 HD 
HETATM    5  N   UNL     1      -9.886  11.338  63.605  1.00  0.00    -0.305 NA 
HETATM    6  C   UNL     1      -9.765  10.033  63.900  1.00  0.00    -0.039 A  
HETATM    7  N   UNL     1      -9.642   9.482  65.112  1.00  0.00    -0.259 NA 
HETATM    8  C   UNL     1      -9.716  10.404  66.085  1.00  0.00    -0.209 A  
HETATM    9  C   UNL     1      -9.881  11.777  65.941  1.00  0.00    -0.265 A  
HETATM   10  C   UNL     1      -9.929  12.281  67.291  1.00  0.00    -0.204 A  
HETATM   11  N   UNL     1      -9.726  11.275  68.172  1.00  0.00    -0.179 NA 
HETATM   12  N   UNL     1      -9.601  10.164  67.424  1.00  0.00    -0.152 NA 
ENDROOT
BRANCH  10  13
HETATM   13  C   UNL     1     -10.120  13.650  67.825  1.00  0.00    -0.242 A  
HETATM   14  C   UNL     1     -11.272  14.418  67.608  1.00  0.00    -0.328 A  
HETATM   15  C   UNL     1     -11.370  15.726  68.119  1.00  0.00    -0.337 A  
HETATM   16  C   UNL     1      -9.107  14.222  68.621  1.00  0.00    -0.160 A  
HETATM   17  C   UNL     1     -10.343  16.280  68.894  1.00  0.00    -0.263 A  
HETATM   18  C   UNL     1      -9.210  15.517  69.151  1.00  0.00    -0.246 A  
BRANCH  17  19
HETATM   19  O   UNL     1     -10.506  17.597  69.258  1.00  0.00    -0.293 OA 
BRANCH  19  20
HETATM   20  C   UNL     1      -9.998  18.621  68.489  1.00  0.00    -0.388 A  
HETATM   21  C   UNL     1      -8.686  19.020  68.766  1.00  0.00    -0.351 A  
HETATM   22  C   UNL     1      -8.693  20.455  66.822  1.00  0.00    -0.296 A  
HETATM   23  C   UNL     1     -10.657  19.144  67.375  1.00  0.00    -0.577 A  
HETATM   24  C   UNL     1      -8.036  19.937  67.937  1.00  0.00    -0.323 A  
HETATM   25  C   UNL     1     -10.003  20.064  66.546  1.00  0.00    -0.603 A  
ENDBRANCH  19  20
ENDBRANCH  17  19
ENDBRANCH  10  13
BRANCH  12  26
HETATM   26  C   UNL     1      -9.295   8.879  68.051  1.00  0.00    -0.142 C  
HETATM   27  C   UNL     1      -8.057   5.458  67.375  1.00  0.00    -0.101 C  
HETATM   28  C   UNL     1      -8.686   9.051  69.457  1.00  0.00    -0.144 C  
HETATM   29  C   UNL     1      -7.284   7.009  69.084  1.00  0.00    -0.090 C  
HETATM   30  C   UNL     1      -8.239   7.710  70.040  1.00  0.00    -0.125 C  
HETATM   31  O   UNL     1      -7.636   4.514  68.049  1.00  0.00    -0.075 OA 
HETATM   32  N   UNL     1      -7.956   6.772  67.807  1.00  0.00    -0.112 N  
HETATM   33  C   UNL     1      -8.411   8.005  67.133  1.00  0.00    -0.124 C  
BRANCH  27  34
HETATM   34  C   UNL     1      -8.698   5.174  66.063  1.00  0.00    -0.130 C  
HETATM   35  C   UNL     1      -7.930   4.880  65.003  1.00  0.00    -0.099 C  
ENDBRANCH  27  34
ENDBRANCH  12  26
TORSDOF 5
ENDMDL
MODEL       75
REMARK 921   NORMALIZED FREE ENERGY PREDICTED BY IDOCK:   -6.29 KCAL/MOL
REMARK 922        TOTAL FREE ENERGY PREDICTED BY IDOCK:   -8.60 KCAL/MOL
REMARK 923 INTER-LIGAND FREE ENERGY PREDICTED BY IDOCK:   -8.28 KCAL/MOL
REMARK 924 INTRA-LIGAND FREE ENERGY PREDICTED BY IDOCK:   -0.32 KCAL/MOL
REMARK 927      BINDING AFFINITY PREDICTED BY RF-SCORE:    0.00 PKD
ROOT
HETATM    1  N   UNL     1      -6.280   9.717  70.303  1.00  0.00    -0.064 NA 
HETATM    2  C   UNL     1      -6.447  10.946  69.675  1.00  0.00    -0.114 A  
HETATM    3  H1  UNL     1      -7.111   9.125  70.306  1.00  0.00     0.000 HD 
HETATM    4  H2  UNL     1      -5.935   9.850  71.254  1.00  0.00     0.000 HD 
HETATM    5  N   UNL     1      -5.347  11.732  69.670  1.00  0.00    -0.063 NA 
HETATM    6  C   UNL     1      -5.381  12.896  68.999  1.00  0.00    -0.068 A  
HETATM    7  N   UNL     1      -6.395  13.390  68.280  1.00  0.00    -0.090 NA 
HETATM    8  C   UNL     1      -7.476  12.596  68.337  1.00  0.00    -0.127 A  
HETATM    9  C   UNL     1      -7.608  11.391  69.018  1.00  0.00    -0.084 A  
HETATM   10  C   UNL     1      -8.969  10.982  68.776  1.00  0.00    -0.149 A  
HETATM   11  N   UNL     1      -9.575  11.856  67.940  1.00  0.00    -0.187 NA 
HETATM   12  N   UNL     1      -8.659  12.810  67.692  1.00  0.00    -0.169 NA 
ENDROOT
BRANCH  10  13
HETATM   13  C   UNL     1      -9.744   9.810  69.245  1.00  0.00    -0.204 A  
HETATM   14  C   UNL     1     -10.577   9.827  70.372  1.00  0.00    -0.365 A  
HETATM   15  C   UNL     1     -11.258   8.664  70.778  1.00  0.00    -0.298 A  
HETATM   16  C   UNL     1      -9.674   8.606  68.515  1.00  0.00    -0.174 A  
HETATM   17  C   UNL     1     -11.160   7.473  70.047  1.00  0.00    -0.204 A  
HETATM   18  C   UNL     1     -10.368   7.450  68.905  1.00  0.00    -0.214 A  
BRANCH  17  19
HETATM   19  O   UNL     1     -11.791   6.377  70.591  1.00  0.00    -0.367 OA 
BRANCH  19  20
HETATM   20  C   UNL     1     -11.159   5.571  71.512  1.00  0.00    -0.094 A  
HETATM   21  C   UNL     1     -10.124   4.762  71.029  1.00  0.00    -0.269 A  
HETATM   22  C   UNL     1      -9.553   4.116  73.286  1.00  0.00    -0.138 A  
HETATM   23  C   UNL     1     -11.389   5.649  72.886  1.00  0.00    -0.325 A  
HETATM   24  C   UNL     1      -9.326   4.033  71.913  1.00  0.00    -0.192 A  
HETATM   25  C   UNL     1     -10.586   4.917  73.770  1.00  0.00    -0.331 A  
ENDBRANCH  19  20
ENDBRANCH  17  19
ENDBRANCH  10  13
BRANCH  12  26
HETATM   26  C   UNL     1      -8.953  13.892  66.755  1.00  0.00    -0.188 C  
HETATM   27  C   UNL     1     -11.598  15.323  64.598  1.00  0.00    -0.333 C  
HETATM   28  C   UNL     1      -8.276  15.214  67.164  1.00  0.00    -0.251 C  
HETATM   29  C   UNL     1     -10.225  16.485  66.237  1.00  0.00    -0.332 C  
HETATM   30  C   UNL     1      -8.707  16.368  66.258  1.00  0.00    -0.369 C  
HETATM   31  O   UNL     1     -11.784  16.389  64.006  1.00  0.00    -1.044 OA 
HETATM   32  N   UNL     1     -10.805  15.241  65.733  1.00  0.00    -0.346 N  
HETATM   33  C   UNL     1     -10.477  14.054  66.547  1.00  0.00    -0.281 C  
BRANCH  27  34
HETATM   34  C   UNL     1     -12.240  14.088  64.072  1.00  0.00    -0.395 C  
HETATM   35  C   UNL     1     -11.472  13.076  63.644  1.00  0.00    -0.449 C  
ENDBRANCH  27  34
ENDBRANCH  12  26
TORSDOF 5
ENDMDL
MODEL       76
REMARK 921   NORMALIZED FREE ENERGY PREDICTED BY IDOCK:   -6.28 KCAL/MOL
REMARK 922        TOTAL FREE ENERGY PREDICTED BY IDOCK:   -8.58 KCAL/MOL
REMARK 923 INTER-LIGAND FREE ENERGY PREDICTED BY IDOCK:   -7.67 KCAL/MOL
REMARK 924 INTRA-LIGAND FREE ENERGY PREDICTED BY IDOCK:   -0.91 KCAL/MOL
REMARK 927      BINDING AFFINITY PREDICTED BY RF-SCORE:    0.00 PKD
ROOT
HETATM    1  N   UNL     1      -6.414  13.405  69.996  1.00  0.00    -0.355 NA 
HETATM    2  C   UNL     1      -6.516  12.030  69.817  1.00  0.00    -0.066 A  
HETATM    3  H1  UNL     1      -7.145  13.949  69.539  1.00  0.00     0.000 HD 
HETATM    4  H2  UNL     1      -5.492  13.732  69.705  1.00  0.00     0.000 HD 
HETATM    5  N   UNL     1      -5.548  11.307  70.423  1.00  0.00    -0.119 NA 
HETATM    6  C   UNL     1      -5.619   9.966  70.390  1.00  0.00    -0.052 A  
HETATM    7  N   UNL     1      -6.579   9.217  69.837  1.00  0.00    -0.045 NA 
HETATM    8  C   UNL     1      -7.502   9.971  69.219  1.00  0.00    -0.103 A  
HETATM    9  C   UNL     1      -7.543  11.358  69.131  1.00  0.00    -0.038 A  
HETATM   10  C   UNL     1      -8.712  11.639  68.336  1.00  0.00    -0.158 A  
HETATM   11  N   UNL     1      -9.361  10.489  68.041  1.00  0.00    -0.143 NA 
HETATM   12  N   UNL     1      -8.617   9.508  68.583  1.00  0.00    -0.118 NA 
ENDROOT
BRANCH  10  13
HETATM   13  C   UNL     1      -9.292  12.913  67.852  1.00  0.00    -0.208 A  
HETATM   14  C   UNL     1     -10.613  13.311  68.097  1.00  0.00    -0.259 A  
HETATM   15  C   UNL     1     -11.107  14.522  67.576  1.00  0.00    -0.316 A  
HETATM   16  C   UNL     1      -8.478  13.803  67.122  1.00  0.00    -0.189 A  
HETATM   17  C   UNL     1     -10.284  15.383  66.839  1.00  0.00    -0.273 A  
HETATM   18  C   UNL     1      -8.960  15.021  66.619  1.00  0.00    -0.313 A  
BRANCH  17  19
HETATM   19  O   UNL     1     -10.899  16.490  66.300  1.00  0.00    -0.189 OA 
BRANCH  19  20
HETATM   20  C   UNL     1     -10.655  17.754  66.791  1.00  0.00    -0.233 A  
HETATM   21  C   UNL     1     -10.355  17.848  68.154  1.00  0.00    -0.395 A  
HETATM   22  C   UNL     1      -9.816  20.189  67.892  1.00  0.00    -0.525 A  
HETATM   23  C   UNL     1     -10.534  18.883  65.979  1.00  0.00    -0.507 A  
HETATM   24  C   UNL     1      -9.941  19.064  68.705  1.00  0.00    -0.482 A  
HETATM   25  C   UNL     1     -10.118  20.100  66.534  1.00  0.00    -0.577 A  
ENDBRANCH  19  20
ENDBRANCH  17  19
ENDBRANCH  10  13
BRANCH  12  26
HETATM   26  C   UNL     1      -9.065   8.118  68.519  1.00  0.00    -0.136 C  
HETATM   27  C   UNL     1      -9.491   5.036  70.523  1.00  0.00    -0.173 C  
HETATM   28  C   UNL     1     -10.291   7.945  67.602  1.00  0.00    -0.307 C  
HETATM   29  C   UNL     1     -11.137   6.123  69.098  1.00  0.00    -0.378 C  
HETATM   30  C   UNL     1     -10.836   6.517  67.659  1.00  0.00    -0.419 C  
HETATM   31  O   UNL     1     -10.094   3.968  70.396  1.00  0.00    -0.127 OA 
HETATM   32  N   UNL     1      -9.912   6.198  69.893  1.00  0.00    -0.167 N  
HETATM   33  C   UNL     1      -9.306   7.544  69.934  1.00  0.00    -0.150 C  
BRANCH  27  34
HETATM   34  C   UNL     1      -8.271   5.075  71.374  1.00  0.00    -0.113 C  
HETATM   35  C   UNL     1      -7.225   4.295  71.066  1.00  0.00    -0.037 C  
ENDBRANCH  27  34
ENDBRANCH  12  26
TORSDOF 5
ENDMDL
MODEL       77
REMARK 921   NORMALIZED FREE ENERGY PREDICTED BY IDOCK:   -6.27 KCAL/MOL
REMARK 922        TOTAL FREE ENERGY PREDICTED BY IDOCK:   -8.57 KCAL/MOL
REMARK 923 INTER-LIGAND FREE ENERGY PREDICTED BY IDOCK:   -7.80 KCAL/MOL
REMARK 924 INTRA-LIGAND FREE ENERGY PREDICTED BY IDOCK:   -0.77 KCAL/MOL
REMARK 927      BINDING AFFINITY PREDICTED BY RF-SCORE:    0.00 PKD
ROOT
HETATM    1  N   UNL     1      -8.801   9.123  64.474  1.00  0.00    -0.344 NA 
HETATM    2  C   UNL     1      -8.769   8.069  65.380  1.00  0.00    -0.068 A  
HETATM    3  H1  UNL     1      -9.273   9.961  64.813  1.00  0.00     0.000 HD 
HETATM    4  H2  UNL     1      -9.209   8.818  63.590  1.00  0.00     0.000 HD 
HETATM    5  N   UNL     1      -8.142   6.958  64.932  1.00  0.00    -0.126 NA 
HETATM    6  C   UNL     1      -7.973   5.923  65.771  1.00  0.00    -0.111 A  
HETATM    7  N   UNL     1      -8.333   5.852  67.057  1.00  0.00    -0.105 NA 
HETATM    8  C   UNL     1      -8.979   6.961  67.453  1.00  0.00    -0.116 A  
HETATM    9  C   UNL     1      -9.265   8.091  66.695  1.00  0.00    -0.225 A  
HETATM   10  C   UNL     1      -9.997   8.953  67.588  1.00  0.00    -0.196 A  
HETATM   11  N   UNL     1     -10.068   8.396  68.819  1.00  0.00    -0.192 NA 
HETATM   12  N   UNL     1      -9.450   7.206  68.710  1.00  0.00    -0.142 NA 
ENDROOT
BRANCH  10  13
HETATM   13  C   UNL     1     -10.614  10.286  67.388  1.00  0.00    -0.324 A  
HETATM   14  C   UNL     1     -10.666  10.942  66.151  1.00  0.00    -0.225 A  
HETATM   15  C   UNL     1     -11.239  12.223  66.042  1.00  0.00    -0.375 A  
HETATM   16  C   UNL     1     -11.211  10.936  68.487  1.00  0.00    -0.335 A  
HETATM   17  C   UNL     1     -11.811  12.858  67.152  1.00  0.00    -0.362 A  
HETATM   18  C   UNL     1     -11.802  12.204  68.378  1.00  0.00    -0.360 A  
BRANCH  17  19
HETATM   19  O   UNL     1     -12.255  14.145  66.948  1.00  0.00    -0.439 OA 
BRANCH  19  20
HETATM   20  C   UNL     1     -11.429  15.228  67.159  1.00  0.00    -0.200 A  
HETATM   21  C   UNL     1     -10.753  15.728  66.040  1.00  0.00    -0.311 A  
HETATM   22  C   UNL     1      -9.970  17.612  67.333  1.00  0.00    -0.321 A  
HETATM   23  C   UNL     1     -11.372  15.926  68.367  1.00  0.00    -0.361 A  
HETATM   24  C   UNL     1     -10.022  16.914  66.128  1.00  0.00    -0.332 A  
HETATM   25  C   UNL     1     -10.638  17.115  68.451  1.00  0.00    -0.371 A  
ENDBRANCH  19  20
ENDBRANCH  17  19
ENDBRANCH  10  13
BRANCH  12  26
HETATM   26  C   UNL     1      -9.273   6.353  69.884  1.00  0.00    -0.152 C  
HETATM   27  C   UNL     1      -8.541   6.400  73.511  1.00  0.00    -0.123 C  
HETATM   28  C   UNL     1     -10.237   5.151  69.878  1.00  0.00    -0.361 C  
HETATM   29  C   UNL     1     -10.368   5.261  72.377  1.00  0.00    -0.209 C  
HETATM   30  C   UNL     1     -10.142   4.351  71.178  1.00  0.00    -0.196 C  
HETATM   31  O   UNL     1      -8.633   5.603  74.448  1.00  0.00    -0.114 OA 
HETATM   32  N   UNL     1      -9.354   6.314  72.391  1.00  0.00    -0.142 N  
HETATM   33  C   UNL     1      -9.368   7.174  71.190  1.00  0.00    -0.157 C  
BRANCH  27  34
HETATM   34  C   UNL     1      -7.521   7.481  73.585  1.00  0.00    -0.127 C  
HETATM   35  C   UNL     1      -7.650   8.448  74.505  1.00  0.00    -0.275 C  
ENDBRANCH  27  34
ENDBRANCH  12  26
TORSDOF 5
ENDMDL
MODEL       78
REMARK 921   NORMALIZED FREE ENERGY PREDICTED BY IDOCK:   -6.25 KCAL/MOL
REMARK 922        TOTAL FREE ENERGY PREDICTED BY IDOCK:   -8.55 KCAL/MOL
REMARK 923 INTER-LIGAND FREE ENERGY PREDICTED BY IDOCK:   -7.42 KCAL/MOL
REMARK 924 INTRA-LIGAND FREE ENERGY PREDICTED BY IDOCK:   -1.13 KCAL/MOL
REMARK 927      BINDING AFFINITY PREDICTED BY RF-SCORE:    0.00 PKD
ROOT
HETATM    1  N   UNL     1      -9.193  12.362  63.716  1.00  0.00    -0.238 NA 
HETATM    2  C   UNL     1      -9.152  10.983  63.889  1.00  0.00    -0.117 A  
HETATM    3  H1  UNL     1      -9.475  12.887  64.544  1.00  0.00     0.000 HD 
HETATM    4  H2  UNL     1      -9.790  12.601  62.924  1.00  0.00     0.000 HD 
HETATM    5  N   UNL     1      -8.777  10.287  62.793  1.00  0.00    -0.181 NA 
HETATM    6  C   UNL     1      -8.611   8.957  62.891  1.00  0.00    -0.145 A  
HETATM    7  N   UNL     1      -8.745   8.200  63.985  1.00  0.00     0.237 NA 
HETATM    8  C   UNL     1      -9.148   8.924  65.042  1.00  0.00    -0.050 A  
HETATM    9  C   UNL     1      -9.400  10.291  65.087  1.00  0.00    -0.279 A  
HETATM   10  C   UNL     1      -9.834  10.537  66.440  1.00  0.00    -0.210 A  
HETATM   11  N   UNL     1      -9.765   9.397  67.165  1.00  0.00    -0.164 NA 
HETATM   12  N   UNL     1      -9.350   8.449  66.305  1.00  0.00    -0.210 NA 
ENDROOT
BRANCH  10  13
HETATM   13  C   UNL     1     -10.282  11.774  67.122  1.00  0.00    -0.236 A  
HETATM   14  C   UNL     1      -9.421  12.642  67.806  1.00  0.00    -0.198 A  
HETATM   15  C   UNL     1      -9.924  13.783  68.460  1.00  0.00    -0.217 A  
HETATM   16  C   UNL     1     -11.646  12.128  67.069  1.00  0.00    -0.406 A  
HETATM   17  C   UNL     1     -11.286  14.107  68.410  1.00  0.00    -0.265 A  
HETATM   18  C   UNL     1     -12.147  13.276  67.702  1.00  0.00    -0.295 A  
BRANCH  17  19
HETATM   19  O   UNL     1     -11.676  15.190  69.164  1.00  0.00    -0.295 OA 
BRANCH  19  20
HETATM   20  C   UNL     1     -11.978  15.058  70.502  1.00  0.00    -0.308 A  
HETATM   21  C   UNL     1     -11.721  16.169  71.313  1.00  0.00    -0.480 A  
HETATM   22  C   UNL     1     -12.825  15.089  73.171  1.00  0.00    -0.615 A  
HETATM   23  C   UNL     1     -12.660  13.961  71.030  1.00  0.00    -0.444 A  
HETATM   24  C   UNL     1     -12.139  16.183  72.646  1.00  0.00    -0.652 A  
HETATM   25  C   UNL     1     -13.078  13.978  72.367  1.00  0.00    -0.536 A  
ENDBRANCH  19  20
ENDBRANCH  17  19
ENDBRANCH  10  13
BRANCH  12  26
HETATM   26  C   UNL     1      -9.092   7.088  66.772  1.00  0.00    -0.143 C  
HETATM   27  C   UNL     1      -7.337   5.116  69.366  1.00  0.00    -0.057 C  
HETATM   28  C   UNL     1     -10.323   6.175  66.609  1.00  0.00    -0.249 C  
HETATM   29  C   UNL     1      -9.668   4.943  68.689  1.00  0.00    -0.160 C  
HETATM   30  C   UNL     1     -10.086   4.799  67.233  1.00  0.00    -0.192 C  
HETATM   31  O   UNL     1      -7.377   3.955  69.779  1.00  0.00    -0.048 OA 
HETATM   32  N   UNL     1      -8.434   5.722  68.770  1.00  0.00    -0.107 N  
HETATM   33  C   UNL     1      -8.550   7.087  68.220  1.00  0.00    -0.129 C  
BRANCH  27  34
HETATM   34  C   UNL     1      -6.071   5.885  69.505  1.00  0.00    -0.029 C  
HETATM   35  C   UNL     1      -5.242   5.614  70.523  1.00  0.00    -0.008 C  
ENDBRANCH  27  34
ENDBRANCH  12  26
TORSDOF 5
ENDMDL
MODEL       79
REMARK 921   NORMALIZED FREE ENERGY PREDICTED BY IDOCK:   -6.20 KCAL/MOL
REMARK 922        TOTAL FREE ENERGY PREDICTED BY IDOCK:   -8.49 KCAL/MOL
REMARK 923 INTER-LIGAND FREE ENERGY PREDICTED BY IDOCK:   -7.47 KCAL/MOL
REMARK 924 INTRA-LIGAND FREE ENERGY PREDICTED BY IDOCK:   -1.02 KCAL/MOL
REMARK 927      BINDING AFFINITY PREDICTED BY RF-SCORE:    0.00 PKD
ROOT
HETATM    1  N   UNL     1     -11.210   7.427  71.494  1.00  0.00    -0.240 NA 
HETATM    2  C   UNL     1     -11.728   8.658  71.109  1.00  0.00    -0.288 A  
HETATM    3  H1  UNL     1     -10.688   6.938  70.766  1.00  0.00     0.000 HD 
HETATM    4  H2  UNL     1     -11.952   6.830  71.860  1.00  0.00     0.000 HD 
HETATM    5  N   UNL     1     -12.419   9.307  72.073  1.00  0.00    -0.378 NA 
HETATM    6  C   UNL     1     -12.872  10.547  71.826  1.00  0.00    -0.454 A  
HETATM    7  N   UNL     1     -12.697  11.270  70.715  1.00  0.00    -0.300 NA 
HETATM    8  C   UNL     1     -12.035  10.579  69.773  1.00  0.00    -0.238 A  
HETATM    9  C   UNL     1     -11.543   9.282  69.863  1.00  0.00     0.076 A  
HETATM   10  C   UNL     1     -10.958   9.025  68.571  1.00  0.00     0.086 A  
HETATM   11  N   UNL     1     -11.032  10.132  67.797  1.00  0.00    -0.294 NA 
HETATM   12  N   UNL     1     -11.680  11.046  68.541  1.00  0.00    -0.459 NA 
ENDROOT
BRANCH  10  13
HETATM   13  C   UNL     1     -10.299   7.822  68.009  1.00  0.00    -0.263 A  
HETATM   14  C   UNL     1     -10.936   6.909  67.160  1.00  0.00    -0.427 A  
HETATM   15  C   UNL     1     -10.257   5.768  66.691  1.00  0.00    -0.261 A  
HETATM   16  C   UNL     1      -8.944   7.578  68.316  1.00  0.00    -0.130 A  
HETATM   17  C   UNL     1      -8.915   5.537  67.022  1.00  0.00    -0.113 A  
HETATM   18  C   UNL     1      -8.257   6.453  67.833  1.00  0.00    -0.115 A  
BRANCH  17  19
HETATM   19  O   UNL     1      -8.384   4.344  66.587  1.00  0.00    -0.105 OA 
BRANCH  19  20
HETATM   20  C   UNL     1      -7.341   4.312  65.687  1.00  0.00    -0.077 A  
HETATM   21  C   UNL     1      -6.342   3.360  65.921  1.00  0.00    -0.032 A  
HETATM   22  C   UNL     1      -5.322   3.884  63.795  1.00  0.00    -0.009 A  
HETATM   23  C   UNL     1      -7.326   5.050  64.502  1.00  0.00    -0.063 A  
HETATM   24  C   UNL     1      -5.332   3.149  64.979  1.00  0.00    -0.009 A  
HETATM   25  C   UNL     1      -6.312   4.836  63.560  1.00  0.00    -0.026 A  
ENDBRANCH  19  20
ENDBRANCH  17  19
ENDBRANCH  10  13
BRANCH  12  26
HETATM   26  C   UNL     1     -11.876  12.405  68.038  1.00  0.00    -0.316 C  
HETATM   27  C   UNL     1     -10.981  15.949  68.618  1.00  0.00    -0.320 C  
HETATM   28  C   UNL     1     -11.938  12.451  66.499  1.00  0.00    -0.325 C  
HETATM   29  C   UNL     1     -10.831  14.697  66.536  1.00  0.00    -0.315 C  
HETATM   30  C   UNL     1     -11.998  13.890  65.984  1.00  0.00    -0.436 C  
HETATM   31  O   UNL     1     -11.046  16.999  67.975  1.00  0.00    -0.324 OA 
HETATM   32  N   UNL     1     -10.892  14.711  67.996  1.00  0.00    -0.252 N  
HETATM   33  C   UNL     1     -10.815  13.371  68.612  1.00  0.00    -0.263 C  
BRANCH  27  34
HETATM   34  C   UNL     1     -11.006  16.012  70.104  1.00  0.00    -0.369 C  
HETATM   35  C   UNL     1     -12.065  15.528  70.768  1.00  0.00    -0.435 C  
ENDBRANCH  27  34
ENDBRANCH  12  26
TORSDOF 5
ENDMDL
MODEL       80
REMARK 921   NORMALIZED FREE ENERGY PREDICTED BY IDOCK:   -6.19 KCAL/MOL
REMARK 922        TOTAL FREE ENERGY PREDICTED BY IDOCK:   -8.47 KCAL/MOL
REMARK 923 INTER-LIGAND FREE ENERGY PREDICTED BY IDOCK:   -8.00 KCAL/MOL
REMARK 924 INTRA-LIGAND FREE ENERGY PREDICTED BY IDOCK:   -0.47 KCAL/MOL
REMARK 927      BINDING AFFINITY PREDICTED BY RF-SCORE:    0.00 PKD
ROOT
HETATM    1  N   UNL     1     -12.010  12.077  69.667  1.00  0.00    -0.308 NA 
HETATM    2  C   UNL     1     -11.544  13.378  69.513  1.00  0.00    -0.290 A  
HETATM    3  H1  UNL     1     -11.523  11.381  69.102  1.00  0.00     0.000 HD 
HETATM    4  H2  UNL     1     -13.014  12.038  69.491  1.00  0.00     0.000 HD 
HETATM    5  N   UNL     1     -12.187  14.302  70.261  1.00  0.00    -0.322 NA 
HETATM    6  C   UNL     1     -11.743  15.569  70.254  1.00  0.00    -0.346 A  
HETATM    7  N   UNL     1     -10.683  16.056  69.600  1.00  0.00    -0.290 NA 
HETATM    8  C   UNL     1     -10.092  15.115  68.845  1.00  0.00    -0.238 A  
HETATM    9  C   UNL     1     -10.457  13.780  68.715  1.00  0.00    -0.224 A  
HETATM   10  C   UNL     1      -9.519  13.236  67.766  1.00  0.00    -0.208 A  
HETATM   11  N   UNL     1      -8.610  14.176  67.419  1.00  0.00    -0.198 NA 
HETATM   12  N   UNL     1      -8.976  15.289  68.080  1.00  0.00    -0.171 NA 
ENDROOT
BRANCH  10  13
HETATM   13  C   UNL     1      -9.386  11.883  67.175  1.00  0.00    -0.180 A  
HETATM   14  C   UNL     1     -10.351  11.296  66.347  1.00  0.00    -0.291 A  
HETATM   15  C   UNL     1     -10.172   9.991  65.849  1.00  0.00    -0.275 A  
HETATM   16  C   UNL     1      -8.217  11.137  67.430  1.00  0.00    -0.132 A  
HETATM   17  C   UNL     1      -9.010   9.262  66.129  1.00  0.00    -0.165 A  
HETATM   18  C   UNL     1      -8.026   9.845  66.918  1.00  0.00    -0.109 A  
BRANCH  17  19
HETATM   19  O   UNL     1      -8.987   7.964  65.669  1.00  0.00    -0.133 OA 
BRANCH  19  20
HETATM   20  C   UNL     1      -9.298   6.907  66.496  1.00  0.00    -0.158 A  
HETATM   21  C   UNL     1      -8.234   6.085  66.887  1.00  0.00    -0.105 A  
HETATM   22  C   UNL     1      -9.683   4.913  68.424  1.00  0.00    -0.212 A  
HETATM   23  C   UNL     1     -10.556   6.727  67.073  1.00  0.00    -0.405 A  
HETATM   24  C   UNL     1      -8.427   5.088  67.845  1.00  0.00    -0.104 A  
HETATM   25  C   UNL     1     -10.746   5.726  68.034  1.00  0.00    -0.290 A  
ENDBRANCH  19  20
ENDBRANCH  17  19
ENDBRANCH  10  13
BRANCH  12  26
HETATM   26  C   UNL     1      -8.162  16.501  67.996  1.00  0.00    -0.172 C  
HETATM   27  C   UNL     1      -8.249  20.083  67.073  1.00  0.00    -0.321 C  
HETATM   28  C   UNL     1      -7.155  16.606  69.158  1.00  0.00    -0.226 C  
HETATM   29  C   UNL     1      -7.407  19.097  69.133  1.00  0.00    -0.286 C  
HETATM   30  C   UNL     1      -6.414  17.943  69.137  1.00  0.00    -0.243 C  
HETATM   31  O   UNL     1      -7.528  21.067  67.255  1.00  0.00    -0.357 OA 
HETATM   32  N   UNL     1      -8.259  19.007  67.948  1.00  0.00    -0.273 N  
HETATM   33  C   UNL     1      -9.048  17.761  67.872  1.00  0.00    -0.259 C  
BRANCH  27  34
HETATM   34  C   UNL     1      -9.130  20.051  65.875  1.00  0.00    -0.188 C  
HETATM   35  C   UNL     1     -10.462  20.050  66.035  1.00  0.00    -0.523 C  
ENDBRANCH  27  34
ENDBRANCH  12  26
TORSDOF 5
ENDMDL
MODEL       81
REMARK 921   NORMALIZED FREE ENERGY PREDICTED BY IDOCK:   -6.17 KCAL/MOL
REMARK 922        TOTAL FREE ENERGY PREDICTED BY IDOCK:   -8.45 KCAL/MOL
REMARK 923 INTER-LIGAND FREE ENERGY PREDICTED BY IDOCK:   -7.80 KCAL/MOL
REMARK 924 INTRA-LIGAND FREE ENERGY PREDICTED BY IDOCK:   -0.65 KCAL/MOL
REMARK 927      BINDING AFFINITY PREDICTED BY RF-SCORE:    0.00 PKD
ROOT
HETATM    1  N   UNL     1      -8.270   7.231  64.538  1.00  0.00    -0.317 NA 
HETATM    2  C   UNL     1      -8.857   6.438  65.518  1.00  0.00    -0.012 A  
HETATM    3  H1  UNL     1      -8.494   8.224  64.602  1.00  0.00     0.000 HD 
HETATM    4  H2  UNL     1      -8.499   6.874  63.610  1.00  0.00     0.000 HD 
HETATM    5  N   UNL     1      -8.559   5.122  65.433  1.00  0.00    -0.141 NA 
HETATM    6  C   UNL     1      -8.999   4.293  66.394  1.00  0.00    -0.120 A  
HETATM    7  N   UNL     1      -9.700   4.614  67.487  1.00  0.00    -0.172 NA 
HETATM    8  C   UNL     1     -10.001   5.922  67.516  1.00  0.00    -0.143 A  
HETATM    9  C   UNL     1      -9.656   6.892  66.582  1.00  0.00    -0.218 A  
HETATM   10  C   UNL     1     -10.257   8.105  67.077  1.00  0.00    -0.308 A  
HETATM   11  N   UNL     1     -10.853   7.876  68.270  1.00  0.00    -0.006 NA 
HETATM   12  N   UNL     1     -10.684   6.563  68.508  1.00  0.00    -0.246 NA 
ENDROOT
BRANCH  10  13
HETATM   13  C   UNL     1     -10.291   9.482  66.531  1.00  0.00    -0.263 A  
HETATM   14  C   UNL     1      -9.676   9.861  65.331  1.00  0.00    -0.375 A  
HETATM   15  C   UNL     1      -9.721  11.197  64.891  1.00  0.00    -0.297 A  
HETATM   16  C   UNL     1     -10.999  10.479  67.233  1.00  0.00    -0.325 A  
HETATM   17  C   UNL     1     -10.416  12.175  65.614  1.00  0.00    -0.255 A  
HETATM   18  C   UNL     1     -11.064  11.808  66.787  1.00  0.00    -0.360 A  
BRANCH  17  19
HETATM   19  O   UNL     1     -10.312  13.463  65.140  1.00  0.00    -0.318 OA 
BRANCH  19  20
HETATM   20  C   UNL     1     -10.078  14.522  65.990  1.00  0.00    -0.318 A  
HETATM   21  C   UNL     1      -8.788  14.623  66.523  1.00  0.00    -0.190 A  
HETATM   22  C   UNL     1      -9.331  16.777  67.472  1.00  0.00    -0.231 A  
HETATM   23  C   UNL     1     -10.994  15.553  66.202  1.00  0.00    -0.247 A  
HETATM   24  C   UNL     1      -8.416  15.746  67.266  1.00  0.00    -0.212 A  
HETATM   25  C   UNL     1     -10.618  16.678  66.947  1.00  0.00    -0.229 A  
ENDBRANCH  19  20
ENDBRANCH  17  19
ENDBRANCH  10  13
BRANCH  12  26
HETATM   26  C   UNL     1     -11.146   5.974  69.764  1.00  0.00    -0.406 C  
HETATM   27  C   UNL     1     -10.160   3.728  72.535  1.00  0.00    -0.167 C  
HETATM   28  C   UNL     1     -12.007   6.954  70.583  1.00  0.00    -0.400 C  
HETATM   29  C   UNL     1     -11.098   5.967  72.698  1.00  0.00    -0.275 C  
HETATM   30  C   UNL     1     -12.361   6.378  71.955  1.00  0.00    -0.279 C  
HETATM   31  O   UNL     1     -10.576   3.477  73.669  1.00  0.00    -0.159 OA 
HETATM   32  N   UNL     1     -10.382   4.953  71.925  1.00  0.00    -0.203 N  
HETATM   33  C   UNL     1      -9.963   5.408  70.584  1.00  0.00    -0.214 C  
BRANCH  27  34
HETATM   34  C   UNL     1      -9.402   2.680  71.800  1.00  0.00    -0.185 C  
HETATM   35  C   UNL     1      -9.953   1.470  71.619  1.00  0.00    -0.211 C  
ENDBRANCH  27  34
ENDBRANCH  12  26
TORSDOF 5
ENDMDL
MODEL       82
REMARK 921   NORMALIZED FREE ENERGY PREDICTED BY IDOCK:   -6.15 KCAL/MOL
REMARK 922        TOTAL FREE ENERGY PREDICTED BY IDOCK:   -8.42 KCAL/MOL
REMARK 923 INTER-LIGAND FREE ENERGY PREDICTED BY IDOCK:   -7.25 KCAL/MOL
REMARK 924 INTRA-LIGAND FREE ENERGY PREDICTED BY IDOCK:   -1.17 KCAL/MOL
REMARK 927      BINDING AFFINITY PREDICTED BY RF-SCORE:    0.00 PKD
ROOT
HETATM    1  N   UNL     1      -6.027  13.333  70.939  1.00  0.00    -0.466 NA 
HETATM    2  C   UNL     1      -6.011  12.006  70.526  1.00  0.00    -0.049 A  
HETATM    3  H1  UNL     1      -6.473  13.977  70.286  1.00  0.00     0.000 HD 
HETATM    4  H2  UNL     1      -5.081  13.647  71.158  1.00  0.00     0.000 HD 
HETATM    5  N   UNL     1      -5.421  11.152  71.391  1.00  0.00    -0.337 NA 
HETATM    6  C   UNL     1      -5.446   9.835  71.125  1.00  0.00    -0.071 A  
HETATM    7  N   UNL     1      -6.028   9.227  70.086  1.00  0.00    -0.034 NA 
HETATM    8  C   UNL     1      -6.574  10.112  69.236  1.00  0.00    -0.053 A  
HETATM    9  C   UNL     1      -6.593  11.497  69.352  1.00  0.00    -0.117 A  
HETATM   10  C   UNL     1      -7.266  11.953  68.162  1.00  0.00    -0.085 A  
HETATM   11  N   UNL     1      -7.686  10.894  67.430  1.00  0.00    -0.105 NA 
HETATM   12  N   UNL     1      -7.260   9.807  68.097  1.00  0.00    -0.079 NA 
ENDROOT
BRANCH  10  13
HETATM   13  C   UNL     1      -7.579  13.314  67.666  1.00  0.00    -0.171 A  
HETATM   14  C   UNL     1      -8.836  13.695  67.178  1.00  0.00    -0.237 A  
HETATM   15  C   UNL     1      -9.051  14.999  66.691  1.00  0.00    -0.309 A  
HETATM   16  C   UNL     1      -6.575  14.303  67.701  1.00  0.00    -0.172 A  
HETATM   17  C   UNL     1      -8.034  15.961  66.720  1.00  0.00    -0.252 A  
HETATM   18  C   UNL     1      -6.792  15.609  67.236  1.00  0.00    -0.197 A  
BRANCH  17  19
HETATM   19  O   UNL     1      -8.329  17.169  66.131  1.00  0.00    -0.407 OA 
BRANCH  19  20
HETATM   20  C   UNL     1      -9.146  18.088  66.753  1.00  0.00    -0.273 A  
HETATM   21  C   UNL     1      -8.825  18.416  68.075  1.00  0.00    -0.302 A  
HETATM   22  C   UNL     1     -10.491  20.165  68.063  1.00  0.00    -0.389 A  
HETATM   23  C   UNL     1     -10.143  18.803  66.088  1.00  0.00    -0.421 A  
HETATM   24  C   UNL     1      -9.499  19.449  68.731  1.00  0.00    -0.464 A  
HETATM   25  C   UNL     1     -10.816  19.839  66.748  1.00  0.00    -0.436 A  
ENDBRANCH  19  20
ENDBRANCH  17  19
ENDBRANCH  10  13
BRANCH  12  26
HETATM   26  C   UNL     1      -7.604   8.467  67.624  1.00  0.00    -0.098 C  
HETATM   27  C   UNL     1     -10.412   6.095  67.193  1.00  0.00    -0.264 C  
HETATM   28  C   UNL     1      -6.796   8.067  66.374  1.00  0.00    -0.062 C  
HETATM   29  C   UNL     1      -8.764   6.767  65.533  1.00  0.00    -0.032 C  
HETATM   30  C   UNL     1      -7.268   6.727  65.807  1.00  0.00    -0.070 C  
HETATM   31  O   UNL     1     -10.606   5.049  66.569  1.00  0.00    -0.291 OA 
HETATM   32  N   UNL     1      -9.484   7.038  66.776  1.00  0.00    -0.157 N  
HETATM   33  C   UNL     1      -9.128   8.326  67.405  1.00  0.00    -0.140 C  
BRANCH  27  34
HETATM   34  C   UNL     1     -11.195   6.348  68.432  1.00  0.00    -0.297 C  
HETATM   35  C   UNL     1     -10.785   5.817  69.593  1.00  0.00    -0.416 C  
ENDBRANCH  27  34
ENDBRANCH  12  26
TORSDOF 5
ENDMDL
MODEL       83
REMARK 921   NORMALIZED FREE ENERGY PREDICTED BY IDOCK:   -6.14 KCAL/MOL
REMARK 922        TOTAL FREE ENERGY PREDICTED BY IDOCK:   -8.41 KCAL/MOL
REMARK 923 INTER-LIGAND FREE ENERGY PREDICTED BY IDOCK:   -7.69 KCAL/MOL
REMARK 924 INTRA-LIGAND FREE ENERGY PREDICTED BY IDOCK:   -0.72 KCAL/MOL
REMARK 927      BINDING AFFINITY PREDICTED BY RF-SCORE:    0.00 PKD
ROOT
HETATM    1  N   UNL     1      -6.453   9.278  68.662  1.00  0.00    -0.052 NA 
HETATM    2  C   UNL     1      -7.198  10.446  68.539  1.00  0.00    -0.084 A  
HETATM    3  H1  UNL     1      -6.880   8.455  68.238  1.00  0.00     0.000 HD 
HETATM    4  H2  UNL     1      -6.235   9.100  69.642  1.00  0.00     0.000 HD 
HETATM    5  N   UNL     1      -6.632  11.538  69.100  1.00  0.00    -0.092 NA 
HETATM    6  C   UNL     1      -7.229  12.732  68.945  1.00  0.00    -0.039 A  
HETATM    7  N   UNL     1      -8.342  13.001  68.255  1.00  0.00    -0.163 NA 
HETATM    8  C   UNL     1      -8.888  11.887  67.741  1.00  0.00    -0.166 A  
HETATM    9  C   UNL     1      -8.415  10.584  67.850  1.00  0.00    -0.119 A  
HETATM   10  C   UNL     1      -9.390   9.783  67.152  1.00  0.00    -0.142 A  
HETATM   11  N   UNL     1     -10.337  10.578  66.601  1.00  0.00    -0.236 NA 
HETATM   12  N   UNL     1     -10.011  11.830  66.968  1.00  0.00    -0.203 NA 
ENDROOT
BRANCH  10  13
HETATM   13  C   UNL     1      -9.489   8.321  66.932  1.00  0.00    -0.240 A  
HETATM   14  C   UNL     1      -8.475   7.550  66.351  1.00  0.00    -0.131 A  
HETATM   15  C   UNL     1      -8.653   6.169  66.141  1.00  0.00    -0.141 A  
HETATM   16  C   UNL     1     -10.655   7.644  67.346  1.00  0.00    -0.356 A  
HETATM   17  C   UNL     1      -9.826   5.520  66.546  1.00  0.00    -0.172 A  
HETATM   18  C   UNL     1     -10.827   6.264  67.158  1.00  0.00    -0.460 A  
BRANCH  17  19
HETATM   19  O   UNL     1      -9.928   4.190  66.204  1.00  0.00    -0.213 OA 
BRANCH  19  20
HETATM   20  C   UNL     1      -9.793   3.775  64.898  1.00  0.00    -0.183 A  
HETATM   21  C   UNL     1      -8.581   3.162  64.559  1.00  0.00    -0.094 A  
HETATM   22  C   UNL     1      -9.463   2.581  62.386  1.00  0.00    -0.089 A  
HETATM   23  C   UNL     1     -10.840   3.789  63.975  1.00  0.00    -0.193 A  
HETATM   24  C   UNL     1      -8.415   2.571  63.304  1.00  0.00    -0.085 A  
HETATM   25  C   UNL     1     -10.670   3.195  62.718  1.00  0.00    -0.187 A  
ENDBRANCH  19  20
ENDBRANCH  17  19
ENDBRANCH  10  13
BRANCH  12  26
HETATM   26  C   UNL     1     -10.788  12.969  66.482  1.00  0.00    -0.279 C  
HETATM   27  C   UNL     1     -10.516  16.457  65.274  1.00  0.00    -0.261 C  
HETATM   28  C   UNL     1     -11.969  12.530  65.596  1.00  0.00    -0.492 C  
HETATM   29  C   UNL     1     -11.693  14.605  64.221  1.00  0.00    -0.275 C  
HETATM   30  C   UNL     1     -12.684  13.733  64.979  1.00  0.00    -0.379 C  
HETATM   31  O   UNL     1     -11.248  17.252  64.680  1.00  0.00    -1.014 OA 
HETATM   32  N   UNL     1     -10.660  15.084  65.139  1.00  0.00    -0.392 N  
HETATM   33  C   UNL     1      -9.881  14.005  65.778  1.00  0.00    -0.256 C  
BRANCH  27  34
HETATM   34  C   UNL     1      -9.452  16.988  66.167  1.00  0.00    -0.253 C  
HETATM   35  C   UNL     1      -9.664  17.037  67.491  1.00  0.00    -0.251 C  
ENDBRANCH  27  34
ENDBRANCH  12  26
TORSDOF 5
ENDMDL
MODEL       84
REMARK 921   NORMALIZED FREE ENERGY PREDICTED BY IDOCK:   -6.07 KCAL/MOL
REMARK 922        TOTAL FREE ENERGY PREDICTED BY IDOCK:   -8.32 KCAL/MOL
REMARK 923 INTER-LIGAND FREE ENERGY PREDICTED BY IDOCK:   -7.55 KCAL/MOL
REMARK 924 INTRA-LIGAND FREE ENERGY PREDICTED BY IDOCK:   -0.77 KCAL/MOL
REMARK 927      BINDING AFFINITY PREDICTED BY RF-SCORE:    0.00 PKD
ROOT
HETATM    1  N   UNL     1     -12.629   8.357  71.844  1.00  0.00    -0.332 NA 
HETATM    2  C   UNL     1     -11.615   7.444  71.579  1.00  0.00    -0.275 A  
HETATM    3  H1  UNL     1     -12.655   9.160  71.215  1.00  0.00     0.000 HD 
HETATM    4  H2  UNL     1     -12.581   8.667  72.815  1.00  0.00     0.000 HD 
HETATM    5  N   UNL     1     -11.581   6.380  72.411  1.00  0.00    -0.285 NA 
HETATM    6  C   UNL     1     -10.699   5.395  72.172  1.00  0.00    -0.227 A  
HETATM    7  N   UNL     1      -9.830   5.309  71.159  1.00  0.00    -0.180 NA 
HETATM    8  C   UNL     1      -9.874   6.399  70.375  1.00  0.00    -0.169 A  
HETATM    9  C   UNL     1     -10.697   7.511  70.516  1.00  0.00    -0.244 A  
HETATM   10  C   UNL     1     -10.311   8.388  69.440  1.00  0.00    -0.215 A  
HETATM   11  N   UNL     1      -9.373   7.793  68.668  1.00  0.00    -0.148 NA 
HETATM   12  N   UNL     1      -9.132   6.605  69.250  1.00  0.00    -0.138 NA 
ENDROOT
BRANCH  10  13
HETATM   13  C   UNL     1     -10.778   9.741  69.054  1.00  0.00    -0.238 A  
HETATM   14  C   UNL     1     -11.343  10.656  69.952  1.00  0.00    -0.386 A  
HETATM   15  C   UNL     1     -11.796  11.912  69.507  1.00  0.00    -0.395 A  
HETATM   16  C   UNL     1     -10.633  10.159  67.715  1.00  0.00    -0.304 A  
HETATM   17  C   UNL     1     -11.657  12.300  68.168  1.00  0.00    -0.339 A  
HETATM   18  C   UNL     1     -11.064  11.419  67.272  1.00  0.00    -0.363 A  
BRANCH  17  19
HETATM   19  O   UNL     1     -12.222  13.509  67.829  1.00  0.00    -0.311 OA 
BRANCH  19  20
HETATM   20  C   UNL     1     -11.836  14.185  66.692  1.00  0.00    -0.424 A  
HETATM   21  C   UNL     1     -12.558  13.909  65.525  1.00  0.00    -0.560 A  
HETATM   22  C   UNL     1     -11.410  15.694  64.372  1.00  0.00    -0.272 A  
HETATM   23  C   UNL     1     -10.899  15.219  66.694  1.00  0.00    -0.310 A  
HETATM   24  C   UNL     1     -12.342  14.658  64.366  1.00  0.00    -0.420 A  
HETATM   25  C   UNL     1     -10.686  15.969  65.531  1.00  0.00    -0.374 A  
ENDBRANCH  19  20
ENDBRANCH  17  19
ENDBRANCH  10  13
BRANCH  12  26
HETATM   26  C   UNL     1      -8.209   5.652  68.633  1.00  0.00    -0.103 C  
HETATM   27  C   UNL     1      -7.298   4.045  65.427  1.00  0.00    -0.076 C  
HETATM   28  C   UNL     1      -6.794   5.743  69.234  1.00  0.00    -0.062 C  
HETATM   29  C   UNL     1      -5.821   5.175  66.997  1.00  0.00    -0.022 C  
HETATM   30  C   UNL     1      -5.808   4.847  68.483  1.00  0.00    -0.021 C  
HETATM   31  O   UNL     1      -6.338   3.403  64.995  1.00  0.00    -0.026 OA 
HETATM   32  N   UNL     1      -7.164   4.961  66.460  1.00  0.00    -0.075 N  
HETATM   33  C   UNL     1      -8.203   5.797  67.094  1.00  0.00    -0.102 C  
BRANCH  27  34
HETATM   34  C   UNL     1      -8.640   3.824  64.824  1.00  0.00    -0.109 C  
HETATM   35  C   UNL     1      -9.132   4.725  63.960  1.00  0.00    -0.045 C  
ENDBRANCH  27  34
ENDBRANCH  12  26
TORSDOF 5
ENDMDL
MODEL       85
REMARK 921   NORMALIZED FREE ENERGY PREDICTED BY IDOCK:   -6.04 KCAL/MOL
REMARK 922        TOTAL FREE ENERGY PREDICTED BY IDOCK:   -8.28 KCAL/MOL
REMARK 923 INTER-LIGAND FREE ENERGY PREDICTED BY IDOCK:   -7.52 KCAL/MOL
REMARK 924 INTRA-LIGAND FREE ENERGY PREDICTED BY IDOCK:   -0.76 KCAL/MOL
REMARK 927      BINDING AFFINITY PREDICTED BY RF-SCORE:    0.00 PKD
ROOT
HETATM    1  N   UNL     1      -6.715  12.899  69.879  1.00  0.00    -0.351 NA 
HETATM    2  C   UNL     1      -6.968  11.561  69.599  1.00  0.00     0.018 A  
HETATM    3  H1  UNL     1      -7.395  13.551  69.490  1.00  0.00     0.000 HD 
HETATM    4  H2  UNL     1      -5.771  13.150  69.581  1.00  0.00     0.000 HD 
HETATM    5  N   UNL     1      -6.067  10.695  70.114  1.00  0.00    -0.095 NA 
HETATM    6  C   UNL     1      -6.282   9.376  69.982  1.00  0.00    -0.045 A  
HETATM    7  N   UNL     1      -7.331   8.777  69.408  1.00  0.00    -0.070 NA 
HETATM    8  C   UNL     1      -8.185   9.670  68.882  1.00  0.00    -0.110 A  
HETATM    9  C   UNL     1      -8.079  11.057  68.901  1.00  0.00    -0.135 A  
HETATM   10  C   UNL     1      -9.233  11.520  68.172  1.00  0.00    -0.181 A  
HETATM   11  N   UNL     1     -10.010  10.471  67.814  1.00  0.00    -0.168 NA 
HETATM   12  N   UNL     1      -9.360   9.378  68.253  1.00  0.00    -0.134 NA 
ENDROOT
BRANCH  10  13
HETATM   13  C   UNL     1      -9.687  12.883  67.807  1.00  0.00    -0.214 A  
HETATM   14  C   UNL     1     -10.931  13.413  68.172  1.00  0.00    -0.277 A  
HETATM   15  C   UNL     1     -11.309  14.706  67.760  1.00  0.00    -0.338 A  
HETATM   16  C   UNL     1      -8.821  13.718  67.071  1.00  0.00    -0.230 A  
HETATM   17  C   UNL     1     -10.439  15.512  67.014  1.00  0.00    -0.304 A  
HETATM   18  C   UNL     1      -9.186  15.014  66.677  1.00  0.00    -0.302 A  
BRANCH  17  19
HETATM   19  O   UNL     1     -10.951  16.716  66.588  1.00  0.00    -0.092 OA 
BRANCH  19  20
HETATM   20  C   UNL     1     -10.431  17.912  67.032  1.00  0.00    -0.340 A  
HETATM   21  C   UNL     1     -10.271  18.920  66.075  1.00  0.00    -0.437 A  
HETATM   22  C   UNL     1      -9.699  20.501  67.809  1.00  0.00    -0.433 A  
HETATM   23  C   UNL     1     -10.223  18.204  68.382  1.00  0.00    -0.401 A  
HETATM   24  C   UNL     1      -9.902  20.210  66.461  1.00  0.00    -0.574 A  
HETATM   25  C   UNL     1      -9.853  19.499  68.766  1.00  0.00    -0.532 A  
ENDBRANCH  19  20
ENDBRANCH  17  19
ENDBRANCH  10  13
BRANCH  12  26
HETATM   26  C   UNL     1      -9.956   8.052  68.100  1.00  0.00    -0.185 C  
HETATM   27  C   UNL     1      -9.511   4.760  66.468  1.00  0.00    -0.156 C  
HETATM   28  C   UNL     1     -10.606   7.554  69.406  1.00  0.00    -0.225 C  
HETATM   29  C   UNL     1      -9.959   5.207  68.818  1.00  0.00    -0.166 C  
HETATM   30  C   UNL     1     -11.096   6.112  69.273  1.00  0.00    -0.463 C  
HETATM   31  O   UNL     1      -9.990   3.631  66.597  1.00  0.00    -0.067 OA 
HETATM   32  N   UNL     1      -9.460   5.662  67.521  1.00  0.00    -0.112 N  
HETATM   33  C   UNL     1      -8.933   7.041  67.533  1.00  0.00    -0.117 C  
BRANCH  27  34
HETATM   34  C   UNL     1      -8.977   5.168  65.140  1.00  0.00    -0.129 C  
HETATM   35  C   UNL     1      -9.094   4.333  64.097  1.00  0.00    -0.150 C  
ENDBRANCH  27  34
ENDBRANCH  12  26
TORSDOF 5
ENDMDL
MODEL       86
REMARK 921   NORMALIZED FREE ENERGY PREDICTED BY IDOCK:   -6.02 KCAL/MOL
REMARK 922        TOTAL FREE ENERGY PREDICTED BY IDOCK:   -8.25 KCAL/MOL
REMARK 923 INTER-LIGAND FREE ENERGY PREDICTED BY IDOCK:   -7.84 KCAL/MOL
REMARK 924 INTRA-LIGAND FREE ENERGY PREDICTED BY IDOCK:   -0.41 KCAL/MOL
REMARK 927      BINDING AFFINITY PREDICTED BY RF-SCORE:    0.00 PKD
ROOT
HETATM    1  N   UNL     1     -12.272   5.957  72.854  1.00  0.00    -0.406 NA 
HETATM    2  C   UNL     1     -11.115   5.508  72.227  1.00  0.00    -0.237 A  
HETATM    3  H1  UNL     1     -12.540   6.913  72.619  1.00  0.00     0.000 HD 
HETATM    4  H2  UNL     1     -12.192   5.849  73.865  1.00  0.00     0.000 HD 
HETATM    5  N   UNL     1     -10.761   4.241  72.538  1.00  0.00    -0.110 NA 
HETATM    6  C   UNL     1      -9.713   3.685  71.905  1.00  0.00    -0.166 A  
HETATM    7  N   UNL     1      -8.959   4.233  70.947  1.00  0.00    -0.104 NA 
HETATM    8  C   UNL     1      -9.324   5.500  70.691  1.00  0.00    -0.158 A  
HETATM    9  C   UNL     1     -10.352   6.222  71.288  1.00  0.00    -0.255 A  
HETATM   10  C   UNL     1     -10.283   7.525  70.676  1.00  0.00    -0.202 A  
HETATM   11  N   UNL     1      -9.323   7.542  69.723  1.00  0.00    -0.151 NA 
HETATM   12  N   UNL     1      -8.767   6.318  69.753  1.00  0.00    -0.136 NA 
ENDROOT
BRANCH  10  13
HETATM   13  C   UNL     1     -11.074   8.759  70.893  1.00  0.00    -0.320 A  
HETATM   14  C   UNL     1     -12.088   8.876  71.853  1.00  0.00    -0.443 A  
HETATM   15  C   UNL     1     -12.822  10.070  71.981  1.00  0.00    -0.484 A  
HETATM   16  C   UNL     1     -10.790   9.901  70.116  1.00  0.00    -0.356 A  
HETATM   17  C   UNL     1     -12.533  11.187  71.186  1.00  0.00    -0.393 A  
HETATM   18  C   UNL     1     -11.505  11.100  70.255  1.00  0.00    -0.329 A  
BRANCH  17  19
HETATM   19  O   UNL     1     -13.377  12.265  71.331  1.00  0.00    -0.189 OA 
BRANCH  19  20
HETATM   20  C   UNL     1     -12.889  13.523  71.608  1.00  0.00    -0.329 A  
HETATM   21  C   UNL     1     -12.141  14.140  70.599  1.00  0.00    -0.421 A  
HETATM   22  C   UNL     1     -12.095  16.196  71.866  1.00  0.00    -0.548 A  
HETATM   23  C   UNL     1     -13.238  14.248  72.748  1.00  0.00    -0.614 A  
HETATM   24  C   UNL     1     -11.741  15.472  70.729  1.00  0.00    -0.397 A  
HETATM   25  C   UNL     1     -12.836  15.584  72.875  1.00  0.00    -0.564 A  
ENDBRANCH  19  20
ENDBRANCH  17  19
ENDBRANCH  10  13
BRANCH  12  26
HETATM   26  C   UNL     1      -7.727   5.954  68.791  1.00  0.00    -0.091 C  
HETATM   27  C   UNL     1      -6.808   6.094  65.209  1.00  0.00    -0.048 C  
HETATM   28  C   UNL     1      -6.312   6.112  69.379  1.00  0.00    -0.041 C  
HETATM   29  C   UNL     1      -5.461   6.773  67.118  1.00  0.00    -0.013 C  
HETATM   30  C   UNL     1      -5.235   5.867  68.320  1.00  0.00    -0.004 C  
HETATM   31  O   UNL     1      -5.780   5.933  64.547  1.00  0.00    -0.023 OA 
HETATM   32  N   UNL     1      -6.773   6.497  66.536  1.00  0.00    -0.055 N  
HETATM   33  C   UNL     1      -7.900   6.726  67.463  1.00  0.00    -0.111 C  
BRANCH  27  34
HETATM   34  C   UNL     1      -8.125   5.840  64.564  1.00  0.00    -0.132 C  
HETATM   35  C   UNL     1      -8.281   6.101  63.258  1.00  0.00    -0.011 C  
ENDBRANCH  27  34
ENDBRANCH  12  26
TORSDOF 5
ENDMDL
MODEL       87
REMARK 921   NORMALIZED FREE ENERGY PREDICTED BY IDOCK:   -5.99 KCAL/MOL
REMARK 922        TOTAL FREE ENERGY PREDICTED BY IDOCK:   -8.21 KCAL/MOL
REMARK 923 INTER-LIGAND FREE ENERGY PREDICTED BY IDOCK:   -7.20 KCAL/MOL
REMARK 924 INTRA-LIGAND FREE ENERGY PREDICTED BY IDOCK:   -1.00 KCAL/MOL
REMARK 927      BINDING AFFINITY PREDICTED BY RF-SCORE:    0.00 PKD
ROOT
HETATM    1  N   UNL     1     -10.964   4.048  72.845  1.00  0.00    -0.105 NA 
HETATM    2  C   UNL     1     -10.133   3.704  71.785  1.00  0.00    -0.090 A  
HETATM    3  H1  UNL     1     -11.359   4.987  72.790  1.00  0.00     0.000 HD 
HETATM    4  H2  UNL     1     -10.477   3.919  73.733  1.00  0.00     0.000 HD 
HETATM    5  N   UNL     1      -9.610   2.460  71.857  1.00  0.00    -0.121 NA 
HETATM    6  C   UNL     1      -8.876   2.002  70.830  1.00  0.00    -0.063 A  
HETATM    7  N   UNL     1      -8.605   2.630  69.681  1.00  0.00    -0.062 NA 
HETATM    8  C   UNL     1      -9.115   3.872  69.663  1.00  0.00    -0.122 A  
HETATM    9  C   UNL     1      -9.856   4.498  70.659  1.00  0.00    -0.292 A  
HETATM   10  C   UNL     1     -10.115   5.819  70.144  1.00  0.00    -0.212 A  
HETATM   11  N   UNL     1      -9.623   5.934  68.888  1.00  0.00    -0.129 NA 
HETATM   12  N   UNL     1      -9.032   4.755  68.626  1.00  0.00    -0.103 NA 
ENDROOT
BRANCH  10  13
HETATM   13  C   UNL     1     -10.823   6.984  70.727  1.00  0.00    -0.272 A  
HETATM   14  C   UNL     1     -12.216   7.070  70.846  1.00  0.00    -0.388 A  
HETATM   15  C   UNL     1     -12.821   8.223  71.381  1.00  0.00    -0.263 A  
HETATM   16  C   UNL     1     -10.067   8.067  71.219  1.00  0.00    -0.222 A  
HETATM   17  C   UNL     1     -12.050   9.296  71.848  1.00  0.00    -0.370 A  
HETATM   18  C   UNL     1     -10.665   9.210  71.772  1.00  0.00    -0.405 A  
BRANCH  17  19
HETATM   19  O   UNL     1     -12.751  10.407  72.259  1.00  0.00    -0.259 OA 
BRANCH  19  20
HETATM   20  C   UNL     1     -12.787  11.553  71.496  1.00  0.00    -0.380 A  
HETATM   21  C   UNL     1     -13.307  12.698  72.110  1.00  0.00    -0.570 A  
HETATM   22  C   UNL     1     -12.642  14.038  70.214  1.00  0.00    -0.354 A  
HETATM   23  C   UNL     1     -12.194  11.655  70.237  1.00  0.00    -0.401 A  
HETATM   24  C   UNL     1     -13.239  13.937  71.469  1.00  0.00    -0.425 A  
HETATM   25  C   UNL     1     -12.127  12.899  69.597  1.00  0.00    -0.290 A  
ENDBRANCH  19  20
ENDBRANCH  17  19
ENDBRANCH  10  13
BRANCH  12  26
HETATM   26  C   UNL     1      -8.448   4.496  67.311  1.00  0.00    -0.104 C  
HETATM   27  C   UNL     1      -9.259   4.119  63.720  1.00  0.00    -0.141 C  
HETATM   28  C   UNL     1      -7.068   5.161  67.147  1.00  0.00    -0.069 C  
HETATM   29  C   UNL     1      -7.550   5.535  64.718  1.00  0.00    -0.079 C  
HETATM   30  C   UNL     1      -6.536   5.004  65.722  1.00  0.00    -0.040 C  
HETATM   31  O   UNL     1      -8.627   4.113  62.661  1.00  0.00    -0.083 OA 
HETATM   32  N   UNL     1      -8.801   4.790  64.845  1.00  0.00    -0.151 N  
HETATM   33  C   UNL     1      -9.425   4.890  66.179  1.00  0.00    -0.161 C  
BRANCH  27  34
HETATM   34  C   UNL     1     -10.548   3.380  63.792  1.00  0.00    -0.265 C  
HETATM   35  C   UNL     1     -10.788   2.386  62.925  1.00  0.00    -0.214 C  
ENDBRANCH  27  34
ENDBRANCH  12  26
TORSDOF 5
ENDMDL
MODEL       88
REMARK 921   NORMALIZED FREE ENERGY PREDICTED BY IDOCK:   -5.97 KCAL/MOL
REMARK 922        TOTAL FREE ENERGY PREDICTED BY IDOCK:   -8.19 KCAL/MOL
REMARK 923 INTER-LIGAND FREE ENERGY PREDICTED BY IDOCK:   -7.54 KCAL/MOL
REMARK 924 INTRA-LIGAND FREE ENERGY PREDICTED BY IDOCK:   -0.65 KCAL/MOL
REMARK 927      BINDING AFFINITY PREDICTED BY RF-SCORE:    0.00 PKD
ROOT
HETATM    1  N   UNL     1     -11.945  12.189  70.500  1.00  0.00    -0.500 NA 
HETATM    2  C   UNL     1     -11.869  13.556  70.257  1.00  0.00    -0.257 A  
HETATM    3  H1  UNL     1     -11.455  11.608  69.820  1.00  0.00     0.000 HD 
HETATM    4  H2  UNL     1     -12.920  11.897  70.580  1.00  0.00     0.000 HD 
HETATM    5  N   UNL     1     -12.518  14.327  71.159  1.00  0.00    -0.340 NA 
HETATM    6  C   UNL     1     -12.417  15.663  71.064  1.00  0.00    -0.447 A  
HETATM    7  N   UNL     1     -11.706  16.364  70.174  1.00  0.00    -0.033 NA 
HETATM    8  C   UNL     1     -11.105  15.563  69.279  1.00  0.00    -0.285 A  
HETATM    9  C   UNL     1     -11.148  14.174  69.221  1.00  0.00    -0.286 A  
HETATM   10  C   UNL     1     -10.368  13.834  68.058  1.00  0.00    -0.246 A  
HETATM   11  N   UNL     1      -9.835  14.951  67.512  1.00  0.00    -0.217 NA 
HETATM   12  N   UNL     1     -10.291  15.970  68.263  1.00  0.00    -0.253 NA 
ENDROOT
BRANCH  10  13
HETATM   13  C   UNL     1     -10.053  12.529  67.429  1.00  0.00    -0.211 A  
HETATM   14  C   UNL     1     -10.623  12.085  66.230  1.00  0.00    -0.287 A  
HETATM   15  C   UNL     1     -10.301  10.817  65.708  1.00  0.00    -0.295 A  
HETATM   16  C   UNL     1      -9.109  11.683  68.046  1.00  0.00    -0.177 A  
HETATM   17  C   UNL     1      -9.372   9.985  66.347  1.00  0.00    -0.168 A  
HETATM   18  C   UNL     1      -8.769  10.428  67.518  1.00  0.00    -0.125 A  
BRANCH  17  19
HETATM   19  O   UNL     1      -9.209   8.733  65.800  1.00  0.00    -0.214 OA 
BRANCH  19  20
HETATM   20  C   UNL     1      -8.047   8.016  65.989  1.00  0.00    -0.110 A  
HETATM   21  C   UNL     1      -7.203   7.888  64.880  1.00  0.00    -0.066 A  
HETATM   22  C   UNL     1      -5.504   6.877  66.268  1.00  0.00    -0.022 A  
HETATM   23  C   UNL     1      -7.615   7.571  67.239  1.00  0.00    -0.108 A  
HETATM   24  C   UNL     1      -5.936   7.316  65.018  1.00  0.00    -0.037 A  
HETATM   25  C   UNL     1      -6.344   6.999  67.374  1.00  0.00    -0.042 A  
ENDBRANCH  19  20
ENDBRANCH  17  19
ENDBRANCH  10  13
BRANCH  12  26
HETATM   26  C   UNL     1      -9.850  17.339  67.999  1.00  0.00    -0.284 C  
HETATM   27  C   UNL     1      -7.171  19.350  66.428  1.00  0.00    -0.241 C  
HETATM   28  C   UNL     1     -11.031  18.278  67.687  1.00  0.00    -0.134 C  
HETATM   29  C   UNL     1      -9.574  19.563  66.106  1.00  0.00    -0.362 C  
HETATM   30  C   UNL     1     -10.546  19.668  67.273  1.00  0.00    -0.598 C  
HETATM   31  O   UNL     1      -7.027  20.526  66.083  1.00  0.00    -0.247 OA 
HETATM   32  N   UNL     1      -8.422  18.754  66.500  1.00  0.00    -0.294 N  
HETATM   33  C   UNL     1      -8.766  17.374  66.898  1.00  0.00    -0.246 C  
BRANCH  27  34
HETATM   34  C   UNL     1      -5.967  18.552  66.781  1.00  0.00    -0.175 C  
HETATM   35  C   UNL     1      -5.227  18.006  65.805  1.00  0.00    -0.234 C  
ENDBRANCH  27  34
ENDBRANCH  12  26
TORSDOF 5
ENDMDL
MODEL       89
REMARK 921   NORMALIZED FREE ENERGY PREDICTED BY IDOCK:   -5.97 KCAL/MOL
REMARK 922        TOTAL FREE ENERGY PREDICTED BY IDOCK:   -8.18 KCAL/MOL
REMARK 923 INTER-LIGAND FREE ENERGY PREDICTED BY IDOCK:   -7.79 KCAL/MOL
REMARK 924 INTRA-LIGAND FREE ENERGY PREDICTED BY IDOCK:   -0.40 KCAL/MOL
REMARK 927      BINDING AFFINITY PREDICTED BY RF-SCORE:    0.00 PKD
ROOT
HETATM    1  N   UNL     1     -12.408  14.431  69.510  1.00  0.00    -0.509 NA 
HETATM    2  C   UNL     1     -11.858  13.163  69.659  1.00  0.00    -0.324 A  
HETATM    3  H1  UNL     1     -11.893  15.048  68.882  1.00  0.00     0.000 HD 
HETATM    4  H2  UNL     1     -12.530  14.873  70.422  1.00  0.00     0.000 HD 
HETATM    5  N   UNL     1     -12.541  12.344  70.490  1.00  0.00    -0.154 NA 
HETATM    6  C   UNL     1     -12.142  11.068  70.619  1.00  0.00    -0.373 A  
HETATM    7  N   UNL     1     -11.132  10.464  69.984  1.00  0.00    -0.294 NA 
HETATM    8  C   UNL     1     -10.462  11.318  69.194  1.00  0.00    -0.160 A  
HETATM    9  C   UNL     1     -10.725  12.668  68.989  1.00  0.00    -0.135 A  
HETATM   10  C   UNL     1      -9.692  13.108  68.086  1.00  0.00    -0.228 A  
HETATM   11  N   UNL     1      -8.916  12.061  67.722  1.00  0.00    -0.169 NA 
HETATM   12  N   UNL     1      -9.399  11.004  68.398  1.00  0.00    -0.172 NA 
ENDROOT
BRANCH  10  13
HETATM   13  C   UNL     1      -9.389  14.438  67.507  1.00  0.00    -0.198 A  
HETATM   14  C   UNL     1     -10.366  15.316  67.021  1.00  0.00    -0.277 A  
HETATM   15  C   UNL     1     -10.002  16.552  66.452  1.00  0.00    -0.318 A  
HETATM   16  C   UNL     1      -8.049  14.873  67.455  1.00  0.00    -0.218 A  
HETATM   17  C   UNL     1      -8.662  16.956  66.395  1.00  0.00    -0.286 A  
HETATM   18  C   UNL     1      -7.684  16.113  66.908  1.00  0.00    -0.284 A  
BRANCH  17  19
HETATM   19  O   UNL     1      -8.416  18.138  65.733  1.00  0.00    -0.482 OA 
BRANCH  19  20
HETATM   20  C   UNL     1      -7.461  19.024  66.180  1.00  0.00    -0.270 A  
HETATM   21  C   UNL     1      -7.282  19.104  67.566  1.00  0.00    -0.239 A  
HETATM   22  C   UNL     1      -5.352  20.522  67.252  1.00  0.00    -0.196 A  
HETATM   23  C   UNL     1      -6.581  19.697  65.331  1.00  0.00    -0.312 A  
HETATM   24  C   UNL     1      -6.232  19.854  68.101  1.00  0.00    -0.280 A  
HETATM   25  C   UNL     1      -5.530  20.449  65.871  1.00  0.00    -0.207 A  
ENDBRANCH  19  20
ENDBRANCH  17  19
ENDBRANCH  10  13
BRANCH  12  26
HETATM   26  C   UNL     1      -8.838   9.670  68.187  1.00  0.00    -0.119 C  
HETATM   27  C   UNL     1      -9.697   6.075  68.004  1.00  0.00    -0.119 C  
HETATM   28  C   UNL     1      -7.717   9.674  67.130  1.00  0.00    -0.091 C  
HETATM   29  C   UNL     1      -8.415   7.382  66.400  1.00  0.00    -0.129 C  
HETATM   30  C   UNL     1      -7.240   8.255  66.815  1.00  0.00    -0.082 C  
HETATM   31  O   UNL     1      -9.148   5.048  67.599  1.00  0.00    -0.110 OA 
HETATM   32  N   UNL     1      -9.392   7.326  67.487  1.00  0.00    -0.128 N  
HETATM   33  C   UNL     1      -9.946   8.642  67.862  1.00  0.00    -0.188 C  
BRANCH  27  34
HETATM   34  C   UNL     1     -10.715   5.968  69.085  1.00  0.00    -0.399 C  
HETATM   35  C   UNL     1     -10.415   5.302  70.209  1.00  0.00    -0.332 C  
ENDBRANCH  27  34
ENDBRANCH  12  26
TORSDOF 5
ENDMDL
MODEL       90
REMARK 921   NORMALIZED FREE ENERGY PREDICTED BY IDOCK:   -5.96 KCAL/MOL
REMARK 922        TOTAL FREE ENERGY PREDICTED BY IDOCK:   -8.18 KCAL/MOL
REMARK 923 INTER-LIGAND FREE ENERGY PREDICTED BY IDOCK:   -7.24 KCAL/MOL
REMARK 924 INTRA-LIGAND FREE ENERGY PREDICTED BY IDOCK:   -0.94 KCAL/MOL
REMARK 927      BINDING AFFINITY PREDICTED BY RF-SCORE:    0.00 PKD
ROOT
HETATM    1  N   UNL     1      -6.486   9.398  68.859  1.00  0.00    -0.047 NA 
HETATM    2  C   UNL     1      -7.212  10.576  68.733  1.00  0.00    -0.084 A  
HETATM    3  H1  UNL     1      -6.916   8.583  68.422  1.00  0.00     0.000 HD 
HETATM    4  H2  UNL     1      -6.286   9.208  69.842  1.00  0.00     0.000 HD 
HETATM    5  N   UNL     1      -6.643  11.656  69.313  1.00  0.00    -0.102 NA 
HETATM    6  C   UNL     1      -7.221  12.859  69.158  1.00  0.00     0.087 A  
HETATM    7  N   UNL     1      -8.319  13.148  68.451  1.00  0.00    -0.149 NA 
HETATM    8  C   UNL     1      -8.870  12.045  67.919  1.00  0.00    -0.174 A  
HETATM    9  C   UNL     1      -8.416  10.735  68.025  1.00  0.00    -0.124 A  
HETATM   10  C   UNL     1      -9.389   9.953  67.305  1.00  0.00    -0.145 A  
HETATM   11  N   UNL     1     -10.316  10.764  66.744  1.00  0.00    -0.234 NA 
HETATM   12  N   UNL     1      -9.980  12.009  67.127  1.00  0.00    -0.195 NA 
ENDROOT
BRANCH  10  13
HETATM   13  C   UNL     1      -9.504   8.494  67.070  1.00  0.00    -0.223 A  
HETATM   14  C   UNL     1     -10.565   7.710  67.540  1.00  0.00    -0.323 A  
HETATM   15  C   UNL     1     -10.591   6.322  67.308  1.00  0.00    -0.371 A  
HETATM   16  C   UNL     1      -8.510   7.843  66.312  1.00  0.00    -0.139 A  
HETATM   17  C   UNL     1      -9.583   5.693  66.566  1.00  0.00    -0.155 A  
HETATM   18  C   UNL     1      -8.543   6.462  66.060  1.00  0.00    -0.149 A  
BRANCH  17  19
HETATM   19  O   UNL     1      -9.661   4.321  66.485  1.00  0.00    -0.192 OA 
BRANCH  19  20
HETATM   20  C   UNL     1      -8.864   3.511  67.264  1.00  0.00    -0.131 A  
HETATM   21  C   UNL     1      -9.462   2.950  68.399  1.00  0.00    -0.207 A  
HETATM   22  C   UNL     1      -7.501   1.592  68.781  1.00  0.00    -0.042 A  
HETATM   23  C   UNL     1      -7.581   3.109  66.891  1.00  0.00    -0.075 A  
HETATM   24  C   UNL     1      -8.780   1.996  69.158  1.00  0.00    -0.122 A  
HETATM   25  C   UNL     1      -6.901   2.152  67.654  1.00  0.00    -0.039 A  
ENDBRANCH  19  20
ENDBRANCH  17  19
ENDBRANCH  10  13
BRANCH  12  26
HETATM   26  C   UNL     1     -10.734  13.163  66.637  1.00  0.00    -0.279 C  
HETATM   27  C   UNL     1     -10.390  16.635  65.405  1.00  0.00    -0.190 C  
HETATM   28  C   UNL     1     -11.929  12.744  65.759  1.00  0.00    -0.502 C  
HETATM   29  C   UNL     1     -11.613  14.804  64.369  1.00  0.00    -0.295 C  
HETATM   30  C   UNL     1     -12.620  13.959  65.137  1.00  0.00    -0.466 C  
HETATM   31  O   UNL     1     -11.106  17.443  64.809  1.00  0.00    -0.973 OA 
HETATM   32  N   UNL     1     -10.565  15.265  65.279  1.00  0.00    -0.386 N  
HETATM   33  C   UNL     1      -9.807  14.173  65.922  1.00  0.00    -0.289 C  
BRANCH  27  34
HETATM   34  C   UNL     1      -9.309  17.148  66.289  1.00  0.00    -0.260 C  
HETATM   35  C   UNL     1      -9.617  17.597  67.515  1.00  0.00    -0.267 C  
ENDBRANCH  27  34
ENDBRANCH  12  26
TORSDOF 5
ENDMDL
MODEL       91
REMARK 921   NORMALIZED FREE ENERGY PREDICTED BY IDOCK:   -5.94 KCAL/MOL
REMARK 922        TOTAL FREE ENERGY PREDICTED BY IDOCK:   -8.15 KCAL/MOL
REMARK 923 INTER-LIGAND FREE ENERGY PREDICTED BY IDOCK:   -7.91 KCAL/MOL
REMARK 924 INTRA-LIGAND FREE ENERGY PREDICTED BY IDOCK:   -0.25 KCAL/MOL
REMARK 927      BINDING AFFINITY PREDICTED BY RF-SCORE:    0.00 PKD
ROOT
HETATM    1  N   UNL     1     -13.026  10.513  71.267  1.00  0.00    -0.411 NA 
HETATM    2  C   UNL     1     -12.239   9.369  71.203  1.00  0.00    -0.323 A  
HETATM    3  H1  UNL     1     -12.845  11.197  70.532  1.00  0.00     0.000 HD 
HETATM    4  H2  UNL     1     -12.942  10.950  72.186  1.00  0.00     0.000 HD 
HETATM    5  N   UNL     1     -12.479   8.463  72.177  1.00  0.00    -0.353 NA 
HETATM    6  C   UNL     1     -11.838   7.283  72.139  1.00  0.00    -0.286 A  
HETATM    7  N   UNL     1     -10.978   6.854  71.210  1.00  0.00    -0.238 NA 
HETATM    8  C   UNL     1     -10.744   7.794  70.280  1.00  0.00    -0.236 A  
HETATM    9  C   UNL     1     -11.294   9.069  70.206  1.00  0.00    -0.202 A  
HETATM   10  C   UNL     1     -10.680   9.664  69.046  1.00  0.00    -0.211 A  
HETATM   11  N   UNL     1      -9.877   8.766  68.432  1.00  0.00    -0.166 NA 
HETATM   12  N   UNL     1      -9.935   7.656  69.190  1.00  0.00    -0.176 NA 
ENDROOT
BRANCH  10  13
HETATM   13  C   UNL     1     -10.811  11.012  68.444  1.00  0.00    -0.264 A  
HETATM   14  C   UNL     1     -11.207  12.150  69.158  1.00  0.00    -0.303 A  
HETATM   15  C   UNL     1     -11.342  13.393  68.510  1.00  0.00    -0.324 A  
HETATM   16  C   UNL     1     -10.500  11.184  67.079  1.00  0.00    -0.277 A  
HETATM   17  C   UNL     1     -11.045  13.537  67.149  1.00  0.00    -0.293 A  
HETATM   18  C   UNL     1     -10.614  12.426  66.435  1.00  0.00    -0.271 A  
BRANCH  17  19
HETATM   19  O   UNL     1     -11.305  14.774  66.603  1.00  0.00    -0.345 OA 
BRANCH  19  20
HETATM   20  C   UNL     1     -10.382  15.794  66.669  1.00  0.00    -0.291 A  
HETATM   21  C   UNL     1     -10.569  16.743  67.680  1.00  0.00    -0.325 A  
HETATM   22  C   UNL     1      -8.434  17.746  67.158  1.00  0.00    -0.239 A  
HETATM   23  C   UNL     1      -9.216  15.824  65.902  1.00  0.00    -0.337 A  
HETATM   24  C   UNL     1      -9.599  17.720  67.921  1.00  0.00    -0.280 A  
HETATM   25  C   UNL     1      -8.246  16.804  66.147  1.00  0.00    -0.300 A  
ENDBRANCH  19  20
ENDBRANCH  17  19
ENDBRANCH  10  13
BRANCH  12  26
HETATM   26  C   UNL     1      -9.234   6.440  68.778  1.00  0.00    -0.127 C  
HETATM   27  C   UNL     1      -9.000   2.796  69.374  1.00  0.00    -0.110 C  
HETATM   28  C   UNL     1      -8.935   6.428  67.266  1.00  0.00    -0.107 C  
HETATM   29  C   UNL     1      -9.242   3.942  67.241  1.00  0.00    -0.176 C  
HETATM   30  C   UNL     1      -8.334   5.092  66.826  1.00  0.00    -0.107 C  
HETATM   31  O   UNL     1      -8.502   1.829  68.792  1.00  0.00    -0.054 OA 
HETATM   32  N   UNL     1      -9.396   3.939  68.695  1.00  0.00    -0.156 N  
HETATM   33  C   UNL     1      -9.995   5.175  69.236  1.00  0.00    -0.210 C  
BRANCH  27  34
HETATM   34  C   UNL     1      -9.175   2.734  70.850  1.00  0.00    -0.206 C  
HETATM   35  C   UNL     1      -9.605   1.596  71.416  1.00  0.00    -0.202 C  
ENDBRANCH  27  34
ENDBRANCH  12  26
TORSDOF 5
ENDMDL
MODEL       92
REMARK 921   NORMALIZED FREE ENERGY PREDICTED BY IDOCK:   -5.94 KCAL/MOL
REMARK 922        TOTAL FREE ENERGY PREDICTED BY IDOCK:   -8.14 KCAL/MOL
REMARK 923 INTER-LIGAND FREE ENERGY PREDICTED BY IDOCK:   -7.68 KCAL/MOL
REMARK 924 INTRA-LIGAND FREE ENERGY PREDICTED BY IDOCK:   -0.46 KCAL/MOL
REMARK 927      BINDING AFFINITY PREDICTED BY RF-SCORE:    0.00 PKD
ROOT
HETATM    1  N   UNL     1      -7.081  11.020  70.208  1.00  0.00    -0.454 NA 
HETATM    2  C   UNL     1      -7.320   9.708  70.599  1.00  0.00    -0.096 A  
HETATM    3  H1  UNL     1      -7.866  11.476  69.742  1.00  0.00     0.000 HD 
HETATM    4  H2  UNL     1      -6.245  11.069  69.624  1.00  0.00     0.000 HD 
HETATM    5  N   UNL     1      -6.280   9.103  71.216  1.00  0.00    -0.068 NA 
HETATM    6  C   UNL     1      -6.450   7.869  71.719  1.00  0.00    -0.041 A  
HETATM    7  N   UNL     1      -7.569   7.137  71.715  1.00  0.00    -0.086 NA 
HETATM    8  C   UNL     1      -8.567   7.759  71.066  1.00  0.00    -0.127 A  
HETATM    9  C   UNL     1      -8.533   9.010  70.460  1.00  0.00    -0.226 A  
HETATM   10  C   UNL     1      -9.845   9.173  69.887  1.00  0.00    -0.190 A  
HETATM   11  N   UNL     1     -10.626   8.114  70.204  1.00  0.00    -0.233 NA 
HETATM   12  N   UNL     1      -9.837   7.285  70.910  1.00  0.00    -0.184 NA 
ENDROOT
BRANCH  10  13
HETATM   13  C   UNL     1     -10.442  10.266  69.084  1.00  0.00    -0.246 A  
HETATM   14  C   UNL     1     -10.217  10.438  67.713  1.00  0.00    -0.229 A  
HETATM   15  C   UNL     1     -10.791  11.522  67.021  1.00  0.00    -0.320 A  
HETATM   16  C   UNL     1     -11.309  11.183  69.714  1.00  0.00    -0.354 A  
HETATM   17  C   UNL     1     -11.636  12.431  67.671  1.00  0.00    -0.357 A  
HETATM   18  C   UNL     1     -11.900  12.252  69.023  1.00  0.00    -0.358 A  
BRANCH  17  19
HETATM   19  O   UNL     1     -12.062  13.502  66.919  1.00  0.00    -0.390 OA 
BRANCH  19  20
HETATM   20  C   UNL     1     -11.337  14.673  66.867  1.00  0.00    -0.356 A  
HETATM   21  C   UNL     1     -11.468  15.539  67.958  1.00  0.00    -0.313 A  
HETATM   22  C   UNL     1      -9.700  16.934  67.084  1.00  0.00    -0.253 A  
HETATM   23  C   UNL     1     -10.384  14.942  65.883  1.00  0.00    -0.330 A  
HETATM   24  C   UNL     1     -10.654  16.669  68.065  1.00  0.00    -0.338 A  
HETATM   25  C   UNL     1      -9.570  16.076  65.993  1.00  0.00    -0.385 A  
ENDBRANCH  19  20
ENDBRANCH  17  19
ENDBRANCH  10  13
BRANCH  12  26
HETATM   26  C   UNL     1     -10.381   6.056  71.485  1.00  0.00    -0.214 C  
HETATM   27  C   UNL     1      -9.873   2.397  71.705  1.00  0.00    -0.158 C  
HETATM   28  C   UNL     1     -10.942   6.278  72.903  1.00  0.00    -0.283 C  
HETATM   29  C   UNL     1     -10.223   3.963  73.535  1.00  0.00    -0.143 C  
HETATM   30  C   UNL     1     -11.374   4.959  73.546  1.00  0.00    -0.303 C  
HETATM   31  O   UNL     1     -10.295   1.481  72.416  1.00  0.00    -0.135 OA 
HETATM   32  N   UNL     1      -9.810   3.707  72.156  1.00  0.00    -0.162 N  
HETATM   33  C   UNL     1      -9.344   4.911  71.438  1.00  0.00    -0.150 C  
BRANCH  27  34
HETATM   34  C   UNL     1      -9.425   2.085  70.321  1.00  0.00    -0.145 C  
HETATM   35  C   UNL     1      -8.114   2.064  70.041  1.00  0.00    -0.057 C  
ENDBRANCH  27  34
ENDBRANCH  12  26
TORSDOF 5
ENDMDL
MODEL       93
REMARK 921   NORMALIZED FREE ENERGY PREDICTED BY IDOCK:   -5.93 KCAL/MOL
REMARK 922        TOTAL FREE ENERGY PREDICTED BY IDOCK:   -8.13 KCAL/MOL
REMARK 923 INTER-LIGAND FREE ENERGY PREDICTED BY IDOCK:   -7.45 KCAL/MOL
REMARK 924 INTRA-LIGAND FREE ENERGY PREDICTED BY IDOCK:   -0.69 KCAL/MOL
REMARK 927      BINDING AFFINITY PREDICTED BY RF-SCORE:    0.00 PKD
ROOT
HETATM    1  N   UNL     1      -6.992   8.058  69.048  1.00  0.00    -0.057 NA 
HETATM    2  C   UNL     1      -7.180   9.356  68.586  1.00  0.00    -0.074 A  
HETATM    3  H1  UNL     1      -7.793   7.660  69.537  1.00  0.00     0.000 HD 
HETATM    4  H2  UNL     1      -6.158   8.009  69.634  1.00  0.00     0.000 HD 
HETATM    5  N   UNL     1      -6.119   9.885  67.938  1.00  0.00    -0.050 NA 
HETATM    6  C   UNL     1      -6.241  11.096  67.369  1.00  0.00    -0.066 A  
HETATM    7  N   UNL     1      -7.331  11.870  67.332  1.00  0.00    -0.135 NA 
HETATM    8  C   UNL     1      -8.351  11.323  68.013  1.00  0.00    -0.136 A  
HETATM    9  C   UNL     1      -8.365  10.107  68.686  1.00  0.00    -0.116 A  
HETATM   10  C   UNL     1      -9.682  10.027  69.266  1.00  0.00    -0.215 A  
HETATM   11  N   UNL     1     -10.421  11.096  68.891  1.00  0.00    -0.202 NA 
HETATM   12  N   UNL     1      -9.601  11.854  68.142  1.00  0.00    -0.190 NA 
ENDROOT
BRANCH  10  13
HETATM   13  C   UNL     1     -10.319   9.002  70.127  1.00  0.00    -0.237 A  
HETATM   14  C   UNL     1     -10.916   9.284  71.362  1.00  0.00    -0.429 A  
HETATM   15  C   UNL     1     -11.473   8.253  72.143  1.00  0.00    -0.427 A  
HETATM   16  C   UNL     1     -10.360   7.665  69.683  1.00  0.00    -0.213 A  
HETATM   17  C   UNL     1     -11.488   6.928  71.689  1.00  0.00    -0.275 A  
HETATM   18  C   UNL     1     -10.934   6.638  70.448  1.00  0.00    -0.341 A  
BRANCH  17  19
HETATM   19  O   UNL     1     -11.971   5.993  72.576  1.00  0.00    -0.258 OA 
BRANCH  19  20
HETATM   20  C   UNL     1     -11.120   5.194  73.308  1.00  0.00    -0.327 A  
HETATM   21  C   UNL     1     -11.365   3.817  73.268  1.00  0.00    -0.179 A  
HETATM   22  C   UNL     1      -9.309   3.400  74.467  1.00  0.00    -0.117 A  
HETATM   23  C   UNL     1      -9.966   5.672  73.931  1.00  0.00    -0.203 A  
HETATM   24  C   UNL     1     -10.464   2.922  73.850  1.00  0.00    -0.243 A  
HETATM   25  C   UNL     1      -9.064   4.772  74.512  1.00  0.00    -0.114 A  
ENDBRANCH  19  20
ENDBRANCH  17  19
ENDBRANCH  10  13
BRANCH  12  26
HETATM   26  C   UNL     1     -10.098  13.071  67.501  1.00  0.00    -0.218 C  
HETATM   27  C   UNL     1     -10.044  16.766  67.688  1.00  0.00    -0.275 C  
HETATM   28  C   UNL     1     -10.151  12.937  65.966  1.00  0.00    -0.290 C  
HETATM   29  C   UNL     1      -9.589  15.368  65.749  1.00  0.00    -0.333 C  
HETATM   30  C   UNL     1     -10.533  14.261  65.302  1.00  0.00    -0.408 C  
HETATM   31  O   UNL     1     -10.341  17.699  66.939  1.00  0.00    -0.326 OA 
HETATM   32  N   UNL     1      -9.667  15.523  67.201  1.00  0.00    -0.221 N  
HETATM   33  C   UNL     1      -9.292  14.310  67.953  1.00  0.00    -0.198 C  
BRANCH  27  34
HETATM   34  C   UNL     1     -10.099  16.980  69.159  1.00  0.00    -0.259 C  
HETATM   35  C   UNL     1     -11.093  16.427  69.870  1.00  0.00    -0.313 C  
ENDBRANCH  27  34
ENDBRANCH  12  26
TORSDOF 5
ENDMDL
MODEL       94
REMARK 921   NORMALIZED FREE ENERGY PREDICTED BY IDOCK:   -5.87 KCAL/MOL
REMARK 922        TOTAL FREE ENERGY PREDICTED BY IDOCK:   -8.06 KCAL/MOL
REMARK 923 INTER-LIGAND FREE ENERGY PREDICTED BY IDOCK:   -7.07 KCAL/MOL
REMARK 924 INTRA-LIGAND FREE ENERGY PREDICTED BY IDOCK:   -0.98 KCAL/MOL
REMARK 927      BINDING AFFINITY PREDICTED BY RF-SCORE:    0.00 PKD
ROOT
HETATM    1  N   UNL     1     -11.578  11.734  70.125  1.00  0.00    -0.508 NA 
HETATM    2  C   UNL     1     -11.701  13.102  69.909  1.00  0.00    -0.257 A  
HETATM    3  H1  UNL     1     -10.761  11.306  69.690  1.00  0.00     0.000 HD 
HETATM    4  H2  UNL     1     -12.429  11.252  69.834  1.00  0.00     0.000 HD 
HETATM    5  N   UNL     1     -12.783  13.670  70.486  1.00  0.00    -0.240 NA 
HETATM    6  C   UNL     1     -12.933  15.004  70.417  1.00  0.00    -0.240 A  
HETATM    7  N   UNL     1     -12.102  15.887  69.854  1.00  0.00    -0.292 NA 
HETATM    8  C   UNL     1     -11.058  15.279  69.266  1.00  0.00    -0.274 A  
HETATM    9  C   UNL     1     -10.789  13.916  69.216  1.00  0.00    -0.170 A  
HETATM   10  C   UNL     1      -9.578  13.812  68.441  1.00  0.00    -0.206 A  
HETATM   11  N   UNL     1      -9.123  15.046  68.121  1.00  0.00    -0.175 NA 
HETATM   12  N   UNL     1     -10.026  15.904  68.628  1.00  0.00    -0.208 NA 
ENDROOT
BRANCH  10  13
HETATM   13  C   UNL     1      -8.789  12.639  67.997  1.00  0.00    -0.195 A  
HETATM   14  C   UNL     1      -7.419  12.484  68.242  1.00  0.00    -0.122 A  
HETATM   15  C   UNL     1      -6.726  11.357  67.760  1.00  0.00    -0.070 A  
HETATM   16  C   UNL     1      -9.442  11.595  67.310  1.00  0.00    -0.173 A  
HETATM   17  C   UNL     1      -7.392  10.340  67.064  1.00  0.00    -0.092 A  
HETATM   18  C   UNL     1      -8.759  10.460  66.847  1.00  0.00    -0.130 A  
BRANCH  17  19
HETATM   19  O   UNL     1      -6.598   9.335  66.559  1.00  0.00    -0.066 OA 
BRANCH  19  20
HETATM   20  C   UNL     1      -6.809   8.822  65.298  1.00  0.00    -0.072 A  
HETATM   21  C   UNL     1      -7.500   7.607  65.225  1.00  0.00    -0.083 A  
HETATM   22  C   UNL     1      -7.611   7.796  62.819  1.00  0.00    -0.124 A  
HETATM   23  C   UNL     1      -6.520   9.522  64.126  1.00  0.00    -0.100 A  
HETATM   24  C   UNL     1      -7.896   7.093  63.988  1.00  0.00    -0.113 A  
HETATM   25  C   UNL     1      -6.919   9.004  62.888  1.00  0.00    -0.092 A  
ENDBRANCH  19  20
ENDBRANCH  17  19
ENDBRANCH  10  13
BRANCH  12  26
HETATM   26  C   UNL     1      -9.811  17.347  68.532  1.00  0.00    -0.320 C  
HETATM   27  C   UNL     1      -7.217  19.943  68.058  1.00  0.00    -0.292 C  
HETATM   28  C   UNL     1     -10.959  18.055  67.786  1.00  0.00    -0.106 C  
HETATM   29  C   UNL     1      -9.318  19.701  66.853  1.00  0.00    -0.355 C  
HETATM   30  C   UNL     1     -10.652  19.538  67.567  1.00  0.00    -0.599 C  
HETATM   31  O   UNL     1      -7.201  21.144  67.778  1.00  0.00    -0.276 OA 
HETATM   32  N   UNL     1      -8.253  19.110  67.663  1.00  0.00    -0.280 N  
HETATM   33  C   UNL     1      -8.429  17.666  67.919  1.00  0.00    -0.233 C  
BRANCH  27  34
HETATM   34  C   UNL     1      -6.093  19.374  68.850  1.00  0.00    -0.272 C  
HETATM   35  C   UNL     1      -5.943  19.732  70.134  1.00  0.00    -0.340 C  
ENDBRANCH  27  34
ENDBRANCH  12  26
TORSDOF 5
ENDMDL
MODEL       95
REMARK 921   NORMALIZED FREE ENERGY PREDICTED BY IDOCK:   -5.86 KCAL/MOL
REMARK 922        TOTAL FREE ENERGY PREDICTED BY IDOCK:   -8.05 KCAL/MOL
REMARK 923 INTER-LIGAND FREE ENERGY PREDICTED BY IDOCK:   -7.45 KCAL/MOL
REMARK 924 INTRA-LIGAND FREE ENERGY PREDICTED BY IDOCK:   -0.59 KCAL/MOL
REMARK 927      BINDING AFFINITY PREDICTED BY RF-SCORE:    0.00 PKD
ROOT
HETATM    1  N   UNL     1     -10.405  14.432  64.224  1.00  0.00    -0.463 NA 
HETATM    2  C   UNL     1     -10.369  13.075  64.526  1.00  0.00    -0.364 A  
HETATM    3  H1  UNL     1     -10.056  15.042  64.963  1.00  0.00     0.000 HD 
HETATM    4  H2  UNL     1     -11.348  14.708  63.951  1.00  0.00     0.000 HD 
HETATM    5  N   UNL     1     -10.830  12.266  63.547  1.00  0.00    -0.454 NA 
HETATM    6  C   UNL     1     -10.741  10.935  63.708  1.00  0.00    -0.086 A  
HETATM    7  N   UNL     1     -10.208  10.274  64.740  1.00  0.00    -0.273 NA 
HETATM    8  C   UNL     1      -9.791  11.113  65.703  1.00  0.00    -0.235 A  
HETATM    9  C   UNL     1      -9.853  12.502  65.702  1.00  0.00    -0.227 A  
HETATM   10  C   UNL     1      -9.309  12.892  66.978  1.00  0.00    -0.235 A  
HETATM   11  N   UNL     1      -8.882  11.801  67.655  1.00  0.00    -0.157 NA 
HETATM   12  N   UNL     1      -9.182  10.752  66.869  1.00  0.00    -0.155 NA 
ENDROOT
BRANCH  10  13
HETATM   13  C   UNL     1      -9.126  14.221  67.608  1.00  0.00    -0.192 A  
HETATM   14  C   UNL     1     -10.007  15.296  67.428  1.00  0.00    -0.223 A  
HETATM   15  C   UNL     1      -9.751  16.542  68.032  1.00  0.00    -0.236 A  
HETATM   16  C   UNL     1      -8.022  14.429  68.459  1.00  0.00    -0.144 A  
HETATM   17  C   UNL     1      -8.638  16.731  68.861  1.00  0.00    -0.218 A  
HETATM   18  C   UNL     1      -7.775  15.664  69.079  1.00  0.00    -0.199 A  
BRANCH  17  19
HETATM   19  O   UNL     1      -8.437  18.014  69.317  1.00  0.00     0.050 OA 
BRANCH  19  20
HETATM   20  C   UNL     1      -7.653  18.907  68.620  1.00  0.00    -0.331 A  
HETATM   21  C   UNL     1      -8.251  19.545  67.528  1.00  0.00    -0.328 A  
HETATM   22  C   UNL     1      -6.324  20.983  67.291  1.00  0.00    -0.405 A  
HETATM   23  C   UNL     1      -6.386  19.311  69.046  1.00  0.00    -0.306 A  
HETATM   24  C   UNL     1      -7.587  20.577  66.862  1.00  0.00    -0.327 A  
HETATM   25  C   UNL     1      -5.723  20.347  68.376  1.00  0.00    -0.305 A  
ENDBRANCH  19  20
ENDBRANCH  17  19
ENDBRANCH  10  13
BRANCH  12  26
HETATM   26  C   UNL     1      -8.791   9.398  67.261  1.00  0.00    -0.128 C  
HETATM   27  C   UNL     1      -9.921   6.389  69.094  1.00  0.00    -0.149 C  
HETATM   28  C   UNL     1      -7.988   8.684  66.156  1.00  0.00    -0.106 C  
HETATM   29  C   UNL     1      -9.014   6.504  66.839  1.00  0.00    -0.126 C  
HETATM   30  C   UNL     1      -7.711   7.225  66.520  1.00  0.00    -0.093 C  
HETATM   31  O   UNL     1      -9.571   5.209  69.169  1.00  0.00    -0.124 OA 
HETATM   32  N   UNL     1      -9.673   7.159  67.967  1.00  0.00    -0.137 N  
HETATM   33  C   UNL     1     -10.015   8.574  67.721  1.00  0.00    -0.190 C  
BRANCH  27  34
HETATM   34  C   UNL     1     -10.626   7.004  70.251  1.00  0.00    -0.247 C  
HETATM   35  C   UNL     1     -11.936   6.778  70.422  1.00  0.00    -0.343 C  
ENDBRANCH  27  34
ENDBRANCH  12  26
TORSDOF 5
ENDMDL
MODEL       96
REMARK 921   NORMALIZED FREE ENERGY PREDICTED BY IDOCK:   -5.81 KCAL/MOL
REMARK 922        TOTAL FREE ENERGY PREDICTED BY IDOCK:   -7.98 KCAL/MOL
REMARK 923 INTER-LIGAND FREE ENERGY PREDICTED BY IDOCK:   -7.38 KCAL/MOL
REMARK 924 INTRA-LIGAND FREE ENERGY PREDICTED BY IDOCK:   -0.60 KCAL/MOL
REMARK 927      BINDING AFFINITY PREDICTED BY RF-SCORE:    0.00 PKD
ROOT
HETATM    1  N   UNL     1     -12.693  11.447  70.628  1.00  0.00    -0.239 NA 
HETATM    2  C   UNL     1     -12.287  12.673  70.115  1.00  0.00    -0.152 A  
HETATM    3  H1  UNL     1     -12.154  10.647  70.296  1.00  0.00     0.000 HD 
HETATM    4  H2  UNL     1     -13.688  11.302  70.453  1.00  0.00     0.000 HD 
HETATM    5  N   UNL     1     -13.001  13.734  70.554  1.00  0.00    -0.138 NA 
HETATM    6  C   UNL     1     -12.620  14.970  70.192  1.00  0.00    -0.269 A  
HETATM    7  N   UNL     1     -11.564  15.309  69.444  1.00  0.00    -0.309 NA 
HETATM    8  C   UNL     1     -10.902  14.227  69.002  1.00  0.00    -0.255 A  
HETATM    9  C   UNL     1     -11.196  12.892  69.255  1.00  0.00    -0.251 A  
HETATM   10  C   UNL     1     -10.201  12.153  68.519  1.00  0.00    -0.207 A  
HETATM   11  N   UNL     1      -9.329  13.005  67.932  1.00  0.00    -0.204 NA 
HETATM   12  N   UNL     1      -9.771  14.238  68.239  1.00  0.00    -0.215 NA 
ENDROOT
BRANCH  10  13
HETATM   13  C   UNL     1      -9.982  10.698  68.344  1.00  0.00    -0.176 A  
HETATM   14  C   UNL     1      -9.047   9.958  69.080  1.00  0.00    -0.164 A  
HETATM   15  C   UNL     1      -8.869   8.583  68.836  1.00  0.00    -0.139 A  
HETATM   16  C   UNL     1     -10.766   9.995  67.407  1.00  0.00    -0.336 A  
HETATM   17  C   UNL     1      -9.647   7.908  67.887  1.00  0.00    -0.147 A  
HETATM   18  C   UNL     1     -10.606   8.620  67.177  1.00  0.00    -0.304 A  
BRANCH  17  19
HETATM   19  O   UNL     1      -9.320   6.589  67.667  1.00  0.00    -0.120 OA 
BRANCH  19  20
HETATM   20  C   UNL     1      -8.822   6.169  66.453  1.00  0.00    -0.141 A  
HETATM   21  C   UNL     1      -9.444   5.058  65.872  1.00  0.00    -0.171 A  
HETATM   22  C   UNL     1      -8.160   5.375  63.850  1.00  0.00    -0.119 A  
HETATM   23  C   UNL     1      -7.866   6.882  65.728  1.00  0.00    -0.106 A  
HETATM   24  C   UNL     1      -9.111   4.659  64.575  1.00  0.00    -0.132 A  
HETATM   25  C   UNL     1      -7.535   6.479  64.428  1.00  0.00    -0.091 A  
ENDBRANCH  19  20
ENDBRANCH  17  19
ENDBRANCH  10  13
BRANCH  12  26
HETATM   26  C   UNL     1      -9.016  15.420  67.824  1.00  0.00    -0.173 C  
HETATM   27  C   UNL     1      -8.510  19.020  68.516  1.00  0.00    -0.352 C  
HETATM   28  C   UNL     1      -7.567  15.074  67.432  1.00  0.00    -0.233 C  
HETATM   29  C   UNL     1      -6.811  17.288  68.324  1.00  0.00    -0.184 C  
HETATM   30  C   UNL     1      -6.750  16.334  67.140  1.00  0.00    -0.237 C  
HETATM   31  O   UNL     1      -7.667  19.872  68.225  1.00  0.00    -0.304 OA 
HETATM   32  N   UNL     1      -8.200  17.669  68.576  1.00  0.00    -0.288 N  
HETATM   33  C   UNL     1      -9.083  16.531  68.897  1.00  0.00    -0.245 C  
BRANCH  27  34
HETATM   34  C   UNL     1      -9.903  19.456  68.804  1.00  0.00    -0.530 C  
HETATM   35  C   UNL     1     -10.746  19.688  67.787  1.00  0.00    -0.456 C  
ENDBRANCH  27  34
ENDBRANCH  12  26
TORSDOF 5
ENDMDL
MODEL       97
REMARK 921   NORMALIZED FREE ENERGY PREDICTED BY IDOCK:   -5.79 KCAL/MOL
REMARK 922        TOTAL FREE ENERGY PREDICTED BY IDOCK:   -7.95 KCAL/MOL
REMARK 923 INTER-LIGAND FREE ENERGY PREDICTED BY IDOCK:   -7.06 KCAL/MOL
REMARK 924 INTRA-LIGAND FREE ENERGY PREDICTED BY IDOCK:   -0.90 KCAL/MOL
REMARK 927      BINDING AFFINITY PREDICTED BY RF-SCORE:    0.00 PKD
ROOT
HETATM    1  N   UNL     1     -11.831  11.154  67.485  1.00  0.00    -0.558 NA 
HETATM    2  C   UNL     1     -11.348  12.440  67.271  1.00  0.00    -0.323 A  
HETATM    3  H1  UNL     1     -11.110  10.437  67.566  1.00  0.00     0.000 HD 
HETATM    4  H2  UNL     1     -12.502  10.903  66.759  1.00  0.00     0.000 HD 
HETATM    5  N   UNL     1     -12.302  13.392  67.164  1.00  0.00    -0.236 NA 
HETATM    6  C   UNL     1     -11.929  14.678  67.055  1.00  0.00    -0.276 A  
HETATM    7  N   UNL     1     -10.685  15.167  67.069  1.00  0.00    -0.302 NA 
HETATM    8  C   UNL     1      -9.768  14.189  67.145  1.00  0.00    -0.248 A  
HETATM    9  C   UNL     1      -9.995  12.819  67.220  1.00  0.00    -0.219 A  
HETATM   10  C   UNL     1      -8.679  12.233  67.244  1.00  0.00    -0.188 A  
HETATM   11  N   UNL     1      -7.737  13.204  67.261  1.00  0.00    -0.138 NA 
HETATM   12  N   UNL     1      -8.416  14.363  67.202  1.00  0.00    -0.213 NA 
ENDROOT
BRANCH  10  13
HETATM   13  C   UNL     1      -8.229  10.821  67.285  1.00  0.00    -0.121 A  
HETATM   14  C   UNL     1      -8.811   9.795  66.530  1.00  0.00    -0.154 A  
HETATM   15  C   UNL     1      -8.353   8.469  66.645  1.00  0.00    -0.112 A  
HETATM   16  C   UNL     1      -7.137  10.475  68.107  1.00  0.00    -0.082 A  
HETATM   17  C   UNL     1      -7.277   8.145  67.481  1.00  0.00    -0.091 A  
HETATM   18  C   UNL     1      -6.663   9.157  68.208  1.00  0.00    -0.060 A  
BRANCH  17  19
HETATM   19  O   UNL     1      -6.978   6.805  67.587  1.00  0.00    -0.077 OA 
BRANCH  19  20
HETATM   20  C   UNL     1      -7.863   5.918  68.161  1.00  0.00    -0.105 A  
HETATM   21  C   UNL     1      -8.203   6.150  69.498  1.00  0.00    -0.116 A  
HETATM   22  C   UNL     1      -9.884   4.418  69.388  1.00  0.00    -0.239 A  
HETATM   23  C   UNL     1      -8.537   4.932  67.438  1.00  0.00    -0.104 A  
HETATM   24  C   UNL     1      -9.209   5.399  70.112  1.00  0.00    -0.177 A  
HETATM   25  C   UNL     1      -9.544   4.181  68.057  1.00  0.00    -0.200 A  
ENDBRANCH  19  20
ENDBRANCH  17  19
ENDBRANCH  10  13
BRANCH  12  26
HETATM   26  C   UNL     1      -7.708  15.640  67.275  1.00  0.00    -0.206 C  
HETATM   27  C   UNL     1      -7.929  19.092  68.592  1.00  0.00    -0.352 C  
HETATM   28  C   UNL     1      -6.187  15.452  67.429  1.00  0.00    -0.035 C  
HETATM   29  C   UNL     1      -6.086  17.521  68.837  1.00  0.00    -0.195 C  
HETATM   30  C   UNL     1      -5.477  16.789  67.649  1.00  0.00    -0.158 C  
HETATM   31  O   UNL     1      -7.147  20.029  68.768  1.00  0.00    -0.305 OA 
HETATM   32  N   UNL     1      -7.504  17.771  68.583  1.00  0.00    -0.267 N  
HETATM   33  C   UNL     1      -8.301  16.545  68.380  1.00  0.00    -0.200 C  
BRANCH  27  34
HETATM   34  C   UNL     1      -9.371  19.390  68.378  1.00  0.00    -0.426 C  
HETATM   35  C   UNL     1      -9.744  20.109  67.309  1.00  0.00    -0.574 C  
ENDBRANCH  27  34
ENDBRANCH  12  26
TORSDOF 5
ENDMDL
MODEL       98
REMARK 921   NORMALIZED FREE ENERGY PREDICTED BY IDOCK:   -5.77 KCAL/MOL
REMARK 922        TOTAL FREE ENERGY PREDICTED BY IDOCK:   -7.93 KCAL/MOL
REMARK 923 INTER-LIGAND FREE ENERGY PREDICTED BY IDOCK:   -6.85 KCAL/MOL
REMARK 924 INTRA-LIGAND FREE ENERGY PREDICTED BY IDOCK:   -1.08 KCAL/MOL
REMARK 927      BINDING AFFINITY PREDICTED BY RF-SCORE:    0.00 PKD
ROOT
HETATM    1  N   UNL     1      -6.776  11.373  70.258  1.00  0.00    -0.486 NA 
HETATM    2  C   UNL     1      -6.566  10.028  70.539  1.00  0.00    -0.122 A  
HETATM    3  H1  UNL     1      -7.605  11.566  69.696  1.00  0.00     0.000 HD 
HETATM    4  H2  UNL     1      -5.948  11.776  69.818  1.00  0.00     0.000 HD 
HETATM    5  N   UNL     1      -5.467   9.772  71.284  1.00  0.00    -0.069 NA 
HETATM    6  C   UNL     1      -5.236   8.512  71.691  1.00  0.00    -0.035 A  
HETATM    7  N   UNL     1      -5.997   7.435  71.472  1.00  0.00    -0.036 NA 
HETATM    8  C   UNL     1      -7.059   7.726  70.703  1.00  0.00    -0.049 A  
HETATM    9  C   UNL     1      -7.408   8.964  70.174  1.00  0.00    -0.059 A  
HETATM   10  C   UNL     1      -8.602   8.708  69.407  1.00  0.00    -0.127 A  
HETATM   11  N   UNL     1      -8.974   7.414  69.542  1.00  0.00    -0.144 NA 
HETATM   12  N   UNL     1      -8.034   6.851  70.323  1.00  0.00    -0.113 NA 
ENDROOT
BRANCH  10  13
HETATM   13  C   UNL     1      -9.448   9.596  68.575  1.00  0.00    -0.145 A  
HETATM   14  C   UNL     1     -10.479  10.393  69.087  1.00  0.00    -0.248 A  
HETATM   15  C   UNL     1     -11.265  11.188  68.231  1.00  0.00    -0.343 A  
HETATM   16  C   UNL     1      -9.200   9.676  67.189  1.00  0.00    -0.156 A  
HETATM   17  C   UNL     1     -11.012  11.238  66.854  1.00  0.00    -0.290 A  
HETATM   18  C   UNL     1      -9.968  10.483  66.336  1.00  0.00    -0.271 A  
BRANCH  17  19
HETATM   19  O   UNL     1     -11.903  11.973  66.104  1.00  0.00    -0.546 OA 
BRANCH  19  20
HETATM   20  C   UNL     1     -11.554  13.196  65.575  1.00  0.00    -0.335 A  
HETATM   21  C   UNL     1     -12.464  13.775  64.683  1.00  0.00    -0.356 A  
HETATM   22  C   UNL     1     -11.169  15.814  64.657  1.00  0.00    -0.373 A  
HETATM   23  C   UNL     1     -10.449  13.932  66.007  1.00  0.00    -0.299 A  
HETATM   24  C   UNL     1     -12.270  15.079  64.222  1.00  0.00    -0.312 A  
HETATM   25  C   UNL     1     -10.258  15.239  65.542  1.00  0.00    -0.417 A  
ENDBRANCH  19  20
ENDBRANCH  17  19
ENDBRANCH  10  13
BRANCH  12  26
HETATM   26  C   UNL     1      -8.159   5.456  70.741  1.00  0.00    -0.111 C  
HETATM   27  C   UNL     1     -10.337   3.079  72.560  1.00  0.00    -0.109 C  
HETATM   28  C   UNL     1      -7.626   4.480  69.674  1.00  0.00    -0.054 C  
HETATM   29  C   UNL     1      -9.377   2.817  70.339  1.00  0.00    -0.147 C  
HETATM   30  C   UNL     1      -7.895   3.025  70.062  1.00  0.00    -0.048 C  
HETATM   31  O   UNL     1     -10.428   1.853  72.659  1.00  0.00    -0.145 OA 
HETATM   32  N   UNL     1      -9.797   3.688  71.436  1.00  0.00    -0.173 N  
HETATM   33  C   UNL     1      -9.610   5.127  71.164  1.00  0.00    -0.166 C  
BRANCH  27  34
HETATM   34  C   UNL     1     -10.814   3.929  73.684  1.00  0.00    -0.331 C  
HETATM   35  C   UNL     1      -9.924   4.447  74.543  1.00  0.00    -0.229 C  
ENDBRANCH  27  34
ENDBRANCH  12  26
TORSDOF 5
ENDMDL
MODEL       99
REMARK 921   NORMALIZED FREE ENERGY PREDICTED BY IDOCK:   -5.75 KCAL/MOL
REMARK 922        TOTAL FREE ENERGY PREDICTED BY IDOCK:   -7.91 KCAL/MOL
REMARK 923 INTER-LIGAND FREE ENERGY PREDICTED BY IDOCK:   -7.49 KCAL/MOL
REMARK 924 INTRA-LIGAND FREE ENERGY PREDICTED BY IDOCK:   -0.42 KCAL/MOL
REMARK 927      BINDING AFFINITY PREDICTED BY RF-SCORE:    0.00 PKD
ROOT
HETATM    1  N   UNL     1     -13.305  11.740  71.765  1.00  0.00    -0.348 NA 
HETATM    2  C   UNL     1     -12.631  10.540  71.563  1.00  0.00    -0.424 A  
HETATM    3  H1  UNL     1     -13.200  12.419  71.010  1.00  0.00     0.000 HD 
HETATM    4  H2  UNL     1     -13.030  12.155  72.655  1.00  0.00     0.000 HD 
HETATM    5  N   UNL     1     -12.769   9.641  72.563  1.00  0.00    -0.184 NA 
HETATM    6  C   UNL     1     -12.238   8.416  72.414  1.00  0.00    -0.367 A  
HETATM    7  N   UNL     1     -11.587   7.937  71.349  1.00  0.00    -0.266 NA 
HETATM    8  C   UNL     1     -11.444   8.870  70.393  1.00  0.00    -0.157 A  
HETATM    9  C   UNL     1     -11.898  10.184  70.418  1.00  0.00    -0.373 A  
HETATM   10  C   UNL     1     -11.449  10.748  69.170  1.00  0.00    -0.298 A  
HETATM   11  N   UNL     1     -10.836   9.800  68.425  1.00  0.00    -0.224 NA 
HETATM   12  N   UNL     1     -10.849   8.687  69.180  1.00  0.00    -0.110 NA 
ENDROOT
BRANCH  10  13
HETATM   13  C   UNL     1     -11.577  12.110  68.601  1.00  0.00    -0.372 A  
HETATM   14  C   UNL     1     -11.821  12.369  67.246  1.00  0.00    -0.357 A  
HETATM   15  C   UNL     1     -11.897  13.692  66.770  1.00  0.00    -0.452 A  
HETATM   16  C   UNL     1     -11.476  13.223  69.461  1.00  0.00    -0.299 A  
HETATM   17  C   UNL     1     -11.777  14.783  67.640  1.00  0.00    -0.341 A  
HETATM   18  C   UNL     1     -11.573  14.543  68.993  1.00  0.00    -0.330 A  
BRANCH  17  19
HETATM   19  O   UNL     1     -11.772  16.027  67.050  1.00  0.00     0.301 OA 
BRANCH  19  20
HETATM   20  C   UNL     1     -10.667  16.847  67.119  1.00  0.00    -0.180 A  
HETATM   21  C   UNL     1      -9.541  16.442  66.393  1.00  0.00    -0.313 A  
HETATM   22  C   UNL     1      -8.451  18.543  66.879  1.00  0.00    -0.277 A  
HETATM   23  C   UNL     1     -10.681  18.104  67.726  1.00  0.00    -0.355 A  
HETATM   24  C   UNL     1      -8.434  17.286  66.277  1.00  0.00    -0.278 A  
HETATM   25  C   UNL     1      -9.569  18.948  67.607  1.00  0.00    -0.351 A  
ENDBRANCH  19  20
ENDBRANCH  17  19
ENDBRANCH  10  13
BRANCH  12  26
HETATM   26  C   UNL     1     -10.326   7.428  68.651  1.00  0.00    -0.198 C  
HETATM   27  C   UNL     1      -7.215   5.662  67.704  1.00  0.00    -0.076 C  
HETATM   28  C   UNL     1     -11.110   6.209  69.175  1.00  0.00    -0.448 C  
HETATM   29  C   UNL     1      -9.001   4.858  69.147  1.00  0.00    -0.098 C  
HETATM   30  C   UNL     1     -10.465   4.895  68.730  1.00  0.00     0.050 C  
HETATM   31  O   UNL     1      -6.890   4.497  67.465  1.00  0.00    -0.056 OA 
HETATM   32  N   UNL     1      -8.287   5.973  68.528  1.00  0.00    -0.113 N  
HETATM   33  C   UNL     1      -8.807   7.302  68.907  1.00  0.00    -0.127 C  
BRANCH  27  34
HETATM   34  C   UNL     1      -6.434   6.767  67.084  1.00  0.00    -0.046 C  
HETATM   35  C   UNL     1      -5.305   7.188  67.672  1.00  0.00    -0.020 C  
ENDBRANCH  27  34
ENDBRANCH  12  26
TORSDOF 5
ENDMDL
MODEL      100
REMARK 921   NORMALIZED FREE ENERGY PREDICTED BY IDOCK:   -5.75 KCAL/MOL
REMARK 922        TOTAL FREE ENERGY PREDICTED BY IDOCK:   -7.90 KCAL/MOL
REMARK 923 INTER-LIGAND FREE ENERGY PREDICTED BY IDOCK:   -7.25 KCAL/MOL
REMARK 924 INTRA-LIGAND FREE ENERGY PREDICTED BY IDOCK:   -0.65 KCAL/MOL
REMARK 927      BINDING AFFINITY PREDICTED BY RF-SCORE:    0.00 PKD
ROOT
HETATM    1  N   UNL     1     -12.953  11.197  70.917  1.00  0.00    -0.256 NA 
HETATM    2  C   UNL     1     -12.640   9.885  71.257  1.00  0.00    -0.381 A  
HETATM    3  H1  UNL     1     -12.419  11.573  70.134  1.00  0.00     0.000 HD 
HETATM    4  H2  UNL     1     -12.864  11.804  71.732  1.00  0.00     0.000 HD 
HETATM    5  N   UNL     1     -13.348   9.386  72.295  1.00  0.00    -0.458 NA 
HETATM    6  C   UNL     1     -13.186   8.096  72.632  1.00  0.00     0.128 A  
HETATM    7  N   UNL     1     -12.405   7.191  72.033  1.00  0.00    -0.291 NA 
HETATM    8  C   UNL     1     -11.697   7.734  71.029  1.00  0.00    -0.281 A  
HETATM    9  C   UNL     1     -11.723   9.053  70.591  1.00  0.00    -0.237 A  
HETATM   10  C   UNL     1     -10.756   9.102  69.523  1.00  0.00    -0.215 A  
HETATM   11  N   UNL     1     -10.250   7.868  69.297  1.00  0.00    -0.211 NA 
HETATM   12  N   UNL     1     -10.831   7.069  70.211  1.00  0.00    -0.244 NA 
ENDROOT
BRANCH  10  13
HETATM   13  C   UNL     1     -10.286  10.217  68.668  1.00  0.00    -0.203 A  
HETATM   14  C   UNL     1     -10.282  11.559  69.070  1.00  0.00    -0.109 A  
HETATM   15  C   UNL     1      -9.853  12.571  68.191  1.00  0.00    -0.221 A  
HETATM   16  C   UNL     1      -9.789   9.930  67.381  1.00  0.00    -0.223 A  
HETATM   17  C   UNL     1      -9.378  12.264  66.909  1.00  0.00    -0.210 A  
HETATM   18  C   UNL     1      -9.340  10.934  66.509  1.00  0.00    -0.195 A  
BRANCH  17  19
HETATM   19  O   UNL     1      -9.076  13.339  66.105  1.00  0.00    -0.061 OA 
BRANCH  19  20
HETATM   20  C   UNL     1     -10.054  13.996  65.392  1.00  0.00    -0.319 A  
HETATM   21  C   UNL     1     -10.983  13.194  64.719  1.00  0.00    -0.355 A  
HETATM   22  C   UNL     1     -12.293  15.147  64.165  1.00  0.00    -0.117 A  
HETATM   23  C   UNL     1     -10.249  15.377  65.448  1.00  0.00    -0.408 A  
HETATM   24  C   UNL     1     -12.098  13.768  64.103  1.00  0.00    -0.478 A  
HETATM   25  C   UNL     1     -11.367  15.950  64.830  1.00  0.00    -0.314 A  
ENDBRANCH  19  20
ENDBRANCH  17  19
ENDBRANCH  10  13
BRANCH  12  26
HETATM   26  C   UNL     1     -10.568   5.631  70.211  1.00  0.00    -0.300 C  
HETATM   27  C   UNL     1      -9.164   2.863  68.195  1.00  0.00    -0.196 C  
HETATM   28  C   UNL     1     -10.137   5.121  71.600  1.00  0.00    -0.262 C  
HETATM   29  C   UNL     1      -8.645   3.435  70.503  1.00  0.00    -0.070 C  
HETATM   30  C   UNL     1      -9.726   3.648  71.553  1.00  0.00    -0.238 C  
HETATM   31  O   UNL     1      -8.802   1.704  68.406  1.00  0.00    -0.073 OA 
HETATM   32  N   UNL     1      -9.152   3.830  69.190  1.00  0.00    -0.123 N  
HETATM   33  C   UNL     1      -9.557   5.248  69.107  1.00  0.00    -0.145 C  
BRANCH  27  34
HETATM   34  C   UNL     1      -9.635   3.233  66.833  1.00  0.00    -0.063 C  
HETATM   35  C   UNL     1      -8.741   3.399  65.848  1.00  0.00    -0.124 C  
ENDBRANCH  27  34
ENDBRANCH  12  26
TORSDOF 5
ENDMDL
MODEL      101
REMARK 921   NORMALIZED FREE ENERGY PREDICTED BY IDOCK:   -5.74 KCAL/MOL
REMARK 922        TOTAL FREE ENERGY PREDICTED BY IDOCK:   -7.89 KCAL/MOL
REMARK 923 INTER-LIGAND FREE ENERGY PREDICTED BY IDOCK:   -7.14 KCAL/MOL
REMARK 924 INTRA-LIGAND FREE ENERGY PREDICTED BY IDOCK:   -0.75 KCAL/MOL
REMARK 927      BINDING AFFINITY PREDICTED BY RF-SCORE:    0.00 PKD
ROOT
HETATM    1  N   UNL     1      -6.620   8.782  71.353  1.00  0.00    -0.072 NA 
HETATM    2  C   UNL     1      -7.088   9.647  70.370  1.00  0.00    -0.136 A  
HETATM    3  H1  UNL     1      -7.316   8.129  71.713  1.00  0.00     0.000 HD 
HETATM    4  H2  UNL     1      -6.201   9.311  72.119  1.00  0.00     0.000 HD 
HETATM    5  N   UNL     1      -6.166  10.512  69.893  1.00  0.00    -0.075 NA 
HETATM    6  C   UNL     1      -6.498  11.318  68.870  1.00  0.00    -0.063 A  
HETATM    7  N   UNL     1      -7.662  11.361  68.213  1.00  0.00    -0.116 NA 
HETATM    8  C   UNL     1      -8.559  10.510  68.738  1.00  0.00    -0.146 A  
HETATM    9  C   UNL     1      -8.380   9.647  69.814  1.00  0.00    -0.183 A  
HETATM   10  C   UNL     1      -9.656   8.998  69.977  1.00  0.00    -0.186 A  
HETATM   11  N   UNL     1     -10.509   9.398  69.006  1.00  0.00    -0.213 NA 
HETATM   12  N   UNL     1      -9.827  10.301  68.279  1.00  0.00    -0.144 NA 
ENDROOT
BRANCH  10  13
HETATM   13  C   UNL     1     -10.136   7.999  70.960  1.00  0.00    -0.213 A  
HETATM   14  C   UNL     1     -10.252   8.250  72.334  1.00  0.00    -0.397 A  
HETATM   15  C   UNL     1     -10.683   7.240  73.215  1.00  0.00    -0.428 A  
HETATM   16  C   UNL     1     -10.526   6.723  70.505  1.00  0.00    -0.238 A  
HETATM   17  C   UNL     1     -11.050   5.973  72.742  1.00  0.00    -0.269 A  
HETATM   18  C   UNL     1     -10.977   5.720  71.377  1.00  0.00    -0.304 A  
BRANCH  17  19
HETATM   19  O   UNL     1     -11.363   5.039  73.702  1.00  0.00    -0.286 OA 
BRANCH  19  20
HETATM   20  C   UNL     1     -10.627   3.883  73.843  1.00  0.00    -0.217 A  
HETATM   21  C   UNL     1     -11.275   2.685  73.523  1.00  0.00    -0.306 A  
HETATM   22  C   UNL     1      -9.196   1.477  73.757  1.00  0.00    -0.066 A  
HETATM   23  C   UNL     1      -9.259   3.874  74.121  1.00  0.00    -0.102 A  
HETATM   24  C   UNL     1     -10.562   1.484  73.484  1.00  0.00    -0.191 A  
HETATM   25  C   UNL     1      -8.547   2.668  74.081  1.00  0.00    -0.071 A  
ENDBRANCH  19  20
ENDBRANCH  17  19
ENDBRANCH  10  13
BRANCH  12  26
HETATM   26  C   UNL     1     -10.426  10.896  67.086  1.00  0.00    -0.237 C  
HETATM   27  C   UNL     1     -11.420  14.111  65.544  1.00  0.00    -0.324 C  
HETATM   28  C   UNL     1     -10.001  10.166  65.797  1.00  0.00    -0.339 C  
HETATM   29  C   UNL     1     -10.072  12.341  64.557  1.00  0.00    -0.254 C  
HETATM   30  C   UNL     1     -10.517  10.885  64.550  1.00  0.00    -0.393 C  
HETATM   31  O   UNL     1     -11.728  14.498  64.415  1.00  0.00    -0.404 OA 
HETATM   32  N   UNL     1     -10.600  13.009  65.745  1.00  0.00    -0.273 N  
HETATM   33  C   UNL     1     -10.146  12.415  67.018  1.00  0.00    -0.214 C  
BRANCH  27  34
HETATM   34  C   UNL     1     -11.948  14.845  66.725  1.00  0.00    -0.106 C  
HETATM   35  C   UNL     1     -11.176  15.757  67.335  1.00  0.00    -0.179 C  
ENDBRANCH  27  34
ENDBRANCH  12  26
TORSDOF 5
ENDMDL
MODEL      102
REMARK 921   NORMALIZED FREE ENERGY PREDICTED BY IDOCK:   -5.74 KCAL/MOL
REMARK 922        TOTAL FREE ENERGY PREDICTED BY IDOCK:   -7.89 KCAL/MOL
REMARK 923 INTER-LIGAND FREE ENERGY PREDICTED BY IDOCK:   -7.23 KCAL/MOL
REMARK 924 INTRA-LIGAND FREE ENERGY PREDICTED BY IDOCK:   -0.66 KCAL/MOL
REMARK 927      BINDING AFFINITY PREDICTED BY RF-SCORE:    0.00 PKD
ROOT
HETATM    1  N   UNL     1     -10.327  10.049  65.045  1.00  0.00    -0.184 NA 
HETATM    2  C   UNL     1      -9.888   9.338  66.156  1.00  0.00    -0.293 A  
HETATM    3  H1  UNL     1     -10.372  11.060  65.176  1.00  0.00     0.000 HD 
HETATM    4  H2  UNL     1     -11.229   9.691  64.729  1.00  0.00     0.000 HD 
HETATM    5  N   UNL     1      -9.827   7.999  65.982  1.00  0.00     0.021 NA 
HETATM    6  C   UNL     1      -9.320   7.238  66.966  1.00  0.00    -0.148 A  
HETATM    7  N   UNL     1      -8.819   7.649  68.136  1.00  0.00    -0.125 NA 
HETATM    8  C   UNL     1      -8.928   8.980  68.281  1.00  0.00    -0.133 A  
HETATM    9  C   UNL     1      -9.463   9.890  67.377  1.00  0.00    -0.173 A  
HETATM   10  C   UNL     1      -9.366  11.165  68.043  1.00  0.00    -0.166 A  
HETATM   11  N   UNL     1      -8.740  11.021  69.234  1.00  0.00     0.016 NA 
HETATM   12  N   UNL     1      -8.488   9.705  69.350  1.00  0.00    -0.142 NA 
ENDROOT
BRANCH  10  13
HETATM   13  C   UNL     1      -9.788  12.525  67.634  1.00  0.00    -0.202 A  
HETATM   14  C   UNL     1     -11.119  12.963  67.642  1.00  0.00    -0.297 A  
HETATM   15  C   UNL     1     -11.450  14.261  67.207  1.00  0.00    -0.371 A  
HETATM   16  C   UNL     1      -8.807  13.455  67.235  1.00  0.00    -0.220 A  
HETATM   17  C   UNL     1     -10.460  15.163  66.799  1.00  0.00    -0.283 A  
HETATM   18  C   UNL     1      -9.131  14.757  66.822  1.00  0.00    -0.291 A  
BRANCH  17  19
HETATM   19  O   UNL     1     -10.908  16.367  66.305  1.00  0.00    -0.210 OA 
BRANCH  19  20
HETATM   20  C   UNL     1     -10.481  17.563  66.840  1.00  0.00    -0.285 A  
HETATM   21  C   UNL     1     -10.481  18.668  65.982  1.00  0.00    -0.456 A  
HETATM   22  C   UNL     1      -9.958  20.129  67.833  1.00  0.00    -0.537 A  
HETATM   23  C   UNL     1     -10.218  17.746  68.199  1.00  0.00    -0.383 A  
HETATM   24  C   UNL     1     -10.216  19.947  66.476  1.00  0.00    -0.611 A  
HETATM   25  C   UNL     1      -9.952  19.030  68.691  1.00  0.00    -0.482 A  
ENDBRANCH  19  20
ENDBRANCH  17  19
ENDBRANCH  10  13
BRANCH  12  26
HETATM   26  C   UNL     1      -7.745   9.192  70.500  1.00  0.00    -0.134 C  
HETATM   27  C   UNL     1      -8.045   7.122  73.553  1.00  0.00    -0.109 C  
HETATM   28  C   UNL     1      -6.294   8.822  70.135  1.00  0.00    -0.038 C  
HETATM   29  C   UNL     1      -6.367   6.951  71.798  1.00  0.00    -0.042 C  
HETATM   30  C   UNL     1      -5.575   8.154  71.308  1.00  0.00    -0.033 C  
HETATM   31  O   UNL     1      -7.266   6.583  74.343  1.00  0.00    -0.095 OA 
HETATM   32  N   UNL     1      -7.694   7.383  72.236  1.00  0.00    -0.090 N  
HETATM   33  C   UNL     1      -8.496   8.022  71.174  1.00  0.00    -0.123 C  
BRANCH  27  34
HETATM   34  C   UNL     1      -9.399   7.509  74.031  1.00  0.00    -0.251 C  
HETATM   35  C   UNL     1     -10.438   6.693  73.802  1.00  0.00    -0.357 C  
ENDBRANCH  27  34
ENDBRANCH  12  26
TORSDOF 5
ENDMDL
MODEL      103
REMARK 921   NORMALIZED FREE ENERGY PREDICTED BY IDOCK:   -5.72 KCAL/MOL
REMARK 922        TOTAL FREE ENERGY PREDICTED BY IDOCK:   -7.87 KCAL/MOL
REMARK 923 INTER-LIGAND FREE ENERGY PREDICTED BY IDOCK:   -7.46 KCAL/MOL
REMARK 924 INTRA-LIGAND FREE ENERGY PREDICTED BY IDOCK:   -0.40 KCAL/MOL
REMARK 927      BINDING AFFINITY PREDICTED BY RF-SCORE:    0.00 PKD
ROOT
HETATM    1  N   UNL     1     -12.998  11.623  71.200  1.00  0.00    -0.285 NA 
HETATM    2  C   UNL     1     -12.148  10.614  70.761  1.00  0.00    -0.374 A  
HETATM    3  H1  UNL     1     -12.916  12.501  70.689  1.00  0.00     0.000 HD 
HETATM    4  H2  UNL     1     -12.872  11.781  72.200  1.00  0.00     0.000 HD 
HETATM    5  N   UNL     1     -12.256   9.449  71.438  1.00  0.00    -0.334 NA 
HETATM    6  C   UNL     1     -11.548   8.386  71.022  1.00  0.00    -0.275 A  
HETATM    7  N   UNL     1     -10.735   8.315  69.962  1.00  0.00    -0.240 NA 
HETATM    8  C   UNL     1     -10.632   9.499  69.337  1.00  0.00    -0.219 A  
HETATM    9  C   UNL     1     -11.264  10.692  69.671  1.00  0.00    -0.351 A  
HETATM   10  C   UNL     1     -10.778  11.644  68.704  1.00  0.00    -0.212 A  
HETATM   11  N   UNL     1      -9.970  11.029  67.810  1.00  0.00    -0.171 NA 
HETATM   12  N   UNL     1      -9.901   9.748  68.212  1.00  0.00    -0.145 NA 
ENDROOT
BRANCH  10  13
HETATM   13  C   UNL     1     -11.039  13.093  68.530  1.00  0.00    -0.296 A  
HETATM   14  C   UNL     1     -11.229  13.707  67.286  1.00  0.00    -0.329 A  
HETATM   15  C   UNL     1     -11.439  15.096  67.195  1.00  0.00    -0.254 A  
HETATM   16  C   UNL     1     -11.128  13.914  69.673  1.00  0.00    -0.126 A  
HETATM   17  C   UNL     1     -11.507  15.895  68.343  1.00  0.00    -0.348 A  
HETATM   18  C   UNL     1     -11.359  15.296  69.588  1.00  0.00    -0.304 A  
BRANCH  17  19
HETATM   19  O   UNL     1     -11.620  17.250  68.128  1.00  0.00     0.257 OA 
BRANCH  19  20
HETATM   20  C   UNL     1     -10.513  18.028  67.866  1.00  0.00    -0.396 A  
HETATM   21  C   UNL     1     -10.715  19.153  67.059  1.00  0.00    -0.542 A  
HETATM   22  C   UNL     1      -8.458  19.893  67.496  1.00  0.00    -0.378 A  
HETATM   23  C   UNL     1      -9.278  17.838  68.488  1.00  0.00    -0.281 A  
HETATM   24  C   UNL     1      -9.689  20.081  66.871  1.00  0.00    -0.557 A  
HETATM   25  C   UNL     1      -8.251  18.771  68.297  1.00  0.00    -0.355 A  
ENDBRANCH  19  20
ENDBRANCH  17  19
ENDBRANCH  10  13
BRANCH  12  26
HETATM   26  C   UNL     1      -9.159   8.764  67.425  1.00  0.00    -0.133 C  
HETATM   27  C   UNL     1      -7.025   8.350  64.430  1.00  0.00    -0.073 C  
HETATM   28  C   UNL     1      -8.489   7.697  68.312  1.00  0.00    -0.125 C  
HETATM   29  C   UNL     1      -6.583   7.567  66.692  1.00  0.00    -0.054 C  
HETATM   30  C   UNL     1      -7.601   6.763  67.489  1.00  0.00    -0.106 C  
HETATM   31  O   UNL     1      -6.272   7.479  63.988  1.00  0.00    -0.047 OA 
HETATM   32  N   UNL     1      -7.280   8.480  65.788  1.00  0.00    -0.075 N  
HETATM   33  C   UNL     1      -8.153   9.453  66.475  1.00  0.00    -0.111 C  
BRANCH  27  34
HETATM   34  C   UNL     1      -7.682   9.284  63.477  1.00  0.00    -0.119 C  
HETATM   35  C   UNL     1      -7.049   9.625  62.345  1.00  0.00    -0.109 C  
ENDBRANCH  27  34
ENDBRANCH  12  26
TORSDOF 5
ENDMDL
MODEL      104
REMARK 921   NORMALIZED FREE ENERGY PREDICTED BY IDOCK:   -5.72 KCAL/MOL
REMARK 922        TOTAL FREE ENERGY PREDICTED BY IDOCK:   -7.87 KCAL/MOL
REMARK 923 INTER-LIGAND FREE ENERGY PREDICTED BY IDOCK:   -7.12 KCAL/MOL
REMARK 924 INTRA-LIGAND FREE ENERGY PREDICTED BY IDOCK:   -0.74 KCAL/MOL
REMARK 927      BINDING AFFINITY PREDICTED BY RF-SCORE:    0.00 PKD
ROOT
HETATM    1  N   UNL     1      -6.128  12.437  70.702  1.00  0.00    -0.524 NA 
HETATM    2  C   UNL     1      -6.496  11.210  70.163  1.00  0.00    -0.103 A  
HETATM    3  H1  UNL     1      -6.388  13.246  70.139  1.00  0.00     0.000 HD 
HETATM    4  H2  UNL     1      -5.127  12.450  70.901  1.00  0.00     0.000 HD 
HETATM    5  N   UNL     1      -6.151  10.137  70.910  1.00  0.00    -0.222 NA 
HETATM    6  C   UNL     1      -6.553   8.916  70.519  1.00  0.00    -0.049 A  
HETATM    7  N   UNL     1      -7.306   8.609  69.458  1.00  0.00    -0.066 NA 
HETATM    8  C   UNL     1      -7.600   9.696  68.727  1.00  0.00    -0.076 A  
HETATM    9  C   UNL     1      -7.224  11.012  68.977  1.00  0.00    -0.111 A  
HETATM   10  C   UNL     1      -7.769  11.761  67.873  1.00  0.00    -0.125 A  
HETATM   11  N   UNL     1      -8.487  10.947  67.066  1.00  0.00    -0.132 NA 
HETATM   12  N   UNL     1      -8.370   9.718  67.601  1.00  0.00    -0.114 NA 
ENDROOT
BRANCH  10  13
HETATM   13  C   UNL     1      -7.697  13.201  67.527  1.00  0.00    -0.168 A  
HETATM   14  C   UNL     1      -6.540  13.978  67.666  1.00  0.00    -0.175 A  
HETATM   15  C   UNL     1      -6.554  15.350  67.349  1.00  0.00    -0.150 A  
HETATM   16  C   UNL     1      -8.841  13.837  67.004  1.00  0.00    -0.230 A  
HETATM   17  C   UNL     1      -7.708  15.966  66.847  1.00  0.00    -0.233 A  
HETATM   18  C   UNL     1      -8.853  15.200  66.667  1.00  0.00    -0.321 A  
BRANCH  17  19
HETATM   19  O   UNL     1      -7.633  17.328  66.664  1.00  0.00    -0.205 OA 
BRANCH  19  20
HETATM   20  C   UNL     1      -8.638  18.164  67.098  1.00  0.00    -0.247 A  
HETATM   21  C   UNL     1      -8.837  18.238  68.481  1.00  0.00    -0.322 A  
HETATM   22  C   UNL     1     -10.408  20.047  68.175  1.00  0.00    -0.503 A  
HETATM   23  C   UNL     1      -9.328  19.036  66.254  1.00  0.00    -0.319 A  
HETATM   24  C   UNL     1      -9.723  19.174  69.018  1.00  0.00    -0.420 A  
HETATM   25  C   UNL     1     -10.216  19.974  66.796  1.00  0.00    -0.592 A  
ENDBRANCH  19  20
ENDBRANCH  17  19
ENDBRANCH  10  13
BRANCH  12  26
HETATM   26  C   UNL     1      -9.089   8.586  67.020  1.00  0.00    -0.143 C  
HETATM   27  C   UNL     1      -8.637   5.370  65.245  1.00  0.00    -0.151 C  
HETATM   28  C   UNL     1     -10.328   8.197  67.849  1.00  0.00    -0.280 C  
HETATM   29  C   UNL     1      -9.968   5.795  67.238  1.00  0.00    -0.154 C  
HETATM   30  C   UNL     1     -10.985   6.925  67.312  1.00  0.00    -0.406 C  
HETATM   31  O   UNL     1      -9.337   4.386  64.995  1.00  0.00    -0.153 OA 
HETATM   32  N   UNL     1      -8.874   6.179  66.347  1.00  0.00    -0.137 N  
HETATM   33  C   UNL     1      -8.143   7.386  66.782  1.00  0.00    -0.123 C  
BRANCH  27  34
HETATM   34  C   UNL     1      -7.509   5.700  64.334  1.00  0.00    -0.073 C  
HETATM   35  C   UNL     1      -7.758   6.330  63.177  1.00  0.00    -0.098 C  
ENDBRANCH  27  34
ENDBRANCH  12  26
TORSDOF 5
ENDMDL
MODEL      105
REMARK 921   NORMALIZED FREE ENERGY PREDICTED BY IDOCK:   -5.72 KCAL/MOL
REMARK 922        TOTAL FREE ENERGY PREDICTED BY IDOCK:   -7.86 KCAL/MOL
REMARK 923 INTER-LIGAND FREE ENERGY PREDICTED BY IDOCK:   -7.21 KCAL/MOL
REMARK 924 INTRA-LIGAND FREE ENERGY PREDICTED BY IDOCK:   -0.65 KCAL/MOL
REMARK 927      BINDING AFFINITY PREDICTED BY RF-SCORE:    0.00 PKD
ROOT
HETATM    1  N   UNL     1      -8.831   9.798  64.917  1.00  0.00    -0.182 NA 
HETATM    2  C   UNL     1      -9.155  10.458  66.097  1.00  0.00    -0.160 A  
HETATM    3  H1  UNL     1      -8.956   8.786  64.947  1.00  0.00     0.000 HD 
HETATM    4  H2  UNL     1      -7.878  10.029  64.632  1.00  0.00     0.000 HD 
HETATM    5  N   UNL     1      -8.989  11.799  66.058  1.00  0.00    -0.158 NA 
HETATM    6  C   UNL     1      -9.371  12.533  67.116  1.00  0.00    -0.201 A  
HETATM    7  N   UNL     1      -9.946  12.098  68.242  1.00  0.00    -0.208 NA 
HETATM    8  C   UNL     1     -10.063  10.760  68.254  1.00  0.00    -0.171 A  
HETATM    9  C   UNL     1      -9.679   9.867  67.259  1.00  0.00    -0.213 A  
HETATM   10  C   UNL     1      -9.995   8.567  67.795  1.00  0.00    -0.190 A  
HETATM   11  N   UNL     1     -10.600   8.694  68.999  1.00  0.00    -0.198 NA 
HETATM   12  N   UNL     1     -10.629  10.016  69.248  1.00  0.00    -0.213 NA 
ENDROOT
BRANCH  10  13
HETATM   13  C   UNL     1      -9.802   7.203  67.251  1.00  0.00    -0.217 A  
HETATM   14  C   UNL     1     -10.855   6.346  66.903  1.00  0.00    -0.428 A  
HETATM   15  C   UNL     1     -10.596   5.049  66.422  1.00  0.00    -0.317 A  
HETATM   16  C   UNL     1      -8.491   6.729  67.039  1.00  0.00    -0.114 A  
HETATM   17  C   UNL     1      -9.285   4.593  66.236  1.00  0.00    -0.135 A  
HETATM   18  C   UNL     1      -8.229   5.444  66.540  1.00  0.00    -0.109 A  
BRANCH  17  19
HETATM   19  O   UNL     1      -9.152   3.277  65.853  1.00  0.00    -0.142 OA 
BRANCH  19  20
HETATM   20  C   UNL     1      -8.474   2.931  64.705  1.00  0.00    -0.091 A  
HETATM   21  C   UNL     1      -7.206   2.364  64.874  1.00  0.00    -0.058 A  
HETATM   22  C   UNL     1      -7.091   1.873  62.511  1.00  0.00    -0.031 A  
HETATM   23  C   UNL     1      -9.049   2.969  63.433  1.00  0.00    -0.095 A  
HETATM   24  C   UNL     1      -6.514   1.840  63.780  1.00  0.00    -0.014 A  
HETATM   25  C   UNL     1      -8.352   2.442  62.338  1.00  0.00    -0.073 A  
ENDBRANCH  19  20
ENDBRANCH  17  19
ENDBRANCH  10  13
BRANCH  12  26
HETATM   26  C   UNL     1     -11.287  10.529  70.448  1.00  0.00    -0.328 C  
HETATM   27  C   UNL     1     -12.955  13.504  71.884  1.00  0.00    -0.337 C  
HETATM   28  C   UNL     1     -12.136   9.451  71.150  1.00  0.00    -0.406 C  
HETATM   29  C   UNL     1     -13.775  11.213  71.845  1.00  0.00     0.189 C  
HETATM   30  C   UNL     1     -12.931  10.037  72.317  1.00  0.00    -0.356 C  
HETATM   31  O   UNL     1     -13.672  13.738  72.860  1.00  0.00    -0.684 OA 
HETATM   32  N   UNL     1     -12.905  12.250  71.293  1.00  0.00    -0.312 N  
HETATM   33  C   UNL     1     -12.102  11.805  70.136  1.00  0.00    -0.317 C  
BRANCH  27  34
HETATM   34  C   UNL     1     -12.116  14.600  71.330  1.00  0.00    -0.410 C  
HETATM   35  C   UNL     1     -12.343  15.865  71.715  1.00  0.00    -0.533 C  
ENDBRANCH  27  34
ENDBRANCH  12  26
TORSDOF 5
ENDMDL
MODEL      106
REMARK 921   NORMALIZED FREE ENERGY PREDICTED BY IDOCK:   -5.71 KCAL/MOL
REMARK 922        TOTAL FREE ENERGY PREDICTED BY IDOCK:   -7.85 KCAL/MOL
REMARK 923 INTER-LIGAND FREE ENERGY PREDICTED BY IDOCK:   -7.20 KCAL/MOL
REMARK 924 INTRA-LIGAND FREE ENERGY PREDICTED BY IDOCK:   -0.64 KCAL/MOL
REMARK 927      BINDING AFFINITY PREDICTED BY RF-SCORE:    0.00 PKD
ROOT
HETATM    1  N   UNL     1     -10.227   9.619  64.595  1.00  0.00    -0.142 NA 
HETATM    2  C   UNL     1     -10.110  10.963  64.930  1.00  0.00    -0.312 A  
HETATM    3  H1  UNL     1     -10.053   8.971  65.363  1.00  0.00     0.000 HD 
HETATM    4  H2  UNL     1      -9.624   9.398  63.801  1.00  0.00     0.000 HD 
HETATM    5  N   UNL     1     -10.341  11.821  63.911  1.00  0.00    -0.345 NA 
HETATM    6  C   UNL     1     -10.349  13.141  64.162  1.00  0.00    -0.263 A  
HETATM    7  N   UNL     1     -10.181  13.745  65.343  1.00  0.00    -0.328 NA 
HETATM    8  C   UNL     1      -9.924  12.861  66.320  1.00  0.00    -0.270 A  
HETATM    9  C   UNL     1      -9.841  11.477  66.210  1.00  0.00    -0.245 A  
HETATM   10  C   UNL     1      -9.510  11.025  67.538  1.00  0.00    -0.163 A  
HETATM   11  N   UNL     1      -9.477  12.074  68.392  1.00  0.00    -0.200 NA 
HETATM   12  N   UNL     1      -9.729  13.158  67.637  1.00  0.00    -0.207 NA 
ENDROOT
BRANCH  10  13
HETATM   13  C   UNL     1      -9.250   9.672  68.083  1.00  0.00    -0.130 A  
HETATM   14  C   UNL     1     -10.182   8.941  68.832  1.00  0.00    -0.220 A  
HETATM   15  C   UNL     1      -9.853   7.673  69.347  1.00  0.00    -0.171 A  
HETATM   16  C   UNL     1      -8.009   9.056  67.823  1.00  0.00    -0.101 A  
HETATM   17  C   UNL     1      -8.607   7.087  69.090  1.00  0.00    -0.133 A  
HETATM   18  C   UNL     1      -7.685   7.783  68.317  1.00  0.00    -0.119 A  
BRANCH  17  19
HETATM   19  O   UNL     1      -8.362   5.890  69.723  1.00  0.00    -0.120 OA 
BRANCH  19  20
HETATM   20  C   UNL     1      -8.821   5.647  70.999  1.00  0.00    -0.137 A  
HETATM   21  C   UNL     1      -8.236   6.395  72.027  1.00  0.00    -0.109 A  
HETATM   22  C   UNL     1      -9.850   5.525  73.601  1.00  0.00    -0.174 A  
HETATM   23  C   UNL     1      -9.923   4.837  71.277  1.00  0.00    -0.270 A  
HETATM   24  C   UNL     1      -8.746   6.331  73.326  1.00  0.00    -0.125 A  
HETATM   25  C   UNL     1     -10.432   4.775  72.580  1.00  0.00    -0.260 A  
ENDBRANCH  19  20
ENDBRANCH  17  19
ENDBRANCH  10  13
BRANCH  12  26
HETATM   26  C   UNL     1      -9.844  14.479  68.254  1.00  0.00    -0.229 C  
HETATM   27  C   UNL     1      -8.293  17.836  68.407  1.00  0.00    -0.295 C  
HETATM   28  C   UNL     1     -11.313  14.917  68.419  1.00  0.00    -0.320 C  
HETATM   29  C   UNL     1     -10.635  17.295  68.021  1.00  0.00    -0.394 C  
HETATM   30  C   UNL     1     -11.414  16.355  68.930  1.00  0.00    -0.216 C  
HETATM   31  O   UNL     1      -8.624  18.951  68.816  1.00  0.00    -0.345 OA 
HETATM   32  N   UNL     1      -9.228  16.897  67.995  1.00  0.00    -0.230 N  
HETATM   33  C   UNL     1      -9.003  15.527  67.491  1.00  0.00    -0.189 C  
BRANCH  27  34
HETATM   34  C   UNL     1      -6.848  17.487  68.360  1.00  0.00    -0.197 C  
HETATM   35  C   UNL     1      -6.220  17.121  69.487  1.00  0.00    -0.242 C  
ENDBRANCH  27  34
ENDBRANCH  12  26
TORSDOF 5
ENDMDL
MODEL      107
REMARK 921   NORMALIZED FREE ENERGY PREDICTED BY IDOCK:   -5.70 KCAL/MOL
REMARK 922        TOTAL FREE ENERGY PREDICTED BY IDOCK:   -7.83 KCAL/MOL
REMARK 923 INTER-LIGAND FREE ENERGY PREDICTED BY IDOCK:   -6.69 KCAL/MOL
REMARK 924 INTRA-LIGAND FREE ENERGY PREDICTED BY IDOCK:   -1.15 KCAL/MOL
REMARK 927      BINDING AFFINITY PREDICTED BY RF-SCORE:    0.00 PKD
ROOT
HETATM    1  N   UNL     1      -7.833  10.414  63.452  1.00  0.00    -0.268 NA 
HETATM    2  C   UNL     1      -8.115   9.223  64.112  1.00  0.00    -0.145 A  
HETATM    3  H1  UNL     1      -8.258  11.243  63.869  1.00  0.00     0.000 HD 
HETATM    4  H2  UNL     1      -8.089  10.342  62.467  1.00  0.00     0.000 HD 
HETATM    5  N   UNL     1      -7.552   8.125  63.560  1.00  0.00    -0.128 NA 
HETATM    6  C   UNL     1      -7.685   6.942  64.183  1.00  0.00    -0.116 A  
HETATM    7  N   UNL     1      -8.302   6.700  65.344  1.00  0.00    -0.141 NA 
HETATM    8  C   UNL     1      -8.873   7.809  65.842  1.00  0.00    -0.142 A  
HETATM    9  C   UNL     1      -8.860   9.088  65.296  1.00  0.00    -0.234 A  
HETATM   10  C   UNL     1      -9.645   9.882  66.207  1.00  0.00    -0.209 A  
HETATM   11  N   UNL     1     -10.031   9.131  67.265  1.00  0.00    -0.195 NA 
HETATM   12  N   UNL     1      -9.555   7.897  67.021  1.00  0.00    -0.177 NA 
ENDROOT
BRANCH  10  13
HETATM   13  C   UNL     1     -10.040  11.310  66.182  1.00  0.00    -0.279 A  
HETATM   14  C   UNL     1      -9.174  12.364  66.498  1.00  0.00    -0.215 A  
HETATM   15  C   UNL     1      -9.629  13.696  66.486  1.00  0.00    -0.294 A  
HETATM   16  C   UNL     1     -11.354  11.650  65.797  1.00  0.00    -0.244 A  
HETATM   17  C   UNL     1     -10.943  14.009  66.116  1.00  0.00    -0.295 A  
HETATM   18  C   UNL     1     -11.805  12.978  65.763  1.00  0.00    -0.453 A  
BRANCH  17  19
HETATM   19  O   UNL     1     -11.303  15.333  66.232  1.00  0.00    -0.280 OA 
BRANCH  19  20
HETATM   20  C   UNL     1     -11.033  16.050  67.378  1.00  0.00    -0.237 A  
HETATM   21  C   UNL     1     -11.503  15.509  68.580  1.00  0.00    -0.369 A  
HETATM   22  C   UNL     1     -10.302  17.193  69.827  1.00  0.00     0.099 A  
HETATM   23  C   UNL     1     -10.195  17.166  67.405  1.00  0.00    -0.321 A  
HETATM   24  C   UNL     1     -11.142  16.082  69.801  1.00  0.00    -0.337 A  
HETATM   25  C   UNL     1      -9.835  17.738  68.631  1.00  0.00    -0.359 A  
ENDBRANCH  19  20
ENDBRANCH  17  19
ENDBRANCH  10  13
BRANCH  12  26
HETATM   26  C   UNL     1      -9.725   6.830  68.006  1.00  0.00    -0.124 C  
HETATM   27  C   UNL     1      -7.914   4.717  70.446  1.00  0.00    -0.065 C  
HETATM   28  C   UNL     1     -11.049   6.964  68.783  1.00  0.00    -0.163 C  
HETATM   29  C   UNL     1      -9.933   6.025  70.819  1.00  0.00    -0.191 C  
HETATM   30  C   UNL     1     -11.146   5.929  69.905  1.00  0.00    -0.417 C  
HETATM   31  O   UNL     1      -8.222   3.984  71.388  1.00  0.00    -0.074 OA 
HETATM   32  N   UNL     1      -8.717   5.776  70.047  1.00  0.00    -0.130 N  
HETATM   33  C   UNL     1      -8.501   6.736  68.945  1.00  0.00    -0.120 C  
BRANCH  27  34
HETATM   34  C   UNL     1      -6.647   4.453  69.713  1.00  0.00    -0.033 C  
HETATM   35  C   UNL     1      -6.160   3.204  69.666  1.00  0.00    -0.024 C  
ENDBRANCH  27  34
ENDBRANCH  12  26
TORSDOF 5
ENDMDL
MODEL      108
REMARK 921   NORMALIZED FREE ENERGY PREDICTED BY IDOCK:   -5.65 KCAL/MOL
REMARK 922        TOTAL FREE ENERGY PREDICTED BY IDOCK:   -7.78 KCAL/MOL
REMARK 923 INTER-LIGAND FREE ENERGY PREDICTED BY IDOCK:   -6.58 KCAL/MOL
REMARK 924 INTRA-LIGAND FREE ENERGY PREDICTED BY IDOCK:   -1.20 KCAL/MOL
REMARK 927      BINDING AFFINITY PREDICTED BY RF-SCORE:    0.00 PKD
ROOT
HETATM    1  N   UNL     1      -6.974  11.875  70.031  1.00  0.00    -0.358 NA 
HETATM    2  C   UNL     1      -6.767  10.567  69.609  1.00  0.00    -0.108 A  
HETATM    3  H1  UNL     1      -7.728  12.365  69.550  1.00  0.00     0.000 HD 
HETATM    4  H2  UNL     1      -6.106  12.409  69.966  1.00  0.00     0.000 HD 
HETATM    5  N   UNL     1      -5.768   9.918  70.247  1.00  0.00    -0.046 NA 
HETATM    6  C   UNL     1      -5.560   8.619  69.978  1.00  0.00    -0.028 A  
HETATM    7  N   UNL     1      -6.259   7.838  69.146  1.00  0.00    -0.035 NA 
HETATM    8  C   UNL     1      -7.220   8.528  68.511  1.00  0.00    -0.081 A  
HETATM    9  C   UNL     1      -7.529   9.876  68.650  1.00  0.00    -0.075 A  
HETATM   10  C   UNL     1      -8.607  10.101  67.720  1.00  0.00    -0.118 A  
HETATM   11  N   UNL     1      -8.961   8.937  67.127  1.00  0.00    -0.126 NA 
HETATM   12  N   UNL     1      -8.116   8.013  67.619  1.00  0.00    -0.122 NA 
ENDROOT
BRANCH  10  13
HETATM   13  C   UNL     1      -9.361  11.326  67.362  1.00  0.00    -0.168 A  
HETATM   14  C   UNL     1      -8.769  12.475  66.821  1.00  0.00    -0.147 A  
HETATM   15  C   UNL     1      -9.544  13.615  66.536  1.00  0.00    -0.294 A  
HETATM   16  C   UNL     1     -10.759  11.347  67.545  1.00  0.00    -0.266 A  
HETATM   17  C   UNL     1     -10.930  13.620  66.742  1.00  0.00    -0.292 A  
HETATM   18  C   UNL     1     -11.537  12.474  67.242  1.00  0.00    -0.434 A  
BRANCH  17  19
HETATM   19  O   UNL     1     -11.568  14.818  66.519  1.00  0.00    -0.355 OA 
BRANCH  19  20
HETATM   20  C   UNL     1     -11.009  16.012  66.920  1.00  0.00    -0.124 A  
HETATM   21  C   UNL     1     -10.659  16.911  65.906  1.00  0.00    -0.239 A  
HETATM   22  C   UNL     1     -10.166  18.606  67.555  1.00  0.00    -0.425 A  
HETATM   23  C   UNL     1     -10.936  16.415  68.254  1.00  0.00    -0.355 A  
HETATM   24  C   UNL     1     -10.234  18.203  66.222  1.00  0.00    -0.401 A  
HETATM   25  C   UNL     1     -10.509  17.712  68.568  1.00  0.00    -0.337 A  
ENDBRANCH  19  20
ENDBRANCH  17  19
ENDBRANCH  10  13
BRANCH  12  26
HETATM   26  C   UNL     1      -8.259   6.607  67.247  1.00  0.00    -0.121 C  
HETATM   27  C   UNL     1      -9.351   3.296  68.489  1.00  0.00    -0.174 C  
HETATM   28  C   UNL     1      -8.697   6.437  65.779  1.00  0.00    -0.135 C  
HETATM   29  C   UNL     1     -10.001   4.397  66.418  1.00  0.00    -0.232 C  
HETATM   30  C   UNL     1      -8.981   4.972  65.446  1.00  0.00    -0.152 C  
HETATM   31  O   UNL     1      -9.623   2.203  67.987  1.00  0.00    -0.199 OA 
HETATM   32  N   UNL     1      -9.481   4.483  67.782  1.00  0.00    -0.147 N  
HETATM   33  C   UNL     1      -9.192   5.861  68.227  1.00  0.00    -0.117 C  
BRANCH  27  34
HETATM   34  C   UNL     1      -8.862   3.341  69.893  1.00  0.00    -0.150 C  
HETATM   35  C   UNL     1      -9.531   2.676  70.847  1.00  0.00    -0.221 C  
ENDBRANCH  27  34
ENDBRANCH  12  26
TORSDOF 5
ENDMDL
MODEL      109
REMARK 921   NORMALIZED FREE ENERGY PREDICTED BY IDOCK:   -5.62 KCAL/MOL
REMARK 922        TOTAL FREE ENERGY PREDICTED BY IDOCK:   -7.74 KCAL/MOL
REMARK 923 INTER-LIGAND FREE ENERGY PREDICTED BY IDOCK:   -6.89 KCAL/MOL
REMARK 924 INTRA-LIGAND FREE ENERGY PREDICTED BY IDOCK:   -0.84 KCAL/MOL
REMARK 927      BINDING AFFINITY PREDICTED BY RF-SCORE:    0.00 PKD
ROOT
HETATM    1  N   UNL     1      -6.696  12.074  69.964  1.00  0.00    -0.392 NA 
HETATM    2  C   UNL     1      -6.852  10.692  69.939  1.00  0.00    -0.149 A  
HETATM    3  H1  UNL     1      -7.424  12.593  69.474  1.00  0.00     0.000 HD 
HETATM    4  H2  UNL     1      -5.775  12.333  69.609  1.00  0.00     0.000 HD 
HETATM    5  N   UNL     1      -5.887  10.003  70.589  1.00  0.00    -0.077 NA 
HETATM    6  C   UNL     1      -6.006   8.670  70.704  1.00  0.00    -0.032 A  
HETATM    7  N   UNL     1      -7.010   7.902  70.267  1.00  0.00    -0.048 NA 
HETATM    8  C   UNL     1      -7.929   8.620  69.602  1.00  0.00    -0.096 A  
HETATM    9  C   UNL     1      -7.926   9.990  69.365  1.00  0.00    -0.145 A  
HETATM   10  C   UNL     1      -9.113  10.227  68.582  1.00  0.00    -0.152 A  
HETATM   11  N   UNL     1      -9.812   9.078  68.436  1.00  0.00    -0.161 NA 
HETATM   12  N   UNL     1      -9.082   8.134  69.056  1.00  0.00    -0.148 NA 
ENDROOT
BRANCH  10  13
HETATM   13  C   UNL     1      -9.667  11.464  67.982  1.00  0.00    -0.190 A  
HETATM   14  C   UNL     1      -9.042  12.177  66.951  1.00  0.00    -0.203 A  
HETATM   15  C   UNL     1      -9.611  13.365  66.452  1.00  0.00    -0.265 A  
HETATM   16  C   UNL     1     -10.906  11.953  68.444  1.00  0.00    -0.263 A  
HETATM   17  C   UNL     1     -10.835  13.842  66.938  1.00  0.00    -0.285 A  
HETATM   18  C   UNL     1     -11.487  13.125  67.934  1.00  0.00    -0.346 A  
BRANCH  17  19
HETATM   19  O   UNL     1     -11.246  15.059  66.445  1.00  0.00    -0.342 OA 
BRANCH  19  20
HETATM   20  C   UNL     1     -10.758  16.241  66.958  1.00  0.00    -0.233 A  
HETATM   21  C   UNL     1     -10.408  17.228  66.031  1.00  0.00    -0.312 A  
HETATM   22  C   UNL     1     -10.058  18.811  67.822  1.00  0.00    -0.417 A  
HETATM   23  C   UNL     1     -10.757  16.543  68.321  1.00  0.00    -0.345 A  
HETATM   24  C   UNL     1     -10.055  18.509  66.461  1.00  0.00    -0.425 A  
HETATM   25  C   UNL     1     -10.402  17.828  68.749  1.00  0.00    -0.332 A  
ENDBRANCH  19  20
ENDBRANCH  17  19
ENDBRANCH  10  13
BRANCH  12  26
HETATM   26  C   UNL     1      -9.579   6.763  69.160  1.00  0.00    -0.139 C  
HETATM   27  C   UNL     1      -9.452   3.425  67.568  1.00  0.00    -0.180 C  
HETATM   28  C   UNL     1      -9.691   6.295  70.624  1.00  0.00    -0.199 C  
HETATM   29  C   UNL     1      -9.093   3.969  69.912  1.00  0.00    -0.117 C  
HETATM   30  C   UNL     1     -10.073   4.817  70.711  1.00  0.00    -0.286 C  
HETATM   31  O   UNL     1      -9.759   2.274  67.888  1.00  0.00    -0.104 OA 
HETATM   32  N   UNL     1      -9.116   4.385  68.511  1.00  0.00    -0.116 N  
HETATM   33  C   UNL     1      -8.735   5.796  68.298  1.00  0.00    -0.111 C  
BRANCH  27  34
HETATM   34  C   UNL     1      -9.450   3.793  66.127  1.00  0.00    -0.184 C  
HETATM   35  C   UNL     1      -8.387   3.487  65.369  1.00  0.00    -0.098 C  
ENDBRANCH  27  34
ENDBRANCH  12  26
TORSDOF 5
ENDMDL
MODEL      110
REMARK 921   NORMALIZED FREE ENERGY PREDICTED BY IDOCK:   -5.60 KCAL/MOL
REMARK 922        TOTAL FREE ENERGY PREDICTED BY IDOCK:   -7.71 KCAL/MOL
REMARK 923 INTER-LIGAND FREE ENERGY PREDICTED BY IDOCK:   -7.91 KCAL/MOL
REMARK 924 INTRA-LIGAND FREE ENERGY PREDICTED BY IDOCK:    0.19 KCAL/MOL
REMARK 927      BINDING AFFINITY PREDICTED BY RF-SCORE:    0.00 PKD
ROOT
HETATM    1  N   UNL     1     -10.820  12.056  63.355  1.00  0.00    -0.590 NA 
HETATM    2  C   UNL     1     -11.116  12.451  64.655  1.00  0.00    -0.307 A  
HETATM    3  H1  UNL     1     -10.153  11.288  63.284  1.00  0.00     0.000 HD 
HETATM    4  H2  UNL     1     -10.501  12.856  62.807  1.00  0.00     0.000 HD 
HETATM    5  N   UNL     1     -12.000  13.469  64.749  1.00  0.00    -0.372 NA 
HETATM    6  C   UNL     1     -12.424  13.852  65.965  1.00  0.00    -0.461 A  
HETATM    7  N   UNL     1     -12.094  13.319  67.147  1.00  0.00    -0.340 NA 
HETATM    8  C   UNL     1     -11.191  12.334  67.011  1.00  0.00    -0.310 A  
HETATM    9  C   UNL     1     -10.631  11.855  65.832  1.00  0.00    -0.306 A  
HETATM   10  C   UNL     1      -9.707  10.834  66.257  1.00  0.00    -0.205 A  
HETATM   11  N   UNL     1      -9.778  10.670  67.598  1.00  0.00    -0.164 NA 
HETATM   12  N   UNL     1     -10.674  11.579  68.023  1.00  0.00    -0.192 NA 
ENDROOT
BRANCH  10  13
HETATM   13  C   UNL     1      -8.775   9.968  65.496  1.00  0.00    -0.171 A  
HETATM   14  C   UNL     1      -8.938   9.649  64.141  1.00  0.00    -0.269 A  
HETATM   15  C   UNL     1      -8.031   8.792  63.491  1.00  0.00    -0.158 A  
HETATM   16  C   UNL     1      -7.640   9.445  66.148  1.00  0.00    -0.096 A  
HETATM   17  C   UNL     1      -6.919   8.269  64.163  1.00  0.00    -0.077 A  
HETATM   18  C   UNL     1      -6.721   8.607  65.497  1.00  0.00    -0.063 A  
BRANCH  17  19
HETATM   19  O   UNL     1      -6.155   7.368  63.456  1.00  0.00    -0.047 OA 
BRANCH  19  20
HETATM   20  C   UNL     1      -6.425   6.018  63.493  1.00  0.00    -0.029 A  
HETATM   21  C   UNL     1      -5.721   5.214  62.589  1.00  0.00    -0.014 A  
HETATM   22  C   UNL     1      -6.601   3.227  63.643  1.00  0.00    -0.031 A  
HETATM   23  C   UNL     1      -7.219   5.420  64.473  1.00  0.00    -0.055 A  
HETATM   24  C   UNL     1      -5.812   3.822  62.661  1.00  0.00    -0.013 A  
HETATM   25  C   UNL     1      -7.308   4.024  64.542  1.00  0.00    -0.071 A  
ENDBRANCH  19  20
ENDBRANCH  17  19
ENDBRANCH  10  13
BRANCH  12  26
HETATM   26  C   UNL     1     -11.060  11.636  69.432  1.00  0.00    -0.206 C  
HETATM   27  C   UNL     1     -12.986  13.595  71.912  1.00  0.00    -0.341 C  
HETATM   28  C   UNL     1     -11.321  10.236  70.019  1.00  0.00    -0.370 C  
HETATM   29  C   UNL     1     -13.102  11.200  71.492  1.00  0.00    -0.385 C  
HETATM   30  C   UNL     1     -11.861  10.320  71.448  1.00  0.00    -0.371 C  
HETATM   31  O   UNL     1     -13.413  13.410  73.054  1.00  0.00    -0.537 OA 
HETATM   32  N   UNL     1     -12.765  12.546  71.031  1.00  0.00    -0.291 N  
HETATM   33  C   UNL     1     -12.254  12.593  69.646  1.00  0.00    -0.114 C  
BRANCH  27  34
HETATM   34  C   UNL     1     -12.694  14.985  71.470  1.00  0.00    -0.414 C  
HETATM   35  C   UNL     1     -12.618  15.965  72.382  1.00  0.00    -0.539 C  
ENDBRANCH  27  34
ENDBRANCH  12  26
TORSDOF 5
ENDMDL
MODEL      111
REMARK 921   NORMALIZED FREE ENERGY PREDICTED BY IDOCK:   -5.54 KCAL/MOL
REMARK 922        TOTAL FREE ENERGY PREDICTED BY IDOCK:   -7.63 KCAL/MOL
REMARK 923 INTER-LIGAND FREE ENERGY PREDICTED BY IDOCK:   -6.79 KCAL/MOL
REMARK 924 INTRA-LIGAND FREE ENERGY PREDICTED BY IDOCK:   -0.84 KCAL/MOL
REMARK 927      BINDING AFFINITY PREDICTED BY RF-SCORE:    0.00 PKD
ROOT
HETATM    1  N   UNL     1      -9.367   8.820  70.549  1.00  0.00    -0.174 NA 
HETATM    2  C   UNL     1      -8.705   7.786  69.897  1.00  0.00    -0.142 A  
HETATM    3  H1  UNL     1      -9.885   9.449  69.935  1.00  0.00     0.000 HD 
HETATM    4  H2  UNL     1      -8.714   9.349  71.128  1.00  0.00     0.000 HD 
HETATM    5  N   UNL     1      -8.019   6.953  70.711  1.00  0.00    -0.104 NA 
HETATM    6  C   UNL     1      -7.430   5.867  70.183  1.00  0.00    -0.082 A  
HETATM    7  N   UNL     1      -7.458   5.466  68.907  1.00  0.00    -0.074 NA 
HETATM    8  C   UNL     1      -8.122   6.336  68.129  1.00  0.00    -0.115 A  
HETATM    9  C   UNL     1      -8.745   7.517  68.518  1.00  0.00    -0.128 A  
HETATM   10  C   UNL     1      -9.266   8.074  67.295  1.00  0.00    -0.139 A  
HETATM   11  N   UNL     1      -9.031   7.232  66.263  1.00  0.00    -0.158 NA 
HETATM   12  N   UNL     1      -8.347   6.201  66.790  1.00  0.00    -0.109 NA 
ENDROOT
BRANCH  10  13
HETATM   13  C   UNL     1     -10.003   9.330  67.019  1.00  0.00    -0.286 A  
HETATM   14  C   UNL     1     -10.860   9.949  67.938  1.00  0.00    -0.312 A  
HETATM   15  C   UNL     1     -11.554  11.124  67.594  1.00  0.00    -0.266 A  
HETATM   16  C   UNL     1      -9.824   9.968  65.775  1.00  0.00    -0.345 A  
HETATM   17  C   UNL     1     -11.374  11.732  66.344  1.00  0.00    -0.297 A  
HETATM   18  C   UNL     1     -10.498  11.152  65.436  1.00  0.00    -0.321 A  
BRANCH  17  19
HETATM   19  O   UNL     1     -12.175  12.821  66.083  1.00  0.00    -0.521 OA 
BRANCH  19  20
HETATM   20  C   UNL     1     -11.738  14.105  66.326  1.00  0.00    -0.390 A  
HETATM   21  C   UNL     1     -11.817  14.554  67.649  1.00  0.00    -0.395 A  
HETATM   22  C   UNL     1     -10.600  16.556  67.061  1.00  0.00    -0.255 A  
HETATM   23  C   UNL     1     -11.087  14.887  65.370  1.00  0.00    -0.366 A  
HETATM   24  C   UNL     1     -11.254  15.778  68.015  1.00  0.00    -0.338 A  
HETATM   25  C   UNL     1     -10.523  16.115  65.741  1.00  0.00    -0.384 A  
ENDBRANCH  19  20
ENDBRANCH  17  19
ENDBRANCH  10  13
BRANCH  12  26
HETATM   26  C   UNL     1      -7.984   5.052  65.961  1.00  0.00    -0.107 C  
HETATM   27  C   UNL     1      -9.177   2.862  63.227  1.00  0.00    -0.094 C  
HETATM   28  C   UNL     1      -6.487   5.049  65.597  1.00  0.00    -0.036 C  
HETATM   29  C   UNL     1      -7.041   4.019  63.382  1.00  0.00    -0.045 C  
HETATM   30  C   UNL     1      -6.152   3.926  64.614  1.00  0.00    -0.023 C  
HETATM   31  O   UNL     1      -8.670   2.041  62.459  1.00  0.00    -0.072 OA 
HETATM   32  N   UNL     1      -8.444   3.902  63.780  1.00  0.00    -0.092 N  
HETATM   33  C   UNL     1      -8.891   4.955  64.713  1.00  0.00    -0.147 C  
BRANCH  27  34
HETATM   34  C   UNL     1     -10.618   2.728  63.574  1.00  0.00    -0.213 C  
HETATM   35  C   UNL     1     -11.365   1.810  62.944  1.00  0.00    -0.261 C  
ENDBRANCH  27  34
ENDBRANCH  12  26
TORSDOF 5
ENDMDL
MODEL      112
REMARK 921   NORMALIZED FREE ENERGY PREDICTED BY IDOCK:   -5.52 KCAL/MOL
REMARK 922        TOTAL FREE ENERGY PREDICTED BY IDOCK:   -7.61 KCAL/MOL
REMARK 923 INTER-LIGAND FREE ENERGY PREDICTED BY IDOCK:   -7.76 KCAL/MOL
REMARK 924 INTRA-LIGAND FREE ENERGY PREDICTED BY IDOCK:    0.15 KCAL/MOL
REMARK 927      BINDING AFFINITY PREDICTED BY RF-SCORE:    0.00 PKD
ROOT
HETATM    1  N   UNL     1     -11.388   5.390  73.403  1.00  0.00    -0.494 NA 
HETATM    2  C   UNL     1     -10.644   4.942  72.318  1.00  0.00    -0.185 A  
HETATM    3  H1  UNL     1     -11.821   6.304  73.274  1.00  0.00     0.000 HD 
HETATM    4  H2  UNL     1     -10.817   5.384  74.250  1.00  0.00     0.000 HD 
HETATM    5  N   UNL     1     -10.070   3.730  72.488  1.00  0.00    -0.162 NA 
HETATM    6  C   UNL     1      -9.415   3.169  71.457  1.00  0.00    -0.145 A  
HETATM    7  N   UNL     1      -9.274   3.659  70.221  1.00  0.00    -0.135 NA 
HETATM    8  C   UNL     1      -9.830   4.876  70.104  1.00  0.00    -0.239 A  
HETATM    9  C   UNL     1     -10.501   5.599  71.084  1.00  0.00    -0.306 A  
HETATM   10  C   UNL     1     -10.857   6.840  70.441  1.00  0.00    -0.262 A  
HETATM   11  N   UNL     1     -10.486   6.813  69.140  1.00  0.00    -0.203 NA 
HETATM   12  N   UNL     1      -9.876   5.627  68.966  1.00  0.00    -0.147 NA 
ENDROOT
BRANCH  10  13
HETATM   13  C   UNL     1     -11.552   8.047  70.946  1.00  0.00    -0.284 A  
HETATM   14  C   UNL     1     -12.761   8.012  71.652  1.00  0.00    -0.347 A  
HETATM   15  C   UNL     1     -13.382   9.204  72.072  1.00  0.00    -0.507 A  
HETATM   16  C   UNL     1     -10.966   9.312  70.734  1.00  0.00    -0.349 A  
HETATM   17  C   UNL     1     -12.790  10.452  71.836  1.00  0.00    -0.415 A  
HETATM   18  C   UNL     1     -11.572  10.501  71.170  1.00  0.00    -0.230 A  
BRANCH  17  19
HETATM   19  O   UNL     1     -13.533  11.550  72.206  1.00  0.00    -0.368 OA 
BRANCH  19  20
HETATM   20  C   UNL     1     -13.262  12.801  71.695  1.00  0.00    -0.317 A  
HETATM   21  C   UNL     1     -13.551  13.891  72.524  1.00  0.00    -0.680 A  
HETATM   22  C   UNL     1     -12.480  15.387  70.959  1.00  0.00    -0.469 A  
HETATM   23  C   UNL     1     -12.580  13.009  70.495  1.00  0.00    -0.220 A  
HETATM   24  C   UNL     1     -13.165  15.182  72.155  1.00  0.00    -0.470 A  
HETATM   25  C   UNL     1     -12.195  14.305  70.128  1.00  0.00    -0.407 A  
ENDBRANCH  19  20
ENDBRANCH  17  19
ENDBRANCH  10  13
BRANCH  12  26
HETATM   26  C   UNL     1      -9.405   5.225  67.641  1.00  0.00    -0.118 C  
HETATM   27  C   UNL     1      -6.428   4.085  65.762  1.00  0.00    -0.033 C  
HETATM   28  C   UNL     1     -10.465   4.415  66.870  1.00  0.00     0.231 C  
HETATM   29  C   UNL     1      -8.641   3.074  65.798  1.00  0.00    -0.116 C  
HETATM   30  C   UNL     1      -9.909   3.879  65.550  1.00  0.00    -0.156 C  
HETATM   31  O   UNL     1      -6.214   3.564  64.665  1.00  0.00    -0.022 OA 
HETATM   32  N   UNL     1      -7.634   3.927  66.428  1.00  0.00    -0.087 N  
HETATM   33  C   UNL     1      -8.051   4.484  67.731  1.00  0.00    -0.099 C  
BRANCH  27  34
HETATM   34  C   UNL     1      -5.360   4.912  66.385  1.00  0.00    -0.009 C  
HETATM   35  C   UNL     1      -5.221   6.195  66.020  1.00  0.00    -0.013 C  
ENDBRANCH  27  34
ENDBRANCH  12  26
TORSDOF 5
ENDMDL
MODEL      113
REMARK 921   NORMALIZED FREE ENERGY PREDICTED BY IDOCK:   -5.52 KCAL/MOL
REMARK 922        TOTAL FREE ENERGY PREDICTED BY IDOCK:   -7.60 KCAL/MOL
REMARK 923 INTER-LIGAND FREE ENERGY PREDICTED BY IDOCK:   -7.22 KCAL/MOL
REMARK 924 INTRA-LIGAND FREE ENERGY PREDICTED BY IDOCK:   -0.38 KCAL/MOL
REMARK 927      BINDING AFFINITY PREDICTED BY RF-SCORE:    0.00 PKD
ROOT
HETATM    1  N   UNL     1     -13.019  12.534  70.701  1.00  0.00     0.099 NA 
HETATM    2  C   UNL     1     -12.462  11.288  70.966  1.00  0.00    -0.400 A  
HETATM    3  H1  UNL     1     -12.562  13.055  69.953  1.00  0.00     0.000 HD 
HETATM    4  H2  UNL     1     -13.056  13.094  71.553  1.00  0.00     0.000 HD 
HETATM    5  N   UNL     1     -13.069  10.597  71.957  1.00  0.00    -0.472 NA 
HETATM    6  C   UNL     1     -12.664   9.343  72.217  1.00  0.00    -0.341 A  
HETATM    7  N   UNL     1     -11.718   8.645  71.579  1.00  0.00    -0.287 NA 
HETATM    8  C   UNL     1     -11.120   9.377  70.625  1.00  0.00    -0.289 A  
HETATM    9  C   UNL     1     -11.397  10.692  70.269  1.00  0.00    -0.401 A  
HETATM   10  C   UNL     1     -10.449  10.993  69.226  1.00  0.00    -0.180 A  
HETATM   11  N   UNL     1      -9.712   9.896  68.935  1.00  0.00    -0.168 NA 
HETATM   12  N   UNL     1     -10.136   8.944  69.786  1.00  0.00    -0.193 NA 
ENDROOT
BRANCH  10  13
HETATM   13  C   UNL     1     -10.196  12.231  68.450  1.00  0.00    -0.220 A  
HETATM   14  C   UNL     1     -11.152  12.845  67.631  1.00  0.00    -0.297 A  
HETATM   15  C   UNL     1     -10.830  14.002  66.896  1.00  0.00    -0.290 A  
HETATM   16  C   UNL     1      -8.935  12.854  68.548  1.00  0.00    -0.047 A  
HETATM   17  C   UNL     1      -9.565  14.596  66.995  1.00  0.00    -0.240 A  
HETATM   18  C   UNL     1      -8.618  14.020  67.833  1.00  0.00    -0.181 A  
BRANCH  17  19
HETATM   19  O   UNL     1      -9.333  15.665  66.160  1.00  0.00    -0.293 OA 
BRANCH  19  20
HETATM   20  C   UNL     1      -9.900  16.897  66.401  1.00  0.00    -0.305 A  
HETATM   21  C   UNL     1      -9.923  17.325  67.733  1.00  0.00    -0.301 A  
HETATM   22  C   UNL     1     -10.714  19.500  67.038  1.00  0.00    -0.592 A  
HETATM   23  C   UNL     1     -10.286  17.776  65.387  1.00  0.00     0.337 A  
HETATM   24  C   UNL     1     -10.333  18.622  68.052  1.00  0.00    -0.421 A  
HETATM   25  C   UNL     1     -10.696  19.075  65.710  1.00  0.00    -0.350 A  
ENDBRANCH  19  20
ENDBRANCH  17  19
ENDBRANCH  10  13
BRANCH  12  26
HETATM   26  C   UNL     1      -9.600   7.586  69.704  1.00  0.00    -0.159 C  
HETATM   27  C   UNL     1      -8.486   4.701  71.735  1.00  0.00    -0.113 C  
HETATM   28  C   UNL     1     -10.200   6.796  68.525  1.00  0.00    -0.186 C  
HETATM   29  C   UNL     1     -10.061   4.695  69.880  1.00  0.00    -0.187 C  
HETATM   30  C   UNL     1      -9.742   5.337  68.538  1.00  0.00    -0.194 C  
HETATM   31  O   UNL     1      -8.250   3.508  71.532  1.00  0.00    -0.063 OA 
HETATM   32  N   UNL     1      -9.372   5.420  70.947  1.00  0.00    -0.153 N  
HETATM   33  C   UNL     1      -9.757   6.842  71.049  1.00  0.00    -0.174 C  
BRANCH  27  34
HETATM   34  C   UNL     1      -7.792   5.390  72.857  1.00  0.00    -0.098 C  
HETATM   35  C   UNL     1      -6.462   5.272  72.982  1.00  0.00    -0.064 C  
ENDBRANCH  27  34
ENDBRANCH  12  26
TORSDOF 5
ENDMDL
MODEL      114
REMARK 921   NORMALIZED FREE ENERGY PREDICTED BY IDOCK:   -5.50 KCAL/MOL
REMARK 922        TOTAL FREE ENERGY PREDICTED BY IDOCK:   -7.58 KCAL/MOL
REMARK 923 INTER-LIGAND FREE ENERGY PREDICTED BY IDOCK:   -6.26 KCAL/MOL
REMARK 924 INTRA-LIGAND FREE ENERGY PREDICTED BY IDOCK:   -1.32 KCAL/MOL
REMARK 927      BINDING AFFINITY PREDICTED BY RF-SCORE:    0.00 PKD
ROOT
HETATM    1  N   UNL     1     -11.788   8.984  70.679  1.00  0.00    -0.448 NA 
HETATM    2  C   UNL     1     -11.788  10.335  70.350  1.00  0.00    -0.309 A  
HETATM    3  H1  UNL     1     -11.245   8.393  70.050  1.00  0.00     0.000 HD 
HETATM    4  H2  UNL     1     -12.745   8.638  70.755  1.00  0.00     0.000 HD 
HETATM    5  N   UNL     1     -12.507  11.120  71.183  1.00  0.00    -0.396 NA 
HETATM    6  C   UNL     1     -12.485  12.451  71.004  1.00  0.00    -0.256 A  
HETATM    7  N   UNL     1     -11.793  13.137  70.087  1.00  0.00    -0.295 NA 
HETATM    8  C   UNL     1     -11.119  12.319  69.262  1.00  0.00    -0.158 A  
HETATM    9  C   UNL     1     -11.077  10.930  69.293  1.00  0.00    -0.305 A  
HETATM   10  C   UNL     1     -10.245  10.565  68.174  1.00  0.00    -0.162 A  
HETATM   11  N   UNL     1      -9.765  11.676  67.569  1.00  0.00    -0.176 NA 
HETATM   12  N   UNL     1     -10.303  12.710  68.241  1.00  0.00    -0.236 NA 
ENDROOT
BRANCH  10  13
HETATM   13  C   UNL     1      -9.834   9.246  67.639  1.00  0.00    -0.221 A  
HETATM   14  C   UNL     1     -10.736   8.271  67.192  1.00  0.00    -0.240 A  
HETATM   15  C   UNL     1     -10.274   7.025  66.728  1.00  0.00    -0.282 A  
HETATM   16  C   UNL     1      -8.460   8.943  67.545  1.00  0.00    -0.116 A  
HETATM   17  C   UNL     1      -8.904   6.739  66.658  1.00  0.00    -0.137 A  
HETATM   18  C   UNL     1      -7.995   7.710  67.063  1.00  0.00    -0.116 A  
BRANCH  17  19
HETATM   19  O   UNL     1      -8.573   5.458  66.280  1.00  0.00    -0.117 OA 
BRANCH  19  20
HETATM   20  C   UNL     1      -7.856   4.629  67.114  1.00  0.00    -0.094 A  
HETATM   21  C   UNL     1      -6.548   4.324  66.719  1.00  0.00    -0.046 A  
HETATM   22  C   UNL     1      -6.146   3.230  68.835  1.00  0.00    -0.028 A  
HETATM   23  C   UNL     1      -8.306   4.230  68.373  1.00  0.00    -0.098 A  
HETATM   24  C   UNL     1      -5.696   3.622  67.575  1.00  0.00    -0.022 A  
HETATM   25  C   UNL     1      -7.449   3.527  69.230  1.00  0.00    -0.052 A  
ENDBRANCH  19  20
ENDBRANCH  17  19
ENDBRANCH  10  13
BRANCH  12  26
HETATM   26  C   UNL     1      -9.939  14.085  67.899  1.00  0.00    -0.237 C  
HETATM   27  C   UNL     1      -7.073  16.397  67.525  1.00  0.00    -0.143 C  
HETATM   28  C   UNL     1     -10.820  14.655  66.771  1.00  0.00    -0.312 C  
HETATM   29  C   UNL     1      -8.866  15.979  65.932  1.00  0.00    -0.156 C  
HETATM   30  C   UNL     1     -10.335  16.036  66.326  1.00  0.00    -0.330 C  
HETATM   31  O   UNL     1      -6.883  17.502  67.012  1.00  0.00    -0.156 OA 
HETATM   32  N   UNL     1      -8.069  15.540  67.077  1.00  0.00    -0.219 N  
HETATM   33  C   UNL     1      -8.431  14.200  67.580  1.00  0.00    -0.185 C  
BRANCH  27  34
HETATM   34  C   UNL     1      -6.212  15.974  68.662  1.00  0.00    -0.115 C  
HETATM   35  C   UNL     1      -6.319  16.604  69.841  1.00  0.00    -0.095 C  
ENDBRANCH  27  34
ENDBRANCH  12  26
TORSDOF 5
ENDMDL
MODEL      115
REMARK 921   NORMALIZED FREE ENERGY PREDICTED BY IDOCK:   -5.47 KCAL/MOL
REMARK 922        TOTAL FREE ENERGY PREDICTED BY IDOCK:   -7.54 KCAL/MOL
REMARK 923 INTER-LIGAND FREE ENERGY PREDICTED BY IDOCK:   -6.83 KCAL/MOL
REMARK 924 INTRA-LIGAND FREE ENERGY PREDICTED BY IDOCK:   -0.71 KCAL/MOL
REMARK 927      BINDING AFFINITY PREDICTED BY RF-SCORE:    0.00 PKD
ROOT
HETATM    1  N   UNL     1     -11.800  10.532  67.534  1.00  0.00    -0.351 NA 
HETATM    2  C   UNL     1     -11.331  11.786  67.157  1.00  0.00    -0.322 A  
HETATM    3  H1  UNL     1     -11.106   9.934  67.981  1.00  0.00     0.000 HD 
HETATM    4  H2  UNL     1     -12.216  10.056  66.733  1.00  0.00     0.000 HD 
HETATM    5  N   UNL     1     -12.251  12.579  66.565  1.00  0.00    -0.531 NA 
HETATM    6  C   UNL     1     -11.918  13.844  66.257  1.00  0.00    -0.434 A  
HETATM    7  N   UNL     1     -10.755  14.460  66.496  1.00  0.00    -0.301 NA 
HETATM    8  C   UNL     1      -9.861  13.629  67.055  1.00  0.00    -0.251 A  
HETATM    9  C   UNL     1     -10.041  12.292  67.393  1.00  0.00    -0.207 A  
HETATM   10  C   UNL     1      -8.766  11.875  67.920  1.00  0.00    -0.167 A  
HETATM   11  N   UNL     1      -7.913  12.924  67.962  1.00  0.00    -0.145 NA 
HETATM   12  N   UNL     1      -8.594  13.960  67.440  1.00  0.00    -0.189 NA 
ENDROOT
BRANCH  10  13
HETATM   13  C   UNL     1      -8.288  10.565  68.423  1.00  0.00    -0.126 A  
HETATM   14  C   UNL     1      -6.954  10.143  68.352  1.00  0.00    -0.066 A  
HETATM   15  C   UNL     1      -6.578   8.869  68.820  1.00  0.00    -0.054 A  
HETATM   16  C   UNL     1      -9.209   9.689  69.033  1.00  0.00    -0.156 A  
HETATM   17  C   UNL     1      -7.514   8.008  69.408  1.00  0.00    -0.096 A  
HETATM   18  C   UNL     1      -8.834   8.427  69.520  1.00  0.00    -0.145 A  
BRANCH  17  19
HETATM   19  O   UNL     1      -7.053   6.754  69.741  1.00  0.00    -0.064 OA 
BRANCH  19  20
HETATM   20  C   UNL     1      -6.838   6.396  71.054  1.00  0.00    -0.066 A  
HETATM   21  C   UNL     1      -5.770   7.022  71.706  1.00  0.00    -0.037 A  
HETATM   22  C   UNL     1      -6.453   6.038  73.804  1.00  0.00    -0.070 A  
HETATM   23  C   UNL     1      -7.714   5.589  71.782  1.00  0.00    -0.107 A  
HETATM   24  C   UNL     1      -5.575   6.841  73.077  1.00  0.00    -0.038 A  
HETATM   25  C   UNL     1      -7.516   5.409  73.157  1.00  0.00    -0.092 A  
ENDBRANCH  19  20
ENDBRANCH  17  19
ENDBRANCH  10  13
BRANCH  12  26
HETATM   26  C   UNL     1      -7.995  15.293  67.397  1.00  0.00    -0.186 C  
HETATM   27  C   UNL     1      -8.447  18.795  68.505  1.00  0.00    -0.345 C  
HETATM   28  C   UNL     1      -6.458  15.241  67.481  1.00  0.00    -0.158 C  
HETATM   29  C   UNL     1      -6.467  17.401  68.750  1.00  0.00    -0.201 C  
HETATM   30  C   UNL     1      -5.855  16.643  67.580  1.00  0.00    -0.166 C  
HETATM   31  O   UNL     1      -7.740  19.803  68.581  1.00  0.00    -0.329 OA 
HETATM   32  N   UNL     1      -7.912  17.516  68.556  1.00  0.00    -0.264 N  
HETATM   33  C   UNL     1      -8.610  16.218  68.472  1.00  0.00    -0.211 C  
BRANCH  27  34
HETATM   34  C   UNL     1      -9.917  18.959  68.348  1.00  0.00    -0.447 C  
HETATM   35  C   UNL     1     -10.466  18.861  67.128  1.00  0.00    -0.509 C  
ENDBRANCH  27  34
ENDBRANCH  12  26
TORSDOF 5
ENDMDL
MODEL      116
REMARK 921   NORMALIZED FREE ENERGY PREDICTED BY IDOCK:   -5.42 KCAL/MOL
REMARK 922        TOTAL FREE ENERGY PREDICTED BY IDOCK:   -7.48 KCAL/MOL
REMARK 923 INTER-LIGAND FREE ENERGY PREDICTED BY IDOCK:   -7.00 KCAL/MOL
REMARK 924 INTRA-LIGAND FREE ENERGY PREDICTED BY IDOCK:   -0.48 KCAL/MOL
REMARK 927      BINDING AFFINITY PREDICTED BY RF-SCORE:    0.00 PKD
ROOT
HETATM    1  N   UNL     1     -12.382  14.336  69.133  1.00  0.00    -0.539 NA 
HETATM    2  C   UNL     1     -11.901  13.055  69.378  1.00  0.00    -0.322 A  
HETATM    3  H1  UNL     1     -11.786  14.907  68.533  1.00  0.00     0.000 HD 
HETATM    4  H2  UNL     1     -12.566  14.819  70.013  1.00  0.00     0.000 HD 
HETATM    5  N   UNL     1     -12.690  12.298  70.173  1.00  0.00     0.146 NA 
HETATM    6  C   UNL     1     -12.359  11.013  70.385  1.00  0.00    -0.356 A  
HETATM    7  N   UNL     1     -11.322  10.345  69.868  1.00  0.00    -0.281 NA 
HETATM    8  C   UNL     1     -10.548  11.140  69.111  1.00  0.00    -0.204 A  
HETATM    9  C   UNL     1     -10.735  12.490  68.834  1.00  0.00    -0.202 A  
HETATM   10  C   UNL     1      -9.606  12.853  68.014  1.00  0.00    -0.221 A  
HETATM   11  N   UNL     1      -8.845  11.763  67.761  1.00  0.00    -0.156 NA 
HETATM   12  N   UNL     1      -9.432  10.754  68.428  1.00  0.00    -0.166 NA 
ENDROOT
BRANCH  10  13
HETATM   13  C   UNL     1      -9.197  14.146  67.416  1.00  0.00    -0.204 A  
HETATM   14  C   UNL     1     -10.006  14.896  66.553  1.00  0.00    -0.277 A  
HETATM   15  C   UNL     1      -9.537  16.101  65.995  1.00  0.00    -0.381 A  
HETATM   16  C   UNL     1      -7.934  14.681  67.742  1.00  0.00    -0.166 A  
HETATM   17  C   UNL     1      -8.272  16.605  66.320  1.00  0.00    -0.330 A  
HETATM   18  C   UNL     1      -7.472  15.893  67.205  1.00  0.00    -0.262 A  
BRANCH  17  19
HETATM   19  O   UNL     1      -7.882  17.739  65.642  1.00  0.00    -0.538 OA 
BRANCH  19  20
HETATM   20  C   UNL     1      -7.087  18.692  66.240  1.00  0.00    -0.245 A  
HETATM   21  C   UNL     1      -6.767  19.813  65.467  1.00  0.00    -0.315 A  
HETATM   22  C   UNL     1      -5.759  20.872  67.390  1.00  0.00    -0.301 A  
HETATM   23  C   UNL     1      -6.740  18.664  67.591  1.00  0.00    -0.208 A  
HETATM   24  C   UNL     1      -6.100  20.899  66.039  1.00  0.00    -0.294 A  
HETATM   25  C   UNL     1      -6.072  19.755  68.162  1.00  0.00    -0.261 A  
ENDBRANCH  19  20
ENDBRANCH  17  19
ENDBRANCH  10  13
BRANCH  12  26
HETATM   26  C   UNL     1      -8.910   9.392  68.319  1.00  0.00    -0.128 C  
HETATM   27  C   UNL     1      -7.282   7.008  66.003  1.00  0.00    -0.074 C  
HETATM   28  C   UNL     1      -8.224   8.928  69.618  1.00  0.00    -0.114 C  
HETATM   29  C   UNL     1      -6.594   7.592  68.264  1.00  0.00    -0.050 C  
HETATM   30  C   UNL     1      -7.558   7.562  69.442  1.00  0.00    -0.092 C  
HETATM   31  O   UNL     1      -6.688   5.932  66.106  1.00  0.00    -0.056 OA 
HETATM   32  N   UNL     1      -7.324   7.927  67.042  1.00  0.00    -0.089 N  
HETATM   33  C   UNL     1      -7.991   9.244  67.085  1.00  0.00    -0.106 C  
BRANCH  27  34
HETATM   34  C   UNL     1      -7.978   7.325  64.727  1.00  0.00    -0.122 C  
HETATM   35  C   UNL     1      -7.269   7.785  63.685  1.00  0.00    -0.082 C  
ENDBRANCH  27  34
ENDBRANCH  12  26
TORSDOF 5
ENDMDL
MODEL      117
REMARK 921   NORMALIZED FREE ENERGY PREDICTED BY IDOCK:   -5.42 KCAL/MOL
REMARK 922        TOTAL FREE ENERGY PREDICTED BY IDOCK:   -7.48 KCAL/MOL
REMARK 923 INTER-LIGAND FREE ENERGY PREDICTED BY IDOCK:   -6.82 KCAL/MOL
REMARK 924 INTRA-LIGAND FREE ENERGY PREDICTED BY IDOCK:   -0.66 KCAL/MOL
REMARK 927      BINDING AFFINITY PREDICTED BY RF-SCORE:    0.00 PKD
ROOT
HETATM    1  N   UNL     1      -9.970  12.712  63.371  1.00  0.00    -0.645 NA 
HETATM    2  C   UNL     1      -9.577  11.417  63.694  1.00  0.00    -0.257 A  
HETATM    3  H1  UNL     1     -10.028  13.349  64.165  1.00  0.00     0.000 HD 
HETATM    4  H2  UNL     1     -10.855  12.697  62.863  1.00  0.00     0.000 HD 
HETATM    5  N   UNL     1      -9.500  10.572  62.642  1.00  0.00    -0.304 NA 
HETATM    6  C   UNL     1      -9.034   9.328  62.840  1.00  0.00    -0.102 A  
HETATM    7  N   UNL     1      -8.588   8.799  63.985  1.00  0.00    -0.114 NA 
HETATM    8  C   UNL     1      -8.711   9.660  65.009  1.00  0.00    -0.175 A  
HETATM    9  C   UNL     1      -9.211  10.957  64.970  1.00  0.00    -0.233 A  
HETATM   10  C   UNL     1      -9.152  11.410  66.337  1.00  0.00    -0.193 A  
HETATM   11  N   UNL     1      -8.579  10.465  67.117  1.00  0.00    -0.129 NA 
HETATM   12  N   UNL     1      -8.325   9.430  66.297  1.00  0.00    -0.114 NA 
ENDROOT
BRANCH  10  13
HETATM   13  C   UNL     1      -9.564  12.685  66.971  1.00  0.00    -0.219 A  
HETATM   14  C   UNL     1     -10.782  13.326  66.713  1.00  0.00    -0.279 A  
HETATM   15  C   UNL     1     -11.092  14.553  67.329  1.00  0.00    -0.317 A  
HETATM   16  C   UNL     1      -8.704  13.291  67.911  1.00  0.00    -0.192 A  
HETATM   17  C   UNL     1     -10.215  15.146  68.246  1.00  0.00    -0.223 A  
HETATM   18  C   UNL     1      -9.019  14.504  68.542  1.00  0.00    -0.188 A  
BRANCH  17  19
HETATM   19  O   UNL     1     -10.579  16.390  68.710  1.00  0.00    -0.270 OA 
BRANCH  19  20
HETATM   20  C   UNL     1     -10.201  17.539  68.050  1.00  0.00    -0.354 A  
HETATM   21  C   UNL     1      -8.908  17.556  67.516  1.00  0.00    -0.229 A  
HETATM   22  C   UNL     1      -9.377  19.649  66.405  1.00  0.00    -0.463 A  
HETATM   23  C   UNL     1     -11.081  18.582  67.759  1.00  0.00     0.039 A  
HETATM   24  C   UNL     1      -8.495  18.611  66.698  1.00  0.00    -0.301 A  
HETATM   25  C   UNL     1     -10.664  19.638  66.939  1.00  0.00    -0.570 A  
ENDBRANCH  19  20
ENDBRANCH  17  19
ENDBRANCH  10  13
BRANCH  12  26
HETATM   26  C   UNL     1      -7.631   8.243  66.795  1.00  0.00    -0.091 C  
HETATM   27  C   UNL     1      -8.129   4.735  67.863  1.00  0.00    -0.092 C  
HETATM   28  C   UNL     1      -6.238   8.075  66.158  1.00  0.00    -0.045 C  
HETATM   29  C   UNL     1      -6.506   5.587  66.261  1.00  0.00    -0.044 C  
HETATM   30  C   UNL     1      -5.586   6.757  66.578  1.00  0.00    -0.018 C  
HETATM   31  O   UNL     1      -7.407   3.755  68.064  1.00  0.00    -0.061 OA 
HETATM   32  N   UNL     1      -7.767   5.746  66.984  1.00  0.00    -0.100 N  
HETATM   33  C   UNL     1      -8.504   6.978  66.638  1.00  0.00    -0.121 C  
BRANCH  27  34
HETATM   34  C   UNL     1      -9.423   4.836  68.590  1.00  0.00    -0.208 C  
HETATM   35  C   UNL     1      -9.439   5.307  69.845  1.00  0.00    -0.211 C  
ENDBRANCH  27  34
ENDBRANCH  12  26
TORSDOF 5
ENDMDL
MODEL      118
REMARK 921   NORMALIZED FREE ENERGY PREDICTED BY IDOCK:   -5.40 KCAL/MOL
REMARK 922        TOTAL FREE ENERGY PREDICTED BY IDOCK:   -7.45 KCAL/MOL
REMARK 923 INTER-LIGAND FREE ENERGY PREDICTED BY IDOCK:   -7.14 KCAL/MOL
REMARK 924 INTRA-LIGAND FREE ENERGY PREDICTED BY IDOCK:   -0.31 KCAL/MOL
REMARK 927      BINDING AFFINITY PREDICTED BY RF-SCORE:    0.00 PKD
ROOT
HETATM    1  N   UNL     1      -6.213   9.417  68.562  1.00  0.00    -0.048 NA 
HETATM    2  C   UNL     1      -6.836  10.613  68.225  1.00  0.00    -0.068 A  
HETATM    3  H1  UNL     1      -6.850   8.648  68.768  1.00  0.00     0.000 HD 
HETATM    4  H2  UNL     1      -5.567   9.561  69.339  1.00  0.00     0.000 HD 
HETATM    5  N   UNL     1      -5.992  11.633  67.951  1.00  0.00    -0.044 NA 
HETATM    6  C   UNL     1      -6.499  12.799  67.520  1.00  0.00    -0.160 A  
HETATM    7  N   UNL     1      -7.783  13.091  67.287  1.00  0.00    -0.142 NA 
HETATM    8  C   UNL     1      -8.589  12.064  67.601  1.00  0.00    -0.163 A  
HETATM    9  C   UNL     1      -8.221  10.818  68.095  1.00  0.00    -0.119 A  
HETATM   10  C   UNL     1      -9.467  10.120  68.290  1.00  0.00    -0.140 A  
HETATM   11  N   UNL     1     -10.499  10.883  67.862  1.00  0.00    -0.184 NA 
HETATM   12  N   UNL     1      -9.946  12.039  67.455  1.00  0.00    -0.190 NA 
ENDROOT
BRANCH  10  13
HETATM   13  C   UNL     1      -9.768   8.769  68.820  1.00  0.00    -0.171 A  
HETATM   14  C   UNL     1     -10.585   8.534  69.933  1.00  0.00    -0.228 A  
HETATM   15  C   UNL     1     -10.800   7.224  70.402  1.00  0.00    -0.265 A  
HETATM   16  C   UNL     1      -9.231   7.642  68.165  1.00  0.00    -0.138 A  
HETATM   17  C   UNL     1     -10.242   6.119  69.746  1.00  0.00    -0.195 A  
HETATM   18  C   UNL     1      -9.461   6.333  68.617  1.00  0.00    -0.121 A  
BRANCH  17  19
HETATM   19  O   UNL     1     -10.441   4.897  70.347  1.00  0.00    -0.221 OA 
BRANCH  19  20
HETATM   20  C   UNL     1      -9.489   4.344  71.176  1.00  0.00    -0.160 A  
HETATM   21  C   UNL     1      -9.642   2.989  71.489  1.00  0.00    -0.225 A  
HETATM   22  C   UNL     1      -7.484   2.978  72.575  1.00  0.00    -0.049 A  
HETATM   23  C   UNL     1      -8.328   5.015  71.566  1.00  0.00    -0.119 A  
HETATM   24  C   UNL     1      -8.644   2.308  72.191  1.00  0.00    -0.082 A  
HETATM   25  C   UNL     1      -7.330   4.330  72.269  1.00  0.00    -0.067 A  
ENDBRANCH  19  20
ENDBRANCH  17  19
ENDBRANCH  10  13
BRANCH  12  26
HETATM   26  C   UNL     1     -10.773  13.085  66.855  1.00  0.00    -0.262 C  
HETATM   27  C   UNL     1     -10.640  16.309  65.044  1.00  0.00    -0.233 C  
HETATM   28  C   UNL     1     -12.030  12.511  66.173  1.00  0.00    -0.432 C  
HETATM   29  C   UNL     1     -11.898  14.315  64.441  1.00  0.00    -0.426 C  
HETATM   30  C   UNL     1     -12.808  13.596  65.428  1.00  0.00    -0.440 C  
HETATM   31  O   UNL     1     -11.430  16.998  64.393  1.00  0.00    -1.048 OA 
HETATM   32  N   UNL     1     -10.787  14.935  65.161  1.00  0.00    -0.384 N  
HETATM   33  C   UNL     1      -9.943  13.975  65.901  1.00  0.00    -0.307 C  
BRANCH  27  34
HETATM   34  C   UNL     1      -9.500  16.977  65.728  1.00  0.00     0.007 C  
HETATM   35  C   UNL     1      -9.743  17.888  66.681  1.00  0.00    -0.319 C  
ENDBRANCH  27  34
ENDBRANCH  12  26
TORSDOF 5
ENDMDL
MODEL      119
REMARK 921   NORMALIZED FREE ENERGY PREDICTED BY IDOCK:   -5.39 KCAL/MOL
REMARK 922        TOTAL FREE ENERGY PREDICTED BY IDOCK:   -7.44 KCAL/MOL
REMARK 923 INTER-LIGAND FREE ENERGY PREDICTED BY IDOCK:   -7.21 KCAL/MOL
REMARK 924 INTRA-LIGAND FREE ENERGY PREDICTED BY IDOCK:   -0.23 KCAL/MOL
REMARK 927      BINDING AFFINITY PREDICTED BY RF-SCORE:    0.00 PKD
ROOT
HETATM    1  N   UNL     1     -12.118  11.800  64.034  1.00  0.00    -0.304 NA 
HETATM    2  C   UNL     1     -11.698  13.046  64.484  1.00  0.00    -0.369 A  
HETATM    3  H1  UNL     1     -11.748  11.009  64.562  1.00  0.00     0.000 HD 
HETATM    4  H2  UNL     1     -11.909  11.693  63.041  1.00  0.00     0.000 HD 
HETATM    5  N   UNL     1     -12.189  14.094  63.785  1.00  0.00    -0.661 NA 
HETATM    6  C   UNL     1     -11.919  15.341  64.207  1.00  0.00    -0.223 A  
HETATM    7  N   UNL     1     -11.222  15.699  65.290  1.00  0.00    -0.278 NA 
HETATM    8  C   UNL     1     -10.726  14.632  65.937  1.00  0.00    -0.309 A  
HETATM    9  C   UNL     1     -10.883  13.291  65.603  1.00  0.00    -0.291 A  
HETATM   10  C   UNL     1     -10.124  12.577  66.598  1.00  0.00    -0.230 A  
HETATM   11  N   UNL     1      -9.618  13.442  67.507  1.00  0.00    -0.215 NA 
HETATM   12  N   UNL     1      -9.994  14.663  67.088  1.00  0.00    -0.238 NA 
ENDROOT
BRANCH  10  13
HETATM   13  C   UNL     1      -9.859  11.131  66.786  1.00  0.00    -0.230 A  
HETATM   14  C   UNL     1     -10.219  10.415  67.936  1.00  0.00    -0.211 A  
HETATM   15  C   UNL     1      -9.905   9.049  68.059  1.00  0.00    -0.197 A  
HETATM   16  C   UNL     1      -9.231  10.410  65.750  1.00  0.00    -0.210 A  
HETATM   17  C   UNL     1      -9.265   8.356  67.023  1.00  0.00    -0.151 A  
HETATM   18  C   UNL     1      -8.935   9.042  65.861  1.00  0.00    -0.233 A  
BRANCH  17  19
HETATM   19  O   UNL     1      -8.923   7.050  67.292  1.00  0.00    -0.118 OA 
BRANCH  19  20
HETATM   20  C   UNL     1      -8.370   6.690  68.502  1.00  0.00    -0.122 A  
HETATM   21  C   UNL     1      -7.018   6.330  68.490  1.00  0.00    -0.080 A  
HETATM   22  C   UNL     1      -7.002   6.245  70.904  1.00  0.00    -0.068 A  
HETATM   23  C   UNL     1      -9.037   6.827  69.721  1.00  0.00    -0.143 A  
HETATM   24  C   UNL     1      -6.336   6.104  69.688  1.00  0.00    -0.034 A  
HETATM   25  C   UNL     1      -8.350   6.599  70.920  1.00  0.00    -0.125 A  
ENDBRANCH  19  20
ENDBRANCH  17  19
ENDBRANCH  10  13
BRANCH  12  26
HETATM   26  C   UNL     1      -9.678  15.849  67.883  1.00  0.00    -0.216 C  
HETATM   27  C   UNL     1      -7.574  18.891  67.979  1.00  0.00    -0.265 C  
HETATM   28  C   UNL     1     -10.925  16.432  68.576  1.00  0.00    -0.350 C  
HETATM   29  C   UNL     1      -9.980  18.736  68.308  1.00  0.00    -0.385 C  
HETATM   30  C   UNL     1     -10.607  17.750  69.284  1.00  0.00     0.170 C  
HETATM   31  O   UNL     1      -7.559  19.943  68.622  1.00  0.00    -0.298 OA 
HETATM   32  N   UNL     1      -8.742  18.173  67.770  1.00  0.00    -0.252 N  
HETATM   33  C   UNL     1      -8.930  16.905  67.038  1.00  0.00    -0.215 C  
BRANCH  27  34
HETATM   34  C   UNL     1      -6.297  18.376  67.415  1.00  0.00    -0.189 C  
HETATM   35  C   UNL     1      -5.132  18.767  67.953  1.00  0.00    -0.168 C  
ENDBRANCH  27  34
ENDBRANCH  12  26
TORSDOF 5
ENDMDL
MODEL      120
REMARK 921   NORMALIZED FREE ENERGY PREDICTED BY IDOCK:   -5.32 KCAL/MOL
REMARK 922        TOTAL FREE ENERGY PREDICTED BY IDOCK:   -7.35 KCAL/MOL
REMARK 923 INTER-LIGAND FREE ENERGY PREDICTED BY IDOCK:   -6.27 KCAL/MOL
REMARK 924 INTRA-LIGAND FREE ENERGY PREDICTED BY IDOCK:   -1.08 KCAL/MOL
REMARK 927      BINDING AFFINITY PREDICTED BY RF-SCORE:    0.00 PKD
ROOT
HETATM    1  N   UNL     1      -6.346  10.819  65.450  1.00  0.00    -0.335 NA 
HETATM    2  C   UNL     1      -6.919  11.088  66.688  1.00  0.00    -0.140 A  
HETATM    3  H1  UNL     1      -6.626   9.931  65.035  1.00  0.00     0.000 HD 
HETATM    4  H2  UNL     1      -5.329  10.878  65.512  1.00  0.00     0.000 HD 
HETATM    5  N   UNL     1      -6.549  12.265  67.239  1.00  0.00    -0.153 NA 
HETATM    6  C   UNL     1      -7.128  12.657  68.387  1.00  0.00    -0.101 A  
HETATM    7  N   UNL     1      -8.085  12.023  69.072  1.00  0.00     0.114 NA 
HETATM    8  C   UNL     1      -8.401  10.845  68.509  1.00  0.00    -0.142 A  
HETATM    9  C   UNL     1      -7.864  10.287  67.354  1.00  0.00    -0.102 A  
HETATM   10  C   UNL     1      -8.525   9.013  67.224  1.00  0.00    -0.114 A  
HETATM   11  N   UNL     1      -9.449   8.866  68.201  1.00  0.00    -0.142 NA 
HETATM   12  N   UNL     1      -9.355   9.977  68.954  1.00  0.00    -0.164 NA 
ENDROOT
BRANCH  10  13
HETATM   13  C   UNL     1      -8.380   7.924  66.230  1.00  0.00    -0.126 A  
HETATM   14  C   UNL     1      -8.252   6.571  66.569  1.00  0.00    -0.113 A  
HETATM   15  C   UNL     1      -8.083   5.593  65.570  1.00  0.00    -0.123 A  
HETATM   16  C   UNL     1      -8.393   8.245  64.857  1.00  0.00    -0.145 A  
HETATM   17  C   UNL     1      -8.083   5.937  64.212  1.00  0.00    -0.119 A  
HETATM   18  C   UNL     1      -8.247   7.271  63.857  1.00  0.00     0.071 A  
BRANCH  17  19
HETATM   19  O   UNL     1      -7.815   4.914  63.331  1.00  0.00    -0.068 OA 
BRANCH  19  20
HETATM   20  C   UNL     1      -8.690   3.862  63.169  1.00  0.00    -0.101 A  
HETATM   21  C   UNL     1      -8.216   2.594  63.525  1.00  0.00    -0.082 A  
HETATM   22  C   UNL     1     -10.424   1.663  63.216  1.00  0.00    -0.140 A  
HETATM   23  C   UNL     1     -10.035   4.026  62.836  1.00  0.00    -0.151 A  
HETATM   24  C   UNL     1      -9.079   1.496  63.544  1.00  0.00    -0.089 A  
HETATM   25  C   UNL     1     -10.898   2.924  62.857  1.00  0.00    -0.188 A  
ENDBRANCH  19  20
ENDBRANCH  17  19
ENDBRANCH  10  13
BRANCH  12  26
HETATM   26  C   UNL     1     -10.270  10.193  70.073  1.00  0.00    -0.220 C  
HETATM   27  C   UNL     1     -12.920  12.433  71.358  1.00  0.00    -0.250 C  
HETATM   28  C   UNL     1     -10.822   8.868  70.635  1.00  0.00    -0.286 C  
HETATM   29  C   UNL     1     -12.989  10.009  71.159  1.00  0.00    -0.387 C  
HETATM   30  C   UNL     1     -11.885   9.115  71.706  1.00  0.00    -0.453 C  
HETATM   31  O   UNL     1     -13.780  12.380  72.241  1.00  0.00    -0.441 OA 
HETATM   32  N   UNL     1     -12.422  11.292  70.748  1.00  0.00    -0.373 N  
HETATM   33  C   UNL     1     -11.396  11.181  69.692  1.00  0.00    -0.294 C  
BRANCH  27  34
HETATM   34  C   UNL     1     -12.400  13.763  70.942  1.00  0.00    -0.456 C  
HETATM   35  C   UNL     1     -13.187  14.843  71.049  1.00  0.00    -0.456 C  
ENDBRANCH  27  34
ENDBRANCH  12  26
TORSDOF 5
ENDMDL
MODEL      121
REMARK 921   NORMALIZED FREE ENERGY PREDICTED BY IDOCK:   -5.30 KCAL/MOL
REMARK 922        TOTAL FREE ENERGY PREDICTED BY IDOCK:   -7.32 KCAL/MOL
REMARK 923 INTER-LIGAND FREE ENERGY PREDICTED BY IDOCK:   -6.58 KCAL/MOL
REMARK 924 INTRA-LIGAND FREE ENERGY PREDICTED BY IDOCK:   -0.74 KCAL/MOL
REMARK 927      BINDING AFFINITY PREDICTED BY RF-SCORE:    0.00 PKD
ROOT
HETATM    1  N   UNL     1     -12.736   9.759  72.631  1.00  0.00    -0.154 NA 
HETATM    2  C   UNL     1     -12.712  10.867  71.793  1.00  0.00    -0.329 A  
HETATM    3  H1  UNL     1     -12.162   8.975  72.318  1.00  0.00     0.000 HD 
HETATM    4  H2  UNL     1     -13.697   9.454  72.789  1.00  0.00     0.000 HD 
HETATM    5  N   UNL     1     -13.472  11.906  72.208  1.00  0.00    -0.304 NA 
HETATM    6  C   UNL     1     -13.435  13.057  71.517  1.00  0.00    -0.094 A  
HETATM    7  N   UNL     1     -12.691  13.335  70.440  1.00  0.00    -0.107 NA 
HETATM    8  C   UNL     1     -11.977  12.269  70.043  1.00  0.00    -0.304 A  
HETATM    9  C   UNL     1     -11.942  11.007  70.626  1.00  0.00    -0.464 A  
HETATM   10  C   UNL     1     -11.053  10.243  69.787  1.00  0.00    -0.287 A  
HETATM   11  N   UNL     1     -10.536  11.032  68.816  1.00  0.00    -0.191 NA 
HETATM   12  N   UNL     1     -11.105  12.237  68.994  1.00  0.00    -0.244 NA 
ENDROOT
BRANCH  10  13
HETATM   13  C   UNL     1     -10.619   8.827  69.842  1.00  0.00    -0.230 A  
HETATM   14  C   UNL     1      -9.294   8.410  69.659  1.00  0.00    -0.161 A  
HETATM   15  C   UNL     1      -8.961   7.043  69.691  1.00  0.00    -0.141 A  
HETATM   16  C   UNL     1     -11.575   7.829  70.119  1.00  0.00     0.029 A  
HETATM   17  C   UNL     1      -9.931   6.066  69.951  1.00  0.00    -0.176 A  
HETATM   18  C   UNL     1     -11.243   6.466  70.174  1.00  0.00    -0.454 A  
BRANCH  17  19
HETATM   19  O   UNL     1      -9.509   4.759  69.864  1.00  0.00    -0.130 OA 
BRANCH  19  20
HETATM   20  C   UNL     1      -9.539   3.923  70.959  1.00  0.00    -0.181 A  
HETATM   21  C   UNL     1      -8.494   2.998  71.069  1.00  0.00    -0.096 A  
HETATM   22  C   UNL     1      -9.260   2.371  73.273  1.00  0.00    -0.097 A  
HETATM   23  C   UNL     1     -10.445   4.068  72.010  1.00  0.00    -0.040 A  
HETATM   24  C   UNL     1      -8.357   2.221  72.221  1.00  0.00    -0.054 A  
HETATM   25  C   UNL     1     -10.305   3.287  73.165  1.00  0.00    -0.242 A  
ENDBRANCH  19  20
ENDBRANCH  17  19
ENDBRANCH  10  13
BRANCH  12  26
HETATM   26  C   UNL     1     -10.717  13.370  68.154  1.00  0.00    -0.253 C  
HETATM   27  C   UNL     1      -7.859  15.510  67.182  1.00  0.00    -0.221 C  
HETATM   28  C   UNL     1     -11.448  13.363  66.797  1.00  0.00    -0.376 C  
HETATM   29  C   UNL     1      -9.417  14.352  65.714  1.00  0.00    -0.095 C  
HETATM   30  C   UNL     1     -10.927  14.467  65.876  1.00  0.00    -0.312 C  
HETATM   31  O   UNL     1      -7.616  16.315  66.280  1.00  0.00    -0.189 OA 
HETATM   32  N   UNL     1      -8.774  14.479  67.021  1.00  0.00    -0.231 N  
HETATM   33  C   UNL     1      -9.181  13.445  67.992  1.00  0.00    -0.209 C  
BRANCH  27  34
HETATM   34  C   UNL     1      -7.151  15.653  68.482  1.00  0.00    -0.116 C  
HETATM   35  C   UNL     1      -6.037  16.396  68.549  1.00  0.00    -0.123 C  
ENDBRANCH  27  34
ENDBRANCH  12  26
TORSDOF 5
ENDMDL
MODEL      122
REMARK 921   NORMALIZED FREE ENERGY PREDICTED BY IDOCK:   -5.27 KCAL/MOL
REMARK 922        TOTAL FREE ENERGY PREDICTED BY IDOCK:   -7.28 KCAL/MOL
REMARK 923 INTER-LIGAND FREE ENERGY PREDICTED BY IDOCK:   -6.34 KCAL/MOL
REMARK 924 INTRA-LIGAND FREE ENERGY PREDICTED BY IDOCK:   -0.94 KCAL/MOL
REMARK 927      BINDING AFFINITY PREDICTED BY RF-SCORE:    0.00 PKD
ROOT
HETATM    1  N   UNL     1      -8.877   4.984  64.275  1.00  0.00    -0.278 NA 
HETATM    2  C   UNL     1      -9.162   4.422  65.514  1.00  0.00    -0.150 A  
HETATM    3  H1  UNL     1      -8.820   6.002  64.272  1.00  0.00     0.000 HD 
HETATM    4  H2  UNL     1      -9.551   4.664  63.578  1.00  0.00     0.000 HD 
HETATM    5  N   UNL     1      -9.238   3.072  65.519  1.00  0.00    -0.150 NA 
HETATM    6  C   UNL     1      -9.409   2.435  66.689  1.00  0.00     0.051 A  
HETATM    7  N   UNL     1      -9.490   2.979  67.908  1.00  0.00    -0.198 NA 
HETATM    8  C   UNL     1      -9.442   4.320  67.855  1.00  0.00    -0.165 A  
HETATM    9  C   UNL     1      -9.310   5.120  66.725  1.00  0.00    -0.134 A  
HETATM   10  C   UNL     1      -9.352   6.470  67.228  1.00  0.00    -0.121 A  
HETATM   11  N   UNL     1      -9.424   6.462  68.579  1.00  0.00    -0.121 NA 
HETATM   12  N   UNL     1      -9.476   5.164  68.927  1.00  0.00    -0.125 NA 
ENDROOT
BRANCH  10  13
HETATM   13  C   UNL     1      -9.295   7.781  66.539  1.00  0.00    -0.243 A  
HETATM   14  C   UNL     1     -10.241   8.798  66.721  1.00  0.00    -0.354 A  
HETATM   15  C   UNL     1     -10.142  10.007  66.006  1.00  0.00    -0.318 A  
HETATM   16  C   UNL     1      -8.222   8.049  65.664  1.00  0.00    -0.135 A  
HETATM   17  C   UNL     1      -9.077  10.245  65.129  1.00  0.00    -0.197 A  
HETATM   18  C   UNL     1      -8.109   9.261  64.966  1.00  0.00    -0.127 A  
BRANCH  17  19
HETATM   19  O   UNL     1      -9.135  11.420  64.414  1.00  0.00    -0.057 OA 
BRANCH  19  20
HETATM   20  C   UNL     1     -10.302  12.147  64.327  1.00  0.00    -0.334 A  
HETATM   21  C   UNL     1     -10.281  13.430  64.886  1.00  0.00    -0.339 A  
HETATM   22  C   UNL     1     -12.467  13.886  63.962  1.00  0.00    -0.263 A  
HETATM   23  C   UNL     1     -11.410  11.736  63.585  1.00  0.00    -0.525 A  
HETATM   24  C   UNL     1     -11.363  14.296  64.707  1.00  0.00    -0.382 A  
HETATM   25  C   UNL     1     -12.492  12.606  63.408  1.00  0.00    -0.474 A  
ENDBRANCH  19  20
ENDBRANCH  17  19
ENDBRANCH  10  13
BRANCH  12  26
HETATM   26  C   UNL     1      -9.487   4.775  70.337  1.00  0.00    -0.172 C  
HETATM   27  C   UNL     1      -7.313   4.127  73.260  1.00  0.00    -0.071 C  
HETATM   28  C   UNL     1     -10.687   5.374  71.094  1.00  0.00    -0.239 C  
HETATM   29  C   UNL     1      -9.277   5.560  73.156  1.00  0.00    -0.132 C  
HETATM   30  C   UNL     1     -10.607   5.080  72.593  1.00  0.00    -0.274 C  
HETATM   31  O   UNL     1      -7.470   4.009  74.478  1.00  0.00    -0.072 OA 
HETATM   32  N   UNL     1      -8.180   4.873  72.475  1.00  0.00    -0.114 N  
HETATM   33  C   UNL     1      -8.139   5.106  71.018  1.00  0.00    -0.103 C  
BRANCH  27  34
HETATM   34  C   UNL     1      -6.160   3.443  72.616  1.00  0.00    -0.009 C  
HETATM   35  C   UNL     1      -6.259   2.144  72.294  1.00  0.00    -0.013 C  
ENDBRANCH  27  34
ENDBRANCH  12  26
TORSDOF 5
ENDMDL
MODEL      123
REMARK 921   NORMALIZED FREE ENERGY PREDICTED BY IDOCK:   -5.27 KCAL/MOL
REMARK 922        TOTAL FREE ENERGY PREDICTED BY IDOCK:   -7.28 KCAL/MOL
REMARK 923 INTER-LIGAND FREE ENERGY PREDICTED BY IDOCK:   -6.51 KCAL/MOL
REMARK 924 INTRA-LIGAND FREE ENERGY PREDICTED BY IDOCK:   -0.77 KCAL/MOL
REMARK 927      BINDING AFFINITY PREDICTED BY RF-SCORE:    0.00 PKD
ROOT
HETATM    1  N   UNL     1     -10.047   9.854  63.117  1.00  0.00    -0.227 NA 
HETATM    2  C   UNL     1     -10.351  11.107  63.635  1.00  0.00    -0.389 A  
HETATM    3  H1  UNL     1      -9.541   9.240  63.755  1.00  0.00     0.000 HD 
HETATM    4  H2  UNL     1      -9.538   9.949  62.237  1.00  0.00     0.000 HD 
HETATM    5  N   UNL     1     -11.023  11.921  62.789  1.00  0.00     0.275 NA 
HETATM    6  C   UNL     1     -11.448  13.114  63.235  1.00  0.00     0.016 A  
HETATM    7  N   UNL     1     -11.315  13.616  64.467  1.00  0.00    -0.364 NA 
HETATM    8  C   UNL     1     -10.617  12.793  65.266  1.00  0.00    -0.290 A  
HETATM    9  C   UNL     1     -10.079  11.553  64.940  1.00  0.00    -0.314 A  
HETATM   10  C   UNL     1      -9.407  11.121  66.140  1.00  0.00    -0.206 A  
HETATM   11  N   UNL     1      -9.605  12.018  67.133  1.00  0.00    -0.190 NA 
HETATM   12  N   UNL     1     -10.333  13.007  66.583  1.00  0.00    -0.256 NA 
ENDROOT
BRANCH  10  13
HETATM   13  C   UNL     1      -8.612   9.908  66.443  1.00  0.00    -0.136 A  
HETATM   14  C   UNL     1      -7.541   9.883  67.345  1.00  0.00    -0.091 A  
HETATM   15  C   UNL     1      -6.808   8.699  67.558  1.00  0.00    -0.071 A  
HETATM   16  C   UNL     1      -8.953   8.692  65.816  1.00  0.00    -0.244 A  
HETATM   17  C   UNL     1      -7.155   7.506  66.911  1.00  0.00    -0.084 A  
HETATM   18  C   UNL     1      -8.239   7.505  66.041  1.00  0.00    -0.130 A  
BRANCH  17  19
HETATM   19  O   UNL     1      -6.311   6.439  67.121  1.00  0.00    -0.034 OA 
BRANCH  19  20
HETATM   20  C   UNL     1      -6.767   5.141  67.046  1.00  0.00    -0.055 A  
HETATM   21  C   UNL     1      -7.667   4.735  68.038  1.00  0.00    -0.082 A  
HETATM   22  C   UNL     1      -8.044   2.655  66.868  1.00  0.00    -0.080 A  
HETATM   23  C   UNL     1      -6.507   4.298  65.964  1.00  0.00    -0.040 A  
HETATM   24  C   UNL     1      -8.300   3.493  67.952  1.00  0.00    -0.095 A  
HETATM   25  C   UNL     1      -7.145   3.054  65.881  1.00  0.00    -0.062 A  
ENDBRANCH  19  20
ENDBRANCH  17  19
ENDBRANCH  10  13
BRANCH  12  26
HETATM   26  C   UNL     1     -10.799  14.126  67.400  1.00  0.00    -0.287 C  
HETATM   27  C   UNL     1     -12.066  15.032  70.757  1.00  0.00    -0.322 C  
HETATM   28  C   UNL     1     -10.014  15.420  67.113  1.00  0.00    -0.234 C  
HETATM   29  C   UNL     1     -10.254  16.082  69.517  1.00  0.00    -0.274 C  
HETATM   30  C   UNL     1     -10.413  16.541  68.074  1.00  0.00    -0.313 C  
HETATM   31  O   UNL     1     -12.226  16.075  71.396  1.00  0.00    -0.432 OA 
HETATM   32  N   UNL     1     -11.109  14.921  69.759  1.00  0.00    -0.269 N  
HETATM   33  C   UNL     1     -10.797  13.760  68.902  1.00  0.00    -0.242 C  
BRANCH  27  34
HETATM   34  C   UNL     1     -12.932  13.862  71.063  1.00  0.00    -0.357 C  
HETATM   35  C   UNL     1     -13.801  13.932  72.082  1.00  0.00    -0.636 C  
ENDBRANCH  27  34
ENDBRANCH  12  26
TORSDOF 5
ENDMDL
MODEL      124
REMARK 921   NORMALIZED FREE ENERGY PREDICTED BY IDOCK:   -5.15 KCAL/MOL
REMARK 922        TOTAL FREE ENERGY PREDICTED BY IDOCK:   -7.13 KCAL/MOL
REMARK 923 INTER-LIGAND FREE ENERGY PREDICTED BY IDOCK:   -6.65 KCAL/MOL
REMARK 924 INTRA-LIGAND FREE ENERGY PREDICTED BY IDOCK:   -0.48 KCAL/MOL
REMARK 927      BINDING AFFINITY PREDICTED BY RF-SCORE:    0.00 PKD
ROOT
HETATM    1  N   UNL     1     -10.247  10.335  63.281  1.00  0.00    -0.431 NA 
HETATM    2  C   UNL     1     -10.329  11.555  63.943  1.00  0.00    -0.371 A  
HETATM    3  H1  UNL     1      -9.751   9.606  63.793  1.00  0.00     0.000 HD 
HETATM    4  H2  UNL     1      -9.836  10.462  62.356  1.00  0.00     0.000 HD 
HETATM    5  N   UNL     1     -10.987  12.522  63.265  1.00  0.00    -0.340 NA 
HETATM    6  C   UNL     1     -11.205  13.705  63.865  1.00  0.00    -0.039 A  
HETATM    7  N   UNL     1     -10.868  14.059  65.110  1.00  0.00    -0.346 NA 
HETATM    8  C   UNL     1     -10.190  13.083  65.736  1.00  0.00    -0.290 A  
HETATM    9  C   UNL     1      -9.853  11.830  65.237  1.00  0.00    -0.267 A  
HETATM   10  C   UNL     1      -9.106  11.204  66.298  1.00  0.00    -0.194 A  
HETATM   11  N   UNL     1      -9.074  12.011  67.384  1.00  0.00    -0.173 NA 
HETATM   12  N   UNL     1      -9.730  13.127  67.020  1.00  0.00    -0.234 NA 
ENDROOT
BRANCH  10  13
HETATM   13  C   UNL     1      -8.440   9.883  66.389  1.00  0.00    -0.128 A  
HETATM   14  C   UNL     1      -7.124   9.702  66.835  1.00  0.00    -0.086 A  
HETATM   15  C   UNL     1      -6.545   8.420  66.863  1.00  0.00    -0.058 A  
HETATM   16  C   UNL     1      -9.163   8.726  66.033  1.00  0.00    -0.282 A  
HETATM   17  C   UNL     1      -7.277   7.285  66.488  1.00  0.00    -0.079 A  
HETATM   18  C   UNL     1      -8.596   7.443  66.079  1.00  0.00    -0.162 A  
BRANCH  17  19
HETATM   19  O   UNL     1      -6.580   6.099  66.463  1.00  0.00    -0.051 OA 
BRANCH  19  20
HETATM   20  C   UNL     1      -7.122   4.940  66.975  1.00  0.00    -0.072 A  
HETATM   21  C   UNL     1      -7.380   4.924  68.350  1.00  0.00    -0.066 A  
HETATM   22  C   UNL     1      -8.514   2.803  68.130  1.00  0.00    -0.103 A  
HETATM   23  C   UNL     1      -7.562   3.882  66.179  1.00  0.00    -0.089 A  
HETATM   24  C   UNL     1      -8.071   3.856  68.927  1.00  0.00    -0.075 A  
HETATM   25  C   UNL     1      -8.254   2.813  66.760  1.00  0.00    -0.087 A  
ENDBRANCH  19  20
ENDBRANCH  17  19
ENDBRANCH  10  13
BRANCH  12  26
HETATM   26  C   UNL     1      -9.955  14.201  67.986  1.00  0.00    -0.226 C  
HETATM   27  C   UNL     1      -9.628  17.851  68.504  1.00  0.00    -0.326 C  
HETATM   28  C   UNL     1     -11.242  13.986  68.805  1.00  0.00    -0.298 C  
HETATM   29  C   UNL     1     -11.592  16.465  68.883  1.00  0.00    -0.147 C  
HETATM   30  C   UNL     1     -11.539  15.185  69.706  1.00  0.00    -0.338 C  
HETATM   31  O   UNL     1     -10.063  18.678  69.308  1.00  0.00    -0.288 OA 
HETATM   32  N   UNL     1     -10.305  16.674  68.220  1.00  0.00    -0.287 N  
HETATM   33  C   UNL     1      -9.922  15.586  67.299  1.00  0.00    -0.238 C  
BRANCH  27  34
HETATM   34  C   UNL     1      -8.334  18.123  67.822  1.00  0.00    -0.253 C  
HETATM   35  C   UNL     1      -7.205  17.593  68.314  1.00  0.00    -0.227 C  
ENDBRANCH  27  34
ENDBRANCH  12  26
TORSDOF 5
ENDMDL
MODEL      125
REMARK 921   NORMALIZED FREE ENERGY PREDICTED BY IDOCK:   -5.13 KCAL/MOL
REMARK 922        TOTAL FREE ENERGY PREDICTED BY IDOCK:   -7.10 KCAL/MOL
REMARK 923 INTER-LIGAND FREE ENERGY PREDICTED BY IDOCK:   -6.85 KCAL/MOL
REMARK 924 INTRA-LIGAND FREE ENERGY PREDICTED BY IDOCK:   -0.25 KCAL/MOL
REMARK 927      BINDING AFFINITY PREDICTED BY RF-SCORE:    0.00 PKD
ROOT
HETATM    1  N   UNL     1      -6.065  13.123  67.071  1.00  0.00    -0.415 NA 
HETATM    2  C   UNL     1      -6.630  11.880  67.334  1.00  0.00    -0.124 A  
HETATM    3  H1  UNL     1      -6.707  13.910  67.160  1.00  0.00     0.000 HD 
HETATM    4  H2  UNL     1      -5.626  13.124  66.150  1.00  0.00     0.000 HD 
HETATM    5  N   UNL     1      -5.780  10.836  67.217  1.00  0.00    -0.045 NA 
HETATM    6  C   UNL     1      -6.209   9.607  67.548  1.00  0.00    -0.056 A  
HETATM    7  N   UNL     1      -7.410   9.267  68.027  1.00  0.00    -0.079 NA 
HETATM    8  C   UNL     1      -8.233  10.326  68.098  1.00  0.00    -0.114 A  
HETATM    9  C   UNL     1      -7.950  11.643  67.755  1.00  0.00    -0.131 A  
HETATM   10  C   UNL     1      -9.183  12.353  67.988  1.00  0.00    -0.203 A  
HETATM   11  N   UNL     1     -10.110  11.517  68.511  1.00  0.00    -0.203 NA 
HETATM   12  N   UNL     1      -9.514  10.312  68.567  1.00  0.00    -0.153 NA 
ENDROOT
BRANCH  10  13
HETATM   13  C   UNL     1      -9.556  13.773  67.788  1.00  0.00    -0.219 A  
HETATM   14  C   UNL     1     -10.311  14.236  66.703  1.00  0.00    -0.279 A  
HETATM   15  C   UNL     1     -10.599  15.606  66.560  1.00  0.00    -0.307 A  
HETATM   16  C   UNL     1      -9.158  14.727  68.748  1.00  0.00    -0.191 A  
HETATM   17  C   UNL     1     -10.179  16.539  67.517  1.00  0.00    -0.283 A  
HETATM   18  C   UNL     1      -9.462  16.091  68.620  1.00  0.00    -0.224 A  
BRANCH  17  19
HETATM   19  O   UNL     1     -10.434  17.859  67.225  1.00  0.00    -0.363 OA 
BRANCH  19  20
HETATM   20  C   UNL     1      -9.432  18.706  66.807  1.00  0.00    -0.316 A  
HETATM   21  C   UNL     1      -9.446  20.002  67.334  1.00  0.00    -0.508 A  
HETATM   22  C   UNL     1      -7.299  20.456  66.324  1.00  0.00    -0.247 A  
HETATM   23  C   UNL     1      -8.345  18.288  66.036  1.00  0.00    -0.057 A  
HETATM   24  C   UNL     1      -8.385  20.877  67.090  1.00  0.00    -0.113 A  
HETATM   25  C   UNL     1      -7.283  19.167  65.793  1.00  0.00    -0.277 A  
ENDBRANCH  19  20
ENDBRANCH  17  19
ENDBRANCH  10  13
BRANCH  12  26
HETATM   26  C   UNL     1     -10.210   9.169  69.156  1.00  0.00    -0.207 C  
HETATM   27  C   UNL     1      -9.973   5.524  69.746  1.00  0.00    -0.212 C  
HETATM   28  C   UNL     1     -10.948   9.547  70.455  1.00  0.00    -0.348 C  
HETATM   29  C   UNL     1     -10.473   7.265  71.372  1.00  0.00    -0.203 C  
HETATM   30  C   UNL     1     -11.549   8.315  71.135  1.00  0.00    -0.310 C  
HETATM   31  O   UNL     1     -10.547   4.699  70.461  1.00  0.00    -0.037 OA 
HETATM   32  N   UNL     1      -9.889   6.865  70.092  1.00  0.00    -0.177 N  
HETATM   33  C   UNL     1      -9.252   7.973  69.353  1.00  0.00    -0.152 C  
BRANCH  27  34
HETATM   34  C   UNL     1      -9.358   5.066  68.471  1.00  0.00    -0.167 C  
HETATM   35  C   UNL     1     -10.147   4.649  67.470  1.00  0.00    -0.131 C  
ENDBRANCH  27  34
ENDBRANCH  12  26
TORSDOF 5
ENDMDL
MODEL      126
REMARK 921   NORMALIZED FREE ENERGY PREDICTED BY IDOCK:   -5.12 KCAL/MOL
REMARK 922        TOTAL FREE ENERGY PREDICTED BY IDOCK:   -7.09 KCAL/MOL
REMARK 923 INTER-LIGAND FREE ENERGY PREDICTED BY IDOCK:   -7.82 KCAL/MOL
REMARK 924 INTRA-LIGAND FREE ENERGY PREDICTED BY IDOCK:    0.73 KCAL/MOL
REMARK 927      BINDING AFFINITY PREDICTED BY RF-SCORE:    0.00 PKD
ROOT
HETATM    1  N   UNL     1     -10.084   9.770  65.046  1.00  0.00    -0.334 NA 
HETATM    2  C   UNL     1     -10.271  10.743  66.021  1.00  0.00    -0.251 A  
HETATM    3  H1  UNL     1     -10.135   8.810  65.387  1.00  0.00     0.000 HD 
HETATM    4  H2  UNL     1      -9.202   9.925  64.556  1.00  0.00     0.000 HD 
HETATM    5  N   UNL     1     -10.203  12.015  65.570  1.00  0.00    -0.250 NA 
HETATM    6  C   UNL     1     -10.470  13.022  66.418  1.00  0.00    -0.276 A  
HETATM    7  N   UNL     1     -10.839  12.928  67.700  1.00  0.00    -0.228 NA 
HETATM    8  C   UNL     1     -10.864  11.652  68.117  1.00  0.00    -0.217 A  
HETATM    9  C   UNL     1     -10.574  10.512  67.374  1.00  0.00    -0.313 A  
HETATM   10  C   UNL     1     -10.718   9.423  68.307  1.00  0.00    -0.171 A  
HETATM   11  N   UNL     1     -11.143   9.889  69.504  1.00  0.00    -0.233 NA 
HETATM   12  N   UNL     1     -11.223  11.224  69.362  1.00  0.00    -0.262 NA 
ENDROOT
BRANCH  10  13
HETATM   13  C   UNL     1     -10.519   7.963  68.156  1.00  0.00    -0.227 A  
HETATM   14  C   UNL     1     -10.534   7.059  69.226  1.00  0.00    -0.223 A  
HETATM   15  C   UNL     1     -10.303   5.687  69.011  1.00  0.00    -0.314 A  
HETATM   16  C   UNL     1     -10.325   7.428  66.865  1.00  0.00    -0.367 A  
HETATM   17  C   UNL     1     -10.096   5.180  67.722  1.00  0.00    -0.144 A  
HETATM   18  C   UNL     1     -10.116   6.058  66.645  1.00  0.00    -0.226 A  
BRANCH  17  19
HETATM   19  O   UNL     1      -9.786   3.842  67.643  1.00  0.00    -0.178 OA 
BRANCH  19  20
HETATM   20  C   UNL     1      -8.697   3.401  66.922  1.00  0.00    -0.123 A  
HETATM   21  C   UNL     1      -8.970   2.696  65.744  1.00  0.00    -0.133 A  
HETATM   22  C   UNL     1      -6.624   2.714  65.170  1.00  0.00    -0.035 A  
HETATM   23  C   UNL     1      -7.382   3.760  67.221  1.00  0.00    -0.067 A  
HETATM   24  C   UNL     1      -7.936   2.349  64.872  1.00  0.00    -0.078 A  
HETATM   25  C   UNL     1      -6.347   3.411  66.344  1.00  0.00    -0.029 A  
ENDBRANCH  19  20
ENDBRANCH  17  19
ENDBRANCH  10  13
BRANCH  12  26
HETATM   26  C   UNL     1     -11.727  12.056  70.453  1.00  0.00    -0.084 C  
HETATM   27  C   UNL     1     -12.469  15.547  71.433  1.00  0.00    -0.417 C  
HETATM   28  C   UNL     1     -12.873  11.372  71.223  1.00  0.00    -0.481 C  
HETATM   29  C   UNL     1     -13.931  13.609  71.610  1.00  0.00    -0.092 C  
HETATM   30  C   UNL     1     -13.485  12.309  72.265  1.00  0.00    -0.365 C  
HETATM   31  O   UNL     1     -13.106  16.103  72.331  1.00  0.00    -0.404 OA 
HETATM   32  N   UNL     1     -12.779  14.268  70.995  1.00  0.00    -0.339 N  
HETATM   33  C   UNL     1     -12.119  13.464  69.947  1.00  0.00    -0.322 C  
BRANCH  27  34
HETATM   34  C   UNL     1     -11.329  16.270  70.807  1.00  0.00    -0.327 C  
HETATM   35  C   UNL     1     -11.207  16.279  69.472  1.00  0.00    -0.308 C  
ENDBRANCH  27  34
ENDBRANCH  12  26
TORSDOF 5
ENDMDL
MODEL      127
REMARK 921   NORMALIZED FREE ENERGY PREDICTED BY IDOCK:   -5.04 KCAL/MOL
REMARK 922        TOTAL FREE ENERGY PREDICTED BY IDOCK:   -6.99 KCAL/MOL
REMARK 923 INTER-LIGAND FREE ENERGY PREDICTED BY IDOCK:   -6.16 KCAL/MOL
REMARK 924 INTRA-LIGAND FREE ENERGY PREDICTED BY IDOCK:   -0.82 KCAL/MOL
REMARK 927      BINDING AFFINITY PREDICTED BY RF-SCORE:    0.00 PKD
ROOT
HETATM    1  N   UNL     1     -10.596  14.548  66.758  1.00  0.00    -0.273 NA 
HETATM    2  C   UNL     1     -10.530  13.297  67.361  1.00  0.00    -0.243 A  
HETATM    3  H1  UNL     1      -9.768  15.129  66.889  1.00  0.00     0.000 HD 
HETATM    4  H2  UNL     1     -11.432  15.046  67.067  1.00  0.00     0.000 HD 
HETATM    5  N   UNL     1     -11.627  12.527  67.187  1.00  0.00    -0.350 NA 
HETATM    6  C   UNL     1     -11.616  11.265  67.648  1.00  0.00    -0.210 A  
HETATM    7  N   UNL     1     -10.609  10.632  68.258  1.00  0.00    -0.180 NA 
HETATM    8  C   UNL     1      -9.552  11.440  68.440  1.00  0.00    -0.197 A  
HETATM    9  C   UNL     1      -9.429  12.772  68.059  1.00  0.00    -0.213 A  
HETATM   10  C   UNL     1      -8.121  13.163  68.523  1.00  0.00    -0.087 A  
HETATM   11  N   UNL     1      -7.485  12.103  69.073  1.00  0.00    -0.023 NA 
HETATM   12  N   UNL     1      -8.364  11.086  69.009  1.00  0.00    -0.125 NA 
ENDROOT
BRANCH  10  13
HETATM   13  C   UNL     1      -7.400  14.456  68.462  1.00  0.00    -0.122 A  
HETATM   14  C   UNL     1      -7.927  15.665  68.933  1.00  0.00    -0.193 A  
HETATM   15  C   UNL     1      -7.197  16.863  68.812  1.00  0.00    -0.220 A  
HETATM   16  C   UNL     1      -6.097  14.489  67.925  1.00  0.00    -0.161 A  
HETATM   17  C   UNL     1      -5.910  16.875  68.259  1.00  0.00    -0.129 A  
HETATM   18  C   UNL     1      -5.358  15.677  67.822  1.00  0.00    -0.131 A  
BRANCH  17  19
HETATM   19  O   UNL     1      -5.332  18.114  68.103  1.00  0.00    -0.160 OA 
BRANCH  19  20
HETATM   20  C   UNL     1      -5.667  18.932  67.047  1.00  0.00    -0.148 A  
HETATM   21  C   UNL     1      -5.923  20.274  67.351  1.00  0.00    -0.215 A  
HETATM   22  C   UNL     1      -6.041  20.803  64.997  1.00  0.00    -0.308 A  
HETATM   23  C   UNL     1      -5.598  18.529  65.712  1.00  0.00    -0.215 A  
HETATM   24  C   UNL     1      -6.115  21.206  66.329  1.00  0.00    -0.327 A  
HETATM   25  C   UNL     1      -5.790  19.466  64.690  1.00  0.00    -0.304 A  
ENDBRANCH  19  20
ENDBRANCH  17  19
ENDBRANCH  10  13
BRANCH  12  26
HETATM   26  C   UNL     1      -7.980   9.747  69.454  1.00  0.00    -0.125 C  
HETATM   27  C   UNL     1      -8.584   7.194  72.064  1.00  0.00    -0.111 C  
HETATM   28  C   UNL     1      -7.740   8.789  68.272  1.00  0.00    -0.100 C  
HETATM   29  C   UNL     1      -8.618   6.891  69.649  1.00  0.00    -0.134 C  
HETATM   30  C   UNL     1      -7.481   7.360  68.753  1.00  0.00    -0.101 C  
HETATM   31  O   UNL     1      -8.344   5.993  72.206  1.00  0.00    -0.113 OA 
HETATM   32  N   UNL     1      -8.723   7.773  70.811  1.00  0.00    -0.133 N  
HETATM   33  C   UNL     1      -9.000   9.182  70.469  1.00  0.00    -0.232 C  
BRANCH  27  34
HETATM   34  C   UNL     1      -8.722   8.047  73.275  1.00  0.00    -0.308 C  
HETATM   35  C   UNL     1      -7.706   8.125  74.147  1.00  0.00    -0.270 C  
ENDBRANCH  27  34
ENDBRANCH  12  26
TORSDOF 5
ENDMDL
MODEL      128
REMARK 921   NORMALIZED FREE ENERGY PREDICTED BY IDOCK:   -5.04 KCAL/MOL
REMARK 922        TOTAL FREE ENERGY PREDICTED BY IDOCK:   -6.99 KCAL/MOL
REMARK 923 INTER-LIGAND FREE ENERGY PREDICTED BY IDOCK:   -5.84 KCAL/MOL
REMARK 924 INTRA-LIGAND FREE ENERGY PREDICTED BY IDOCK:   -1.15 KCAL/MOL
REMARK 927      BINDING AFFINITY PREDICTED BY RF-SCORE:    0.00 PKD
ROOT
HETATM    1  N   UNL     1     -10.942  14.655  67.499  1.00  0.00    -0.290 NA 
HETATM    2  C   UNL     1     -10.849  13.310  67.840  1.00  0.00    -0.243 A  
HETATM    3  H1  UNL     1     -10.073  15.180  67.598  1.00  0.00     0.000 HD 
HETATM    4  H2  UNL     1     -11.690  15.103  68.029  1.00  0.00     0.000 HD 
HETATM    5  N   UNL     1     -12.000  12.613  67.709  1.00  0.00    -0.374 NA 
HETATM    6  C   UNL     1     -11.985  11.286  67.919  1.00  0.00    -0.002 A  
HETATM    7  N   UNL     1     -10.930  10.524  68.226  1.00  0.00    -0.243 NA 
HETATM    8  C   UNL     1      -9.815  11.258  68.377  1.00  0.00    -0.199 A  
HETATM    9  C   UNL     1      -9.682  12.635  68.236  1.00  0.00    -0.216 A  
HETATM   10  C   UNL     1      -8.298  12.900  68.542  1.00  0.00    -0.054 A  
HETATM   11  N   UNL     1      -7.642  11.739  68.772  1.00  0.00    -0.123 NA 
HETATM   12  N   UNL     1      -8.573  10.774  68.666  1.00  0.00    -0.144 NA 
ENDROOT
BRANCH  10  13
HETATM   13  C   UNL     1      -7.527  14.163  68.605  1.00  0.00    -0.125 A  
HETATM   14  C   UNL     1      -7.930  15.287  69.338  1.00  0.00    -0.223 A  
HETATM   15  C   UNL     1      -7.162  16.467  69.324  1.00  0.00    -0.221 A  
HETATM   16  C   UNL     1      -6.301  14.252  67.914  1.00  0.00    -0.173 A  
HETATM   17  C   UNL     1      -5.956  16.538  68.616  1.00  0.00    -0.132 A  
HETATM   18  C   UNL     1      -5.522  15.420  67.915  1.00  0.00    -0.139 A  
BRANCH  17  19
HETATM   19  O   UNL     1      -5.340  17.769  68.596  1.00  0.00    -0.146 OA 
BRANCH  19  20
HETATM   20  C   UNL     1      -5.882  18.829  67.903  1.00  0.00    -0.197 A  
HETATM   21  C   UNL     1      -5.652  20.105  68.429  1.00  0.00    -0.263 A  
HETATM   22  C   UNL     1      -6.626  21.112  66.461  1.00  0.00    -0.285 A  
HETATM   23  C   UNL     1      -6.487  18.698  66.651  1.00  0.00    -0.209 A  
HETATM   24  C   UNL     1      -6.027  21.244  67.712  1.00  0.00    -0.413 A  
HETATM   25  C   UNL     1      -6.862  19.842  65.935  1.00  0.00    -0.289 A  
ENDBRANCH  19  20
ENDBRANCH  17  19
ENDBRANCH  10  13
BRANCH  12  26
HETATM   26  C   UNL     1      -8.196   9.366  68.785  1.00  0.00    -0.108 C  
HETATM   27  C   UNL     1      -8.240   6.116  67.016  1.00  0.00    -0.106 C  
HETATM   28  C   UNL     1      -6.859   9.184  69.529  1.00  0.00    -0.048 C  
HETATM   29  C   UNL     1      -6.345   7.199  68.091  1.00  0.00    -0.043 C  
HETATM   30  C   UNL     1      -6.408   7.723  69.519  1.00  0.00    -0.034 C  
HETATM   31  O   UNL     1      -7.684   5.023  67.148  1.00  0.00    -0.090 OA 
HETATM   32  N   UNL     1      -7.668   7.293  67.476  1.00  0.00    -0.109 N  
HETATM   33  C   UNL     1      -8.199   8.669  67.405  1.00  0.00    -0.105 C  
BRANCH  27  34
HETATM   34  C   UNL     1      -9.568   6.170  66.348  1.00  0.00    -0.162 C  
HETATM   35  C   UNL     1     -10.530   5.313  66.721  1.00  0.00    -0.330 C  
ENDBRANCH  27  34
ENDBRANCH  12  26
TORSDOF 5
ENDMDL
MODEL      129
REMARK 921   NORMALIZED FREE ENERGY PREDICTED BY IDOCK:   -4.98 KCAL/MOL
REMARK 922        TOTAL FREE ENERGY PREDICTED BY IDOCK:   -6.91 KCAL/MOL
REMARK 923 INTER-LIGAND FREE ENERGY PREDICTED BY IDOCK:   -6.62 KCAL/MOL
REMARK 924 INTRA-LIGAND FREE ENERGY PREDICTED BY IDOCK:   -0.29 KCAL/MOL
REMARK 927      BINDING AFFINITY PREDICTED BY RF-SCORE:    0.00 PKD
ROOT
HETATM    1  N   UNL     1      -8.659   7.476  64.586  1.00  0.00    -0.365 NA 
HETATM    2  C   UNL     1      -8.423   6.482  65.529  1.00  0.00    -0.136 A  
HETATM    3  H1  UNL     1      -9.097   8.319  64.957  1.00  0.00     0.000 HD 
HETATM    4  H2  UNL     1      -9.205   7.104  63.809  1.00  0.00     0.000 HD 
HETATM    5  N   UNL     1      -7.841   5.365  65.039  1.00  0.00    -0.091 NA 
HETATM    6  C   UNL     1      -7.484   4.389  65.891  1.00  0.00    -0.081 A  
HETATM    7  N   UNL     1      -7.606   4.389  67.223  1.00  0.00    -0.081 NA 
HETATM    8  C   UNL     1      -8.216   5.501  67.665  1.00  0.00    -0.101 A  
HETATM    9  C   UNL     1      -8.679   6.572  66.909  1.00  0.00    -0.115 A  
HETATM   10  C   UNL     1      -9.275   7.466  67.869  1.00  0.00    -0.131 A  
HETATM   11  N   UNL     1      -9.103   6.985  69.122  1.00  0.00    -0.137 NA 
HETATM   12  N   UNL     1      -8.466   5.809  68.971  1.00  0.00    -0.104 NA 
ENDROOT
BRANCH  10  13
HETATM   13  C   UNL     1      -9.971   8.764  67.708  1.00  0.00    -0.243 A  
HETATM   14  C   UNL     1     -10.780   9.342  68.695  1.00  0.00    -0.196 A  
HETATM   15  C   UNL     1     -11.439  10.563  68.459  1.00  0.00    -0.284 A  
HETATM   16  C   UNL     1      -9.804   9.486  66.509  1.00  0.00    -0.305 A  
HETATM   17  C   UNL     1     -11.272  11.256  67.253  1.00  0.00    -0.296 A  
HETATM   18  C   UNL     1     -10.443  10.714  66.278  1.00  0.00    -0.268 A  
BRANCH  17  19
HETATM   19  O   UNL     1     -12.038  12.388  67.096  1.00  0.00    -0.532 OA 
BRANCH  19  20
HETATM   20  C   UNL     1     -11.639  13.413  66.267  1.00  0.00    -0.344 A  
HETATM   21  C   UNL     1     -12.366  13.579  65.083  1.00  0.00    -0.488 A  
HETATM   22  C   UNL     1     -11.181  15.634  64.623  1.00  0.00    -0.380 A  
HETATM   23  C   UNL     1     -10.681  14.362  66.626  1.00  0.00    -0.292 A  
HETATM   24  C   UNL     1     -12.135  14.684  64.260  1.00  0.00    -0.437 A  
HETATM   25  C   UNL     1     -10.452  15.470  65.800  1.00  0.00    -0.378 A  
ENDBRANCH  19  20
ENDBRANCH  17  19
ENDBRANCH  10  13
BRANCH  12  26
HETATM   26  C   UNL     1      -8.049   5.037  70.140  1.00  0.00    -0.081 C  
HETATM   27  C   UNL     1      -9.019   2.236  72.355  1.00  0.00    -0.073 C  
HETATM   28  C   UNL     1      -6.524   4.818  70.177  1.00  0.00    -0.035 C  
HETATM   29  C   UNL     1      -6.886   2.577  71.235  1.00  0.00    -0.031 C  
HETATM   30  C   UNL     1      -6.120   3.889  71.323  1.00  0.00    -0.014 C  
HETATM   31  O   UNL     1      -8.458   1.533  73.199  1.00  0.00    -0.055 OA 
HETATM   32  N   UNL     1      -8.321   2.840  71.320  1.00  0.00    -0.061 N  
HETATM   33  C   UNL     1      -8.835   3.710  70.242  1.00  0.00    -0.088 C  
BRANCH  27  34
HETATM   34  C   UNL     1     -10.489   2.445  72.456  1.00  0.00    -0.175 C  
HETATM   35  C   UNL     1     -10.960   3.507  73.125  1.00  0.00    -0.221 C  
ENDBRANCH  27  34
ENDBRANCH  12  26
TORSDOF 5
ENDMDL
MODEL      130
REMARK 921   NORMALIZED FREE ENERGY PREDICTED BY IDOCK:   -4.96 KCAL/MOL
REMARK 922        TOTAL FREE ENERGY PREDICTED BY IDOCK:   -6.88 KCAL/MOL
REMARK 923 INTER-LIGAND FREE ENERGY PREDICTED BY IDOCK:   -6.86 KCAL/MOL
REMARK 924 INTRA-LIGAND FREE ENERGY PREDICTED BY IDOCK:   -0.02 KCAL/MOL
REMARK 927      BINDING AFFINITY PREDICTED BY RF-SCORE:    0.00 PKD
ROOT
HETATM    1  N   UNL     1      -5.971   9.335  70.456  1.00  0.00    -0.042 NA 
HETATM    2  C   UNL     1      -6.486  10.511  69.923  1.00  0.00    -0.116 A  
HETATM    3  H1  UNL     1      -6.433   8.484  70.135  1.00  0.00     0.000 HD 
HETATM    4  H2  UNL     1      -5.974   9.378  71.476  1.00  0.00     0.000 HD 
HETATM    5  N   UNL     1      -5.874  11.639  70.347  1.00  0.00    -0.161 NA 
HETATM    6  C   UNL     1      -6.235  12.817  69.811  1.00  0.00    -0.108 A  
HETATM    7  N   UNL     1      -7.140  13.028  68.849  1.00  0.00    -0.093 NA 
HETATM    8  C   UNL     1      -7.746  11.888  68.479  1.00  0.00    -0.135 A  
HETATM    9  C   UNL     1      -7.513  10.608  68.967  1.00  0.00    -0.117 A  
HETATM   10  C   UNL     1      -8.450   9.772  68.260  1.00  0.00    -0.114 A  
HETATM   11  N   UNL     1      -9.137  10.506  67.355  1.00  0.00    -0.139 NA 
HETATM   12  N   UNL     1      -8.695  11.767  67.507  1.00  0.00    -0.153 NA 
ENDROOT
BRANCH  10  13
HETATM   13  C   UNL     1      -8.734   8.320  68.343  1.00  0.00    -0.133 A  
HETATM   14  C   UNL     1      -7.743   7.330  68.326  1.00  0.00    -0.120 A  
HETATM   15  C   UNL     1      -8.089   5.966  68.374  1.00  0.00    -0.109 A  
HETATM   16  C   UNL     1     -10.070   7.890  68.471  1.00  0.00    -0.216 A  
HETATM   17  C   UNL     1      -9.425   5.561  68.484  1.00  0.00    -0.122 A  
HETATM   18  C   UNL     1     -10.418   6.532  68.541  1.00  0.00    -0.257 A  
BRANCH  17  19
HETATM   19  O   UNL     1      -9.651   4.204  68.427  1.00  0.00    -0.156 OA 
BRANCH  19  20
HETATM   20  C   UNL     1      -9.277   3.372  69.459  1.00  0.00    -0.155 A  
HETATM   21  C   UNL     1      -8.347   2.373  69.152  1.00  0.00    -0.078 A  
HETATM   22  C   UNL     1      -8.160   1.803  71.492  1.00  0.00    -0.042 A  
HETATM   23  C   UNL     1      -9.648   3.584  70.788  1.00  0.00    -0.246 A  
HETATM   24  C   UNL     1      -7.793   1.587  70.165  1.00  0.00    -0.046 A  
HETATM   25  C   UNL     1      -9.090   2.794  71.801  1.00  0.00    -0.150 A  
ENDBRANCH  19  20
ENDBRANCH  17  19
ENDBRANCH  10  13
BRANCH  12  26
HETATM   26  C   UNL     1      -9.177  12.831  66.627  1.00  0.00    -0.212 C  
HETATM   27  C   UNL     1     -11.937  13.792  64.356  1.00  0.00    -0.445 C  
HETATM   28  C   UNL     1      -8.866  14.232  67.187  1.00  0.00    -0.243 C  
HETATM   29  C   UNL     1     -10.997  15.090  66.188  1.00  0.00    -0.334 C  
HETATM   30  C   UNL     1      -9.501  15.331  66.332  1.00  0.00    -0.326 C  
HETATM   31  O   UNL     1     -12.333  14.834  63.829  1.00  0.00    -0.697 OA 
HETATM   32  N   UNL     1     -11.225  13.796  65.547  1.00  0.00    -0.297 N  
HETATM   33  C   UNL     1     -10.677  12.650  66.300  1.00  0.00    -0.256 C  
BRANCH  27  34
HETATM   34  C   UNL     1     -12.226  12.494  63.690  1.00  0.00    -0.642 C  
HETATM   35  C   UNL     1     -11.214  11.669  63.384  1.00  0.00    -0.401 C  
ENDBRANCH  27  34
ENDBRANCH  12  26
TORSDOF 5
ENDMDL
MODEL      131
REMARK 921   NORMALIZED FREE ENERGY PREDICTED BY IDOCK:   -4.94 KCAL/MOL
REMARK 922        TOTAL FREE ENERGY PREDICTED BY IDOCK:   -6.86 KCAL/MOL
REMARK 923 INTER-LIGAND FREE ENERGY PREDICTED BY IDOCK:   -6.37 KCAL/MOL
REMARK 924 INTRA-LIGAND FREE ENERGY PREDICTED BY IDOCK:   -0.49 KCAL/MOL
REMARK 927      BINDING AFFINITY PREDICTED BY RF-SCORE:    0.00 PKD
ROOT
HETATM    1  N   UNL     1      -9.035   9.953  63.866  1.00  0.00    -0.232 NA 
HETATM    2  C   UNL     1      -8.764   8.841  64.655  1.00  0.00    -0.068 A  
HETATM    3  H1  UNL     1      -9.465  10.733  64.363  1.00  0.00     0.000 HD 
HETATM    4  H2  UNL     1      -9.605   9.686  63.063  1.00  0.00     0.000 HD 
HETATM    5  N   UNL     1      -8.194   7.806  63.998  1.00  0.00    -0.060 NA 
HETATM    6  C   UNL     1      -7.804   6.727  64.696  1.00  0.00    -0.116 A  
HETATM    7  N   UNL     1      -7.882   6.543  66.018  1.00  0.00    -0.099 NA 
HETATM    8  C   UNL     1      -8.482   7.578  66.629  1.00  0.00    -0.130 A  
HETATM    9  C   UNL     1      -8.974   8.738  66.041  1.00  0.00    -0.235 A  
HETATM   10  C   UNL     1      -9.542   9.487  67.135  1.00  0.00    -0.160 A  
HETATM   11  N   UNL     1      -9.326   8.840  68.303  1.00  0.00    -0.137 NA 
HETATM   12  N   UNL     1      -8.690   7.702  67.971  1.00  0.00    -0.126 NA 
ENDROOT
BRANCH  10  13
HETATM   13  C   UNL     1     -10.249  10.788  67.176  1.00  0.00    -0.255 A  
HETATM   14  C   UNL     1     -11.109  11.240  66.167  1.00  0.00    -0.207 A  
HETATM   15  C   UNL     1     -11.722  12.504  66.258  1.00  0.00    -0.462 A  
HETATM   16  C   UNL     1     -10.080  11.624  68.299  1.00  0.00    -0.206 A  
HETATM   17  C   UNL     1     -11.526  13.326  67.375  1.00  0.00    -0.332 A  
HETATM   18  C   UNL     1     -10.706  12.876  68.403  1.00  0.00    -0.273 A  
BRANCH  17  19
HETATM   19  O   UNL     1     -12.096  14.577  67.312  1.00  0.00    -0.392 OA 
BRANCH  19  20
HETATM   20  C   UNL     1     -11.322  15.715  67.262  1.00  0.00    -0.122 A  
HETATM   21  C   UNL     1     -10.861  16.104  66.000  1.00  0.00    -0.155 A  
HETATM   22  C   UNL     1     -10.013  18.168  66.926  1.00  0.00    -0.345 A  
HETATM   23  C   UNL     1     -11.125  16.557  68.358  1.00  0.00    -0.333 A  
HETATM   24  C   UNL     1     -10.204  17.325  65.832  1.00  0.00    -0.273 A  
HETATM   25  C   UNL     1     -10.466  17.781  68.187  1.00  0.00    -0.382 A  
ENDBRANCH  19  20
ENDBRANCH  17  19
ENDBRANCH  10  13
BRANCH  12  26
HETATM   26  C   UNL     1      -8.230   6.781  69.010  1.00  0.00    -0.117 C  
HETATM   27  C   UNL     1      -9.376   4.281  71.486  1.00  0.00    -0.141 C  
HETATM   28  C   UNL     1      -6.888   6.118  68.644  1.00  0.00    -0.070 C  
HETATM   29  C   UNL     1      -7.612   4.032  69.827  1.00  0.00    -0.052 C  
HETATM   30  C   UNL     1      -6.493   5.053  69.668  1.00  0.00    -0.035 C  
HETATM   31  O   UNL     1      -8.849   3.400  72.170  1.00  0.00    -0.091 OA 
HETATM   32  N   UNL     1      -8.827   4.705  70.284  1.00  0.00    -0.081 N  
HETATM   33  C   UNL     1      -9.321   5.743  69.357  1.00  0.00    -0.126 C  
BRANCH  27  34
HETATM   34  C   UNL     1     -10.634   4.910  71.969  1.00  0.00    -0.210 C  
HETATM   35  C   UNL     1     -11.113   4.583  73.178  1.00  0.00    -0.350 C  
ENDBRANCH  27  34
ENDBRANCH  12  26
TORSDOF 5
ENDMDL
MODEL      132
REMARK 921   NORMALIZED FREE ENERGY PREDICTED BY IDOCK:   -4.91 KCAL/MOL
REMARK 922        TOTAL FREE ENERGY PREDICTED BY IDOCK:   -6.81 KCAL/MOL
REMARK 923 INTER-LIGAND FREE ENERGY PREDICTED BY IDOCK:   -6.28 KCAL/MOL
REMARK 924 INTRA-LIGAND FREE ENERGY PREDICTED BY IDOCK:   -0.53 KCAL/MOL
REMARK 927      BINDING AFFINITY PREDICTED BY RF-SCORE:    0.00 PKD
ROOT
HETATM    1  N   UNL     1      -7.765  10.847  65.129  1.00  0.00    -0.358 NA 
HETATM    2  C   UNL     1      -8.334   9.782  65.818  1.00  0.00    -0.129 A  
HETATM    3  H1  UNL     1      -7.737  11.724  65.649  1.00  0.00     0.000 HD 
HETATM    4  H2  UNL     1      -8.234  10.980  64.233  1.00  0.00     0.000 HD 
HETATM    5  N   UNL     1      -8.371   8.619  65.131  1.00  0.00    -0.160 NA 
HETATM    6  C   UNL     1      -8.811   7.511  65.750  1.00  0.00    -0.090 A  
HETATM    7  N   UNL     1      -9.209   7.393  67.021  1.00  0.00    -0.136 NA 
HETATM    8  C   UNL     1      -9.188   8.575  67.658  1.00  0.00    -0.134 A  
HETATM    9  C   UNL     1      -8.800   9.808  67.144  1.00  0.00    -0.141 A  
HETATM   10  C   UNL     1      -9.004  10.735  68.229  1.00  0.00    -0.143 A  
HETATM   11  N   UNL     1      -9.411  10.073  69.337  1.00  0.00    -0.211 NA 
HETATM   12  N   UNL     1      -9.512   8.784  68.967  1.00  0.00    -0.159 NA 
ENDROOT
BRANCH  10  13
HETATM   13  C   UNL     1      -8.814  12.202  68.322  1.00  0.00    -0.182 A  
HETATM   14  C   UNL     1      -9.767  13.139  67.902  1.00  0.00    -0.221 A  
HETATM   15  C   UNL     1      -9.503  14.519  67.989  1.00  0.00    -0.209 A  
HETATM   16  C   UNL     1      -7.622  12.704  68.884  1.00  0.00     0.055 A  
HETATM   17  C   UNL     1      -8.305  14.995  68.535  1.00  0.00    -0.161 A  
HETATM   18  C   UNL     1      -7.365  14.079  68.992  1.00  0.00    -0.081 A  
BRANCH  17  19
HETATM   19  O   UNL     1      -8.117  16.358  68.481  1.00  0.00    -0.184 OA 
BRANCH  19  20
HETATM   20  C   UNL     1      -9.049  17.186  67.895  1.00  0.00    -0.230 A  
HETATM   21  C   UNL     1      -9.459  18.295  68.643  1.00  0.00    -0.343 A  
HETATM   22  C   UNL     1     -10.683  19.146  66.742  1.00  0.00    -0.488 A  
HETATM   23  C   UNL     1      -9.460  17.060  66.567  1.00  0.00    -0.295 A  
HETATM   24  C   UNL     1     -10.278  19.271  68.070  1.00  0.00    -0.507 A  
HETATM   25  C   UNL     1     -10.280  18.040  65.995  1.00  0.00    -0.304 A  
ENDBRANCH  19  20
ENDBRANCH  17  19
ENDBRANCH  10  13
BRANCH  12  26
HETATM   26  C   UNL     1      -9.864   7.758  69.948  1.00  0.00    -0.177 C  
HETATM   27  C   UNL     1      -8.787   4.521  71.383  1.00  0.00    -0.122 C  
HETATM   28  C   UNL     1     -10.477   8.363  71.225  1.00  0.00    -0.273 C  
HETATM   29  C   UNL     1      -9.411   6.546  72.581  1.00  0.00    -0.140 C  
HETATM   30  C   UNL     1     -10.705   7.295  72.296  1.00  0.00    -0.266 C  
HETATM   31  O   UNL     1      -9.070   3.852  72.379  1.00  0.00    -0.107 OA 
HETATM   32  N   UNL     1      -8.939   5.900  71.357  1.00  0.00    -0.140 N  
HETATM   33  C   UNL     1      -8.658   6.841  70.254  1.00  0.00    -0.140 C  
BRANCH  27  34
HETATM   34  C   UNL     1      -8.272   3.827  70.172  1.00  0.00    -0.072 C  
HETATM   35  C   UNL     1      -6.978   3.478  70.111  1.00  0.00    -0.034 C  
ENDBRANCH  27  34
ENDBRANCH  12  26
TORSDOF 5
ENDMDL
MODEL      133
REMARK 921   NORMALIZED FREE ENERGY PREDICTED BY IDOCK:   -4.89 KCAL/MOL
REMARK 922        TOTAL FREE ENERGY PREDICTED BY IDOCK:   -6.79 KCAL/MOL
REMARK 923 INTER-LIGAND FREE ENERGY PREDICTED BY IDOCK:   -5.98 KCAL/MOL
REMARK 924 INTRA-LIGAND FREE ENERGY PREDICTED BY IDOCK:   -0.81 KCAL/MOL
REMARK 927      BINDING AFFINITY PREDICTED BY RF-SCORE:    0.00 PKD
ROOT
HETATM    1  N   UNL     1      -5.221  10.473  65.284  1.00  0.00    -0.107 NA 
HETATM    2  C   UNL     1      -6.121  11.070  66.160  1.00  0.00    -0.119 A  
HETATM    3  H1  UNL     1      -5.572   9.635  64.819  1.00  0.00     0.000 HD 
HETATM    4  H2  UNL     1      -4.342  10.272  65.762  1.00  0.00     0.000 HD 
HETATM    5  N   UNL     1      -5.657  12.180  66.776  1.00  0.00    -0.310 NA 
HETATM    6  C   UNL     1      -6.488  12.882  67.564  1.00  0.00    -0.160 A  
HETATM    7  N   UNL     1      -7.780  12.635  67.809  1.00  0.00    -0.131 NA 
HETATM    8  C   UNL     1      -8.191  11.508  67.204  1.00  0.00    -0.161 A  
HETATM    9  C   UNL     1      -7.443  10.658  66.398  1.00  0.00    -0.138 A  
HETATM   10  C   UNL     1      -8.353   9.596  66.047  1.00  0.00    -0.120 A  
HETATM   11  N   UNL     1      -9.582   9.849  66.553  1.00  0.00    -0.180 NA 
HETATM   12  N   UNL     1      -9.456  10.999  67.239  1.00  0.00    -0.163 NA 
ENDROOT
BRANCH  10  13
HETATM   13  C   UNL     1      -8.169   8.367  65.240  1.00  0.00    -0.151 A  
HETATM   14  C   UNL     1      -8.271   7.070  65.760  1.00  0.00    -0.132 A  
HETATM   15  C   UNL     1      -8.050   5.947  64.940  1.00  0.00    -0.132 A  
HETATM   16  C   UNL     1      -7.899   8.487  63.861  1.00  0.00    -0.149 A  
HETATM   17  C   UNL     1      -7.766   6.091  63.576  1.00  0.00    -0.097 A  
HETATM   18  C   UNL     1      -7.699   7.370  63.036  1.00  0.00    -0.129 A  
BRANCH  17  19
HETATM   19  O   UNL     1      -7.474   4.931  62.895  1.00  0.00    -0.046 OA 
BRANCH  19  20
HETATM   20  C   UNL     1      -8.352   3.869  62.884  1.00  0.00    -0.082 A  
HETATM   21  C   UNL     1      -7.874   2.657  63.395  1.00  0.00    -0.072 A  
HETATM   22  C   UNL     1     -10.086   1.699  63.238  1.00  0.00    -0.120 A  
HETATM   23  C   UNL     1      -9.701   3.992  62.549  1.00  0.00    -0.133 A  
HETATM   24  C   UNL     1      -8.738   1.573  63.568  1.00  0.00    -0.076 A  
HETATM   25  C   UNL     1     -10.565   2.903  62.724  1.00  0.00    -0.170 A  
ENDBRANCH  19  20
ENDBRANCH  17  19
ENDBRANCH  10  13
BRANCH  12  26
HETATM   26  C   UNL     1     -10.623  11.617  67.867  1.00  0.00    -0.193 C  
HETATM   27  C   UNL     1     -12.517  11.859  71.037  1.00  0.00    -0.290 C  
HETATM   28  C   UNL     1     -10.852  13.059  67.373  1.00  0.00    -0.269 C  
HETATM   29  C   UNL     1     -11.716  13.684  69.640  1.00  0.00    -0.320 C  
HETATM   30  C   UNL     1     -11.984  13.741  68.142  1.00  0.00    -0.394 C  
HETATM   31  O   UNL     1     -13.385  12.602  71.501  1.00  0.00    -0.302 OA 
HETATM   32  N   UNL     1     -11.623  12.289  70.067  1.00  0.00    -0.219 N  
HETATM   33  C   UNL     1     -10.540  11.532  69.408  1.00  0.00    -0.010 C  
BRANCH  27  34
HETATM   34  C   UNL     1     -12.432  10.458  71.530  1.00  0.00    -0.508 C  
HETATM   35  C   UNL     1     -13.474   9.632  71.354  1.00  0.00    -0.403 C  
ENDBRANCH  27  34
ENDBRANCH  12  26
TORSDOF 5
ENDMDL
MODEL      134
REMARK 921   NORMALIZED FREE ENERGY PREDICTED BY IDOCK:   -4.88 KCAL/MOL
REMARK 922        TOTAL FREE ENERGY PREDICTED BY IDOCK:   -6.78 KCAL/MOL
REMARK 923 INTER-LIGAND FREE ENERGY PREDICTED BY IDOCK:   -5.59 KCAL/MOL
REMARK 924 INTRA-LIGAND FREE ENERGY PREDICTED BY IDOCK:   -1.19 KCAL/MOL
REMARK 927      BINDING AFFINITY PREDICTED BY RF-SCORE:    0.00 PKD
ROOT
HETATM    1  N   UNL     1      -6.072  11.714  69.839  1.00  0.00    -0.133 NA 
HETATM    2  C   UNL     1      -6.459  13.050  69.853  1.00  0.00     0.043 A  
HETATM    3  H1  UNL     1      -6.673  11.103  69.286  1.00  0.00     0.000 HD 
HETATM    4  H2  UNL     1      -5.987  11.360  70.792  1.00  0.00     0.000 HD 
HETATM    5  N   UNL     1      -5.662  13.860  70.586  1.00  0.00    -0.162 NA 
HETATM    6  C   UNL     1      -5.898  15.183  70.578  1.00  0.00    -0.105 A  
HETATM    7  N   UNL     1      -6.839  15.838  69.889  1.00  0.00    -0.109 NA 
HETATM    8  C   UNL     1      -7.626  14.994  69.201  1.00  0.00    -0.176 A  
HETATM    9  C   UNL     1      -7.535  13.608  69.143  1.00  0.00     0.098 A  
HETATM   10  C   UNL     1      -8.635  13.207  68.301  1.00  0.00    -0.166 A  
HETATM   11  N   UNL     1      -9.283  14.297  67.831  1.00  0.00    -0.187 NA 
HETATM   12  N   UNL     1      -8.658  15.352  68.385  1.00  0.00    -0.157 NA 
ENDROOT
BRANCH  10  13
HETATM   13  C   UNL     1      -9.111  11.871  67.872  1.00  0.00    -0.183 A  
HETATM   14  C   UNL     1      -8.988  11.382  66.565  1.00  0.00    -0.192 A  
HETATM   15  C   UNL     1      -9.495  10.115  66.222  1.00  0.00    -0.229 A  
HETATM   16  C   UNL     1      -9.703  11.017  68.825  1.00  0.00    -0.199 A  
HETATM   17  C   UNL     1     -10.095   9.290  67.181  1.00  0.00    -0.236 A  
HETATM   18  C   UNL     1     -10.191   9.744  68.491  1.00  0.00    -0.209 A  
BRANCH  17  19
HETATM   19  O   UNL     1     -10.639   8.115  66.712  1.00  0.00    -0.313 OA 
BRANCH  19  20
HETATM   20  C   UNL     1     -10.013   6.905  66.917  1.00  0.00    -0.200 A  
HETATM   21  C   UNL     1     -10.722   5.761  66.534  1.00  0.00    -0.274 A  
HETATM   22  C   UNL     1      -8.777   4.393  66.958  1.00  0.00    -0.108 A  
HETATM   23  C   UNL     1      -8.682   6.788  67.322  1.00  0.00    -0.119 A  
HETATM   24  C   UNL     1     -10.107   4.507  66.559  1.00  0.00    -0.257 A  
HETATM   25  C   UNL     1      -8.069   5.529  67.345  1.00  0.00    -0.101 A  
ENDBRANCH  19  20
ENDBRANCH  17  19
ENDBRANCH  10  13
BRANCH  12  26
HETATM   26  C   UNL     1      -9.056  16.715  68.034  1.00  0.00    -0.218 C  
HETATM   27  C   UNL     1      -8.210  19.597  65.872  1.00  0.00    -0.202 C  
HETATM   28  C   UNL     1     -10.587  16.890  68.032  1.00  0.00    -0.367 C  
HETATM   29  C   UNL     1     -10.382  18.535  66.154  1.00  0.00    -0.426 C  
HETATM   30  C   UNL     1     -10.990  18.276  67.525  1.00  0.00    -0.140 C  
HETATM   31  O   UNL     1      -8.771  20.635  65.514  1.00  0.00     0.393 OA 
HETATM   32  N   UNL     1      -8.924  18.467  66.244  1.00  0.00    -0.242 N  
HETATM   33  C   UNL     1      -8.413  17.159  66.701  1.00  0.00    -0.250 C  
BRANCH  27  34
HETATM   34  C   UNL     1      -6.724  19.559  65.911  1.00  0.00    -0.267 C  
HETATM   35  C   UNL     1      -6.076  20.116  66.945  1.00  0.00    -0.201 C  
ENDBRANCH  27  34
ENDBRANCH  12  26
TORSDOF 5
ENDMDL
MODEL      135
REMARK 921   NORMALIZED FREE ENERGY PREDICTED BY IDOCK:   -4.76 KCAL/MOL
REMARK 922        TOTAL FREE ENERGY PREDICTED BY IDOCK:   -6.62 KCAL/MOL
REMARK 923 INTER-LIGAND FREE ENERGY PREDICTED BY IDOCK:   -6.51 KCAL/MOL
REMARK 924 INTRA-LIGAND FREE ENERGY PREDICTED BY IDOCK:   -0.11 KCAL/MOL
REMARK 927      BINDING AFFINITY PREDICTED BY RF-SCORE:    0.00 PKD
ROOT
HETATM    1  N   UNL     1     -10.183   8.454  66.082  1.00  0.00    -0.385 NA 
HETATM    2  C   UNL     1     -10.295   7.654  67.213  1.00  0.00    -0.297 A  
HETATM    3  H1  UNL     1      -9.975   9.434  66.272  1.00  0.00     0.000 HD 
HETATM    4  H2  UNL     1     -11.023   8.374  65.507  1.00  0.00     0.000 HD 
HETATM    5  N   UNL     1     -10.571   6.355  66.962  1.00  0.00    -0.287 NA 
HETATM    6  C   UNL     1     -10.599   5.486  67.986  1.00  0.00    -0.140 A  
HETATM    7  N   UNL     1     -10.351   5.740  69.275  1.00  0.00    -0.230 NA 
HETATM    8  C   UNL     1     -10.114   7.045  69.486  1.00  0.00    -0.173 A  
HETATM    9  C   UNL     1     -10.092   8.066  68.542  1.00  0.00    -0.218 A  
HETATM   10  C   UNL     1      -9.829   9.261  69.304  1.00  0.00    -0.172 A  
HETATM   11  N   UNL     1      -9.630   8.949  70.605  1.00  0.00    -0.197 NA 
HETATM   12  N   UNL     1      -9.806   7.618  70.686  1.00  0.00    -0.182 NA 
ENDROOT
BRANCH  10  13
HETATM   13  C   UNL     1      -9.715  10.682  68.900  1.00  0.00    -0.210 A  
HETATM   14  C   UNL     1      -8.495  11.340  68.698  1.00  0.00    -0.143 A  
HETATM   15  C   UNL     1      -8.463  12.703  68.348  1.00  0.00    -0.121 A  
HETATM   16  C   UNL     1     -10.891  11.427  68.678  1.00  0.00    -0.249 A  
HETATM   17  C   UNL     1      -9.645  13.428  68.149  1.00  0.00    -0.222 A  
HETATM   18  C   UNL     1     -10.864  12.780  68.308  1.00  0.00    -0.270 A  
BRANCH  17  19
HETATM   19  O   UNL     1      -9.492  14.774  67.903  1.00  0.00    -0.197 OA 
BRANCH  19  20
HETATM   20  C   UNL     1     -10.150  15.390  66.861  1.00  0.00    -0.257 A  
HETATM   21  C   UNL     1     -10.122  16.789  66.844  1.00  0.00    -0.286 A  
HETATM   22  C   UNL     1     -11.149  16.799  64.657  1.00  0.00     0.066 A  
HETATM   23  C   UNL     1     -10.681  14.697  65.772  1.00  0.00    -0.321 A  
HETATM   24  C   UNL     1     -10.624  17.492  65.746  1.00  0.00    -0.176 A  
HETATM   25  C   UNL     1     -11.183  15.405  64.673  1.00  0.00    -0.374 A  
ENDBRANCH  19  20
ENDBRANCH  17  19
ENDBRANCH  10  13
BRANCH  12  26
HETATM   26  C   UNL     1      -9.593   6.918  71.952  1.00  0.00    -0.154 C  
HETATM   27  C   UNL     1      -9.382   3.562  73.496  1.00  0.00    -0.103 C  
HETATM   28  C   UNL     1      -8.548   7.625  72.837  1.00  0.00    -0.190 C  
HETATM   29  C   UNL     1      -7.799   5.399  73.706  1.00  0.00    -0.102 C  
HETATM   30  C   UNL     1      -8.231   6.807  74.090  1.00  0.00    -0.148 C  
HETATM   31  O   UNL     1      -8.977   3.098  74.565  1.00  0.00    -0.081 OA 
HETATM   32  N   UNL     1      -8.875   4.740  72.967  1.00  0.00    -0.113 N  
HETATM   33  C   UNL     1      -9.252   5.429  71.717  1.00  0.00    -0.142 C  
BRANCH  27  34
HETATM   34  C   UNL     1     -10.451   2.837  72.758  1.00  0.00    -0.218 C  
HETATM   35  C   UNL     1     -10.129   1.774  72.006  1.00  0.00    -0.222 C  
ENDBRANCH  27  34
ENDBRANCH  12  26
TORSDOF 5
ENDMDL
MODEL      136
REMARK 921   NORMALIZED FREE ENERGY PREDICTED BY IDOCK:   -4.62 KCAL/MOL
REMARK 922        TOTAL FREE ENERGY PREDICTED BY IDOCK:   -6.44 KCAL/MOL
REMARK 923 INTER-LIGAND FREE ENERGY PREDICTED BY IDOCK:   -5.92 KCAL/MOL
REMARK 924 INTRA-LIGAND FREE ENERGY PREDICTED BY IDOCK:   -0.53 KCAL/MOL
REMARK 927      BINDING AFFINITY PREDICTED BY RF-SCORE:    0.00 PKD
ROOT
HETATM    1  N   UNL     1      -5.157  10.881  70.162  1.00  0.00    -0.047 NA 
HETATM    2  C   UNL     1      -6.092  11.831  69.767  1.00  0.00    -0.136 A  
HETATM    3  H1  UNL     1      -5.429   9.915  69.982  1.00  0.00     0.000 HD 
HETATM    4  H2  UNL     1      -4.920  11.006  71.147  1.00  0.00     0.000 HD 
HETATM    5  N   UNL     1      -5.731  13.112  70.004  1.00  0.00    -0.119 NA 
HETATM    6  C   UNL     1      -6.525  14.104  69.567  1.00  0.00    -0.127 A  
HETATM    7  N   UNL     1      -7.661  13.988  68.871  1.00  0.00    -0.111 NA 
HETATM    8  C   UNL     1      -7.999  12.702  68.684  1.00  0.00    -0.030 A  
HETATM    9  C   UNL     1      -7.308  11.573  69.110  1.00  0.00    -0.057 A  
HETATM   10  C   UNL     1      -8.121  10.464  68.680  1.00  0.00    -0.118 A  
HETATM   11  N   UNL     1      -9.186  10.913  67.976  1.00  0.00    -0.152 NA 
HETATM   12  N   UNL     1      -9.087  12.254  67.993  1.00  0.00    -0.185 NA 
ENDROOT
BRANCH  10  13
HETATM   13  C   UNL     1      -7.962   9.001  68.850  1.00  0.00    -0.100 A  
HETATM   14  C   UNL     1      -6.823   8.289  68.452  1.00  0.00    -0.065 A  
HETATM   15  C   UNL     1      -6.756   6.892  68.615  1.00  0.00    -0.060 A  
HETATM   16  C   UNL     1      -8.995   8.267  69.470  1.00  0.00    -0.150 A  
HETATM   17  C   UNL     1      -7.802   6.181  69.217  1.00  0.00    -0.104 A  
HETATM   18  C   UNL     1      -8.923   6.878  69.653  1.00  0.00    -0.144 A  
BRANCH  17  19
HETATM   19  O   UNL     1      -7.668   4.812  69.236  1.00  0.00    -0.063 OA 
BRANCH  19  20
HETATM   20  C   UNL     1      -8.073   4.038  68.171  1.00  0.00    -0.084 A  
HETATM   21  C   UNL     1      -8.339   2.691  68.441  1.00  0.00    -0.085 A  
HETATM   22  C   UNL     1      -9.213   2.398  66.208  1.00  0.00    -0.024 A  
HETATM   23  C   UNL     1      -8.379   4.563  66.914  1.00  0.00    -0.105 A  
HETATM   24  C   UNL     1      -8.904   1.872  67.461  1.00  0.00    -0.149 A  
HETATM   25  C   UNL     1      -8.946   3.739  65.934  1.00  0.00    -0.135 A  
ENDBRANCH  19  20
ENDBRANCH  17  19
ENDBRANCH  10  13
BRANCH  12  26
HETATM   26  C   UNL     1     -10.046  13.076  67.256  1.00  0.00    -0.235 C  
HETATM   27  C   UNL     1     -10.415  16.226  65.349  1.00  0.00    -0.343 C  
HETATM   28  C   UNL     1     -11.043  12.222  66.450  1.00  0.00    -0.345 C  
HETATM   29  C   UNL     1     -11.103  13.990  64.677  1.00  0.00    -0.382 C  
HETATM   30  C   UNL     1     -11.945  13.093  65.574  1.00  0.00    -0.457 C  
HETATM   31  O   UNL     1     -11.250  16.708  64.580  1.00  0.00    -0.727 OA 
HETATM   32  N   UNL     1     -10.261  14.856  65.502  1.00  0.00    -0.347 N  
HETATM   33  C   UNL     1      -9.324  14.122  66.376  1.00  0.00    -0.230 C  
BRANCH  27  34
HETATM   34  C   UNL     1      -9.551  17.144  66.139  1.00  0.00    -0.242 C  
HETATM   35  C   UNL     1      -9.785  17.305  67.450  1.00  0.00    -0.258 C  
ENDBRANCH  27  34
ENDBRANCH  12  26
TORSDOF 5
ENDMDL
MODEL      137
REMARK 921   NORMALIZED FREE ENERGY PREDICTED BY IDOCK:   -4.56 KCAL/MOL
REMARK 922        TOTAL FREE ENERGY PREDICTED BY IDOCK:   -6.37 KCAL/MOL
REMARK 923 INTER-LIGAND FREE ENERGY PREDICTED BY IDOCK:   -5.18 KCAL/MOL
REMARK 924 INTRA-LIGAND FREE ENERGY PREDICTED BY IDOCK:   -1.19 KCAL/MOL
REMARK 927      BINDING AFFINITY PREDICTED BY RF-SCORE:    0.00 PKD
ROOT
HETATM    1  N   UNL     1      -5.978  12.538  70.792  1.00  0.00    -0.520 NA 
HETATM    2  C   UNL     1      -6.033  13.914  70.603  1.00  0.00    -0.174 A  
HETATM    3  H1  UNL     1      -6.523  11.994  70.122  1.00  0.00     0.000 HD 
HETATM    4  H2  UNL     1      -6.250  12.300  71.746  1.00  0.00     0.000 HD 
HETATM    5  N   UNL     1      -5.310  14.635  71.490  1.00  0.00    -0.144 NA 
HETATM    6  C   UNL     1      -5.221  15.965  71.327  1.00  0.00    -0.054 A  
HETATM    7  N   UNL     1      -5.751  16.702  70.345  1.00  0.00    -0.163 NA 
HETATM    8  C   UNL     1      -6.485  15.953  69.505  1.00  0.00    -0.186 A  
HETATM    9  C   UNL     1      -6.705  14.582  69.565  1.00  0.00    -0.151 A  
HETATM   10  C   UNL     1      -7.584  14.306  68.456  1.00  0.00    -0.127 A  
HETATM   11  N   UNL     1      -7.803  15.434  67.743  1.00  0.00    -0.133 NA 
HETATM   12  N   UNL     1      -7.133  16.404  68.392  1.00  0.00    -0.151 NA 
ENDROOT
BRANCH  10  13
HETATM   13  C   UNL     1      -8.216  13.049  67.988  1.00  0.00    -0.161 A  
HETATM   14  C   UNL     1      -7.517  11.852  67.791  1.00  0.00    -0.121 A  
HETATM   15  C   UNL     1      -8.178  10.705  67.312  1.00  0.00    -0.116 A  
HETATM   16  C   UNL     1      -9.605  13.031  67.745  1.00  0.00    -0.208 A  
HETATM   17  C   UNL     1      -9.556  10.714  67.060  1.00  0.00    -0.169 A  
HETATM   18  C   UNL     1     -10.271  11.884  67.287  1.00  0.00    -0.220 A  
BRANCH  17  19
HETATM   19  O   UNL     1     -10.075   9.567  66.504  1.00  0.00    -0.239 OA 
BRANCH  19  20
HETATM   20  C   UNL     1      -9.696   9.146  65.249  1.00  0.00     0.086 A  
HETATM   21  C   UNL     1     -10.031   9.984  64.180  1.00  0.00     0.062 A  
HETATM   22  C   UNL     1      -8.728   8.615  62.675  1.00  0.00    -0.051 A  
HETATM   23  C   UNL     1      -8.874   8.039  65.026  1.00  0.00     0.126 A  
HETATM   24  C   UNL     1      -9.552   9.717  62.895  1.00  0.00     0.196 A  
HETATM   25  C   UNL     1      -8.395   7.775  63.737  1.00  0.00     0.112 A  
ENDBRANCH  19  20
ENDBRANCH  17  19
ENDBRANCH  10  13
BRANCH  12  26
HETATM   26  C   UNL     1      -7.089  17.762  67.852  1.00  0.00    -0.205 C  
HETATM   27  C   UNL     1      -6.357  19.727  64.803  1.00  0.00    -0.259 C  
HETATM   28  C   UNL     1      -8.225  18.643  68.405  1.00  0.00    -0.361 C  
HETATM   29  C   UNL     1      -8.337  19.850  66.213  1.00  0.00    -0.340 C  
HETATM   30  C   UNL     1      -8.252  20.013  67.724  1.00  0.00    -0.330 C  
HETATM   31  O   UNL     1      -6.570  20.878  64.414  1.00  0.00    -0.295 OA 
HETATM   32  N   UNL     1      -7.174  19.104  65.735  1.00  0.00    -0.273 N  
HETATM   33  C   UNL     1      -7.057  17.747  66.307  1.00  0.00    -0.294 C  
BRANCH  27  34
HETATM   34  C   UNL     1      -5.185  18.990  64.260  1.00  0.00    -0.258 C  
HETATM   35  C   UNL     1      -5.137  18.699  62.952  1.00  0.00    -0.059 C  
ENDBRANCH  27  34
ENDBRANCH  12  26
TORSDOF 5
ENDMDL
MODEL      138
REMARK 921   NORMALIZED FREE ENERGY PREDICTED BY IDOCK:   -4.56 KCAL/MOL
REMARK 922        TOTAL FREE ENERGY PREDICTED BY IDOCK:   -6.37 KCAL/MOL
REMARK 923 INTER-LIGAND FREE ENERGY PREDICTED BY IDOCK:   -5.88 KCAL/MOL
REMARK 924 INTRA-LIGAND FREE ENERGY PREDICTED BY IDOCK:   -0.48 KCAL/MOL
REMARK 927      BINDING AFFINITY PREDICTED BY RF-SCORE:    0.00 PKD
ROOT
HETATM    1  N   UNL     1      -5.322  10.723  66.800  1.00  0.00    -0.049 NA 
HETATM    2  C   UNL     1      -6.121  11.755  67.280  1.00  0.00    -0.124 A  
HETATM    3  H1  UNL     1      -5.800   9.828  66.694  1.00  0.00     0.000 HD 
HETATM    4  H2  UNL     1      -4.494  10.615  67.387  1.00  0.00     0.000 HD 
HETATM    5  N   UNL     1      -5.489  12.941  67.421  1.00  0.00    -0.319 NA 
HETATM    6  C   UNL     1      -6.202  14.020  67.782  1.00  0.00    -0.140 A  
HETATM    7  N   UNL     1      -7.519  14.087  68.003  1.00  0.00    -0.124 NA 
HETATM    8  C   UNL     1      -8.104  12.884  67.884  1.00  0.00    -0.161 A  
HETATM    9  C   UNL     1      -7.497  11.675  67.559  1.00  0.00    -0.123 A  
HETATM   10  C   UNL     1      -8.564  10.708  67.604  1.00  0.00    -0.118 A  
HETATM   11  N   UNL     1      -9.741  11.325  67.862  1.00  0.00    -0.173 NA 
HETATM   12  N   UNL     1      -9.436  12.625  68.024  1.00  0.00    -0.204 NA 
ENDROOT
BRANCH  10  13
HETATM   13  C   UNL     1      -8.575   9.242  67.390  1.00  0.00    -0.122 A  
HETATM   14  C   UNL     1      -7.606   8.371  67.905  1.00  0.00    -0.099 A  
HETATM   15  C   UNL     1      -7.662   6.991  67.633  1.00  0.00    -0.112 A  
HETATM   16  C   UNL     1      -9.628   8.666  66.649  1.00  0.00    -0.285 A  
HETATM   17  C   UNL     1      -8.708   6.443  66.879  1.00  0.00    -0.115 A  
HETATM   18  C   UNL     1      -9.699   7.288  66.393  1.00  0.00    -0.148 A  
BRANCH  17  19
HETATM   19  O   UNL     1      -8.608   5.100  66.596  1.00  0.00    -0.111 OA 
BRANCH  19  20
HETATM   20  C   UNL     1      -8.504   4.163  67.601  1.00  0.00    -0.098 A  
HETATM   21  C   UNL     1      -7.311   3.434  67.655  1.00  0.00    -0.058 A  
HETATM   22  C   UNL     1      -7.984   2.455  69.758  1.00  0.00    -0.053 A  
HETATM   23  C   UNL     1      -9.438   4.035  68.631  1.00  0.00    -0.220 A  
HETATM   24  C   UNL     1      -7.053   2.578  68.729  1.00  0.00    -0.044 A  
HETATM   25  C   UNL     1      -9.176   3.177  69.706  1.00  0.00    -0.220 A  
ENDBRANCH  19  20
ENDBRANCH  17  19
ENDBRANCH  10  13
BRANCH  12  26
HETATM   26  C   UNL     1     -10.492  13.610  68.248  1.00  0.00    -0.249 C  
HETATM   27  C   UNL     1     -13.027  14.751  70.691  1.00  0.00    -0.324 C  
HETATM   28  C   UNL     1     -10.137  14.987  67.653  1.00  0.00    -0.231 C  
HETATM   29  C   UNL     1     -11.368  16.100  69.529  1.00  0.00    -0.321 C  
HETATM   30  C   UNL     1     -11.183  16.041  68.019  1.00  0.00    -0.303 C  
HETATM   31  O   UNL     1     -13.728  15.754  70.844  1.00  0.00    -0.496 OA 
HETATM   32  N   UNL     1     -11.814  14.797  70.019  1.00  0.00    -0.292 N  
HETATM   33  C   UNL     1     -10.867  13.698  69.745  1.00  0.00     0.267 C  
BRANCH  27  34
HETATM   34  C   UNL     1     -13.501  13.453  71.242  1.00  0.00    -0.096 C  
HETATM   35  C   UNL     1     -13.505  13.261  72.569  1.00  0.00    -0.620 C  
ENDBRANCH  27  34
ENDBRANCH  12  26
TORSDOF 5
ENDMDL
MODEL      139
REMARK 921   NORMALIZED FREE ENERGY PREDICTED BY IDOCK:   -4.54 KCAL/MOL
REMARK 922        TOTAL FREE ENERGY PREDICTED BY IDOCK:   -6.34 KCAL/MOL
REMARK 923 INTER-LIGAND FREE ENERGY PREDICTED BY IDOCK:   -5.48 KCAL/MOL
REMARK 924 INTRA-LIGAND FREE ENERGY PREDICTED BY IDOCK:   -0.87 KCAL/MOL
REMARK 927      BINDING AFFINITY PREDICTED BY RF-SCORE:    0.00 PKD
ROOT
HETATM    1  N   UNL     1     -10.419   8.704  66.252  1.00  0.00    -0.233 NA 
HETATM    2  C   UNL     1      -9.836   9.952  66.060  1.00  0.00    -0.264 A  
HETATM    3  H1  UNL     1     -10.104   8.211  67.088  1.00  0.00     0.000 HD 
HETATM    4  H2  UNL     1     -10.287   8.121  65.425  1.00  0.00     0.000 HD 
HETATM    5  N   UNL     1     -10.254  10.605  64.952  1.00  0.00    -0.331 NA 
HETATM    6  C   UNL     1      -9.822  11.859  64.736  1.00  0.00    -0.191 A  
HETATM    7  N   UNL     1      -9.022  12.590  65.519  1.00  0.00     0.414 NA 
HETATM    8  C   UNL     1      -8.606  11.894  66.590  1.00  0.00    -0.163 A  
HETATM    9  C   UNL     1      -8.929  10.585  66.927  1.00  0.00    -0.151 A  
HETATM   10  C   UNL     1      -8.191  10.328  68.138  1.00  0.00    -0.114 A  
HETATM   11  N   UNL     1      -7.536  11.445  68.530  1.00  0.00    -0.121 NA 
HETATM   12  N   UNL     1      -7.803  12.366  67.587  1.00  0.00    -0.150 NA 
ENDROOT
BRANCH  10  13
HETATM   13  C   UNL     1      -8.075   9.116  68.983  1.00  0.00    -0.102 A  
HETATM   14  C   UNL     1      -7.745   7.848  68.487  1.00  0.00    -0.114 A  
HETATM   15  C   UNL     1      -7.686   6.734  69.346  1.00  0.00    -0.105 A  
HETATM   16  C   UNL     1      -8.279   9.230  70.374  1.00  0.00    -0.199 A  
HETATM   17  C   UNL     1      -7.910   6.867  70.722  1.00  0.00    -0.097 A  
HETATM   18  C   UNL     1      -8.200   8.125  71.236  1.00  0.00    -0.132 A  
BRANCH  17  19
HETATM   19  O   UNL     1      -7.920   5.697  71.447  1.00  0.00    -0.108 OA 
BRANCH  19  20
HETATM   20  C   UNL     1      -9.071   5.239  72.049  1.00  0.00    -0.137 A  
HETATM   21  C   UNL     1      -9.256   3.852  72.070  1.00  0.00    -0.173 A  
HETATM   22  C   UNL     1     -11.180   4.113  73.508  1.00  0.00    -0.341 A  
HETATM   23  C   UNL     1      -9.946   6.062  72.760  1.00  0.00    -0.191 A  
HETATM   24  C   UNL     1     -10.311   3.290  72.794  1.00  0.00    -0.237 A  
HETATM   25  C   UNL     1     -11.002   5.496  73.485  1.00  0.00    -0.289 A  
ENDBRANCH  19  20
ENDBRANCH  17  19
ENDBRANCH  10  13
BRANCH  12  26
HETATM   26  C   UNL     1      -7.308  13.735  67.728  1.00  0.00    -0.164 C  
HETATM   27  C   UNL     1      -8.345  17.210  68.465  1.00  0.00    -0.262 C  
HETATM   28  C   UNL     1      -5.918  13.784  68.389  1.00  0.00    -0.099 C  
HETATM   29  C   UNL     1      -6.531  15.950  69.487  1.00  0.00    -0.186 C  
HETATM   30  C   UNL     1      -5.478  15.223  68.662  1.00  0.00    -0.091 C  
HETATM   31  O   UNL     1      -7.778  18.262  68.768  1.00  0.00    -0.302 OA 
HETATM   32  N   UNL     1      -7.798  15.969  68.757  1.00  0.00    -0.177 N  
HETATM   33  C   UNL     1      -8.337  14.627  68.459  1.00  0.00    -0.162 C  
BRANCH  27  34
HETATM   34  C   UNL     1      -9.652  17.276  67.758  1.00  0.00    -0.262 C  
HETATM   35  C   UNL     1     -10.751  17.642  68.435  1.00  0.00    -0.246 C  
ENDBRANCH  27  34
ENDBRANCH  12  26
TORSDOF 5
ENDMDL
MODEL      140
REMARK 921   NORMALIZED FREE ENERGY PREDICTED BY IDOCK:   -4.54 KCAL/MOL
REMARK 922        TOTAL FREE ENERGY PREDICTED BY IDOCK:   -6.33 KCAL/MOL
REMARK 923 INTER-LIGAND FREE ENERGY PREDICTED BY IDOCK:   -5.22 KCAL/MOL
REMARK 924 INTRA-LIGAND FREE ENERGY PREDICTED BY IDOCK:   -1.11 KCAL/MOL
REMARK 927      BINDING AFFINITY PREDICTED BY RF-SCORE:    0.00 PKD
ROOT
HETATM    1  N   UNL     1      -5.931  12.490  71.415  1.00  0.00    -0.373 NA 
HETATM    2  C   UNL     1      -5.719  11.459  70.508  1.00  0.00    -0.145 A  
HETATM    3  H1  UNL     1      -6.125  13.398  70.991  1.00  0.00     0.000 HD 
HETATM    4  H2  UNL     1      -5.144  12.561  72.061  1.00  0.00     0.000 HD 
HETATM    5  N   UNL     1      -5.462  10.256  71.069  1.00  0.00    -0.084 NA 
HETATM    6  C   UNL     1      -5.343   9.179  70.275  1.00  0.00    -0.027 A  
HETATM    7  N   UNL     1      -5.479   9.131  68.946  1.00  0.00    -0.037 NA 
HETATM    8  C   UNL     1      -5.702  10.349  68.425  1.00  0.00    -0.037 A  
HETATM    9  C   UNL     1      -5.808  11.555  69.108  1.00  0.00    -0.048 A  
HETATM   10  C   UNL     1      -6.009  12.541  68.076  1.00  0.00    -0.081 A  
HETATM   11  N   UNL     1      -6.093  11.940  66.867  1.00  0.00    -0.151 NA 
HETATM   12  N   UNL     1      -5.907  10.629  67.106  1.00  0.00    -0.046 NA 
ENDROOT
BRANCH  10  13
HETATM   13  C   UNL     1      -6.161  14.014  68.136  1.00  0.00    -0.132 A  
HETATM   14  C   UNL     1      -5.128  14.891  68.491  1.00  0.00    -0.103 A  
HETATM   15  C   UNL     1      -5.355  16.279  68.560  1.00  0.00    -0.102 A  
HETATM   16  C   UNL     1      -7.403  14.588  67.796  1.00  0.00    -0.189 A  
HETATM   17  C   UNL     1      -6.603  16.826  68.234  1.00  0.00    -0.152 A  
HETATM   18  C   UNL     1      -7.628  15.973  67.843  1.00  0.00    -0.144 A  
BRANCH  17  19
HETATM   19  O   UNL     1      -6.736  18.182  68.429  1.00  0.00    -0.206 OA 
BRANCH  19  20
HETATM   20  C   UNL     1      -7.912  18.835  68.129  1.00  0.00    -0.290 A  
HETATM   21  C   UNL     1      -8.091  19.220  66.796  1.00  0.00    -0.290 A  
HETATM   22  C   UNL     1     -10.365  19.879  67.274  1.00  0.00    -0.574 A  
HETATM   23  C   UNL     1      -8.965  18.975  69.035  1.00  0.00    -0.219 A  
HETATM   24  C   UNL     1      -9.313  19.745  66.370  1.00  0.00    -0.488 A  
HETATM   25  C   UNL     1     -10.189  19.501  68.604  1.00  0.00    -0.481 A  
ENDBRANCH  19  20
ENDBRANCH  17  19
ENDBRANCH  10  13
BRANCH  12  26
HETATM   26  C   UNL     1      -6.007   9.657  66.018  1.00  0.00    -0.063 C  
HETATM   27  C   UNL     1      -8.194   7.064  64.539  1.00  0.00     0.003 C  
HETATM   28  C   UNL     1      -5.390  10.186  64.709  1.00  0.00    -0.100 C  
HETATM   29  C   UNL     1      -7.118   8.928  63.402  1.00  0.00    -0.089 C  
HETATM   30  C   UNL     1      -5.631   9.221  63.547  1.00  0.00    -0.071 C  
HETATM   31  O   UNL     1      -8.251   6.452  63.469  1.00  0.00    -0.069 OA 
HETATM   32  N   UNL     1      -7.620   8.323  64.635  1.00  0.00    -0.099 N  
HETATM   33  C   UNL     1      -7.465   9.180  65.828  1.00  0.00    -0.090 C  
BRANCH  27  34
HETATM   34  C   UNL     1      -8.754   6.428  65.761  1.00  0.00    -0.135 C  
HETATM   35  C   UNL     1      -8.284   5.236  66.159  1.00  0.00    -0.110 C  
ENDBRANCH  27  34
ENDBRANCH  12  26
TORSDOF 5
ENDMDL
MODEL      141
REMARK 921   NORMALIZED FREE ENERGY PREDICTED BY IDOCK:   -4.53 KCAL/MOL
REMARK 922        TOTAL FREE ENERGY PREDICTED BY IDOCK:   -6.33 KCAL/MOL
REMARK 923 INTER-LIGAND FREE ENERGY PREDICTED BY IDOCK:   -5.61 KCAL/MOL
REMARK 924 INTRA-LIGAND FREE ENERGY PREDICTED BY IDOCK:   -0.71 KCAL/MOL
REMARK 927      BINDING AFFINITY PREDICTED BY RF-SCORE:    0.00 PKD
ROOT
HETATM    1  N   UNL     1     -11.433  13.160  68.343  1.00  0.00    -0.292 NA 
HETATM    2  C   UNL     1     -10.894  11.882  68.243  1.00  0.00    -0.224 A  
HETATM    3  H1  UNL     1     -10.747  13.914  68.323  1.00  0.00     0.000 HD 
HETATM    4  H2  UNL     1     -12.017  13.234  69.177  1.00  0.00     0.000 HD 
HETATM    5  N   UNL     1     -11.803  10.882  68.269  1.00  0.00    -0.546 NA 
HETATM    6  C   UNL     1     -11.387   9.619  68.078  1.00  0.00     0.259 A  
HETATM    7  N   UNL     1     -10.142   9.203  67.826  1.00  0.00    -0.190 NA 
HETATM    8  C   UNL     1      -9.267  10.222  67.839  1.00  0.00    -0.138 A  
HETATM    9  C   UNL     1      -9.536  11.568  68.062  1.00  0.00    -0.180 A  
HETATM   10  C   UNL     1      -8.248  12.212  68.003  1.00  0.00    -0.158 A  
HETATM   11  N   UNL     1      -7.291  11.310  67.686  1.00  0.00    -0.096 NA 
HETATM   12  N   UNL     1      -7.928  10.129  67.593  1.00  0.00    -0.102 NA 
ENDROOT
BRANCH  10  13
HETATM   13  C   UNL     1      -7.843  13.625  68.189  1.00  0.00    -0.143 A  
HETATM   14  C   UNL     1      -7.113  14.088  69.291  1.00  0.00    -0.054 A  
HETATM   15  C   UNL     1      -6.792  15.453  69.419  1.00  0.00    -0.174 A  
HETATM   16  C   UNL     1      -8.181  14.570  67.199  1.00  0.00    -0.214 A  
HETATM   17  C   UNL     1      -7.153  16.377  68.431  1.00  0.00    -0.156 A  
HETATM   18  C   UNL     1      -7.845  15.928  67.312  1.00  0.00    -0.218 A  
BRANCH  17  19
HETATM   19  O   UNL     1      -6.872  17.696  68.707  1.00  0.00    -0.215 OA 
BRANCH  19  20
HETATM   20  C   UNL     1      -7.741  18.703  68.349  1.00  0.00    -0.306 A  
HETATM   21  C   UNL     1      -7.252  19.664  67.457  1.00  0.00    -0.266 A  
HETATM   22  C   UNL     1      -9.457  20.631  67.263  1.00  0.00    -0.520 A  
HETATM   23  C   UNL     1      -9.093  18.710  68.697  1.00  0.00    -0.344 A  
HETATM   24  C   UNL     1      -8.107  20.629  66.918  1.00  0.00    -0.225 A  
HETATM   25  C   UNL     1      -9.947  19.679  68.155  1.00  0.00    -0.547 A  
ENDBRANCH  19  20
ENDBRANCH  17  19
ENDBRANCH  10  13
BRANCH  12  26
HETATM   26  C   UNL     1      -7.202   8.926  67.189  1.00  0.00    -0.083 C  
HETATM   27  C   UNL     1      -6.116   5.580  68.336  1.00  0.00    -0.022 C  
HETATM   28  C   UNL     1      -7.442   8.574  65.708  1.00  0.00    -0.081 C  
HETATM   29  C   UNL     1      -7.279   6.140  66.274  1.00  0.00    -0.072 C  
HETATM   30  C   UNL     1      -6.796   7.238  65.338  1.00  0.00    -0.052 C  
HETATM   31  O   UNL     1      -5.680   4.555  67.806  1.00  0.00    -0.020 OA 
HETATM   32  N   UNL     1      -6.922   6.477  67.651  1.00  0.00    -0.076 N  
HETATM   33  C   UNL     1      -7.514   7.741  68.131  1.00  0.00    -0.108 C  
BRANCH  27  34
HETATM   34  C   UNL     1      -5.759   5.863  69.753  1.00  0.00    -0.016 C  
HETATM   35  C   UNL     1      -6.518   5.360  70.738  1.00  0.00    -0.035 C  
ENDBRANCH  27  34
ENDBRANCH  12  26
TORSDOF 5
ENDMDL
MODEL      142
REMARK 921   NORMALIZED FREE ENERGY PREDICTED BY IDOCK:   -4.52 KCAL/MOL
REMARK 922        TOTAL FREE ENERGY PREDICTED BY IDOCK:   -6.31 KCAL/MOL
REMARK 923 INTER-LIGAND FREE ENERGY PREDICTED BY IDOCK:   -5.61 KCAL/MOL
REMARK 924 INTRA-LIGAND FREE ENERGY PREDICTED BY IDOCK:   -0.70 KCAL/MOL
REMARK 927      BINDING AFFINITY PREDICTED BY RF-SCORE:    0.00 PKD
ROOT
HETATM    1  N   UNL     1      -9.002   5.579  64.979  1.00  0.00    -0.340 NA 
HETATM    2  C   UNL     1      -9.174   4.805  66.122  1.00  0.00    -0.144 A  
HETATM    3  H1  UNL     1      -9.019   6.586  65.141  1.00  0.00     0.000 HD 
HETATM    4  H2  UNL     1      -9.690   5.321  64.271  1.00  0.00     0.000 HD 
HETATM    5  N   UNL     1      -9.151   3.470  65.909  1.00  0.00    -0.149 NA 
HETATM    6  C   UNL     1      -9.209   2.642  66.965  1.00  0.00    -0.113 A  
HETATM    7  N   UNL     1      -9.259   2.976  68.259  1.00  0.00    -0.173 NA 
HETATM    8  C   UNL     1      -9.312   4.308  68.424  1.00  0.00    -0.153 A  
HETATM    9  C   UNL     1      -9.303   5.286  67.436  1.00  0.00    -0.122 A  
HETATM   10  C   UNL     1      -9.414   6.531  68.155  1.00  0.00    -0.114 A  
HETATM   11  N   UNL     1      -9.408   6.301  69.488  1.00  0.00    -0.142 NA 
HETATM   12  N   UNL     1      -9.346   4.964  69.621  1.00  0.00    -0.118 NA 
ENDROOT
BRANCH  10  13
HETATM   13  C   UNL     1      -9.492   7.935  67.688  1.00  0.00    -0.170 A  
HETATM   14  C   UNL     1     -10.418   8.391  66.741  1.00  0.00    -0.315 A  
HETATM   15  C   UNL     1     -10.412   9.734  66.319  1.00  0.00    -0.160 A  
HETATM   16  C   UNL     1      -8.608   8.888  68.234  1.00  0.00    -0.134 A  
HETATM   17  C   UNL     1      -9.513  10.661  66.863  1.00  0.00    -0.165 A  
HETATM   18  C   UNL     1      -8.613  10.233  67.832  1.00  0.00    -0.118 A  
BRANCH  17  19
HETATM   19  O   UNL     1      -9.535  11.920  66.307  1.00  0.00    -0.218 OA 
BRANCH  19  20
HETATM   20  C   UNL     1     -10.090  12.988  66.977  1.00  0.00    -0.243 A  
HETATM   21  C   UNL     1      -9.562  14.251  66.688  1.00  0.00    -0.302 A  
HETATM   22  C   UNL     1     -11.305  15.298  67.992  1.00  0.00    -0.345 A  
HETATM   23  C   UNL     1     -11.229  12.884  67.777  1.00  0.00    -0.319 A  
HETATM   24  C   UNL     1     -10.165  15.403  67.198  1.00  0.00    -0.251 A  
HETATM   25  C   UNL     1     -11.832  14.041  68.286  1.00  0.00    -0.406 A  
ENDBRANCH  19  20
ENDBRANCH  17  19
ENDBRANCH  10  13
BRANCH  12  26
HETATM   26  C   UNL     1      -9.248   4.355  70.946  1.00  0.00    -0.138 C  
HETATM   27  C   UNL     1      -6.891   2.805  73.341  1.00  0.00    -0.027 C  
HETATM   28  C   UNL     1     -10.167   5.048  71.972  1.00  0.00    -0.262 C  
HETATM   29  C   UNL     1      -8.478   4.600  73.767  1.00  0.00    -0.104 C  
HETATM   30  C   UNL     1      -9.947   4.497  73.381  1.00  0.00    -0.185 C  
HETATM   31  O   UNL     1      -6.901   2.519  74.541  1.00  0.00    -0.028 OA 
HETATM   32  N   UNL     1      -7.669   3.830  72.823  1.00  0.00    -0.068 N  
HETATM   33  C   UNL     1      -7.780   4.291  71.425  1.00  0.00    -0.072 C  
BRANCH  27  34
HETATM   34  C   UNL     1      -6.022   2.021  72.423  1.00  0.00    -0.009 C  
HETATM   35  C   UNL     1      -5.224   2.665  71.559  1.00  0.00    -0.004 C  
ENDBRANCH  27  34
ENDBRANCH  12  26
TORSDOF 5
ENDMDL
MODEL      143
REMARK 921   NORMALIZED FREE ENERGY PREDICTED BY IDOCK:   -4.46 KCAL/MOL
REMARK 922        TOTAL FREE ENERGY PREDICTED BY IDOCK:   -6.23 KCAL/MOL
REMARK 923 INTER-LIGAND FREE ENERGY PREDICTED BY IDOCK:   -6.44 KCAL/MOL
REMARK 924 INTRA-LIGAND FREE ENERGY PREDICTED BY IDOCK:    0.21 KCAL/MOL
REMARK 927      BINDING AFFINITY PREDICTED BY RF-SCORE:    0.00 PKD
ROOT
HETATM    1  N   UNL     1      -7.879  10.319  65.179  1.00  0.00    -0.141 NA 
HETATM    2  C   UNL     1      -8.147   9.319  66.107  1.00  0.00    -0.110 A  
HETATM    3  H1  UNL     1      -8.211  11.246  65.445  1.00  0.00     0.000 HD 
HETATM    4  H2  UNL     1      -8.247  10.059  64.263  1.00  0.00     0.000 HD 
HETATM    5  N   UNL     1      -7.707   8.090  65.755  1.00  0.00    -0.089 NA 
HETATM    6  C   UNL     1      -7.830   7.079  66.632  1.00  0.00    -0.106 A  
HETATM    7  N   UNL     1      -8.326   7.135  67.873  1.00  0.00    -0.118 NA 
HETATM    8  C   UNL     1      -8.780   8.364  68.170  1.00  0.00    -0.143 A  
HETATM    9  C   UNL     1      -8.761   9.493  67.359  1.00  0.00    -0.128 A  
HETATM   10  C   UNL     1      -9.397  10.518  68.148  1.00  0.00    -0.148 A  
HETATM   11  N   UNL     1      -9.701  10.039  69.376  1.00  0.00    -0.213 NA 
HETATM   12  N   UNL     1      -9.320   8.749  69.362  1.00  0.00    -0.156 NA 
ENDROOT
BRANCH  10  13
HETATM   13  C   UNL     1      -9.718  11.934  67.850  1.00  0.00    -0.192 A  
HETATM   14  C   UNL     1      -8.797  12.848  67.325  1.00  0.00    -0.206 A  
HETATM   15  C   UNL     1      -9.163  14.189  67.099  1.00  0.00    -0.237 A  
HETATM   16  C   UNL     1     -11.029  12.401  68.080  1.00  0.00    -0.262 A  
HETATM   17  C   UNL     1     -10.467  14.635  67.350  1.00  0.00    -0.255 A  
HETATM   18  C   UNL     1     -11.404  13.731  67.836  1.00  0.00    -0.328 A  
BRANCH  17  19
HETATM   19  O   UNL     1     -10.685  15.984  67.184  1.00  0.00    -0.314 OA 
BRANCH  19  20
HETATM   20  C   UNL     1      -9.659  16.838  66.842  1.00  0.00    -0.245 A  
HETATM   21  C   UNL     1     -10.013  18.163  66.566  1.00  0.00    -0.374 A  
HETATM   22  C   UNL     1      -7.680  18.780  66.449  1.00  0.00    -0.289 A  
HETATM   23  C   UNL     1      -8.310  16.486  66.920  1.00  0.00    -0.245 A  
HETATM   24  C   UNL     1      -9.026  19.131  66.366  1.00  0.00    -0.356 A  
HETATM   25  C   UNL     1      -7.323  17.460  66.719  1.00  0.00    -0.250 A  
ENDBRANCH  19  20
ENDBRANCH  17  19
ENDBRANCH  10  13
BRANCH  12  26
HETATM   26  C   UNL     1      -9.434   7.930  70.568  1.00  0.00    -0.162 C  
HETATM   27  C   UNL     1      -7.500   6.461  73.360  1.00  0.00    -0.086 C  
HETATM   28  C   UNL     1     -10.739   8.212  71.339  1.00  0.00    -0.280 C  
HETATM   29  C   UNL     1      -9.541   7.781  73.496  1.00  0.00    -0.270 C  
HETATM   30  C   UNL     1     -10.777   7.457  72.668  1.00  0.00    -0.334 C  
HETATM   31  O   UNL     1      -7.761   5.955  74.454  1.00  0.00    -0.097 OA 
HETATM   32  N   UNL     1      -8.341   7.387  72.759  1.00  0.00    -0.109 N  
HETATM   33  C   UNL     1      -8.182   8.075  71.462  1.00  0.00    -0.115 C  
BRANCH  27  34
HETATM   34  C   UNL     1      -6.248   6.061  72.664  1.00  0.00    -0.053 C  
HETATM   35  C   UNL     1      -6.266   5.019  71.821  1.00  0.00    -0.030 C  
ENDBRANCH  27  34
ENDBRANCH  12  26
TORSDOF 5
ENDMDL
MODEL      144
REMARK 921   NORMALIZED FREE ENERGY PREDICTED BY IDOCK:   -4.45 KCAL/MOL
REMARK 922        TOTAL FREE ENERGY PREDICTED BY IDOCK:   -6.22 KCAL/MOL
REMARK 923 INTER-LIGAND FREE ENERGY PREDICTED BY IDOCK:   -6.85 KCAL/MOL
REMARK 924 INTRA-LIGAND FREE ENERGY PREDICTED BY IDOCK:    0.63 KCAL/MOL
REMARK 927      BINDING AFFINITY PREDICTED BY RF-SCORE:    0.00 PKD
ROOT
HETATM    1  N   UNL     1      -6.435   9.730  70.272  1.00  0.00    -0.079 NA 
HETATM    2  C   UNL     1      -6.782  10.998  69.820  1.00  0.00    -0.136 A  
HETATM    3  H1  UNL     1      -6.911   8.963  69.797  1.00  0.00     0.000 HD 
HETATM    4  H2  UNL     1      -6.575   9.663  71.281  1.00  0.00     0.000 HD 
HETATM    5  N   UNL     1      -6.151  12.014  70.450  1.00  0.00    -0.218 NA 
HETATM    6  C   UNL     1      -6.345  13.270  70.015  1.00  0.00    -0.016 A  
HETATM    7  N   UNL     1      -7.091  13.665  68.977  1.00  0.00    -0.103 NA 
HETATM    8  C   UNL     1      -7.724  12.630  68.400  1.00  0.00    -0.133 A  
HETATM    9  C   UNL     1      -7.657  11.289  68.759  1.00  0.00    -0.130 A  
HETATM   10  C   UNL     1      -8.548  10.622  67.844  1.00  0.00    -0.124 A  
HETATM   11  N   UNL     1      -9.047  11.508  66.951  1.00  0.00    -0.174 NA 
HETATM   12  N   UNL     1      -8.537  12.701  67.307  1.00  0.00    -0.188 NA 
ENDROOT
BRANCH  10  13
HETATM   13  C   UNL     1      -8.949   9.201  67.717  1.00  0.00    -0.132 A  
HETATM   14  C   UNL     1      -8.041   8.134  67.693  1.00  0.00    -0.127 A  
HETATM   15  C   UNL     1      -8.493   6.810  67.536  1.00  0.00    -0.121 A  
HETATM   16  C   UNL     1     -10.320   8.881  67.640  1.00  0.00    -0.313 A  
HETATM   17  C   UNL     1      -9.859   6.517  67.444  1.00  0.00    -0.133 A  
HETATM   18  C   UNL     1     -10.775   7.560  67.505  1.00  0.00    -0.296 A  
BRANCH  17  19
HETATM   19  O   UNL     1     -10.178   5.201  67.197  1.00  0.00    -0.196 OA 
BRANCH  19  20
HETATM   20  C   UNL     1      -9.665   4.533  66.107  1.00  0.00    -0.207 A  
HETATM   21  C   UNL     1     -10.580   4.145  65.122  1.00  0.00    -0.139 A  
HETATM   22  C   UNL     1      -8.766   3.459  63.681  1.00  0.00    -0.093 A  
HETATM   23  C   UNL     1      -8.296   4.381  65.874  1.00  0.00    -0.113 A  
HETATM   24  C   UNL     1     -10.133   3.605  63.914  1.00  0.00    -0.208 A  
HETATM   25  C   UNL     1      -7.851   3.840  64.662  1.00  0.00    -0.085 A  
ENDBRANCH  19  20
ENDBRANCH  17  19
ENDBRANCH  10  13
BRANCH  12  26
HETATM   26  C   UNL     1      -8.811  13.892  66.505  1.00  0.00     0.004 C  
HETATM   27  C   UNL     1     -11.500  15.767  64.788  1.00  0.00    -0.255 C  
HETATM   28  C   UNL     1      -7.962  15.098  66.949  1.00  0.00    -0.155 C  
HETATM   29  C   UNL     1      -9.854  16.630  66.358  1.00  0.00    -0.292 C  
HETATM   30  C   UNL     1      -8.362  16.370  66.200  1.00  0.00    -0.291 C  
HETATM   31  O   UNL     1     -11.634  16.898  64.315  1.00  0.00    -1.032 OA 
HETATM   32  N   UNL     1     -10.608  15.501  65.816  1.00  0.00    -0.337 N  
HETATM   33  C   UNL     1     -10.323  14.215  66.484  1.00  0.00    -0.284 C  
BRANCH  27  34
HETATM   34  C   UNL     1     -12.318  14.654  64.233  1.00  0.00    -0.375 C  
HETATM   35  C   UNL     1     -11.705  13.575  63.725  1.00  0.00    -0.367 C  
ENDBRANCH  27  34
ENDBRANCH  12  26
TORSDOF 5
ENDMDL
MODEL      145
REMARK 921   NORMALIZED FREE ENERGY PREDICTED BY IDOCK:   -4.43 KCAL/MOL
REMARK 922        TOTAL FREE ENERGY PREDICTED BY IDOCK:   -6.20 KCAL/MOL
REMARK 923 INTER-LIGAND FREE ENERGY PREDICTED BY IDOCK:   -7.14 KCAL/MOL
REMARK 924 INTRA-LIGAND FREE ENERGY PREDICTED BY IDOCK:    0.94 KCAL/MOL
REMARK 927      BINDING AFFINITY PREDICTED BY RF-SCORE:    0.00 PKD
ROOT
HETATM    1  N   UNL     1     -13.502  12.619  73.153  1.00  0.00     0.172 NA 
HETATM    2  C   UNL     1     -13.320  13.244  71.925  1.00  0.00    -0.451 A  
HETATM    3  H1  UNL     1     -13.141  11.666  73.203  1.00  0.00     0.000 HD 
HETATM    4  H2  UNL     1     -14.488  12.639  73.417  1.00  0.00     0.000 HD 
HETATM    5  N   UNL     1     -13.798  14.507  71.857  1.00  0.00    -0.415 NA 
HETATM    6  C   UNL     1     -13.579  15.227  70.744  1.00  0.00    -0.254 A  
HETATM    7  N   UNL     1     -12.895  14.855  69.656  1.00  0.00     0.062 NA 
HETATM    8  C   UNL     1     -12.465  13.586  69.751  1.00  0.00    -0.098 A  
HETATM    9  C   UNL     1     -12.648  12.706  70.813  1.00  0.00    -0.302 A  
HETATM   10  C   UNL     1     -12.024  11.481  70.382  1.00  0.00    -0.368 A  
HETATM   11  N   UNL     1     -11.442  11.655  69.173  1.00  0.00    -0.273 NA 
HETATM   12  N   UNL     1     -11.721  12.922  68.820  1.00  0.00    -0.305 NA 
ENDROOT
BRANCH  10  13
HETATM   13  C   UNL     1     -11.900  10.156  71.033  1.00  0.00    -0.475 A  
HETATM   14  C   UNL     1     -10.678   9.585  71.414  1.00  0.00    -0.348 A  
HETATM   15  C   UNL     1     -10.635   8.305  71.999  1.00  0.00    -0.365 A  
HETATM   16  C   UNL     1     -13.069   9.421  71.317  1.00  0.00    -0.363 A  
HETATM   17  C   UNL     1     -11.808   7.585  72.256  1.00  0.00    -0.289 A  
HETATM   18  C   UNL     1     -13.031   8.153  71.919  1.00  0.00    -0.356 A  
BRANCH  17  19
HETATM   19  O   UNL     1     -11.639   6.308  72.741  1.00  0.00    -0.214 OA 
BRANCH  19  20
HETATM   20  C   UNL     1     -11.075   5.318  71.966  1.00  0.00    -0.081 A  
HETATM   21  C   UNL     1     -10.990   5.571  70.592  1.00  0.00    -0.190 A  
HETATM   22  C   UNL     1      -9.674   3.568  70.288  1.00  0.00    -0.165 A  
HETATM   23  C   UNL     1     -10.457   4.185  72.498  1.00  0.00    -0.205 A  
HETATM   24  C   UNL     1     -10.294   4.696  69.754  1.00  0.00     0.020 A  
HETATM   25  C   UNL     1      -9.761   3.310  71.655  1.00  0.00    -0.234 A  
ENDBRANCH  19  20
ENDBRANCH  17  19
ENDBRANCH  10  13
BRANCH  12  26
HETATM   26  C   UNL     1     -11.178  13.483  67.584  1.00  0.00    -0.279 C  
HETATM   27  C   UNL     1     -10.618  12.779  63.994  1.00  0.00    -0.416 C  
HETATM   28  C   UNL     1     -11.452  14.995  67.463  1.00  0.00    -0.339 C  
HETATM   29  C   UNL     1     -11.661  14.745  64.980  1.00  0.00    -0.364 C  
HETATM   30  C   UNL     1     -11.008  15.537  66.103  1.00  0.00    -0.247 C  
HETATM   31  O   UNL     1     -10.334  13.439  62.992  1.00  0.00     1.459 OA 
HETATM   32  N   UNL     1     -11.273  13.339  65.081  1.00  0.00    -0.297 N  
HETATM   33  C   UNL     1     -11.675  12.697  66.349  1.00  0.00    -0.405 C  
BRANCH  27  34
HETATM   34  C   UNL     1     -10.239  11.341  64.038  1.00  0.00    -0.403 C  
HETATM   35  C   UNL     1     -10.195  10.706  65.219  1.00  0.00    -0.351 C  
ENDBRANCH  27  34
ENDBRANCH  12  26
TORSDOF 5
ENDMDL
MODEL      146
REMARK 921   NORMALIZED FREE ENERGY PREDICTED BY IDOCK:   -4.36 KCAL/MOL
REMARK 922        TOTAL FREE ENERGY PREDICTED BY IDOCK:   -6.11 KCAL/MOL
REMARK 923 INTER-LIGAND FREE ENERGY PREDICTED BY IDOCK:   -5.33 KCAL/MOL
REMARK 924 INTRA-LIGAND FREE ENERGY PREDICTED BY IDOCK:   -0.78 KCAL/MOL
REMARK 927      BINDING AFFINITY PREDICTED BY RF-SCORE:    0.00 PKD
ROOT
HETATM    1  N   UNL     1      -5.865  11.249  66.457  1.00  0.00    -0.138 NA 
HETATM    2  C   UNL     1      -6.151  12.412  67.163  1.00  0.00    -0.080 A  
HETATM    3  H1  UNL     1      -6.636  10.584  66.401  1.00  0.00     0.000 HD 
HETATM    4  H2  UNL     1      -5.034  10.796  66.842  1.00  0.00     0.000 HD 
HETATM    5  N   UNL     1      -5.128  13.293  67.238  1.00  0.00    -0.326 NA 
HETATM    6  C   UNL     1      -5.340  14.488  67.813  1.00  0.00     0.005 A  
HETATM    7  N   UNL     1      -6.487  14.955  68.318  1.00  0.00    -0.107 NA 
HETATM    8  C   UNL     1      -7.467  14.039  68.253  1.00  0.00    -0.123 A  
HETATM    9  C   UNL     1      -7.391  12.754  67.728  1.00  0.00    -0.130 A  
HETATM   10  C   UNL     1      -8.703  12.196  67.942  1.00  0.00    -0.176 A  
HETATM   11  N   UNL     1      -9.521  13.125  68.488  1.00  0.00    -0.157 NA 
HETATM   12  N   UNL     1      -8.756  14.218  68.662  1.00  0.00    -0.175 NA 
ENDROOT
BRANCH  10  13
HETATM   13  C   UNL     1      -9.265  10.857  67.644  1.00  0.00    -0.155 A  
HETATM   14  C   UNL     1      -8.500   9.771  67.202  1.00  0.00    -0.125 A  
HETATM   15  C   UNL     1      -9.109   8.537  66.905  1.00  0.00    -0.177 A  
HETATM   16  C   UNL     1     -10.645  10.638  67.832  1.00  0.00    -0.266 A  
HETATM   17  C   UNL     1     -10.485   8.346  67.083  1.00  0.00    -0.310 A  
HETATM   18  C   UNL     1     -11.253   9.403  67.557  1.00  0.00     0.319 A  
BRANCH  17  19
HETATM   19  O   UNL     1     -10.983   7.131  66.671  1.00  0.00    -0.194 OA 
BRANCH  19  20
HETATM   20  C   UNL     1     -10.580   5.954  67.262  1.00  0.00    -0.291 A  
HETATM   21  C   UNL     1     -10.141   4.940  66.403  1.00  0.00    -0.286 A  
HETATM   22  C   UNL     1      -9.423   3.623  68.296  1.00  0.00    -0.214 A  
HETATM   23  C   UNL     1     -10.438   5.798  68.642  1.00  0.00    -0.298 A  
HETATM   24  C   UNL     1      -9.568   3.775  66.918  1.00  0.00    -0.207 A  
HETATM   25  C   UNL     1      -9.863   4.629  69.155  1.00  0.00    -0.242 A  
ENDBRANCH  19  20
ENDBRANCH  17  19
ENDBRANCH  10  13
BRANCH  12  26
HETATM   26  C   UNL     1      -9.341  15.457  69.171  1.00  0.00    -0.246 C  
HETATM   27  C   UNL     1      -9.775  19.060  68.445  1.00  0.00    -0.383 C  
HETATM   28  C   UNL     1     -10.696  15.217  69.865  1.00  0.00    -0.274 C  
HETATM   29  C   UNL     1     -11.493  17.447  69.052  1.00  0.00     1.114 C  
HETATM   30  C   UNL     1     -11.362  16.534  70.263  1.00  0.00    -0.073 C  
HETATM   31  O   UNL     1     -10.490  19.972  68.864  1.00  0.00    -0.345 OA 
HETATM   32  N   UNL     1     -10.167  17.730  68.506  1.00  0.00    -0.369 N  
HETATM   33  C   UNL     1      -9.434  16.528  68.061  1.00  0.00    -0.222 C  
BRANCH  27  34
HETATM   34  C   UNL     1      -8.449  19.397  67.860  1.00  0.00    -0.348 C  
HETATM   35  C   UNL     1      -7.442  19.755  68.670  1.00  0.00    -0.329 C  
ENDBRANCH  27  34
ENDBRANCH  12  26
TORSDOF 5
ENDMDL
MODEL      147
REMARK 921   NORMALIZED FREE ENERGY PREDICTED BY IDOCK:   -4.35 KCAL/MOL
REMARK 922        TOTAL FREE ENERGY PREDICTED BY IDOCK:   -6.09 KCAL/MOL
REMARK 923 INTER-LIGAND FREE ENERGY PREDICTED BY IDOCK:   -5.13 KCAL/MOL
REMARK 924 INTRA-LIGAND FREE ENERGY PREDICTED BY IDOCK:   -0.96 KCAL/MOL
REMARK 927      BINDING AFFINITY PREDICTED BY RF-SCORE:    0.00 PKD
ROOT
HETATM    1  N   UNL     1      -5.515   7.256  68.425  1.00  0.00    -0.021 NA 
HETATM    2  C   UNL     1      -6.290   8.266  68.982  1.00  0.00    -0.044 A  
HETATM    3  H1  UNL     1      -5.848   6.910  67.525  1.00  0.00     0.000 HD 
HETATM    4  H2  UNL     1      -5.411   6.485  69.085  1.00  0.00     0.000 HD 
HETATM    5  N   UNL     1      -5.849   8.726  70.174  1.00  0.00    -0.027 NA 
HETATM    6  C   UNL     1      -6.476   9.770  70.742  1.00  0.00    -0.097 A  
HETATM    7  N   UNL     1      -7.506  10.465  70.249  1.00  0.00    -0.184 NA 
HETATM    8  C   UNL     1      -7.933   9.958  69.081  1.00  0.00    -0.112 A  
HETATM    9  C   UNL     1      -7.418   8.864  68.393  1.00  0.00    -0.086 A  
HETATM   10  C   UNL     1      -8.262   8.734  67.232  1.00  0.00    -0.104 A  
HETATM   11  N   UNL     1      -9.169   9.738  67.201  1.00  0.00    -0.137 NA 
HETATM   12  N   UNL     1      -8.948  10.455  68.317  1.00  0.00    -0.132 NA 
ENDROOT
BRANCH  10  13
HETATM   13  C   UNL     1      -8.267   7.753  66.122  1.00  0.00    -0.123 A  
HETATM   14  C   UNL     1      -8.741   6.440  66.244  1.00  0.00    -0.146 A  
HETATM   15  C   UNL     1      -8.683   5.552  65.153  1.00  0.00    -0.118 A  
HETATM   16  C   UNL     1      -7.793   8.151  64.855  1.00  0.00    -0.128 A  
HETATM   17  C   UNL     1      -8.193   5.964  63.908  1.00  0.00    -0.056 A  
HETATM   18  C   UNL     1      -7.754   7.274  63.760  1.00  0.00    -0.120 A  
BRANCH  17  19
HETATM   19  O   UNL     1      -8.094   4.985  62.945  1.00  0.00    -0.082 OA 
BRANCH  19  20
HETATM   20  C   UNL     1      -8.873   3.850  62.996  1.00  0.00    -0.103 A  
HETATM   21  C   UNL     1      -8.262   2.695  63.497  1.00  0.00    -0.082 A  
HETATM   22  C   UNL     1     -10.385   1.543  63.477  1.00  0.00    -0.126 A  
HETATM   23  C   UNL     1     -10.244   3.847  62.736  1.00  0.00    -0.178 A  
HETATM   24  C   UNL     1      -9.015   1.542  63.733  1.00  0.00    -0.087 A  
HETATM   25  C   UNL     1     -10.997   2.690  62.974  1.00  0.00    -0.205 A  
ENDBRANCH  19  20
ENDBRANCH  17  19
ENDBRANCH  10  13
BRANCH  12  26
HETATM   26  C   UNL     1      -9.711  11.676  68.575  1.00  0.00    -0.184 C  
HETATM   27  C   UNL     1      -9.973  15.261  67.694  1.00  0.00    -0.222 C  
HETATM   28  C   UNL     1     -11.214  11.393  68.761  1.00  0.00    -0.308 C  
HETATM   29  C   UNL     1     -11.747  13.594  67.692  1.00  0.00    -0.363 C  
HETATM   30  C   UNL     1     -12.016  12.689  68.885  1.00  0.00    -0.284 C  
HETATM   31  O   UNL     1     -10.816  16.150  67.828  1.00  0.00    -0.321 OA 
HETATM   32  N   UNL     1     -10.322  13.919  67.635  1.00  0.00    -0.240 N  
HETATM   33  C   UNL     1      -9.445  12.741  67.487  1.00  0.00    -0.187 C  
BRANCH  27  34
HETATM   34  C   UNL     1      -8.537  15.640  67.601  1.00  0.00    -0.177 C  
HETATM   35  C   UNL     1      -8.108  16.343  66.543  1.00  0.00    -0.345 C  
ENDBRANCH  27  34
ENDBRANCH  12  26
TORSDOF 5
ENDMDL
MODEL      148
REMARK 921   NORMALIZED FREE ENERGY PREDICTED BY IDOCK:   -4.26 KCAL/MOL
REMARK 922        TOTAL FREE ENERGY PREDICTED BY IDOCK:   -5.98 KCAL/MOL
REMARK 923 INTER-LIGAND FREE ENERGY PREDICTED BY IDOCK:   -6.43 KCAL/MOL
REMARK 924 INTRA-LIGAND FREE ENERGY PREDICTED BY IDOCK:    0.46 KCAL/MOL
REMARK 927      BINDING AFFINITY PREDICTED BY RF-SCORE:    0.00 PKD
ROOT
HETATM    1  N   UNL     1     -11.767   8.873  71.715  1.00  0.00    -0.337 NA 
HETATM    2  C   UNL     1     -10.923   7.981  71.065  1.00  0.00    -0.241 A  
HETATM    3  H1  UNL     1     -11.874   9.775  71.251  1.00  0.00     0.000 HD 
HETATM    4  H2  UNL     1     -11.466   9.005  72.682  1.00  0.00     0.000 HD 
HETATM    5  N   UNL     1     -10.782   6.786  71.680  1.00  0.00    -0.223 NA 
HETATM    6  C   UNL     1     -10.065   5.823  71.075  1.00  0.00    -0.205 A  
HETATM    7  N   UNL     1      -9.470   5.883  69.879  1.00  0.00    -0.148 NA 
HETATM    8  C   UNL     1      -9.607   7.095  69.317  1.00  0.00    -0.155 A  
HETATM    9  C   UNL     1     -10.279   8.197  69.834  1.00  0.00    -0.204 A  
HETATM   10  C   UNL     1     -10.086   9.234  68.852  1.00  0.00    -0.195 A  
HETATM   11  N   UNL     1      -9.408   8.747  67.787  1.00  0.00    -0.140 NA 
HETATM   12  N   UNL     1      -9.136   7.466  68.092  1.00  0.00    -0.132 NA 
ENDROOT
BRANCH  10  13
HETATM   13  C   UNL     1     -10.517  10.652  68.817  1.00  0.00    -0.215 A  
HETATM   14  C   UNL     1      -9.710  11.701  68.360  1.00  0.00    -0.199 A  
HETATM   15  C   UNL     1     -10.175  13.030  68.388  1.00  0.00    -0.246 A  
HETATM   16  C   UNL     1     -11.821  10.981  69.241  1.00  0.00    -0.411 A  
HETATM   17  C   UNL     1     -11.469  13.336  68.829  1.00  0.00    -0.306 A  
HETATM   18  C   UNL     1     -12.296  12.301  69.250  1.00  0.00     0.069 A  
BRANCH  17  19
HETATM   19  O   UNL     1     -11.780  14.674  68.902  1.00  0.00    -0.283 OA 
BRANCH  19  20
HETATM   20  C   UNL     1     -11.144  15.601  68.106  1.00  0.00    -0.330 A  
HETATM   21  C   UNL     1     -11.009  15.276  66.752  1.00  0.00    -0.306 A  
HETATM   22  C   UNL     1     -10.173  17.494  66.284  1.00  0.00    -0.356 A  
HETATM   23  C   UNL     1     -10.790  16.878  68.547  1.00  0.00    -0.335 A  
HETATM   24  C   UNL     1     -10.521  16.218  65.843  1.00  0.00    -0.359 A  
HETATM   25  C   UNL     1     -10.301  17.820  67.634  1.00  0.00    -0.375 A  
ENDBRANCH  19  20
ENDBRANCH  17  19
ENDBRANCH  10  13
BRANCH  12  26
HETATM   26  C   UNL     1      -8.467   6.600  67.121  1.00  0.00    -0.113 C  
HETATM   27  C   UNL     1      -7.292   3.140  66.535  1.00  0.00    -0.075 C  
HETATM   28  C   UNL     1      -8.867   6.937  65.672  1.00  0.00    -0.039 C  
HETATM   29  C   UNL     1      -8.664   4.514  65.068  1.00  0.00    -0.138 C  
HETATM   30  C   UNL     1      -8.274   5.934  64.681  1.00  0.00    -0.120 C  
HETATM   31  O   UNL     1      -6.924   2.478  65.562  1.00  0.00    -0.049 OA 
HETATM   32  N   UNL     1      -8.160   4.215  66.407  1.00  0.00    -0.098 N  
HETATM   33  C   UNL     1      -8.687   5.108  67.459  1.00  0.00    -0.103 C  
BRANCH  27  34
HETATM   34  C   UNL     1      -6.785   2.776  67.886  1.00  0.00    -0.040 C  
HETATM   35  C   UNL     1      -6.725   1.485  68.242  1.00  0.00    -0.029 C  
ENDBRANCH  27  34
ENDBRANCH  12  26
TORSDOF 5
ENDMDL
MODEL      149
REMARK 921   NORMALIZED FREE ENERGY PREDICTED BY IDOCK:   -4.23 KCAL/MOL
REMARK 922        TOTAL FREE ENERGY PREDICTED BY IDOCK:   -5.94 KCAL/MOL
REMARK 923 INTER-LIGAND FREE ENERGY PREDICTED BY IDOCK:   -5.60 KCAL/MOL
REMARK 924 INTRA-LIGAND FREE ENERGY PREDICTED BY IDOCK:   -0.34 KCAL/MOL
REMARK 927      BINDING AFFINITY PREDICTED BY RF-SCORE:    0.00 PKD
ROOT
HETATM    1  N   UNL     1     -10.378  12.166  65.520  1.00  0.00    -0.255 NA 
HETATM    2  C   UNL     1     -10.192  11.061  66.342  1.00  0.00    -0.236 A  
HETATM    3  H1  UNL     1      -9.865  13.001  65.805  1.00  0.00     0.000 HD 
HETATM    4  H2  UNL     1     -11.373  12.375  65.427  1.00  0.00     0.000 HD 
HETATM    5  N   UNL     1     -10.871   9.955  65.963  1.00  0.00     0.212 NA 
HETATM    6  C   UNL     1     -10.676   8.809  66.638  1.00  0.00     0.077 A  
HETATM    7  N   UNL     1      -9.841   8.600  67.661  1.00  0.00    -0.170 NA 
HETATM    8  C   UNL     1      -9.211   9.729  68.025  1.00  0.00    -0.124 A  
HETATM    9  C   UNL     1      -9.338  10.991  67.456  1.00  0.00    -0.167 A  
HETATM   10  C   UNL     1      -8.476  11.835  68.245  1.00  0.00    -0.161 A  
HETATM   11  N   UNL     1      -7.823  11.096  69.172  1.00  0.00    -0.106 NA 
HETATM   12  N   UNL     1      -8.281   9.841  69.017  1.00  0.00    -0.114 NA 
ENDROOT
BRANCH  10  13
HETATM   13  C   UNL     1      -8.188  13.287  68.179  1.00  0.00    -0.160 A  
HETATM   14  C   UNL     1      -8.593  14.115  67.125  1.00  0.00    -0.230 A  
HETATM   15  C   UNL     1      -8.254  15.481  67.113  1.00  0.00    -0.246 A  
HETATM   16  C   UNL     1      -7.488  13.895  69.242  1.00  0.00     0.103 A  
HETATM   17  C   UNL     1      -7.543  16.061  68.171  1.00  0.00    -0.136 A  
HETATM   18  C   UNL     1      -7.166  15.261  69.244  1.00  0.00    -0.184 A  
BRANCH  17  19
HETATM   19  O   UNL     1      -7.185  17.380  68.007  1.00  0.00    -0.183 OA 
BRANCH  19  20
HETATM   20  C   UNL     1      -8.103  18.324  67.603  1.00  0.00    -0.245 A  
HETATM   21  C   UNL     1      -8.831  18.962  68.614  1.00  0.00    -0.374 A  
HETATM   22  C   UNL     1      -9.770  20.491  66.997  1.00  0.00    -0.548 A  
HETATM   23  C   UNL     1      -8.211  18.775  66.286  1.00  0.00    -0.270 A  
HETATM   24  C   UNL     1      -9.666  20.040  68.311  1.00  0.00    -0.433 A  
HETATM   25  C   UNL     1      -9.049  19.856  65.986  1.00  0.00    -0.321 A  
ENDBRANCH  19  20
ENDBRANCH  17  19
ENDBRANCH  10  13
BRANCH  12  26
HETATM   26  C   UNL     1      -7.730   8.748  69.817  1.00  0.00    -0.084 C  
HETATM   27  C   UNL     1      -8.526   6.341  72.512  1.00  0.00    -0.120 C  
HETATM   28  C   UNL     1      -6.792   7.843  68.994  1.00  0.00    -0.057 C  
HETATM   29  C   UNL     1      -7.546   5.866  70.336  1.00  0.00    -0.091 C  
HETATM   30  C   UNL     1      -6.339   6.625  69.802  1.00  0.00    -0.042 C  
HETATM   31  O   UNL     1      -8.025   5.305  72.957  1.00  0.00    -0.100 OA 
HETATM   32  N   UNL     1      -8.335   6.744  71.199  1.00  0.00    -0.123 N  
HETATM   33  C   UNL     1      -8.852   7.948  70.517  1.00  0.00    -0.141 C  
BRANCH  27  34
HETATM   34  C   UNL     1      -9.354   7.184  73.415  1.00  0.00    -0.220 C  
HETATM   35  C   UNL     1     -10.609   6.808  73.702  1.00  0.00    -0.347 C  
ENDBRANCH  27  34
ENDBRANCH  12  26
TORSDOF 5
ENDMDL
MODEL      150
REMARK 921   NORMALIZED FREE ENERGY PREDICTED BY IDOCK:   -4.21 KCAL/MOL
REMARK 922        TOTAL FREE ENERGY PREDICTED BY IDOCK:   -5.91 KCAL/MOL
REMARK 923 INTER-LIGAND FREE ENERGY PREDICTED BY IDOCK:   -5.25 KCAL/MOL
REMARK 924 INTRA-LIGAND FREE ENERGY PREDICTED BY IDOCK:   -0.67 KCAL/MOL
REMARK 927      BINDING AFFINITY PREDICTED BY RF-SCORE:    0.00 PKD
ROOT
HETATM    1  N   UNL     1     -12.236  12.421  68.206  1.00  0.00    -0.208 NA 
HETATM    2  C   UNL     1     -11.550  11.329  68.727  1.00  0.00    -0.316 A  
HETATM    3  H1  UNL     1     -11.641  13.158  67.830  1.00  0.00     0.000 HD 
HETATM    4  H2  UNL     1     -12.876  12.802  68.904  1.00  0.00     0.000 HD 
HETATM    5  N   UNL     1     -12.339  10.351  69.225  1.00  0.00    -0.095 NA 
HETATM    6  C   UNL     1     -11.770   9.214  69.658  1.00  0.00     0.455 A  
HETATM    7  N   UNL     1     -10.472   8.894  69.634  1.00  0.00    -0.213 NA 
HETATM    8  C   UNL     1      -9.722   9.903  69.162  1.00  0.00    -0.198 A  
HETATM    9  C   UNL     1     -10.157  11.146  68.718  1.00  0.00    -0.211 A  
HETATM   10  C   UNL     1      -8.949  11.848  68.360  1.00  0.00    -0.163 A  
HETATM   11  N   UNL     1      -7.877  11.036  68.511  1.00  0.00    -0.121 NA 
HETATM   12  N   UNL     1      -8.368   9.879  68.991  1.00  0.00    -0.121 NA 
ENDROOT
BRANCH  10  13
HETATM   13  C   UNL     1      -8.721  13.221  67.852  1.00  0.00    -0.192 A  
HETATM   14  C   UNL     1      -9.471  13.807  66.825  1.00  0.00    -0.281 A  
HETATM   15  C   UNL     1      -9.175  15.106  66.369  1.00  0.00    -0.334 A  
HETATM   16  C   UNL     1      -7.710  14.009  68.440  1.00  0.00    -0.138 A  
HETATM   17  C   UNL     1      -8.154  15.864  66.957  1.00  0.00    -0.230 A  
HETATM   18  C   UNL     1      -7.426  15.312  68.003  1.00  0.00    -0.129 A  
BRANCH  17  19
HETATM   19  O   UNL     1      -7.892  17.080  66.369  1.00  0.00    -0.255 OA 
BRANCH  19  20
HETATM   20  C   UNL     1      -8.539  18.227  66.775  1.00  0.00    -0.261 A  
HETATM   21  C   UNL     1      -8.326  19.373  66.003  1.00  0.00    -0.230 A  
HETATM   22  C   UNL     1     -10.019  20.555  67.257  1.00  0.00    -0.528 A  
HETATM   23  C   UNL     1      -9.496  18.248  67.791  1.00  0.00    -0.281 A  
HETATM   24  C   UNL     1      -9.060  20.536  66.245  1.00  0.00    -0.065 A  
HETATM   25  C   UNL     1     -10.231  19.416  68.032  1.00  0.00    -0.531 A  
ENDBRANCH  19  20
ENDBRANCH  17  19
ENDBRANCH  10  13
BRANCH  12  26
HETATM   26  C   UNL     1      -7.486   8.734  69.208  1.00  0.00    -0.078 C  
HETATM   27  C   UNL     1      -5.740   6.776  71.818  1.00  0.00    -0.037 C  
HETATM   28  C   UNL     1      -7.796   7.573  68.243  1.00  0.00    -0.122 C  
HETATM   29  C   UNL     1      -7.165   5.937  70.032  1.00  0.00    -0.073 C  
HETATM   30  C   UNL     1      -6.965   6.332  68.576  1.00  0.00    -0.080 C  
HETATM   31  O   UNL     1      -5.184   5.677  71.883  1.00  0.00    -0.015 OA 
HETATM   32  N   UNL     1      -6.747   7.037  70.900  1.00  0.00    -0.052 N  
HETATM   33  C   UNL     1      -7.503   8.288  70.687  1.00  0.00    -0.062 C  
BRANCH  27  34
HETATM   34  C   UNL     1      -5.310   7.855  72.748  1.00  0.00    -0.036 C  
HETATM   35  C   UNL     1      -5.190   7.589  74.057  1.00  0.00    -0.046 C  
ENDBRANCH  27  34
ENDBRANCH  12  26
TORSDOF 5
ENDMDL
MODEL      151
REMARK 921   NORMALIZED FREE ENERGY PREDICTED BY IDOCK:   -4.19 KCAL/MOL
REMARK 922        TOTAL FREE ENERGY PREDICTED BY IDOCK:   -5.89 KCAL/MOL
REMARK 923 INTER-LIGAND FREE ENERGY PREDICTED BY IDOCK:   -5.30 KCAL/MOL
REMARK 924 INTRA-LIGAND FREE ENERGY PREDICTED BY IDOCK:   -0.59 KCAL/MOL
REMARK 927      BINDING AFFINITY PREDICTED BY RF-SCORE:    0.00 PKD
ROOT
HETATM    1  N   UNL     1      -8.253  10.064  63.244  1.00  0.00    -0.153 NA 
HETATM    2  C   UNL     1      -8.006   8.877  63.926  1.00  0.00    -0.154 A  
HETATM    3  H1  UNL     1      -8.743  10.774  63.789  1.00  0.00     0.000 HD 
HETATM    4  H2  UNL     1      -8.754   9.875  62.375  1.00  0.00     0.000 HD 
HETATM    5  N   UNL     1      -7.357   7.936  63.204  1.00  0.00    -0.098 NA 
HETATM    6  C   UNL     1      -6.986   6.795  63.808  1.00  0.00    -0.056 A  
HETATM    7  N   UNL     1      -7.154   6.462  65.092  1.00  0.00    -0.059 NA 
HETATM    8  C   UNL     1      -7.829   7.409  65.765  1.00  0.00    -0.108 A  
HETATM    9  C   UNL     1      -8.313   8.616  65.272  1.00  0.00    -0.177 A  
HETATM   10  C   UNL     1      -8.983   9.225  66.394  1.00  0.00    -0.154 A  
HETATM   11  N   UNL     1      -8.833   8.457  67.498  1.00  0.00    -0.135 NA 
HETATM   12  N   UNL     1      -8.139   7.378  67.093  1.00  0.00    -0.113 NA 
ENDROOT
BRANCH  10  13
HETATM   13  C   UNL     1      -9.732  10.497  66.523  1.00  0.00    -0.237 A  
HETATM   14  C   UNL     1      -9.147  11.763  66.394  1.00  0.00    -0.215 A  
HETATM   15  C   UNL     1      -9.915  12.930  66.563  1.00  0.00    -0.259 A  
HETATM   16  C   UNL     1     -11.120  10.452  66.767  1.00  0.00    -0.023 A  
HETATM   17  C   UNL     1     -11.290  12.861  66.821  1.00  0.00    -0.322 A  
HETATM   18  C   UNL     1     -11.894  11.613  66.915  1.00  0.00     0.005 A  
BRANCH  17  19
HETATM   19  O   UNL     1     -11.919  14.062  67.063  1.00  0.00    -0.403 OA 
BRANCH  19  20
HETATM   20  C   UNL     1     -11.710  14.755  68.235  1.00  0.00    -0.311 A  
HETATM   21  C   UNL     1     -12.150  14.141  69.412  1.00  0.00    -0.372 A  
HETATM   22  C   UNL     1     -11.084  15.862  70.730  1.00  0.00    -0.352 A  
HETATM   23  C   UNL     1     -10.956  15.928  68.309  1.00  0.00    -0.329 A  
HETATM   24  C   UNL     1     -11.841  14.695  70.657  1.00  0.00    -0.367 A  
HETATM   25  C   UNL     1     -10.648  16.480  69.558  1.00  0.00    -0.321 A  
ENDBRANCH  19  20
ENDBRANCH  17  19
ENDBRANCH  10  13
BRANCH  12  26
HETATM   26  C   UNL     1      -7.728   6.358  68.056  1.00  0.00    -0.104 C  
HETATM   27  C   UNL     1      -7.710   2.714  68.703  1.00  0.00    -0.054 C  
HETATM   28  C   UNL     1      -6.381   6.698  68.723  1.00  0.00    -0.035 C  
HETATM   29  C   UNL     1      -5.832   4.256  68.827  1.00  0.00    -0.022 C  
HETATM   30  C   UNL     1      -5.895   5.556  69.617  1.00  0.00    -0.017 C  
HETATM   31  O   UNL     1      -7.128   1.951  69.477  1.00  0.00    -0.036 OA 
HETATM   32  N   UNL     1      -7.162   3.928  68.316  1.00  0.00    -0.055 N  
HETATM   33  C   UNL     1      -7.726   4.952  67.414  1.00  0.00    -0.091 C  
BRANCH  27  34
HETATM   34  C   UNL     1      -9.045   2.322  68.176  1.00  0.00    -0.224 C  
HETATM   35  C   UNL     1      -9.827   1.506  68.899  1.00  0.00     0.040 C  
ENDBRANCH  27  34
ENDBRANCH  12  26
TORSDOF 5
ENDMDL
MODEL      152
REMARK 921   NORMALIZED FREE ENERGY PREDICTED BY IDOCK:   -4.11 KCAL/MOL
REMARK 922        TOTAL FREE ENERGY PREDICTED BY IDOCK:   -5.79 KCAL/MOL
REMARK 923 INTER-LIGAND FREE ENERGY PREDICTED BY IDOCK:   -5.38 KCAL/MOL
REMARK 924 INTRA-LIGAND FREE ENERGY PREDICTED BY IDOCK:   -0.40 KCAL/MOL
REMARK 927      BINDING AFFINITY PREDICTED BY RF-SCORE:    0.00 PKD
ROOT
HETATM    1  N   UNL     1      -6.286  11.682  70.767  1.00  0.00    -0.512 NA 
HETATM    2  C   UNL     1      -6.033  10.394  71.227  1.00  0.00     0.150 A  
HETATM    3  H1  UNL     1      -6.788  11.727  69.881  1.00  0.00     0.000 HD 
HETATM    4  H2  UNL     1      -5.416  12.214  70.710  1.00  0.00     0.000 HD 
HETATM    5  N   UNL     1      -5.367  10.334  72.402  1.00  0.00    -0.306 NA 
HETATM    6  C   UNL     1      -5.166   9.135  72.975  1.00  0.00    -0.081 A  
HETATM    7  N   UNL     1      -5.580   7.943  72.532  1.00  0.00    -0.036 NA 
HETATM    8  C   UNL     1      -6.208   8.044  71.350  1.00  0.00    -0.035 A  
HETATM    9  C   UNL     1      -6.455   9.200  70.617  1.00  0.00    -0.066 A  
HETATM   10  C   UNL     1      -7.120   8.740  69.424  1.00  0.00    -0.057 A  
HETATM   11  N   UNL     1      -7.321   7.403  69.489  1.00  0.00    -0.083 NA 
HETATM   12  N   UNL     1      -6.767   7.014  70.651  1.00  0.00    -0.052 NA 
ENDROOT
BRANCH  10  13
HETATM   13  C   UNL     1      -7.615   9.464  68.230  1.00  0.00    -0.082 A  
HETATM   14  C   UNL     1      -8.966   9.756  68.000  1.00  0.00    -0.118 A  
HETATM   15  C   UNL     1      -9.368  10.419  66.825  1.00  0.00    -0.181 A  
HETATM   16  C   UNL     1      -6.687   9.916  67.269  1.00  0.00    -0.074 A  
HETATM   17  C   UNL     1      -8.429  10.844  65.876  1.00  0.00    -0.158 A  
HETATM   18  C   UNL     1      -7.082  10.596  66.107  1.00  0.00    -0.138 A  
BRANCH  17  19
HETATM   19  O   UNL     1      -8.944  11.395  64.724  1.00  0.00    -0.039 OA 
BRANCH  19  20
HETATM   20  C   UNL     1     -10.255  11.811  64.654  1.00  0.00    -0.284 A  
HETATM   21  C   UNL     1     -10.711  12.621  65.700  1.00  0.00    -0.297 A  
HETATM   22  C   UNL     1     -12.781  13.013  64.518  1.00  0.00    -0.318 A  
HETATM   23  C   UNL     1     -11.068  11.604  63.538  1.00  0.00    -0.476 A  
HETATM   24  C   UNL     1     -11.973  13.217  65.635  1.00  0.00    -0.462 A  
HETATM   25  C   UNL     1     -12.332  12.204  63.475  1.00  0.00    -0.682 A  
ENDBRANCH  19  20
ENDBRANCH  17  19
ENDBRANCH  10  13
BRANCH  12  26
HETATM   26  C   UNL     1      -6.864   5.622  71.088  1.00  0.00    -0.061 C  
HETATM   27  C   UNL     1      -8.917   3.262  73.065  1.00  0.00    -0.087 C  
HETATM   28  C   UNL     1      -6.404   4.638  69.995  1.00  0.00    -0.030 C  
HETATM   29  C   UNL     1      -8.107   2.982  70.787  1.00  0.00    -0.053 C  
HETATM   30  C   UNL     1      -6.647   3.186  70.411  1.00  0.00    -0.032 C  
HETATM   31  O   UNL     1      -9.002   2.037  73.180  1.00  0.00    -0.066 OA 
HETATM   32  N   UNL     1      -8.453   3.861  71.903  1.00  0.00    -0.096 N  
HETATM   33  C   UNL     1      -8.283   5.298  71.608  1.00  0.00    -0.118 C  
BRANCH  27  34
HETATM   34  C   UNL     1      -9.318   4.120  74.212  1.00  0.00    -0.120 C  
HETATM   35  C   UNL     1     -10.467   4.809  74.151  1.00  0.00    -0.335 C  
ENDBRANCH  27  34
ENDBRANCH  12  26
TORSDOF 5
ENDMDL
MODEL      153
REMARK 921   NORMALIZED FREE ENERGY PREDICTED BY IDOCK:   -4.10 KCAL/MOL
REMARK 922        TOTAL FREE ENERGY PREDICTED BY IDOCK:   -5.77 KCAL/MOL
REMARK 923 INTER-LIGAND FREE ENERGY PREDICTED BY IDOCK:   -5.99 KCAL/MOL
REMARK 924 INTRA-LIGAND FREE ENERGY PREDICTED BY IDOCK:    0.23 KCAL/MOL
REMARK 927      BINDING AFFINITY PREDICTED BY RF-SCORE:    0.00 PKD
ROOT
HETATM    1  N   UNL     1      -8.879   5.671  62.632  1.00  0.00    -0.337 NA 
HETATM    2  C   UNL     1      -8.717   4.972  63.822  1.00  0.00    -0.075 A  
HETATM    3  H1  UNL     1      -8.900   6.686  62.734  1.00  0.00     0.000 HD 
HETATM    4  H2  UNL     1      -9.713   5.346  62.141  1.00  0.00     0.000 HD 
HETATM    5  N   UNL     1      -8.688   3.627  63.687  1.00  0.00    -0.094 NA 
HETATM    6  C   UNL     1      -8.435   2.870  64.768  1.00  0.00    -0.092 A  
HETATM    7  N   UNL     1      -8.168   3.289  66.009  1.00  0.00    -0.093 NA 
HETATM    8  C   UNL     1      -8.237   4.627  66.107  1.00  0.00    -0.107 A  
HETATM    9  C   UNL     1      -8.527   5.536  65.095  1.00  0.00    -0.147 A  
HETATM   10  C   UNL     1      -8.507   6.822  65.745  1.00  0.00    -0.147 A  
HETATM   11  N   UNL     1      -8.150   6.683  67.043  1.00  0.00    -0.112 NA 
HETATM   12  N   UNL     1      -7.994   5.360  67.231  1.00  0.00    -0.101 NA 
ENDROOT
BRANCH  10  13
HETATM   13  C   UNL     1      -8.767   8.189  65.235  1.00  0.00    -0.093 A  
HETATM   14  C   UNL     1      -9.690   9.073  65.808  1.00  0.00    -0.254 A  
HETATM   15  C   UNL     1      -9.909  10.345  65.248  1.00  0.00    -0.361 A  
HETATM   16  C   UNL     1      -8.035   8.655  64.123  1.00  0.00    -0.149 A  
HETATM   17  C   UNL     1      -9.183  10.781  64.133  1.00  0.00    -0.224 A  
HETATM   18  C   UNL     1      -8.236   9.931  63.575  1.00  0.00    -0.163 A  
BRANCH  17  19
HETATM   19  O   UNL     1      -9.549  12.003  63.615  1.00  0.00    -0.227 OA 
BRANCH  19  20
HETATM   20  C   UNL     1     -10.547  12.755  64.193  1.00  0.00    -0.415 A  
HETATM   21  C   UNL     1     -11.860  12.321  63.982  1.00  0.00    -0.530 A  
HETATM   22  C   UNL     1     -12.675  13.965  65.553  1.00  0.00    -0.536 A  
HETATM   23  C   UNL     1     -10.301  13.798  65.088  1.00  0.00    -0.391 A  
HETATM   24  C   UNL     1     -12.923  12.927  64.657  1.00  0.00    -0.204 A  
HETATM   25  C   UNL     1     -11.369  14.404  65.763  1.00  0.00    -0.330 A  
ENDBRANCH  19  20
ENDBRANCH  17  19
ENDBRANCH  10  13
BRANCH  12  26
HETATM   26  C   UNL     1      -7.532   4.845  68.519  1.00  0.00    -0.070 C  
HETATM   27  C   UNL     1      -7.635   5.441  72.170  1.00  0.00    -0.100 C  
HETATM   28  C   UNL     1      -7.516   3.305  68.557  1.00  0.00    -0.049 C  
HETATM   29  C   UNL     1      -8.120   3.371  70.986  1.00  0.00    -0.062 C  
HETATM   30  C   UNL     1      -7.171   2.782  69.952  1.00  0.00    -0.040 C  
HETATM   31  O   UNL     1      -7.372   4.792  73.186  1.00  0.00    -0.079 OA 
HETATM   32  N   UNL     1      -8.006   4.828  70.982  1.00  0.00    -0.082 N  
HETATM   33  C   UNL     1      -8.344   5.451  69.687  1.00  0.00    -0.100 C  
BRANCH  27  34
HETATM   34  C   UNL     1      -7.545   6.925  72.222  1.00  0.00    -0.092 C  
HETATM   35  C   UNL     1      -8.007   7.577  73.299  1.00  0.00    -0.142 C  
ENDBRANCH  27  34
ENDBRANCH  12  26
TORSDOF 5
ENDMDL
MODEL      154
REMARK 921   NORMALIZED FREE ENERGY PREDICTED BY IDOCK:   -3.88 KCAL/MOL
REMARK 922        TOTAL FREE ENERGY PREDICTED BY IDOCK:   -5.49 KCAL/MOL
REMARK 923 INTER-LIGAND FREE ENERGY PREDICTED BY IDOCK:   -4.82 KCAL/MOL
REMARK 924 INTRA-LIGAND FREE ENERGY PREDICTED BY IDOCK:   -0.67 KCAL/MOL
REMARK 927      BINDING AFFINITY PREDICTED BY RF-SCORE:    0.00 PKD
ROOT
HETATM    1  N   UNL     1     -11.380  15.081  67.194  1.00  0.00    -0.339 NA 
HETATM    2  C   UNL     1     -11.143  13.803  67.687  1.00  0.00    -0.273 A  
HETATM    3  H1  UNL     1     -10.559  15.685  67.165  1.00  0.00     0.000 HD 
HETATM    4  H2  UNL     1     -12.132  15.528  67.718  1.00  0.00     0.000 HD 
HETATM    5  N   UNL     1     -12.230  13.001  67.725  1.00  0.00    -0.167 NA 
HETATM    6  C   UNL     1     -12.080  11.717  68.092  1.00  0.00     0.030 A  
HETATM    7  N   UNL     1     -10.942  11.091  68.412  1.00  0.00    -0.210 NA 
HETATM    8  C   UNL     1      -9.893  11.929  68.392  1.00  0.00    -0.201 A  
HETATM    9  C   UNL     1      -9.896  13.283  68.076  1.00  0.00    -0.230 A  
HETATM   10  C   UNL     1      -8.526  13.700  68.246  1.00  0.00    -0.170 A  
HETATM   11  N   UNL     1      -7.753  12.637  68.567  1.00  0.00    -0.131 NA 
HETATM   12  N   UNL     1      -8.595  11.592  68.646  1.00  0.00    -0.142 NA 
ENDROOT
BRANCH  10  13
HETATM   13  C   UNL     1      -7.873  15.022  68.100  1.00  0.00    -0.121 A  
HETATM   14  C   UNL     1      -7.511  15.836  69.180  1.00  0.00    -0.207 A  
HETATM   15  C   UNL     1      -6.923  17.097  68.964  1.00  0.00    -0.235 A  
HETATM   16  C   UNL     1      -7.566  15.494  66.807  1.00  0.00    -0.053 A  
HETATM   17  C   UNL     1      -6.643  17.554  67.670  1.00  0.00    -0.161 A  
HETATM   18  C   UNL     1      -6.961  16.741  66.588  1.00  0.00    -0.268 A  
BRANCH  17  19
HETATM   19  O   UNL     1      -6.157  18.838  67.575  1.00  0.00    -0.177 OA 
BRANCH  19  20
HETATM   20  C   UNL     1      -6.003  19.457  66.354  1.00  0.00    -0.164 A  
HETATM   21  C   UNL     1      -5.211  18.794  65.411  1.00  0.00    -0.198 A  
HETATM   22  C   UNL     1      -5.845  20.400  63.722  1.00  0.00    -0.319 A  
HETATM   23  C   UNL     1      -6.717  20.596  65.976  1.00  0.00    -0.243 A  
HETATM   24  C   UNL     1      -5.128  19.266  64.099  1.00  0.00    -0.231 A  
HETATM   25  C   UNL     1      -6.632  21.066  64.660  1.00  0.00    -0.111 A  
ENDBRANCH  19  20
ENDBRANCH  17  19
ENDBRANCH  10  13
BRANCH  12  26
HETATM   26  C   UNL     1      -8.084  10.247  68.907  1.00  0.00    -0.123 C  
HETATM   27  C   UNL     1      -5.735   7.667  67.673  1.00  0.00    -0.036 C  
HETATM   28  C   UNL     1      -7.935   9.965  70.415  1.00  0.00    -0.044 C  
HETATM   29  C   UNL     1      -5.932   8.539  69.937  1.00  0.00    -0.028 C  
HETATM   30  C   UNL     1      -7.265   8.614  70.668  1.00  0.00    -0.058 C  
HETATM   31  O   UNL     1      -5.233   6.634  68.121  1.00  0.00    -0.007 OA 
HETATM   32  N   UNL     1      -6.152   8.700  68.500  1.00  0.00    -0.045 N  
HETATM   33  C   UNL     1      -6.773   9.988  68.130  1.00  0.00    -0.059 C  
BRANCH  27  34
HETATM   34  C   UNL     1      -5.903   7.806  66.201  1.00  0.00    -0.037 C  
HETATM   35  C   UNL     1      -7.082   7.498  65.640  1.00  0.00    -0.061 C  
ENDBRANCH  27  34
ENDBRANCH  12  26
TORSDOF 5
ENDMDL
MODEL      155
REMARK 921   NORMALIZED FREE ENERGY PREDICTED BY IDOCK:   -3.88 KCAL/MOL
REMARK 922        TOTAL FREE ENERGY PREDICTED BY IDOCK:   -5.49 KCAL/MOL
REMARK 923 INTER-LIGAND FREE ENERGY PREDICTED BY IDOCK:   -5.72 KCAL/MOL
REMARK 924 INTRA-LIGAND FREE ENERGY PREDICTED BY IDOCK:    0.23 KCAL/MOL
REMARK 927      BINDING AFFINITY PREDICTED BY RF-SCORE:    0.00 PKD
ROOT
HETATM    1  N   UNL     1      -6.794  11.515  69.893  1.00  0.00    -0.346 NA 
HETATM    2  C   UNL     1      -6.739  10.259  70.488  1.00  0.00    -0.068 A  
HETATM    3  H1  UNL     1      -7.644  11.697  69.359  1.00  0.00     0.000 HD 
HETATM    4  H2  UNL     1      -5.969  11.667  69.311  1.00  0.00     0.000 HD 
HETATM    5  N   UNL     1      -5.614  10.017  71.196  1.00  0.00    -0.079 NA 
HETATM    6  C   UNL     1      -5.514   8.870  71.888  1.00  0.00    -0.055 A  
HETATM    7  N   UNL     1      -6.433   7.905  71.998  1.00  0.00    -0.047 NA 
HETATM    8  C   UNL     1      -7.521   8.169  71.256  1.00  0.00    -0.074 A  
HETATM    9  C   UNL     1      -7.752   9.285  70.459  1.00  0.00    -0.160 A  
HETATM   10  C   UNL     1      -9.043   9.045  69.864  1.00  0.00    -0.168 A  
HETATM   11  N   UNL     1      -9.571   7.895  70.343  1.00  0.00    -0.171 NA 
HETATM   12  N   UNL     1      -8.640   7.393  71.174  1.00  0.00    -0.122 NA 
ENDROOT
BRANCH  10  13
HETATM   13  C   UNL     1      -9.843   9.832  68.896  1.00  0.00    -0.177 A  
HETATM   14  C   UNL     1     -10.604  10.955  69.244  1.00  0.00    -0.251 A  
HETATM   15  C   UNL     1     -11.368  11.633  68.276  1.00  0.00    -0.348 A  
HETATM   16  C   UNL     1      -9.832   9.459  67.536  1.00  0.00    -0.220 A  
HETATM   17  C   UNL     1     -11.355  11.235  66.933  1.00  0.00    -0.155 A  
HETATM   18  C   UNL     1     -10.575  10.146  66.564  1.00  0.00    -0.179 A  
BRANCH  17  19
HETATM   19  O   UNL     1     -12.212  11.912  66.095  1.00  0.00    -0.459 OA 
BRANCH  19  20
HETATM   20  C   UNL     1     -11.926  13.186  65.655  1.00  0.00    -0.415 A  
HETATM   21  C   UNL     1     -10.573  13.500  65.486  1.00  0.00    -0.299 A  
HETATM   22  C   UNL     1     -11.172  15.606  64.466  1.00  0.00    -0.337 A  
HETATM   23  C   UNL     1     -12.902  14.087  65.228  1.00  0.00    -0.418 A  
HETATM   24  C   UNL     1     -10.196  14.709  64.897  1.00  0.00    -0.322 A  
HETATM   25  C   UNL     1     -12.521  15.299  64.637  1.00  0.00     0.019 A  
ENDBRANCH  19  20
ENDBRANCH  17  19
ENDBRANCH  10  13
BRANCH  12  26
HETATM   26  C   UNL     1      -8.908   6.174  71.936  1.00  0.00    -0.137 C  
HETATM   27  C   UNL     1      -7.676   2.748  72.598  1.00  0.00    -0.054 C  
HETATM   28  C   UNL     1      -9.453   6.479  73.345  1.00  0.00    -0.155 C  
HETATM   29  C   UNL     1      -8.266   4.457  74.227  1.00  0.00    -0.091 C  
HETATM   30  C   UNL     1      -9.592   5.205  74.179  1.00  0.00    -0.144 C  
HETATM   31  O   UNL     1      -7.882   1.877  73.446  1.00  0.00    -0.040 OA 
HETATM   32  N   UNL     1      -7.859   4.096  72.870  1.00  0.00    -0.080 N  
HETATM   33  C   UNL     1      -7.666   5.255  71.974  1.00  0.00    -0.100 C  
BRANCH  27  34
HETATM   34  C   UNL     1      -7.223   2.339  71.241  1.00  0.00    -0.033 C  
HETATM   35  C   UNL     1      -6.490   3.187  70.505  1.00  0.00    -0.031 C  
ENDBRANCH  27  34
ENDBRANCH  12  26
TORSDOF 5
ENDMDL
MODEL      156
REMARK 921   NORMALIZED FREE ENERGY PREDICTED BY IDOCK:   -3.70 KCAL/MOL
REMARK 922        TOTAL FREE ENERGY PREDICTED BY IDOCK:   -5.25 KCAL/MOL
REMARK 923 INTER-LIGAND FREE ENERGY PREDICTED BY IDOCK:   -4.98 KCAL/MOL
REMARK 924 INTRA-LIGAND FREE ENERGY PREDICTED BY IDOCK:   -0.27 KCAL/MOL
REMARK 927      BINDING AFFINITY PREDICTED BY RF-SCORE:    0.00 PKD
ROOT
HETATM    1  N   UNL     1     -11.076  13.946  67.906  1.00  0.00    -0.251 NA 
HETATM    2  C   UNL     1     -10.977  12.650  68.397  1.00  0.00    -0.257 A  
HETATM    3  H1  UNL     1     -10.183  14.424  67.783  1.00  0.00     0.000 HD 
HETATM    4  H2  UNL     1     -11.698  14.501  68.494  1.00  0.00     0.000 HD 
HETATM    5  N   UNL     1     -12.160  12.015  68.560  1.00  0.00    -0.364 NA 
HETATM    6  C   UNL     1     -12.160  10.725  68.935  1.00  0.00    -0.037 A  
HETATM    7  N   UNL     1     -11.098   9.941  69.151  1.00  0.00    -0.196 NA 
HETATM    8  C   UNL     1      -9.946  10.617  69.010  1.00  0.00    -0.213 A  
HETATM    9  C   UNL     1      -9.785  11.956  68.669  1.00  0.00    -0.116 A  
HETATM   10  C   UNL     1      -8.360  12.168  68.694  1.00  0.00    -0.016 A  
HETATM   11  N   UNL     1      -7.720  11.006  68.956  1.00  0.00    -0.138 NA 
HETATM   12  N   UNL     1      -8.693  10.095  69.140  1.00  0.00    -0.159 NA 
ENDROOT
BRANCH  10  13
HETATM   13  C   UNL     1      -7.540  13.380  68.457  1.00  0.00    -0.127 A  
HETATM   14  C   UNL     1      -6.525  13.815  69.319  1.00  0.00    -0.112 A  
HETATM   15  C   UNL     1      -5.809  14.996  69.046  1.00  0.00    -0.096 A  
HETATM   16  C   UNL     1      -7.762  14.139  67.290  1.00  0.00    -0.132 A  
HETATM   17  C   UNL     1      -6.058  15.744  67.889  1.00  0.00    -0.143 A  
HETATM   18  C   UNL     1      -7.036  15.305  67.004  1.00  0.00     0.145 A  
BRANCH  17  19
HETATM   19  O   UNL     1      -5.366  16.928  67.776  1.00  0.00    -0.109 OA 
BRANCH  19  20
HETATM   20  C   UNL     1      -5.818  18.082  68.378  1.00  0.00    -0.177 A  
HETATM   21  C   UNL     1      -7.113  18.495  68.044  1.00  0.00    -0.246 A  
HETATM   22  C   UNL     1      -7.020  20.212  69.742  1.00  0.00    -0.065 A  
HETATM   23  C   UNL     1      -5.125  18.739  69.396  1.00  0.00    -0.192 A  
HETATM   24  C   UNL     1      -7.711  19.561  68.721  1.00  0.00    -0.375 A  
HETATM   25  C   UNL     1      -5.728  19.806  70.073  1.00  0.00    -0.309 A  
ENDBRANCH  19  20
ENDBRANCH  17  19
ENDBRANCH  10  13
BRANCH  12  26
HETATM   26  C   UNL     1      -8.357   8.691  69.374  1.00  0.00    -0.114 C  
HETATM   27  C   UNL     1      -8.771   5.892  71.759  1.00  0.00    -0.139 C  
HETATM   28  C   UNL     1      -8.377   7.865  68.073  1.00  0.00    -0.123 C  
HETATM   29  C   UNL     1      -9.192   5.879  69.362  1.00  0.00    -0.130 C  
HETATM   30  C   UNL     1      -8.168   6.376  68.352  1.00  0.00    -0.113 C  
HETATM   31  O   UNL     1      -8.612   4.670  71.733  1.00  0.00    -0.117 OA 
HETATM   32  N   UNL     1      -9.049   6.623  70.613  1.00  0.00    -0.155 N  
HETATM   33  C   UNL     1      -9.257   8.077  70.471  1.00  0.00    -0.154 C  
BRANCH  27  34
HETATM   34  C   UNL     1      -8.656   6.604  73.060  1.00  0.00    -0.125 C  
HETATM   35  C   UNL     1      -7.738   7.571  73.205  1.00  0.00    -0.123 C  
ENDBRANCH  27  34
ENDBRANCH  12  26
TORSDOF 5
ENDMDL
MODEL      157
REMARK 921   NORMALIZED FREE ENERGY PREDICTED BY IDOCK:   -3.68 KCAL/MOL
REMARK 922        TOTAL FREE ENERGY PREDICTED BY IDOCK:   -5.22 KCAL/MOL
REMARK 923 INTER-LIGAND FREE ENERGY PREDICTED BY IDOCK:   -4.81 KCAL/MOL
REMARK 924 INTRA-LIGAND FREE ENERGY PREDICTED BY IDOCK:   -0.41 KCAL/MOL
REMARK 927      BINDING AFFINITY PREDICTED BY RF-SCORE:    0.00 PKD
ROOT
HETATM    1  N   UNL     1      -5.526  15.131  72.342  1.00  0.00     0.196 NA 
HETATM    2  C   UNL     1      -5.461  13.789  71.986  1.00  0.00    -0.165 A  
HETATM    3  H1  UNL     1      -5.778  15.762  71.581  1.00  0.00     0.000 HD 
HETATM    4  H2  UNL     1      -4.648  15.426  72.771  1.00  0.00     0.000 HD 
HETATM    5  N   UNL     1      -5.126  12.953  72.994  1.00  0.00    -0.378 NA 
HETATM    6  C   UNL     1      -5.136  11.628  72.771  1.00  0.00     0.436 A  
HETATM    7  N   UNL     1      -5.476  10.996  71.642  1.00  0.00    -0.336 NA 
HETATM    8  C   UNL     1      -5.771  11.862  70.659  1.00  0.00    -0.125 A  
HETATM    9  C   UNL     1      -5.765  13.251  70.723  1.00  0.00    -0.176 A  
HETATM   10  C   UNL     1      -6.118  13.679  69.393  1.00  0.00    -0.104 A  
HETATM   11  N   UNL     1      -6.391  12.605  68.616  1.00  0.00    -0.069 NA 
HETATM   12  N   UNL     1      -6.176  11.533  69.398  1.00  0.00    -0.083 NA 
ENDROOT
BRANCH  10  13
HETATM   13  C   UNL     1      -6.252  15.028  68.794  1.00  0.00    -0.083 A  
HETATM   14  C   UNL     1      -5.941  16.215  69.469  1.00  0.00    -0.162 A  
HETATM   15  C   UNL     1      -6.127  17.464  68.848  1.00  0.00    -0.189 A  
HETATM   16  C   UNL     1      -6.694  15.143  67.460  1.00  0.00    -0.189 A  
HETATM   17  C   UNL     1      -6.583  17.556  67.526  1.00  0.00    -0.154 A  
HETATM   18  C   UNL     1      -6.860  16.386  66.830  1.00  0.00    -0.183 A  
BRANCH  17  19
HETATM   19  O   UNL     1      -6.817  18.828  67.056  1.00  0.00    -0.199 OA 
BRANCH  19  20
HETATM   20  C   UNL     1      -8.098  19.319  66.926  1.00  0.00    -0.267 A  
HETATM   21  C   UNL     1      -9.034  18.470  66.326  1.00  0.00    -0.219 A  
HETATM   22  C   UNL     1     -10.810  20.015  66.870  1.00  0.00    -0.241 A  
HETATM   23  C   UNL     1      -8.522  20.519  67.498  1.00  0.00    -0.316 A  
HETATM   24  C   UNL     1     -10.387  18.819  66.294  1.00  0.00    -0.497 A  
HETATM   25  C   UNL     1      -9.879  20.866  67.465  1.00  0.00    -0.295 A  
ENDBRANCH  19  20
ENDBRANCH  17  19
ENDBRANCH  10  13
BRANCH  12  26
HETATM   26  C   UNL     1      -6.448  10.186  68.899  1.00  0.00    -0.048 C  
HETATM   27  C   UNL     1      -8.493   7.156  69.475  1.00  0.00    -0.134 C  
HETATM   28  C   UNL     1      -6.394  10.116  67.361  1.00  0.00    -0.066 C  
HETATM   29  C   UNL     1      -8.196   8.376  67.391  1.00  0.00    -0.120 C  
HETATM   30  C   UNL     1      -6.821   8.739  66.848  1.00  0.00    -0.070 C  
HETATM   31  O   UNL     1      -8.783   6.143  68.834  1.00  0.00    -0.122 OA 
HETATM   32  N   UNL     1      -8.154   8.348  68.852  1.00  0.00    -0.112 N  
HETATM   33  C   UNL     1      -7.778   9.638  69.465  1.00  0.00    -0.109 C  
BRANCH  27  34
HETATM   34  C   UNL     1      -8.502   7.093  70.961  1.00  0.00    -0.129 C  
HETATM   35  C   UNL     1      -7.841   6.107  71.585  1.00  0.00    -0.102 C  
ENDBRANCH  27  34
ENDBRANCH  12  26
TORSDOF 5
ENDMDL
MODEL      158
REMARK 921   NORMALIZED FREE ENERGY PREDICTED BY IDOCK:   -3.60 KCAL/MOL
REMARK 922        TOTAL FREE ENERGY PREDICTED BY IDOCK:   -5.12 KCAL/MOL
REMARK 923 INTER-LIGAND FREE ENERGY PREDICTED BY IDOCK:   -4.87 KCAL/MOL
REMARK 924 INTRA-LIGAND FREE ENERGY PREDICTED BY IDOCK:   -0.25 KCAL/MOL
REMARK 927      BINDING AFFINITY PREDICTED BY RF-SCORE:    0.00 PKD
ROOT
HETATM    1  N   UNL     1      -5.487  10.721  70.725  1.00  0.00    -0.103 NA 
HETATM    2  C   UNL     1      -6.175  11.881  70.387  1.00  0.00     0.069 A  
HETATM    3  H1  UNL     1      -5.940   9.856  70.432  1.00  0.00     0.000 HD 
HETATM    4  H2  UNL     1      -5.299  10.701  71.728  1.00  0.00     0.000 HD 
HETATM    5  N   UNL     1      -5.574  13.028  70.775  1.00  0.00    -0.179 NA 
HETATM    6  C   UNL     1      -6.113  14.202  70.405  1.00  0.00    -0.169 A  
HETATM    7  N   UNL     1      -7.196  14.396  69.646  1.00  0.00    -0.062 NA 
HETATM    8  C   UNL     1      -7.779  13.234  69.309  1.00  0.00     0.418 A  
HETATM    9  C   UNL     1      -7.368  11.950  69.647  1.00  0.00     0.434 A  
HETATM   10  C   UNL     1      -8.362  11.084  69.064  1.00  0.00    -0.085 A  
HETATM   11  N   UNL     1      -9.258  11.812  68.360  1.00  0.00    -0.186 NA 
HETATM   12  N   UNL     1      -8.885  13.094  68.522  1.00  0.00    -0.104 NA 
ENDROOT
BRANCH  10  13
HETATM   13  C   UNL     1      -8.521   9.611  69.088  1.00  0.00    -0.143 A  
HETATM   14  C   UNL     1      -7.672   8.724  68.414  1.00  0.00    -0.096 A  
HETATM   15  C   UNL     1      -7.906   7.336  68.453  1.00  0.00    -0.122 A  
HETATM   16  C   UNL     1      -9.568   9.048  69.846  1.00  0.00    -0.193 A  
HETATM   17  C   UNL     1      -8.962   6.800  69.200  1.00  0.00    -0.132 A  
HETATM   18  C   UNL     1      -9.791   7.664  69.906  1.00  0.00    -0.184 A  
BRANCH  17  19
HETATM   19  O   UNL     1      -9.151   5.441  69.088  1.00  0.00    -0.105 OA 
BRANCH  19  20
HETATM   20  C   UNL     1      -9.365   4.654  70.199  1.00  0.00    -0.144 A  
HETATM   21  C   UNL     1      -9.003   3.307  70.091  1.00  0.00    -0.171 A  
HETATM   22  C   UNL     1      -9.425   2.987  72.448  1.00  0.00    -0.179 A  
HETATM   23  C   UNL     1      -9.759   5.166  71.437  1.00  0.00    -0.225 A  
HETATM   24  C   UNL     1      -9.037   2.474  71.212  1.00  0.00    -0.173 A  
HETATM   25  C   UNL     1      -9.792   4.328  72.558  1.00  0.00    -0.209 A  
ENDBRANCH  19  20
ENDBRANCH  17  19
ENDBRANCH  10  13
BRANCH  12  26
HETATM   26  C   UNL     1      -9.599  14.166  67.829  1.00  0.00    -0.219 C  
HETATM   27  C   UNL     1      -9.166  17.468  66.216  1.00  0.00    -0.203 C  
HETATM   28  C   UNL     1     -10.707  13.623  66.907  1.00  0.00    -0.275 C  
HETATM   29  C   UNL     1     -10.279  15.504  65.309  1.00  0.00    -0.346 C  
HETATM   30  C   UNL     1     -11.346  14.742  66.082  1.00  0.00    -0.330 C  
HETATM   31  O   UNL     1      -9.831  18.185  65.465  1.00  0.00    -0.352 OA 
HETATM   32  N   UNL     1      -9.321  16.090  66.245  1.00  0.00    -0.293 N  
HETATM   33  C   UNL     1      -8.618  15.098  67.082  1.00  0.00    -0.223 C  
BRANCH  27  34
HETATM   34  C   UNL     1      -8.173  18.104  67.124  1.00  0.00    -0.237 C  
HETATM   35  C   UNL     1      -8.593  18.687  68.257  1.00  0.00    -0.347 C  
ENDBRANCH  27  34
ENDBRANCH  12  26
TORSDOF 5
ENDMDL
MODEL      159
REMARK 921   NORMALIZED FREE ENERGY PREDICTED BY IDOCK:   -3.53 KCAL/MOL
REMARK 922        TOTAL FREE ENERGY PREDICTED BY IDOCK:   -5.04 KCAL/MOL
REMARK 923 INTER-LIGAND FREE ENERGY PREDICTED BY IDOCK:   -4.91 KCAL/MOL
REMARK 924 INTRA-LIGAND FREE ENERGY PREDICTED BY IDOCK:   -0.12 KCAL/MOL
REMARK 927      BINDING AFFINITY PREDICTED BY RF-SCORE:    0.00 PKD
ROOT
HETATM    1  N   UNL     1     -10.605  12.515  66.225  1.00  0.00    -0.245 NA 
HETATM    2  C   UNL     1     -10.349  11.433  67.060  1.00  0.00    -0.223 A  
HETATM    3  H1  UNL     1     -10.009  13.327  66.387  1.00  0.00     0.000 HD 
HETATM    4  H2  UNL     1     -11.589  12.780  66.280  1.00  0.00     0.000 HD 
HETATM    5  N   UNL     1     -11.138  10.356  66.845  1.00  0.00    -0.133 NA 
HETATM    6  C   UNL     1     -10.899   9.228  67.535  1.00  0.00    -0.112 A  
HETATM    7  N   UNL     1      -9.925   9.009  68.424  1.00  0.00    -0.173 NA 
HETATM    8  C   UNL     1      -9.186  10.111  68.630  1.00  0.00    -0.157 A  
HETATM    9  C   UNL     1      -9.334  11.356  68.029  1.00  0.00    -0.171 A  
HETATM   10  C   UNL     1      -8.314  12.176  68.632  1.00  0.00    -0.016 A  
HETATM   11  N   UNL     1      -7.562  11.435  69.479  1.00  0.00     0.101 NA 
HETATM   12  N   UNL     1      -8.105  10.205  69.458  1.00  0.00    -0.159 NA 
ENDROOT
BRANCH  10  13
HETATM   13  C   UNL     1      -7.963  13.604  68.453  1.00  0.00    -0.147 A  
HETATM   14  C   UNL     1      -8.661  14.478  67.609  1.00  0.00    -0.184 A  
HETATM   15  C   UNL     1      -8.249  15.816  67.462  1.00  0.00    -0.181 A  
HETATM   16  C   UNL     1      -6.883  14.141  69.184  1.00  0.00    -0.113 A  
HETATM   17  C   UNL     1      -7.162  16.324  68.186  1.00  0.00    -0.142 A  
HETATM   18  C   UNL     1      -6.484  15.480  69.056  1.00  0.00    -0.123 A  
BRANCH  17  19
HETATM   19  O   UNL     1      -6.792  17.616  67.891  1.00  0.00    -0.183 OA 
BRANCH  19  20
HETATM   20  C   UNL     1      -7.734  18.592  67.645  1.00  0.00    -0.231 A  
HETATM   21  C   UNL     1      -8.880  18.571  68.447  1.00  0.00    -0.346 A  
HETATM   22  C   UNL     1      -9.596  20.679  67.510  1.00  0.00    -0.507 A  
HETATM   23  C   UNL     1      -7.522  19.661  66.773  1.00  0.00    -0.264 A  
HETATM   24  C   UNL     1      -9.812  19.610  68.377  1.00  0.00    -0.531 A  
HETATM   25  C   UNL     1      -8.458  20.701  66.705  1.00  0.00    -0.133 A  
ENDBRANCH  19  20
ENDBRANCH  17  19
ENDBRANCH  10  13
BRANCH  12  26
HETATM   26  C   UNL     1      -7.493   9.113  70.213  1.00  0.00    -0.099 C  
HETATM   27  C   UNL     1      -6.643   5.514  70.077  1.00  0.00    -0.043 C  
HETATM   28  C   UNL     1      -6.280   9.586  71.038  1.00  0.00    -0.079 C  
HETATM   29  C   UNL     1      -5.179   7.367  70.667  1.00  0.00    -0.023 C  
HETATM   30  C   UNL     1      -5.565   8.411  71.706  1.00  0.00    -0.039 C  
HETATM   31  O   UNL     1      -5.918   4.746  70.714  1.00  0.00    -0.016 OA 
HETATM   32  N   UNL     1      -6.382   6.874  69.998  1.00  0.00    -0.035 N  
HETATM   33  C   UNL     1      -7.146   7.922  69.291  1.00  0.00    -0.071 C  
BRANCH  27  34
HETATM   34  C   UNL     1      -7.835   4.963  69.378  1.00  0.00    -0.071 C  
HETATM   35  C   UNL     1      -7.667   4.078  68.384  1.00  0.00    -0.066 C  
ENDBRANCH  27  34
ENDBRANCH  12  26
TORSDOF 5
ENDMDL
MODEL      160
REMARK 921   NORMALIZED FREE ENERGY PREDICTED BY IDOCK:   -3.50 KCAL/MOL
REMARK 922        TOTAL FREE ENERGY PREDICTED BY IDOCK:   -4.99 KCAL/MOL
REMARK 923 INTER-LIGAND FREE ENERGY PREDICTED BY IDOCK:   -5.02 KCAL/MOL
REMARK 924 INTRA-LIGAND FREE ENERGY PREDICTED BY IDOCK:    0.03 KCAL/MOL
REMARK 927      BINDING AFFINITY PREDICTED BY RF-SCORE:    0.00 PKD
ROOT
HETATM    1  N   UNL     1      -5.863   7.886  69.668  1.00  0.00    -0.023 NA 
HETATM    2  C   UNL     1      -6.358   9.177  69.519  1.00  0.00    -0.043 A  
HETATM    3  H1  UNL     1      -6.363   7.174  69.136  1.00  0.00     0.000 HD 
HETATM    4  H2  UNL     1      -5.827   7.632  70.655  1.00  0.00     0.000 HD 
HETATM    5  N   UNL     1      -5.695  10.121  70.224  1.00  0.00    -0.052 NA 
HETATM    6  C   UNL     1      -6.037  11.411  70.067  1.00  0.00    -0.145 A  
HETATM    7  N   UNL     1      -6.969  11.910  69.248  1.00  0.00    -0.083 NA 
HETATM    8  C   UNL     1      -7.625  10.939  68.592  1.00  0.00    -0.114 A  
HETATM    9  C   UNL     1      -7.415   9.567  68.679  1.00  0.00    -0.079 A  
HETATM   10  C   UNL     1      -8.404   8.991  67.803  1.00  0.00    -0.117 A  
HETATM   11  N   UNL     1      -9.100   9.970  67.179  1.00  0.00    -0.138 NA 
HETATM   12  N   UNL     1      -8.612  11.124  67.669  1.00  0.00    -0.125 NA 
ENDROOT
BRANCH  10  13
HETATM   13  C   UNL     1      -8.731   7.583  67.475  1.00  0.00    -0.125 A  
HETATM   14  C   UNL     1     -10.031   7.121  67.233  1.00  0.00    -0.243 A  
HETATM   15  C   UNL     1     -10.271   5.761  66.961  1.00  0.00    -0.258 A  
HETATM   16  C   UNL     1      -7.685   6.644  67.373  1.00  0.00    -0.109 A  
HETATM   17  C   UNL     1      -9.217   4.841  66.880  1.00  0.00    -0.126 A  
HETATM   18  C   UNL     1      -7.918   5.291  67.080  1.00  0.00    -0.101 A  
BRANCH  17  19
HETATM   19  O   UNL     1      -9.578   3.525  66.704  1.00  0.00    -0.187 OA 
BRANCH  19  20
HETATM   20  C   UNL     1      -9.471   2.912  65.474  1.00  0.00    -0.018 A  
HETATM   21  C   UNL     1     -10.447   3.239  64.526  1.00  0.00     0.066 A  
HETATM   22  C   UNL     1      -9.231   2.020  62.831  1.00  0.00    -0.090 A  
HETATM   23  C   UNL     1      -8.374   2.137  65.096  1.00  0.00    -0.085 A  
HETATM   24  C   UNL     1     -10.330   2.790  63.208  1.00  0.00    -0.180 A  
HETATM   25  C   UNL     1      -8.259   1.689  63.774  1.00  0.00    -0.065 A  
ENDBRANCH  19  20
ENDBRANCH  17  19
ENDBRANCH  10  13
BRANCH  12  26
HETATM   26  C   UNL     1      -9.091  12.407  67.156  1.00  0.00    -0.199 C  
HETATM   27  C   UNL     1     -12.034  14.119  65.707  1.00  0.00    -0.402 C  
HETATM   28  C   UNL     1      -8.523  13.598  67.951  1.00  0.00    -0.177 C  
HETATM   29  C   UNL     1     -10.661  14.848  67.580  1.00  0.00    -0.276 C  
HETATM   30  C   UNL     1      -9.143  14.920  67.497  1.00  0.00    -0.186 C  
HETATM   31  O   UNL     1     -12.376  15.287  65.510  1.00  0.00     0.259 OA 
HETATM   32  N   UNL     1     -11.148  13.773  66.717  1.00  0.00    -0.304 N  
HETATM   33  C   UNL     1     -10.634  12.436  67.078  1.00  0.00    -0.225 C  
BRANCH  27  34
HETATM   34  C   UNL     1     -12.585  13.051  64.830  1.00  0.00    -0.460 C  
HETATM   35  C   UNL     1     -12.057  12.859  63.612  1.00  0.00    -0.611 C  
ENDBRANCH  27  34
ENDBRANCH  12  26
TORSDOF 5
ENDMDL
MODEL      161
REMARK 921   NORMALIZED FREE ENERGY PREDICTED BY IDOCK:   -3.29 KCAL/MOL
REMARK 922        TOTAL FREE ENERGY PREDICTED BY IDOCK:   -4.72 KCAL/MOL
REMARK 923 INTER-LIGAND FREE ENERGY PREDICTED BY IDOCK:   -5.05 KCAL/MOL
REMARK 924 INTRA-LIGAND FREE ENERGY PREDICTED BY IDOCK:    0.33 KCAL/MOL
REMARK 927      BINDING AFFINITY PREDICTED BY RF-SCORE:    0.00 PKD
ROOT
HETATM    1  N   UNL     1      -5.562  10.680  71.461  1.00  0.00    -0.317 NA 
HETATM    2  C   UNL     1      -5.696  12.051  71.273  1.00  0.00     0.278 A  
HETATM    3  H1  UNL     1      -5.960  10.107  70.718  1.00  0.00     0.000 HD 
HETATM    4  H2  UNL     1      -5.948  10.407  72.366  1.00  0.00     0.000 HD 
HETATM    5  N   UNL     1      -5.168  12.811  72.258  1.00  0.00    -0.378 NA 
HETATM    6  C   UNL     1      -5.161  14.147  72.116  1.00  0.00    -0.190 A  
HETATM    7  N   UNL     1      -5.601  14.856  71.071  1.00  0.00    -0.121 NA 
HETATM    8  C   UNL     1      -6.146  14.066  70.131  1.00  0.00    -0.154 A  
HETATM    9  C   UNL     1      -6.264  12.681  70.152  1.00  0.00    -0.026 A  
HETATM   10  C   UNL     1      -6.950  12.355  68.927  1.00  0.00    -0.091 A  
HETATM   11  N   UNL     1      -7.152  13.475  68.195  1.00  0.00    -0.101 NA 
HETATM   12  N   UNL     1      -6.661  14.483  68.938  1.00  0.00    -0.090 NA 
ENDROOT
BRANCH  10  13
HETATM   13  C   UNL     1      -7.407  11.062  68.367  1.00  0.00    -0.096 A  
HETATM   14  C   UNL     1      -8.747  10.651  68.346  1.00  0.00    -0.141 A  
HETATM   15  C   UNL     1      -9.104   9.392  67.828  1.00  0.00    -0.134 A  
HETATM   16  C   UNL     1      -6.458  10.190  67.795  1.00  0.00    -0.062 A  
HETATM   17  C   UNL     1      -8.142   8.534  67.280  1.00  0.00    -0.105 A  
HETATM   18  C   UNL     1      -6.814   8.943  67.258  1.00  0.00    -0.077 A  
BRANCH  17  19
HETATM   19  O   UNL     1      -8.592   7.293  66.892  1.00  0.00    -0.119 OA 
BRANCH  19  20
HETATM   20  C   UNL     1      -8.745   6.271  67.803  1.00  0.00    -0.113 A  
HETATM   21  C   UNL     1      -8.326   6.531  69.112  1.00  0.00    -0.119 A  
HETATM   22  C   UNL     1      -9.276   4.436  69.851  1.00  0.00    -0.202 A  
HETATM   23  C   UNL     1      -9.431   5.088  67.521  1.00  0.00    -0.152 A  
HETATM   24  C   UNL     1      -8.587   5.614  70.133  1.00  0.00    -0.127 A  
HETATM   25  C   UNL     1      -9.691   4.171  68.547  1.00  0.00    -0.148 A  
ENDBRANCH  19  20
ENDBRANCH  17  19
ENDBRANCH  10  13
BRANCH  12  26
HETATM   26  C   UNL     1      -6.646  15.848  68.416  1.00  0.00    -0.116 C  
HETATM   27  C   UNL     1      -8.808  18.571  67.147  1.00  0.00    -0.270 C  
HETATM   28  C   UNL     1      -5.590  16.725  69.115  1.00  0.00    -0.144 C  
HETATM   29  C   UNL     1      -7.097  18.711  68.872  1.00  0.00    -0.293 C  
HETATM   30  C   UNL     1      -5.684  18.183  68.663  1.00  0.00    -0.185 C  
HETATM   31  O   UNL     1      -8.684  19.779  66.934  1.00  0.00    -0.303 OA 
HETATM   32  N   UNL     1      -8.040  17.909  68.094  1.00  0.00    -0.259 N  
HETATM   33  C   UNL     1      -8.057  16.480  68.463  1.00  0.00    -0.218 C  
BRANCH  27  34
HETATM   34  C   UNL     1      -9.808  17.801  66.360  1.00  0.00    -0.328 C  
HETATM   35  C   UNL     1     -10.699  17.028  67.000  1.00  0.00    -0.149 C  
ENDBRANCH  27  34
ENDBRANCH  12  26
TORSDOF 5
ENDMDL
MODEL      162
REMARK 921   NORMALIZED FREE ENERGY PREDICTED BY IDOCK:   -3.18 KCAL/MOL
REMARK 922        TOTAL FREE ENERGY PREDICTED BY IDOCK:   -4.58 KCAL/MOL
REMARK 923 INTER-LIGAND FREE ENERGY PREDICTED BY IDOCK:   -4.09 KCAL/MOL
REMARK 924 INTRA-LIGAND FREE ENERGY PREDICTED BY IDOCK:   -0.49 KCAL/MOL
REMARK 927      BINDING AFFINITY PREDICTED BY RF-SCORE:    0.00 PKD
ROOT
HETATM    1  N   UNL     1     -11.503   9.193  70.942  1.00  0.00    -0.282 NA 
HETATM    2  C   UNL     1     -11.683  10.495  70.486  1.00  0.00    -0.350 A  
HETATM    3  H1  UNL     1     -10.633   8.754  70.642  1.00  0.00     0.000 HD 
HETATM    4  H2  UNL     1     -12.301   8.613  70.682  1.00  0.00     0.000 HD 
HETATM    5  N   UNL     1     -12.836  11.078  70.884  1.00  0.00    -0.327 NA 
HETATM    6  C   UNL     1     -13.053  12.367  70.576  1.00  0.00     0.495 A  
HETATM    7  N   UNL     1     -12.231  13.197  69.926  1.00  0.00    -0.266 NA 
HETATM    8  C   UNL     1     -11.113  12.572  69.522  1.00  0.00    -0.006 A  
HETATM    9  C   UNL     1     -10.767  11.240  69.725  1.00  0.00     0.007 A  
HETATM   10  C   UNL     1      -9.496  11.089  69.061  1.00  0.00    -0.108 A  
HETATM   11  N   UNL     1      -9.085  12.279  68.566  1.00  0.00    -0.129 NA 
HETATM   12  N   UNL     1     -10.071  13.148  68.857  1.00  0.00    -0.046 NA 
ENDROOT
BRANCH  10  13
HETATM   13  C   UNL     1      -8.612   9.914  68.880  1.00  0.00    -0.135 A  
HETATM   14  C   UNL     1      -8.785   8.956  67.872  1.00  0.00    -0.129 A  
HETATM   15  C   UNL     1      -7.925   7.846  67.782  1.00  0.00    -0.124 A  
HETATM   16  C   UNL     1      -7.512   9.744  69.746  1.00  0.00    -0.127 A  
HETATM   17  C   UNL     1      -6.849   7.688  68.664  1.00  0.00    -0.066 A  
HETATM   18  C   UNL     1      -6.640   8.650  69.645  1.00  0.00    -0.039 A  
BRANCH  17  19
HETATM   19  O   UNL     1      -6.134   6.518  68.541  1.00  0.00    -0.023 OA 
BRANCH  19  20
HETATM   20  C   UNL     1      -6.340   5.461  69.400  1.00  0.00    -0.034 A  
HETATM   21  C   UNL     1      -5.382   5.274  70.403  1.00  0.00    -0.004 A  
HETATM   22  C   UNL     1      -6.759   3.573  71.426  1.00  0.00    -0.030 A  
HETATM   23  C   UNL     1      -7.510   4.699  69.414  1.00  0.00    -0.052 A  
HETATM   24  C   UNL     1      -5.588   4.329  71.411  1.00  0.00    -0.008 A  
HETATM   25  C   UNL     1      -7.714   3.753  70.426  1.00  0.00    -0.047 A  
ENDBRANCH  19  20
ENDBRANCH  17  19
ENDBRANCH  10  13
BRANCH  12  26
HETATM   26  C   UNL     1      -9.929  14.565  68.528  1.00  0.00    -0.238 C  
HETATM   27  C   UNL     1      -7.889  16.984  66.608  1.00  0.00    -0.264 C  
HETATM   28  C   UNL     1     -11.293  15.263  68.365  1.00  0.00    -0.338 C  
HETATM   29  C   UNL     1     -10.310  16.742  66.599  1.00  0.00    -0.297 C  
HETATM   30  C   UNL     1     -11.130  16.704  67.880  1.00  0.00    -0.212 C  
HETATM   31  O   UNL     1      -8.010  18.154  66.239  1.00  0.00    -0.311 OA 
HETATM   32  N   UNL     1      -8.988  16.171  66.846  1.00  0.00    -0.209 N  
HETATM   33  C   UNL     1      -9.017  14.764  67.295  1.00  0.00    -0.198 C  
BRANCH  27  34
HETATM   34  C   UNL     1      -6.522  16.431  66.809  1.00  0.00    -0.051 C  
HETATM   35  C   UNL     1      -5.760  16.902  67.806  1.00  0.00    -0.144 C  
ENDBRANCH  27  34
ENDBRANCH  12  26
TORSDOF 5
ENDMDL
MODEL      163
REMARK 921   NORMALIZED FREE ENERGY PREDICTED BY IDOCK:   -3.13 KCAL/MOL
REMARK 922        TOTAL FREE ENERGY PREDICTED BY IDOCK:   -4.52 KCAL/MOL
REMARK 923 INTER-LIGAND FREE ENERGY PREDICTED BY IDOCK:   -4.74 KCAL/MOL
REMARK 924 INTRA-LIGAND FREE ENERGY PREDICTED BY IDOCK:    0.23 KCAL/MOL
REMARK 927      BINDING AFFINITY PREDICTED BY RF-SCORE:    0.00 PKD
ROOT
HETATM    1  N   UNL     1      -5.508  10.678  71.443  1.00  0.00    -0.281 NA 
HETATM    2  C   UNL     1      -5.653  12.055  71.309  1.00  0.00     0.128 A  
HETATM    3  H1  UNL     1      -5.874  10.134  70.662  1.00  0.00     0.000 HD 
HETATM    4  H2  UNL     1      -5.922  10.362  72.321  1.00  0.00     0.000 HD 
HETATM    5  N   UNL     1      -5.168  12.777  72.344  1.00  0.00    -0.375 NA 
HETATM    6  C   UNL     1      -5.173  14.118  72.260  1.00  0.00    -0.213 A  
HETATM    7  N   UNL     1      -5.585  14.866  71.231  1.00  0.00    -0.072 NA 
HETATM    8  C   UNL     1      -6.088  14.113  70.240  1.00  0.00    -0.164 A  
HETATM    9  C   UNL     1      -6.190  12.727  70.197  1.00  0.00    -0.026 A  
HETATM   10  C   UNL     1      -6.829  12.447  68.936  1.00  0.00    -0.099 A  
HETATM   11  N   UNL     1      -7.020  13.595  68.246  1.00  0.00    -0.095 NA 
HETATM   12  N   UNL     1      -6.566  14.575  69.049  1.00  0.00    -0.094 NA 
ENDROOT
BRANCH  10  13
HETATM   13  C   UNL     1      -7.251  11.174  68.305  1.00  0.00    -0.083 A  
HETATM   14  C   UNL     1      -8.586  10.768  68.188  1.00  0.00    -0.129 A  
HETATM   15  C   UNL     1      -8.911   9.528  67.606  1.00  0.00    -0.124 A  
HETATM   16  C   UNL     1      -6.269  10.320  67.764  1.00  0.00    -0.056 A  
HETATM   17  C   UNL     1      -7.917   8.687  67.090  1.00  0.00    -0.100 A  
HETATM   18  C   UNL     1      -6.590   9.093  67.164  1.00  0.00    -0.061 A  
BRANCH  17  19
HETATM   19  O   UNL     1      -8.342   7.460  66.633  1.00  0.00    -0.117 OA 
BRANCH  19  20
HETATM   20  C   UNL     1      -8.430   7.190  65.285  1.00  0.00    -0.051 A  
HETATM   21  C   UNL     1      -8.163   8.253  64.415  1.00  0.00    -0.130 A  
HETATM   22  C   UNL     1      -8.242   6.750  62.526  1.00  0.00    -0.022 A  
HETATM   23  C   UNL     1      -8.603   5.904  64.769  1.00  0.00    -0.001 A  
HETATM   24  C   UNL     1      -8.074   8.035  63.038  1.00  0.00    -0.120 A  
HETATM   25  C   UNL     1      -8.513   5.689  63.388  1.00  0.00     0.016 A  
ENDBRANCH  19  20
ENDBRANCH  17  19
ENDBRANCH  10  13
BRANCH  12  26
HETATM   26  C   UNL     1      -6.550  15.962  68.587  1.00  0.00    -0.118 C  
HETATM   27  C   UNL     1      -8.715  18.760  67.499  1.00  0.00    -0.274 C  
HETATM   28  C   UNL     1      -5.466  16.797  69.295  1.00  0.00    -0.142 C  
HETATM   29  C   UNL     1      -6.956  18.807  69.180  1.00  0.00    -0.265 C  
HETATM   30  C   UNL     1      -5.556  18.274  68.909  1.00  0.00    -0.199 C  
HETATM   31  O   UNL     1      -8.583  19.975  67.335  1.00  0.00    -0.319 OA 
HETATM   32  N   UNL     1      -7.929  18.049  68.394  1.00  0.00    -0.292 N  
HETATM   33  C   UNL     1      -7.952  16.605  68.701  1.00  0.00    -0.236 C  
BRANCH  27  34
HETATM   34  C   UNL     1      -9.745  18.035  66.707  1.00  0.00    -0.323 C  
HETATM   35  C   UNL     1     -10.638  17.259  67.338  1.00  0.00    -0.303 C  
ENDBRANCH  27  34
ENDBRANCH  12  26
TORSDOF 5
ENDMDL
MODEL      164
REMARK 921   NORMALIZED FREE ENERGY PREDICTED BY IDOCK:   -3.06 KCAL/MOL
REMARK 922        TOTAL FREE ENERGY PREDICTED BY IDOCK:   -4.43 KCAL/MOL
REMARK 923 INTER-LIGAND FREE ENERGY PREDICTED BY IDOCK:   -4.24 KCAL/MOL
REMARK 924 INTRA-LIGAND FREE ENERGY PREDICTED BY IDOCK:   -0.19 KCAL/MOL
REMARK 927      BINDING AFFINITY PREDICTED BY RF-SCORE:    0.00 PKD
ROOT
HETATM    1  N   UNL     1      -5.445  14.084  72.327  1.00  0.00    -0.295 NA 
HETATM    2  C   UNL     1      -5.575  12.780  71.862  1.00  0.00     0.425 A  
HETATM    3  H1  UNL     1      -5.770  14.802  71.679  1.00  0.00     0.000 HD 
HETATM    4  H2  UNL     1      -4.479  14.267  72.602  1.00  0.00     0.000 HD 
HETATM    5  N   UNL     1      -5.144  11.829  72.719  1.00  0.00    -0.278 NA 
HETATM    6  C   UNL     1      -5.321  10.536  72.399  1.00  0.00     0.321 A  
HETATM    7  N   UNL     1      -5.920  10.043  71.310  1.00  0.00    -0.265 NA 
HETATM    8  C   UNL     1      -6.304  11.018  70.471  1.00  0.00     0.022 A  
HETATM    9  C   UNL     1      -6.154  12.390  70.641  1.00  0.00     0.187 A  
HETATM   10  C   UNL     1      -6.701  12.968  69.440  1.00  0.00    -0.018 A  
HETATM   11  N   UNL     1      -7.212  11.998  68.647  1.00  0.00    -0.105 NA 
HETATM   12  N   UNL     1      -6.962  10.843  69.289  1.00  0.00    -0.099 NA 
ENDROOT
BRANCH  10  13
HETATM   13  C   UNL     1      -6.813  14.374  68.984  1.00  0.00    -0.111 A  
HETATM   14  C   UNL     1      -6.606  15.482  69.817  1.00  0.00    -0.166 A  
HETATM   15  C   UNL     1      -6.763  16.791  69.322  1.00  0.00    -0.229 A  
HETATM   16  C   UNL     1      -7.120  14.633  67.633  1.00  0.00    -0.203 A  
HETATM   17  C   UNL     1      -7.085  17.025  67.980  1.00  0.00    -0.163 A  
HETATM   18  C   UNL     1      -7.256  15.937  67.132  1.00  0.00    -0.254 A  
BRANCH  17  19
HETATM   19  O   UNL     1      -7.307  18.338  67.633  1.00  0.00    -0.208 OA 
BRANCH  19  20
HETATM   20  C   UNL     1      -6.905  18.833  66.411  1.00  0.00    -0.213 A  
HETATM   21  C   UNL     1      -7.251  20.159  66.128  1.00  0.00    -0.313 A  
HETATM   22  C   UNL     1      -5.899  20.103  64.127  1.00  0.00    -0.310 A  
HETATM   23  C   UNL     1      -6.053  18.143  65.546  1.00  0.00    -0.243 A  
HETATM   24  C   UNL     1      -6.753  20.791  64.987  1.00  0.00    -0.164 A  
HETATM   25  C   UNL     1      -5.555  18.781  64.403  1.00  0.00    -0.247 A  
ENDBRANCH  19  20
ENDBRANCH  17  19
ENDBRANCH  10  13
BRANCH  12  26
HETATM   26  C   UNL     1      -7.448   9.575  68.747  1.00  0.00    -0.075 C  
HETATM   27  C   UNL     1      -9.372   6.525  69.581  1.00  0.00    -0.142 C  
HETATM   28  C   UNL     1      -7.881   9.702  67.274  1.00  0.00    -0.095 C  
HETATM   29  C   UNL     1      -9.675   7.999  67.668  1.00  0.00    -0.158 C  
HETATM   30  C   UNL     1      -8.520   8.409  66.764  1.00  0.00    -0.114 C  
HETATM   31  O   UNL     1      -9.901   5.607  68.951  1.00  0.00    -0.129 OA 
HETATM   32  N   UNL     1      -9.181   7.783  69.027  1.00  0.00    -0.144 N  
HETATM   33  C   UNL     1      -8.563   8.978  69.636  1.00  0.00    -0.137 C  
BRANCH  27  34
HETATM   34  C   UNL     1      -8.920   6.273  70.976  1.00  0.00    -0.143 C  
HETATM   35  C   UNL     1      -9.823   6.245  71.967  1.00  0.00    -0.173 C  
ENDBRANCH  27  34
ENDBRANCH  12  26
TORSDOF 5
ENDMDL
MODEL      165
REMARK 921   NORMALIZED FREE ENERGY PREDICTED BY IDOCK:   -2.47 KCAL/MOL
REMARK 922        TOTAL FREE ENERGY PREDICTED BY IDOCK:   -3.66 KCAL/MOL
REMARK 923 INTER-LIGAND FREE ENERGY PREDICTED BY IDOCK:   -3.28 KCAL/MOL
REMARK 924 INTRA-LIGAND FREE ENERGY PREDICTED BY IDOCK:   -0.37 KCAL/MOL
REMARK 927      BINDING AFFINITY PREDICTED BY RF-SCORE:    0.00 PKD
ROOT
HETATM    1  N   UNL     1     -11.497   7.752  66.553  1.00  0.00     1.105 NA 
HETATM    2  C   UNL     1     -10.738   6.840  67.279  1.00  0.00    -0.353 A  
HETATM    3  H1  UNL     1     -11.347   8.728  66.808  1.00  0.00     0.000 HD 
HETATM    4  H2  UNL     1     -12.488   7.516  66.615  1.00  0.00     0.000 HD 
HETATM    5  N   UNL     1     -10.935   5.546  66.942  1.00  0.00    -0.124 NA 
HETATM    6  C   UNL     1     -10.175   4.600  67.519  1.00  0.00    -0.009 A  
HETATM    7  N   UNL     1      -9.185   4.779  68.400  1.00  0.00    -0.118 NA 
HETATM    8  C   UNL     1      -9.043   6.073  68.731  1.00  0.00    -0.124 A  
HETATM    9  C   UNL     1      -9.777   7.154  68.255  1.00  0.00    -0.148 A  
HETATM   10  C   UNL     1      -9.242   8.293  68.958  1.00  0.00    -0.147 A  
HETATM   11  N   UNL     1      -8.206   7.914  69.740  1.00  0.00    -0.120 NA 
HETATM   12  N   UNL     1      -8.109   6.581  69.584  1.00  0.00    -0.123 NA 
ENDROOT
BRANCH  10  13
HETATM   13  C   UNL     1      -9.608   9.729  68.930  1.00  0.00    -0.167 A  
HETATM   14  C   UNL     1     -10.775  10.247  69.507  1.00  0.00    -0.280 A  
HETATM   15  C   UNL     1     -11.075  11.620  69.412  1.00  0.00    -0.268 A  
HETATM   16  C   UNL     1      -8.733  10.647  68.314  1.00  0.00    -0.135 A  
HETATM   17  C   UNL     1     -10.198  12.511  68.780  1.00  0.00    -0.085 A  
HETATM   18  C   UNL     1      -9.018  12.019  68.236  1.00  0.00    -0.186 A  
BRANCH  17  19
HETATM   19  O   UNL     1     -10.639  13.810  68.664  1.00  0.00    -0.246 OA 
BRANCH  19  20
HETATM   20  C   UNL     1      -9.778  14.830  68.324  1.00  0.00    -0.218 A  
HETATM   21  C   UNL     1      -9.317  15.635  69.371  1.00  0.00    -0.279 A  
HETATM   22  C   UNL     1      -7.779  16.737  67.870  1.00  0.00    -0.178 A  
HETATM   23  C   UNL     1      -9.236  14.983  67.047  1.00  0.00    -0.246 A  
HETATM   24  C   UNL     1      -8.323  16.589  69.145  1.00  0.00    -0.157 A  
HETATM   25  C   UNL     1      -8.239  15.941  66.823  1.00  0.00    -0.307 A  
ENDBRANCH  19  20
ENDBRANCH  17  19
ENDBRANCH  10  13
BRANCH  12  26
HETATM   26  C   UNL     1      -7.033   5.836  70.237  1.00  0.00    -0.058 C  
HETATM   27  C   UNL     1      -6.193   3.842  73.239  1.00  0.00    -0.016 C  
HETATM   28  C   UNL     1      -6.158   5.073  69.224  1.00  0.00    -0.021 C  
HETATM   29  C   UNL     1      -5.824   3.249  70.908  1.00  0.00    -0.014 C  
HETATM   30  C   UNL     1      -5.131   4.186  69.929  1.00  0.00     0.000 C  
HETATM   31  O   UNL     1      -5.288   3.074  73.572  1.00  0.00     0.000 OA 
HETATM   32  N   UNL     1      -6.544   4.033  71.911  1.00  0.00    -0.018 N  
HETATM   33  C   UNL     1      -7.587   4.913  71.347  1.00  0.00    -0.083 C  
BRANCH  27  34
HETATM   34  C   UNL     1      -6.926   4.590  74.296  1.00  0.00    -0.071 C  
HETATM   35  C   UNL     1      -8.217   4.310  74.529  1.00  0.00    -0.090 C  
ENDBRANCH  27  34
ENDBRANCH  12  26
TORSDOF 5
ENDMDL
MODEL      166
REMARK 921   NORMALIZED FREE ENERGY PREDICTED BY IDOCK:   -2.22 KCAL/MOL
REMARK 922        TOTAL FREE ENERGY PREDICTED BY IDOCK:   -3.34 KCAL/MOL
REMARK 923 INTER-LIGAND FREE ENERGY PREDICTED BY IDOCK:   -3.56 KCAL/MOL
REMARK 924 INTRA-LIGAND FREE ENERGY PREDICTED BY IDOCK:    0.22 KCAL/MOL
REMARK 927      BINDING AFFINITY PREDICTED BY RF-SCORE:    0.00 PKD
ROOT
HETATM    1  N   UNL     1     -12.256  11.488  66.524  1.00  0.00     0.375 NA 
HETATM    2  C   UNL     1     -11.619  12.680  66.848  1.00  0.00    -0.373 A  
HETATM    3  H1  UNL     1     -11.645  10.771  66.133  1.00  0.00     0.000 HD 
HETATM    4  H2  UNL     1     -13.041  11.666  65.897  1.00  0.00     0.000 HD 
HETATM    5  N   UNL     1     -12.428  13.630  67.367  1.00  0.00    -0.083 NA 
HETATM    6  C   UNL     1     -11.886  14.779  67.804  1.00  0.00    -0.294 A  
HETATM    7  N   UNL     1     -10.591  15.112  67.821  1.00  0.00    -0.259 NA 
HETATM    8  C   UNL     1      -9.826  14.156  67.269  1.00  0.00    -0.238 A  
HETATM    9  C   UNL     1     -10.242  12.939  66.739  1.00  0.00    -0.243 A  
HETATM   10  C   UNL     1      -9.033  12.322  66.253  1.00  0.00    -0.067 A  
HETATM   11  N   UNL     1      -7.963  13.095  66.551  1.00  0.00     0.507 NA 
HETATM   12  N   UNL     1      -8.466  14.184  67.159  1.00  0.00    -0.210 NA 
ENDROOT
BRANCH  10  13
HETATM   13  C   UNL     1      -8.795  11.038  65.553  1.00  0.00    -0.179 A  
HETATM   14  C   UNL     1      -9.139  10.803  64.216  1.00  0.00    -0.216 A  
HETATM   15  C   UNL     1      -8.913   9.545  63.626  1.00  0.00    -0.207 A  
HETATM   16  C   UNL     1      -8.164   9.986  66.249  1.00  0.00    -0.124 A  
HETATM   17  C   UNL     1      -8.300   8.509  64.342  1.00  0.00    -0.116 A  
HETATM   18  C   UNL     1      -7.917   8.737  65.658  1.00  0.00    -0.103 A  
BRANCH  17  19
HETATM   19  O   UNL     1      -8.217   7.296  63.695  1.00  0.00    -0.050 OA 
BRANCH  19  20
HETATM   20  C   UNL     1      -8.480   6.115  64.354  1.00  0.00     0.083 A  
HETATM   21  C   UNL     1      -8.074   6.040  65.691  1.00  0.00    -0.126 A  
HETATM   22  C   UNL     1      -9.217   3.926  65.937  1.00  0.00    -0.155 A  
HETATM   23  C   UNL     1      -9.257   5.090  63.810  1.00  0.00     0.187 A  
HETATM   24  C   UNL     1      -8.438   4.946  66.480  1.00  0.00    -0.110 A  
HETATM   25  C   UNL     1      -9.620   3.995  64.604  1.00  0.00    -0.175 A  
ENDBRANCH  19  20
ENDBRANCH  17  19
ENDBRANCH  10  13
BRANCH  12  26
HETATM   26  C   UNL     1      -7.574  15.214  67.689  1.00  0.00    -0.174 C  
HETATM   27  C   UNL     1      -6.422  18.695  67.191  1.00  0.00    -0.187 C  
HETATM   28  C   UNL     1      -7.508  15.187  69.229  1.00  0.00    -0.193 C  
HETATM   29  C   UNL     1      -7.235  17.677  69.247  1.00  0.00    -0.079 C  
HETATM   30  C   UNL     1      -6.688  16.358  69.774  1.00  0.00    -0.051 C  
HETATM   31  O   UNL     1      -5.807  19.533  67.856  1.00  0.00    -0.204 OA 
HETATM   32  N   UNL     1      -7.166  17.687  67.786  1.00  0.00    -0.187 N  
HETATM   33  C   UNL     1      -7.947  16.611  67.143  1.00  0.00    -0.182 C  
BRANCH  27  34
HETATM   34  C   UNL     1      -6.357  18.767  65.707  1.00  0.00    -0.276 C  
HETATM   35  C   UNL     1      -5.657  17.844  65.031  1.00  0.00     0.146 C  
ENDBRANCH  27  34
ENDBRANCH  12  26
TORSDOF 5
ENDMDL
MODEL      167
REMARK 921   NORMALIZED FREE ENERGY PREDICTED BY IDOCK:   -1.28 KCAL/MOL
REMARK 922        TOTAL FREE ENERGY PREDICTED BY IDOCK:   -2.13 KCAL/MOL
REMARK 923 INTER-LIGAND FREE ENERGY PREDICTED BY IDOCK:   -1.22 KCAL/MOL
REMARK 924 INTRA-LIGAND FREE ENERGY PREDICTED BY IDOCK:   -0.90 KCAL/MOL
REMARK 927      BINDING AFFINITY PREDICTED BY RF-SCORE:    0.00 PKD
ROOT
HETATM    1  N   UNL     1     -12.653   9.264  70.620  1.00  0.00    -0.496 NA 
HETATM    2  C   UNL     1     -12.232  10.420  69.973  1.00  0.00    -0.189 A  
HETATM    3  H1  UNL     1     -11.904   8.619  70.870  1.00  0.00     0.000 HD 
HETATM    4  H2  UNL     1     -13.362   8.785  70.063  1.00  0.00     0.000 HD 
HETATM    5  N   UNL     1     -13.224  11.276  69.641  1.00  0.00     0.558 NA 
HETATM    6  C   UNL     1     -12.905  12.465  69.103  1.00  0.00     1.350 A  
HETATM    7  N   UNL     1     -11.681  12.949  68.868  1.00  0.00    -0.309 NA 
HETATM    8  C   UNL     1     -10.727  12.057  69.181  1.00  0.00    -0.075 A  
HETATM    9  C   UNL     1     -10.900  10.780  69.703  1.00  0.00    -0.294 A  
HETATM   10  C   UNL     1      -9.564  10.248  69.814  1.00  0.00    -0.108 A  
HETATM   11  N   UNL     1      -8.659  11.186  69.452  1.00  0.00     0.166 NA 
HETATM   12  N   UNL     1      -9.382  12.257  69.079  1.00  0.00     0.265 NA 
ENDROOT
BRANCH  10  13
HETATM   13  C   UNL     1      -9.063   8.929  70.267  1.00  0.00    -0.201 A  
HETATM   14  C   UNL     1      -8.577   7.941  69.401  1.00  0.00    -0.137 A  
HETATM   15  C   UNL     1      -8.147   6.697  69.900  1.00  0.00    -0.125 A  
HETATM   16  C   UNL     1      -9.042   8.642  71.647  1.00  0.00    -0.318 A  
HETATM   17  C   UNL     1      -8.151   6.427  71.274  1.00  0.00    -0.117 A  
HETATM   18  C   UNL     1      -8.595   7.411  72.150  1.00  0.00    -0.129 A  
BRANCH  17  19
HETATM   19  O   UNL     1      -7.801   5.146  71.638  1.00  0.00    -0.103 OA 
BRANCH  19  20
HETATM   20  C   UNL     1      -8.716   4.117  71.605  1.00  0.00    -0.111 A  
HETATM   21  C   UNL     1      -8.465   3.085  70.694  1.00  0.00    -0.095 A  
HETATM   22  C   UNL     1     -10.284   1.797  71.625  1.00  0.00    -0.074 A  
HETATM   23  C   UNL     1      -9.756   3.985  72.527  1.00  0.00    -0.206 A  
HETATM   24  C   UNL     1      -9.249   1.930  70.701  1.00  0.00    -0.175 A  
HETATM   25  C   UNL     1     -10.541   2.825  72.531  1.00  0.00    -0.079 A  
ENDBRANCH  19  20
ENDBRANCH  17  19
ENDBRANCH  10  13
BRANCH  12  26
HETATM   26  C   UNL     1      -8.716  13.500  68.691  1.00  0.00    -0.001 C  
HETATM   27  C   UNL     1      -5.820  15.681  69.432  1.00  0.00    -0.118 C  
HETATM   28  C   UNL     1      -8.779  13.741  67.170  1.00  0.00    -0.231 C  
HETATM   29  C   UNL     1      -6.526  14.831  67.263  1.00  0.00     0.262 C  
HETATM   30  C   UNL     1      -7.957  14.965  66.763  1.00  0.00     0.066 C  
HETATM   31  O   UNL     1      -5.244  16.616  68.872  1.00  0.00    -0.120 OA 
HETATM   32  N   UNL     1      -6.525  14.720  68.721  1.00  0.00    -0.084 N  
HETATM   33  C   UNL     1      -7.270  13.553  69.233  1.00  0.00     0.095 C  
BRANCH  27  34
HETATM   34  C   UNL     1      -5.759  15.584  70.915  1.00  0.00     0.068 C  
HETATM   35  C   UNL     1      -5.169  14.523  71.484  1.00  0.00    -0.156 C  
ENDBRANCH  27  34
ENDBRANCH  12  26
TORSDOF 5
ENDMDL
MODEL      168
REMARK 921   NORMALIZED FREE ENERGY PREDICTED BY IDOCK:   -1.15 KCAL/MOL
REMARK 922        TOTAL FREE ENERGY PREDICTED BY IDOCK:   -1.96 KCAL/MOL
REMARK 923 INTER-LIGAND FREE ENERGY PREDICTED BY IDOCK:   -2.55 KCAL/MOL
REMARK 924 INTRA-LIGAND FREE ENERGY PREDICTED BY IDOCK:    0.59 KCAL/MOL
REMARK 927      BINDING AFFINITY PREDICTED BY RF-SCORE:    0.00 PKD
ROOT
HETATM    1  N   UNL     1     -11.678   7.813  66.578  1.00  0.00     2.161 NA 
HETATM    2  C   UNL     1     -10.917   6.943  67.352  1.00  0.00    -0.304 A  
HETATM    3  H1  UNL     1     -11.550   8.800  66.798  1.00  0.00     0.000 HD 
HETATM    4  H2  UNL     1     -12.666   7.562  66.632  1.00  0.00     0.000 HD 
HETATM    5  N   UNL     1     -11.086   5.633  67.061  1.00  0.00    -0.021 NA 
HETATM    6  C   UNL     1     -10.321   4.724  67.686  1.00  0.00     0.035 A  
HETATM    7  N   UNL     1      -9.350   4.953  68.577  1.00  0.00    -0.124 NA 
HETATM    8  C   UNL     1      -9.236   6.261  68.861  1.00  0.00    -0.123 A  
HETATM    9  C   UNL     1      -9.979   7.310  68.331  1.00  0.00    -0.172 A  
HETATM   10  C   UNL     1      -9.477   8.485  68.999  1.00  0.00    -0.150 A  
HETATM   11  N   UNL     1      -8.448   8.153  69.814  1.00  0.00    -0.124 NA 
HETATM   12  N   UNL     1      -8.326   6.818  69.710  1.00  0.00    -0.131 NA 
ENDROOT
BRANCH  10  13
HETATM   13  C   UNL     1      -9.866   9.912  68.911  1.00  0.00    -0.179 A  
HETATM   14  C   UNL     1      -9.365  10.798  67.949  1.00  0.00    -0.154 A  
HETATM   15  C   UNL     1      -9.755  12.151  67.946  1.00  0.00    -0.200 A  
HETATM   16  C   UNL     1     -10.814  10.420  69.822  1.00  0.00    -0.342 A  
HETATM   17  C   UNL     1     -10.686  12.639  68.873  1.00  0.00    -0.164 A  
HETATM   18  C   UNL     1     -11.222  11.763  69.809  1.00  0.00    -0.166 A  
BRANCH  17  19
HETATM   19  O   UNL     1     -10.919  13.995  68.836  1.00  0.00    -0.247 OA 
BRANCH  19  20
HETATM   20  C   UNL     1     -11.605  14.630  69.848  1.00  0.00    -0.285 A  
HETATM   21  C   UNL     1     -12.367  13.816  70.694  1.00  0.00    -0.445 A  
HETATM   22  C   UNL     1     -12.800  15.700  72.143  1.00  0.00    -0.517 A  
HETATM   23  C   UNL     1     -11.443  15.982  70.154  1.00  0.00    -0.350 A  
HETATM   24  C   UNL     1     -12.967  14.351  71.837  1.00  0.00    -0.426 A  
HETATM   25  C   UNL     1     -12.046  16.515  71.300  1.00  0.00     0.341 A  
ENDBRANCH  19  20
ENDBRANCH  17  19
ENDBRANCH  10  13
BRANCH  12  26
HETATM   26  C   UNL     1      -7.250   6.117  70.410  1.00  0.00    -0.086 C  
HETATM   27  C   UNL     1      -6.525   3.859  73.251  1.00  0.00    -0.036 C  
HETATM   28  C   UNL     1      -6.175   5.589  69.440  1.00  0.00    -0.029 C  
HETATM   29  C   UNL     1      -5.816   3.612  70.936  1.00  0.00    -0.014 C  
HETATM   30  C   UNL     1      -5.135   4.736  70.168  1.00  0.00     0.000 C  
HETATM   31  O   UNL     1      -5.577   3.157  73.611  1.00  0.00     0.000 OA 
HETATM   32  N   UNL     1      -6.739   4.179  71.918  1.00  0.00    -0.025 N  
HETATM   33  C   UNL     1      -7.810   5.005  71.326  1.00  0.00    -0.101 C  
BRANCH  27  34
HETATM   34  C   UNL     1      -7.463   4.382  74.280  1.00  0.00    -0.077 C  
HETATM   35  C   UNL     1      -8.695   3.859  74.378  1.00  0.00    -0.094 C  
ENDBRANCH  27  34
ENDBRANCH  12  26
TORSDOF 5
ENDMDL
MODEL      169
REMARK 921   NORMALIZED FREE ENERGY PREDICTED BY IDOCK:   -1.10 KCAL/MOL
REMARK 922        TOTAL FREE ENERGY PREDICTED BY IDOCK:   -1.89 KCAL/MOL
REMARK 923 INTER-LIGAND FREE ENERGY PREDICTED BY IDOCK:   -1.14 KCAL/MOL
REMARK 924 INTRA-LIGAND FREE ENERGY PREDICTED BY IDOCK:   -0.75 KCAL/MOL
REMARK 927      BINDING AFFINITY PREDICTED BY RF-SCORE:    0.00 PKD
ROOT
HETATM    1  N   UNL     1      -6.311  15.374  72.805  1.00  0.00     1.969 NA 
HETATM    2  C   UNL     1      -5.870  14.056  72.812  1.00  0.00     0.246 A  
HETATM    3  H1  UNL     1      -6.590  15.725  71.889  1.00  0.00     0.000 HD 
HETATM    4  H2  UNL     1      -5.607  15.985  73.220  1.00  0.00     0.000 HD 
HETATM    5  N   UNL     1      -5.501  13.590  74.026  1.00  0.00    -0.484 NA 
HETATM    6  C   UNL     1      -5.155  12.297  74.149  1.00  0.00     0.280 A  
HETATM    7  N   UNL     1      -5.155  11.361  73.194  1.00  0.00    -0.234 NA 
HETATM    8  C   UNL     1      -5.497  11.871  72.000  1.00  0.00     0.581 A  
HETATM    9  C   UNL     1      -5.837  13.187  71.707  1.00  0.00     0.555 A  
HETATM   10  C   UNL     1      -6.076  13.194  70.285  1.00  0.00    -0.079 A  
HETATM   11  N   UNL     1      -5.958  11.941  69.788  1.00  0.00    -0.117 NA 
HETATM   12  N   UNL     1      -5.612  11.171  70.835  1.00  0.00    -0.265 NA 
ENDROOT
BRANCH  10  13
HETATM   13  C   UNL     1      -6.440  14.285  69.352  1.00  0.00    -0.125 A  
HETATM   14  C   UNL     1      -7.753  14.564  68.953  1.00  0.00    -0.132 A  
HETATM   15  C   UNL     1      -8.021  15.597  68.035  1.00  0.00    -0.137 A  
HETATM   16  C   UNL     1      -5.422  15.118  68.843  1.00  0.00    -0.095 A  
HETATM   17  C   UNL     1      -6.992  16.402  67.529  1.00  0.00    -0.148 A  
HETATM   18  C   UNL     1      -5.688  16.163  67.944  1.00  0.00    -0.145 A  
BRANCH  17  19
HETATM   19  O   UNL     1      -7.359  17.316  66.568  1.00  0.00    -0.219 OA 
BRANCH  19  20
HETATM   20  C   UNL     1      -8.379  18.216  66.788  1.00  0.00    -0.254 A  
HETATM   21  C   UNL     1      -9.651  17.842  66.341  1.00  0.00    -0.293 A  
HETATM   22  C   UNL     1     -10.620  19.765  67.435  1.00  0.00    -0.553 A  
HETATM   23  C   UNL     1      -8.231  19.369  67.560  1.00  0.00    -0.321 A  
HETATM   24  C   UNL     1     -10.769  18.616  66.660  1.00  0.00    -0.316 A  
HETATM   25  C   UNL     1      -9.354  20.144  67.878  1.00  0.00    -0.406 A  
ENDBRANCH  19  20
ENDBRANCH  17  19
ENDBRANCH  10  13
BRANCH  12  26
HETATM   26  C   UNL     1      -5.470   9.724  70.675  1.00  0.00    -0.052 C  
HETATM   27  C   UNL     1      -6.215   6.468  72.267  1.00  0.00    -0.045 C  
HETATM   28  C   UNL     1      -5.633   9.284  69.207  1.00  0.00    -0.035 C  
HETATM   29  C   UNL     1      -6.686   7.147  69.979  1.00  0.00    -0.051 C  
HETATM   30  C   UNL     1      -5.626   7.761  69.076  1.00  0.00    -0.026 C  
HETATM   31  O   UNL     1      -6.227   5.286  71.914  1.00  0.00    -0.031 OA 
HETATM   32  N   UNL     1      -6.413   7.506  71.369  1.00  0.00    -0.036 N  
HETATM   33  C   UNL     1      -6.421   8.961  71.625  1.00  0.00    -0.076 C  
BRANCH  27  34
HETATM   34  C   UNL     1      -5.973   6.786  73.700  1.00  0.00    -0.059 C  
HETATM   35  C   UNL     1      -5.342   5.894  74.477  1.00  0.00    -0.033 C  
ENDBRANCH  27  34
ENDBRANCH  12  26
TORSDOF 5
ENDMDL
MODEL      170
REMARK 921   NORMALIZED FREE ENERGY PREDICTED BY IDOCK:    0.66 KCAL/MOL
REMARK 922        TOTAL FREE ENERGY PREDICTED BY IDOCK:    0.38 KCAL/MOL
REMARK 923 INTER-LIGAND FREE ENERGY PREDICTED BY IDOCK:    1.27 KCAL/MOL
REMARK 924 INTRA-LIGAND FREE ENERGY PREDICTED BY IDOCK:   -0.89 KCAL/MOL
REMARK 927      BINDING AFFINITY PREDICTED BY RF-SCORE:    0.00 PKD
ROOT
HETATM    1  N   UNL     1     -11.444   7.803  65.990  1.00  0.00     3.071 NA 
HETATM    2  C   UNL     1     -10.597   8.905  65.982  1.00  0.00     0.858 A  
HETATM    3  H1  UNL     1     -11.218   7.096  66.689  1.00  0.00     0.000 HD 
HETATM    4  H2  UNL     1     -11.487   7.382  65.061  1.00  0.00     0.000 HD 
HETATM    5  N   UNL     1     -10.897   9.842  65.055  1.00  0.00     1.126 NA 
HETATM    6  C   UNL     1     -10.195  10.988  65.038  1.00  0.00    -0.299 A  
HETATM    7  N   UNL     1      -9.215  11.353  65.870  1.00  0.00    -0.216 NA 
HETATM    8  C   UNL     1      -8.926  10.383  66.753  1.00  0.00    -0.140 A  
HETATM    9  C   UNL     1      -9.531   9.136  66.869  1.00  0.00    -0.222 A  
HETATM   10  C   UNL     1      -8.821   8.486  67.942  1.00  0.00    -0.137 A  
HETATM   11  N   UNL     1      -7.908   9.330  68.475  1.00  0.00    -0.089 NA 
HETATM   12  N   UNL     1      -7.994  10.457  67.746  1.00  0.00    -0.102 NA 
ENDROOT
BRANCH  10  13
HETATM   13  C   UNL     1      -8.954   7.134  68.535  1.00  0.00    -0.127 A  
HETATM   14  C   UNL     1      -9.668   6.865  69.710  1.00  0.00    -0.166 A  
HETATM   15  C   UNL     1      -9.723   5.560  70.234  1.00  0.00    -0.242 A  
HETATM   16  C   UNL     1      -8.355   6.038  67.881  1.00  0.00    -0.116 A  
HETATM   17  C   UNL     1      -9.105   4.488  69.576  1.00  0.00    -0.110 A  
HETATM   18  C   UNL     1      -8.425   4.732  68.389  1.00  0.00    -0.096 A  
BRANCH  17  19
HETATM   19  O   UNL     1      -9.144   3.277  70.229  1.00  0.00    -0.098 OA 
BRANCH  19  20
HETATM   20  C   UNL     1      -9.285   3.206  71.598  1.00  0.00    -0.117 A  
HETATM   21  C   UNL     1     -10.505   2.716  72.076  1.00  0.00     0.129 A  
HETATM   22  C   UNL     1      -9.630   2.689  74.328  1.00  0.00    -0.117 A  
HETATM   23  C   UNL     1      -8.237   3.438  72.490  1.00  0.00    -0.079 A  
HETATM   24  C   UNL     1     -10.679   2.462  73.439  1.00  0.00    -0.267 A  
HETATM   25  C   UNL     1      -8.415   3.182  73.856  1.00  0.00    -0.074 A  
ENDBRANCH  19  20
ENDBRANCH  17  19
ENDBRANCH  10  13
BRANCH  12  26
HETATM   26  C   UNL     1      -7.189  11.627  68.094  1.00  0.00    -0.085 C  
HETATM   27  C   UNL     1      -7.338  15.284  68.641  1.00  0.00    -0.120 C  
HETATM   28  C   UNL     1      -6.115  11.299  69.149  1.00  0.00    -0.053 C  
HETATM   29  C   UNL     1      -6.372  13.599  70.107  1.00  0.00    -0.037 C  
HETATM   30  C   UNL     1      -5.379  12.558  69.609  1.00  0.00    -0.079 C  
HETATM   31  O   UNL     1      -6.609  16.138  69.151  1.00  0.00    -0.152 OA 
HETATM   32  N   UNL     1      -7.293  13.953  69.028  1.00  0.00    -0.092 N  
HETATM   33  C   UNL     1      -8.083  12.814  68.518  1.00  0.00    -0.080 C  
BRANCH  27  34
HETATM   34  C   UNL     1      -8.289  15.696  67.574  1.00  0.00    -0.186 C  
HETATM   35  C   UNL     1      -9.429  16.318  67.909  1.00  0.00    -0.218 C  
ENDBRANCH  27  34
ENDBRANCH  12  26
TORSDOF 5
ENDMDL
MODEL      171
REMARK 921   NORMALIZED FREE ENERGY PREDICTED BY IDOCK:    2.70 KCAL/MOL
REMARK 922        TOTAL FREE ENERGY PREDICTED BY IDOCK:    3.01 KCAL/MOL
REMARK 923 INTER-LIGAND FREE ENERGY PREDICTED BY IDOCK:    3.49 KCAL/MOL
REMARK 924 INTRA-LIGAND FREE ENERGY PREDICTED BY IDOCK:   -0.48 KCAL/MOL
REMARK 927      BINDING AFFINITY PREDICTED BY RF-SCORE:    0.00 PKD
ROOT
HETATM    1  N   UNL     1     -12.399  10.762  65.810  1.00  0.00     2.844 NA 
HETATM    2  C   UNL     1     -11.934  12.024  66.164  1.00  0.00    -0.023 A  
HETATM    3  H1  UNL     1     -11.687  10.135  65.435  1.00  0.00     0.000 HD 
HETATM    4  H2  UNL     1     -13.179  10.844  65.157  1.00  0.00     0.000 HD 
HETATM    5  N   UNL     1     -12.877  12.855  66.661  1.00  0.00     0.389 NA 
HETATM    6  C   UNL     1     -12.504  14.060  67.124  1.00  0.00    -0.040 A  
HETATM    7  N   UNL     1     -11.265  14.557  67.189  1.00  0.00    -0.321 NA 
HETATM    8  C   UNL     1     -10.364  13.715  66.657  1.00  0.00    -0.275 A  
HETATM    9  C   UNL     1     -10.599  12.461  66.105  1.00  0.00    -0.283 A  
HETATM   10  C   UNL     1      -9.305  12.012  65.658  1.00  0.00    -0.078 A  
HETATM   11  N   UNL     1      -8.356  12.914  65.998  1.00  0.00     0.859 NA 
HETATM   12  N   UNL     1      -9.017  13.921  66.595  1.00  0.00    -0.186 NA 
ENDROOT
BRANCH  10  13
HETATM   13  C   UNL     1      -8.877  10.777  64.958  1.00  0.00    -0.190 A  
HETATM   14  C   UNL     1      -9.078  10.547  63.591  1.00  0.00    -0.259 A  
HETATM   15  C   UNL     1      -8.675   9.334  63.000  1.00  0.00    -0.203 A  
HETATM   16  C   UNL     1      -8.207   9.774  65.688  1.00  0.00    -0.130 A  
HETATM   17  C   UNL     1      -8.025   8.344  63.749  1.00  0.00    -0.159 A  
HETATM   18  C   UNL     1      -7.785   8.573  65.098  1.00  0.00    -0.102 A  
BRANCH  17  19
HETATM   19  O   UNL     1      -7.764   7.164  63.090  1.00  0.00    -0.108 OA 
BRANCH  19  20
HETATM   20  C   UNL     1      -7.746   5.960  63.759  1.00  0.00    -0.099 A  
HETATM   21  C   UNL     1      -6.669   5.109  63.487  1.00  0.00    -0.037 A  
HETATM   22  C   UNL     1      -7.373   3.624  65.258  1.00  0.00    -0.072 A  
HETATM   23  C   UNL     1      -8.638   5.638  64.784  1.00  0.00    -0.061 A  
HETATM   24  C   UNL     1      -6.485   3.941  64.232  1.00  0.00    -0.041 A  
HETATM   25  C   UNL     1      -8.450   4.467  65.529  1.00  0.00    -0.121 A  
ENDBRANCH  19  20
ENDBRANCH  17  19
ENDBRANCH  10  13
BRANCH  12  26
HETATM   26  C   UNL     1      -8.285  15.052  67.164  1.00  0.00    -0.222 C  
HETATM   27  C   UNL     1      -5.906  16.019  69.828  1.00  0.00    -0.162 C  
HETATM   28  C   UNL     1      -7.797  16.032  66.079  1.00  0.00     0.615 C  
HETATM   29  C   UNL     1      -5.757  16.514  67.450  1.00  0.00    -0.159 C  
HETATM   30  C   UNL     1      -6.912  17.129  66.672  1.00  0.00    -0.285 C  
HETATM   31  O   UNL     1      -5.188  16.992  70.070  1.00  0.00    -0.161 OA 
HETATM   32  N   UNL     1      -6.283  15.687  68.535  1.00  0.00    -0.099 N  
HETATM   33  C   UNL     1      -7.135  14.571  68.078  1.00  0.00    -0.140 C  
BRANCH  27  34
HETATM   34  C   UNL     1      -6.385  15.181  70.960  1.00  0.00     0.410 C  
HETATM   35  C   UNL     1      -7.697  14.934  71.089  1.00  0.00     2.395 C  
ENDBRANCH  27  34
ENDBRANCH  12  26
TORSDOF 5
ENDMDL
MODEL      172
REMARK 921   NORMALIZED FREE ENERGY PREDICTED BY IDOCK:    3.76 KCAL/MOL
REMARK 922        TOTAL FREE ENERGY PREDICTED BY IDOCK:    4.38 KCAL/MOL
REMARK 923 INTER-LIGAND FREE ENERGY PREDICTED BY IDOCK:    4.77 KCAL/MOL
REMARK 924 INTRA-LIGAND FREE ENERGY PREDICTED BY IDOCK:   -0.39 KCAL/MOL
REMARK 927      BINDING AFFINITY PREDICTED BY RF-SCORE:    0.00 PKD
ROOT
HETATM    1  N   UNL     1      -8.194  14.457  71.745  1.00  0.00     3.989 NA 
HETATM    2  C   UNL     1      -8.993  14.782  70.654  1.00  0.00     2.022 A  
HETATM    3  H1  UNL     1      -7.630  13.616  71.624  1.00  0.00     0.000 HD 
HETATM    4  H2  UNL     1      -8.762  14.386  72.590  1.00  0.00     0.000 HD 
HETATM    5  N   UNL     1      -9.740  15.897  70.813  1.00  0.00     1.148 NA 
HETATM    6  C   UNL     1     -10.468  16.345  69.776  1.00  0.00    -0.246 A  
HETATM    7  N   UNL     1     -10.531  15.830  68.544  1.00  0.00    -0.230 NA 
HETATM    8  C   UNL     1      -9.800  14.708  68.438  1.00  0.00    -0.220 A  
HETATM    9  C   UNL     1      -9.033  14.100  69.425  1.00  0.00     0.508 A  
HETATM   10  C   UNL     1      -8.496  12.921  68.794  1.00  0.00     0.159 A  
HETATM   11  N   UNL     1      -8.862  12.881  67.492  1.00  0.00    -0.181 NA 
HETATM   12  N   UNL     1      -9.641  13.963  67.306  1.00  0.00    -0.236 NA 
ENDROOT
BRANCH  10  13
HETATM   13  C   UNL     1      -7.631  11.834  69.311  1.00  0.00     0.166 A  
HETATM   14  C   UNL     1      -6.346  12.040  69.830  1.00  0.00    -0.110 A  
HETATM   15  C   UNL     1      -5.567  10.953  70.271  1.00  0.00    -0.089 A  
HETATM   16  C   UNL     1      -8.120  10.512  69.311  1.00  0.00    -0.152 A  
HETATM   17  C   UNL     1      -6.068   9.645  70.247  1.00  0.00    -0.062 A  
HETATM   18  C   UNL     1      -7.355   9.429  69.770  1.00  0.00    -0.083 A  
BRANCH  17  19
HETATM   19  O   UNL     1      -5.185   8.655  70.613  1.00  0.00    -0.022 OA 
BRANCH  19  20
HETATM   20  C   UNL     1      -5.622   7.489  71.202  1.00  0.00    -0.034 A  
HETATM   21  C   UNL     1      -6.133   7.597  72.500  1.00  0.00    -0.040 A  
HETATM   22  C   UNL     1      -6.850   5.291  72.428  1.00  0.00    -0.078 A  
HETATM   23  C   UNL     1      -5.727   6.276  70.518  1.00  0.00    -0.018 A  
HETATM   24  C   UNL     1      -6.741   6.499  73.114  1.00  0.00    -0.073 A  
HETATM   25  C   UNL     1      -6.338   5.178  71.136  1.00  0.00    -0.030 A  
ENDBRANCH  19  20
ENDBRANCH  17  19
ENDBRANCH  10  13
BRANCH  12  26
HETATM   26  C   UNL     1     -10.161  14.280  65.977  1.00  0.00    -0.315 C  
HETATM   27  C   UNL     1     -12.516  13.146  63.358  1.00  0.00    -0.242 C  
HETATM   28  C   UNL     1     -10.322  15.797  65.764  1.00  0.00    -0.390 C  
HETATM   29  C   UNL     1     -12.330  15.370  64.329  1.00  0.00    -0.061 C  
HETATM   30  C   UNL     1     -11.001  16.106  64.429  1.00  0.00     0.038 C  
HETATM   31  O   UNL     1     -13.027  13.637  62.348  1.00  0.00     0.670 OA 
HETATM   32  N   UNL     1     -12.100  13.929  64.424  1.00  0.00    -0.437 N  
HETATM   33  C   UNL     1     -11.469  13.506  65.691  1.00  0.00    -0.315 C  
BRANCH  27  34
HETATM   34  C   UNL     1     -12.338  11.671  63.429  1.00  0.00    -0.334 C  
HETATM   35  C   UNL     1     -11.116  11.145  63.261  1.00  0.00     0.069 C  
ENDBRANCH  27  34
ENDBRANCH  12  26
TORSDOF 5
ENDMDL
MODEL      173
REMARK 921   NORMALIZED FREE ENERGY PREDICTED BY IDOCK:    4.51 KCAL/MOL
REMARK 922        TOTAL FREE ENERGY PREDICTED BY IDOCK:    5.35 KCAL/MOL
REMARK 923 INTER-LIGAND FREE ENERGY PREDICTED BY IDOCK:    5.82 KCAL/MOL
REMARK 924 INTRA-LIGAND FREE ENERGY PREDICTED BY IDOCK:   -0.47 KCAL/MOL
REMARK 927      BINDING AFFINITY PREDICTED BY RF-SCORE:    0.00 PKD
ROOT
HETATM    1  N   UNL     1      -5.946  11.755  74.062  1.00  0.00     1.398 NA 
HETATM    2  C   UNL     1      -6.014  12.950  73.354  1.00  0.00     1.942 A  
HETATM    3  H1  UNL     1      -6.096  10.918  73.500  1.00  0.00     0.000 HD 
HETATM    4  H2  UNL     1      -6.592  11.774  74.851  1.00  0.00     0.000 HD 
HETATM    5  N   UNL     1      -5.814  14.060  74.099  1.00  0.00    -0.498 NA 
HETATM    6  C   UNL     1      -5.763  15.254  73.486  1.00  0.00     1.076 A  
HETATM    7  N   UNL     1      -5.858  15.500  72.175  1.00  0.00     0.835 NA 
HETATM    8  C   UNL     1      -6.087  14.376  71.476  1.00  0.00     0.105 A  
HETATM    9  C   UNL     1      -6.208  13.081  71.968  1.00  0.00     2.106 A  
HETATM   10  C   UNL     1      -6.483  12.274  70.806  1.00  0.00     1.162 A  
HETATM   11  N   UNL     1      -6.448  13.038  69.690  1.00  0.00    -0.085 NA 
HETATM   12  N   UNL     1      -6.209  14.290  70.120  1.00  0.00    -0.156 NA 
ENDROOT
BRANCH  10  13
HETATM   13  C   UNL     1      -6.747  10.824  70.654  1.00  0.00     0.368 A  
HETATM   14  C   UNL     1      -5.831   9.824  71.005  1.00  0.00    -0.082 A  
HETATM   15  C   UNL     1      -6.138   8.465  70.799  1.00  0.00    -0.033 A  
HETATM   16  C   UNL     1      -7.996  10.405  70.150  1.00  0.00     0.244 A  
HETATM   17  C   UNL     1      -7.378   8.072  70.282  1.00  0.00    -0.060 A  
HETATM   18  C   UNL     1      -8.313   9.050  69.965  1.00  0.00    -0.144 A  
BRANCH  17  19
HETATM   19  O   UNL     1      -7.530   6.727  70.036  1.00  0.00    -0.089 OA 
BRANCH  19  20
HETATM   20  C   UNL     1      -8.503   5.988  70.673  1.00  0.00    -0.133 A  
HETATM   21  C   UNL     1      -8.369   5.840  72.058  1.00  0.00    -0.122 A  
HETATM   22  C   UNL     1     -10.547   4.801  72.175  1.00  0.00    -0.204 A  
HETATM   23  C   UNL     1      -9.663   5.539  70.041  1.00  0.00    -0.238 A  
HETATM   24  C   UNL     1      -9.386   5.244  72.807  1.00  0.00    -0.150 A  
HETATM   25  C   UNL     1     -10.682   4.942  70.795  1.00  0.00     0.057 A  
ENDBRANCH  19  20
ENDBRANCH  17  19
ENDBRANCH  10  13
BRANCH  12  26
HETATM   26  C   UNL     1      -6.033  15.380  69.162  1.00  0.00    -0.106 C  
HETATM   27  C   UNL     1      -7.704  17.244  66.436  1.00  0.00    -0.311 C  
HETATM   28  C   UNL     1      -5.229  16.552  69.758  1.00  0.00    -0.149 C  
HETATM   29  C   UNL     1      -6.585  18.157  68.395  1.00  0.00    -0.211 C  
HETATM   30  C   UNL     1      -5.177  17.741  68.797  1.00  0.00    -0.156 C  
HETATM   31  O   UNL     1      -7.516  18.307  65.840  1.00  0.00    -0.435 OA 
HETATM   32  N   UNL     1      -7.256  17.040  67.733  1.00  0.00    -0.150 N  
HETATM   33  C   UNL     1      -7.390  15.836  68.579  1.00  0.00    -0.124 C  
BRANCH  27  34
HETATM   34  C   UNL     1      -8.427  16.147  65.739  1.00  0.00     0.376 C  
HETATM   35  C   UNL     1      -9.760  16.218  65.601  1.00  0.00    -0.206 C  
ENDBRANCH  27  34
ENDBRANCH  12  26
TORSDOF 5
ENDMDL
MODEL      174
REMARK 921   NORMALIZED FREE ENERGY PREDICTED BY IDOCK:    5.30 KCAL/MOL
REMARK 922        TOTAL FREE ENERGY PREDICTED BY IDOCK:    6.38 KCAL/MOL
REMARK 923 INTER-LIGAND FREE ENERGY PREDICTED BY IDOCK:    6.13 KCAL/MOL
REMARK 924 INTRA-LIGAND FREE ENERGY PREDICTED BY IDOCK:    0.25 KCAL/MOL
REMARK 927      BINDING AFFINITY PREDICTED BY RF-SCORE:    0.00 PKD
ROOT
HETATM    1  N   UNL     1     -12.448  13.982  64.790  1.00  0.00    -0.609 NA 
HETATM    2  C   UNL     1     -11.992  12.674  64.670  1.00  0.00    -0.402 A  
HETATM    3  H1  UNL     1     -11.860  14.586  65.364  1.00  0.00     0.000 HD 
HETATM    4  H2  UNL     1     -13.409  13.992  65.133  1.00  0.00     0.000 HD 
HETATM    5  N   UNL     1     -12.771  11.872  63.909  1.00  0.00    -0.503 NA 
HETATM    6  C   UNL     1     -12.360  10.619  63.653  1.00  0.00     3.479 A  
HETATM    7  N   UNL     1     -11.219  10.042  64.043  1.00  0.00     3.245 NA 
HETATM    8  C   UNL     1     -10.491  10.859  64.821  1.00  0.00    -0.303 A  
HETATM    9  C   UNL     1     -10.800  12.159  65.208  1.00  0.00    -0.336 A  
HETATM   10  C   UNL     1      -9.707  12.555  66.059  1.00  0.00    -0.241 A  
HETATM   11  N   UNL     1      -8.775  11.576  66.107  1.00  0.00    -0.168 NA 
HETATM   12  N   UNL     1      -9.269  10.574  65.357  1.00  0.00    -0.180 NA 
ENDROOT
BRANCH  10  13
HETATM   13  C   UNL     1      -9.448  13.804  66.815  1.00  0.00    -0.281 A  
HETATM   14  C   UNL     1     -10.419  14.785  67.054  1.00  0.00    -0.270 A  
HETATM   15  C   UNL     1     -10.091  15.963  67.752  1.00  0.00    -0.244 A  
HETATM   16  C   UNL     1      -8.164  14.024  67.353  1.00  0.00    -0.203 A  
HETATM   17  C   UNL     1      -8.804  16.169  68.263  1.00  0.00    -0.188 A  
HETATM   18  C   UNL     1      -7.839  15.188  68.067  1.00  0.00    -0.135 A  
BRANCH  17  19
HETATM   19  O   UNL     1      -8.574  17.397  68.842  1.00  0.00    -0.246 OA 
BRANCH  19  20
HETATM   20  C   UNL     1      -9.383  18.478  68.571  1.00  0.00    -0.338 A  
HETATM   21  C   UNL     1     -10.364  18.780  69.522  1.00  0.00     0.485 A  
HETATM   22  C   UNL     1     -10.899  20.823  68.349  1.00  0.00     0.800 A  
HETATM   23  C   UNL     1      -9.163  19.354  67.506  1.00  0.00    -0.375 A  
HETATM   24  C   UNL     1     -11.123  19.947  69.410  1.00  0.00     1.815 A  
HETATM   25  C   UNL     1      -9.925  20.523  67.397  1.00  0.00    -0.525 A  
ENDBRANCH  19  20
ENDBRANCH  17  19
ENDBRANCH  10  13
BRANCH  12  26
HETATM   26  C   UNL     1      -8.480   9.365  65.124  1.00  0.00    -0.154 C  
HETATM   27  C   UNL     1      -8.684   5.861  63.952  1.00  0.00     0.304 C  
HETATM   28  C   UNL     1      -7.071   9.686  64.589  1.00  0.00    -0.120 C  
HETATM   29  C   UNL     1      -7.124   7.583  63.229  1.00  0.00    -0.071 C  
HETATM   30  C   UNL     1      -6.312   8.412  64.214  1.00  0.00    -0.067 C  
HETATM   31  O   UNL     1      -7.883   4.994  63.596  1.00  0.00    -0.077 OA 
HETATM   32  N   UNL     1      -8.402   7.214  63.836  1.00  0.00     0.101 N  
HETATM   33  C   UNL     1      -9.239   8.370  64.217  1.00  0.00     1.030 C  
BRANCH  27  34
HETATM   34  C   UNL     1      -9.990   5.441  64.527  1.00  0.00     1.097 C  
HETATM   35  C   UNL     1     -10.033   4.940  65.770  1.00  0.00    -0.191 C  
ENDBRANCH  27  34
ENDBRANCH  12  26
TORSDOF 5
ENDMDL
MODEL      175
REMARK 921   NORMALIZED FREE ENERGY PREDICTED BY IDOCK:    6.55 KCAL/MOL
REMARK 922        TOTAL FREE ENERGY PREDICTED BY IDOCK:    7.99 KCAL/MOL
REMARK 923 INTER-LIGAND FREE ENERGY PREDICTED BY IDOCK:    8.95 KCAL/MOL
REMARK 924 INTRA-LIGAND FREE ENERGY PREDICTED BY IDOCK:   -0.96 KCAL/MOL
REMARK 927      BINDING AFFINITY PREDICTED BY RF-SCORE:    0.00 PKD
ROOT
HETATM    1  N   UNL     1     -12.725  13.838  64.739  1.00  0.00    -0.684 NA 
HETATM    2  C   UNL     1     -12.358  12.503  64.867  1.00  0.00    -0.470 A  
HETATM    3  H1  UNL     1     -12.080  14.501  65.169  1.00  0.00     0.000 HD 
HETATM    4  H2  UNL     1     -13.670  13.981  65.095  1.00  0.00     0.000 HD 
HETATM    5  N   UNL     1     -13.213  11.625  64.296  1.00  0.00    -0.087 NA 
HETATM    6  C   UNL     1     -12.892  10.321  64.282  1.00  0.00     8.151 A  
HETATM    7  N   UNL     1     -11.776   9.753  64.751  1.00  0.00     5.663 NA 
HETATM    8  C   UNL     1     -10.970  10.654  65.336  1.00  0.00     0.212 A  
HETATM    9  C   UNL     1     -11.182  12.022  65.467  1.00  0.00    -0.372 A  
HETATM   10  C   UNL     1     -10.036  12.499  66.199  1.00  0.00    -0.255 A  
HETATM   11  N   UNL     1      -9.166  11.486  66.416  1.00  0.00    -0.203 NA 
HETATM   12  N   UNL     1      -9.750  10.394  65.889  1.00  0.00    -0.203 NA 
ENDROOT
BRANCH  10  13
HETATM   13  C   UNL     1      -9.671  13.850  66.688  1.00  0.00    -0.295 A  
HETATM   14  C   UNL     1     -10.581  14.909  66.803  1.00  0.00    -0.305 A  
HETATM   15  C   UNL     1     -10.155  16.177  67.244  1.00  0.00    -0.265 A  
HETATM   16  C   UNL     1      -8.342  14.097  67.090  1.00  0.00    -0.189 A  
HETATM   17  C   UNL     1      -8.826  16.404  67.622  1.00  0.00    -0.188 A  
HETATM   18  C   UNL     1      -7.919  15.353  67.551  1.00  0.00    -0.192 A  
BRANCH  17  19
HETATM   19  O   UNL     1      -8.504  17.703  67.945  1.00  0.00    -0.224 OA 
BRANCH  19  20
HETATM   20  C   UNL     1      -7.764  18.490  67.090  1.00  0.00    -0.225 A  
HETATM   21  C   UNL     1      -6.601  19.063  67.617  1.00  0.00    -0.216 A  
HETATM   22  C   UNL     1      -5.972  19.847  65.420  1.00  0.00    -0.227 A  
HETATM   23  C   UNL     1      -8.028  18.598  65.724  1.00  0.00     0.119 A  
HETATM   24  C   UNL     1      -5.709  19.744  66.785  1.00  0.00    -0.172 A  
HETATM   25  C   UNL     1      -7.132  19.282  64.892  1.00  0.00     0.530 A  
ENDBRANCH  19  20
ENDBRANCH  17  19
ENDBRANCH  10  13
BRANCH  12  26
HETATM   26  C   UNL     1      -9.048   9.112  65.880  1.00  0.00    -0.205 C  
HETATM   27  C   UNL     1      -5.801   7.503  65.128  1.00  0.00    -0.038 C  
HETATM   28  C   UNL     1      -9.457   8.218  67.066  1.00  0.00    -0.226 C  
HETATM   29  C   UNL     1      -7.131   7.293  67.155  1.00  0.00    -0.087 C  
HETATM   30  C   UNL     1      -8.613   6.944  67.125  1.00  0.00    -0.121 C  
HETATM   31  O   UNL     1      -5.268   6.418  65.372  1.00  0.00    -0.013 OA 
HETATM   32  N   UNL     1      -6.780   8.042  65.950  1.00  0.00    -0.049 N  
HETATM   33  C   UNL     1      -7.517   9.313  65.798  1.00  0.00    -0.098 C  
BRANCH  27  34
HETATM   34  C   UNL     1      -5.384   8.251  63.911  1.00  0.00    -0.048 C  
HETATM   35  C   UNL     1      -5.778   7.820  62.704  1.00  0.00    -0.067 C  
ENDBRANCH  27  34
ENDBRANCH  12  26
TORSDOF 5
ENDMDL
MODEL      176
REMARK 921   NORMALIZED FREE ENERGY PREDICTED BY IDOCK:    7.32 KCAL/MOL
REMARK 922        TOTAL FREE ENERGY PREDICTED BY IDOCK:    8.99 KCAL/MOL
REMARK 923 INTER-LIGAND FREE ENERGY PREDICTED BY IDOCK:    8.80 KCAL/MOL
REMARK 924 INTRA-LIGAND FREE ENERGY PREDICTED BY IDOCK:    0.20 KCAL/MOL
REMARK 927      BINDING AFFINITY PREDICTED BY RF-SCORE:    0.00 PKD
ROOT
HETATM    1  N   UNL     1      -5.375   9.975  70.070  1.00  0.00    -0.037 NA 
HETATM    2  C   UNL     1      -6.454  10.847  70.157  1.00  0.00    -0.145 A  
HETATM    3  H1  UNL     1      -5.448   9.279  69.328  1.00  0.00     0.000 HD 
HETATM    4  H2  UNL     1      -5.214   9.520  70.969  1.00  0.00     0.000 HD 
HETATM    5  N   UNL     1      -6.357  11.770  71.140  1.00  0.00     0.518 NA 
HETATM    6  C   UNL     1      -7.304  12.718  71.238  1.00  0.00     6.109 A  
HETATM    7  N   UNL     1      -8.362  12.896  70.440  1.00  0.00     4.127 NA 
HETATM    8  C   UNL     1      -8.438  11.942  69.498  1.00  0.00     1.153 A  
HETATM    9  C   UNL     1      -7.565  10.879  69.296  1.00  0.00    -0.113 A  
HETATM   10  C   UNL     1      -8.129  10.149  68.188  1.00  0.00    -0.105 A  
HETATM   11  N   UNL     1      -9.225  10.790  67.719  1.00  0.00    -0.150 NA 
HETATM   12  N   UNL     1      -9.386  11.858  68.520  1.00  0.00    -0.177 NA 
ENDROOT
BRANCH  10  13
HETATM   13  C   UNL     1      -7.702   8.905  67.507  1.00  0.00    -0.100 A  
HETATM   14  C   UNL     1      -6.459   8.747  66.879  1.00  0.00    -0.061 A  
HETATM   15  C   UNL     1      -6.134   7.546  66.222  1.00  0.00    -0.041 A  
HETATM   16  C   UNL     1      -8.571   7.794  67.502  1.00  0.00    -0.122 A  
HETATM   17  C   UNL     1      -7.021   6.461  66.214  1.00  0.00    -0.066 A  
HETATM   18  C   UNL     1      -8.241   6.588  66.865  1.00  0.00    -0.113 A  
BRANCH  17  19
HETATM   19  O   UNL     1      -6.637   5.374  65.461  1.00  0.00    -0.039 OA 
BRANCH  19  20
HETATM   20  C   UNL     1      -6.965   4.091  65.838  1.00  0.00    -0.065 A  
HETATM   21  C   UNL     1      -6.075   3.080  65.459  1.00  0.00    -0.023 A  
HETATM   22  C   UNL     1      -7.298   1.478  66.791  1.00  0.00    -0.055 A  
HETATM   23  C   UNL     1      -8.025   3.790  66.696  1.00  0.00    -0.096 A  
HETATM   24  C   UNL     1      -6.243   1.776  65.930  1.00  0.00    -0.023 A  
HETATM   25  C   UNL     1      -8.190   2.482  67.167  1.00  0.00    -0.082 A  
ENDBRANCH  19  20
ENDBRANCH  17  19
ENDBRANCH  10  13
BRANCH  12  26
HETATM   26  C   UNL     1     -10.447  12.829  68.255  1.00  0.00    -0.241 C  
HETATM   27  C   UNL     1     -11.535  16.303  68.920  1.00  0.00    -0.282 C  
HETATM   28  C   UNL     1     -11.005  12.702  66.824  1.00  0.00    -0.296 C  
HETATM   29  C   UNL     1     -11.382  15.178  66.767  1.00  0.00    -0.248 C  
HETATM   30  C   UNL     1     -12.009  13.813  66.515  1.00  0.00    -0.470 C  
HETATM   31  O   UNL     1     -12.368  17.080  68.448  1.00  0.00     1.167 OA 
HETATM   32  N   UNL     1     -10.977  15.279  68.168  1.00  0.00    -0.280 N  
HETATM   33  C   UNL     1      -9.982  14.267  68.578  1.00  0.00    -0.235 C  
BRANCH  27  34
HETATM   34  C   UNL     1     -11.121  16.467  70.339  1.00  0.00    -0.138 C  
HETATM   35  C   UNL     1     -11.924  16.023  71.317  1.00  0.00    -0.475 C  
ENDBRANCH  27  34
ENDBRANCH  12  26
TORSDOF 5
ENDMDL
MODEL      177
REMARK 921   NORMALIZED FREE ENERGY PREDICTED BY IDOCK:    9.44 KCAL/MOL
REMARK 922        TOTAL FREE ENERGY PREDICTED BY IDOCK:   11.72 KCAL/MOL
REMARK 923 INTER-LIGAND FREE ENERGY PREDICTED BY IDOCK:   11.63 KCAL/MOL
REMARK 924 INTRA-LIGAND FREE ENERGY PREDICTED BY IDOCK:    0.09 KCAL/MOL
REMARK 927      BINDING AFFINITY PREDICTED BY RF-SCORE:    0.00 PKD
ROOT
HETATM    1  N   UNL     1     -11.757  14.055  66.275  1.00  0.00    -0.370 NA 
HETATM    2  C   UNL     1     -11.626  12.683  66.093  1.00  0.00    -0.393 A  
HETATM    3  H1  UNL     1     -11.886  14.345  67.244  1.00  0.00     0.000 HD 
HETATM    4  H2  UNL     1     -12.511  14.419  65.692  1.00  0.00     0.000 HD 
HETATM    5  N   UNL     1     -11.455  12.297  64.809  1.00  0.00    -0.321 NA 
HETATM    6  C   UNL     1     -11.219  11.001  64.544  1.00  0.00     0.169 A  
HETATM    7  N   UNL     1     -11.098  10.001  65.424  1.00  0.00     1.069 NA 
HETATM    8  C   UNL     1     -11.307  10.420  66.683  1.00  0.00     0.524 A  
HETATM    9  C   UNL     1     -11.599  11.711  67.108  1.00  0.00    -0.291 A  
HETATM   10  C   UNL     1     -11.759  11.596  68.536  1.00  0.00    -0.315 A  
HETATM   11  N   UNL     1     -11.499  10.329  68.933  1.00  0.00    -0.177 NA 
HETATM   12  N   UNL     1     -11.230   9.648  67.805  1.00  0.00    -0.025 NA 
ENDROOT
BRANCH  10  13
HETATM   13  C   UNL     1     -12.109  12.596  69.573  1.00  0.00    -0.253 A  
HETATM   14  C   UNL     1     -13.185  12.456  70.459  1.00  0.00     0.665 A  
HETATM   15  C   UNL     1     -13.478  13.464  71.397  1.00  0.00    -0.196 A  
HETATM   16  C   UNL     1     -11.310  13.750  69.707  1.00  0.00    -0.200 A  
HETATM   17  C   UNL     1     -12.681  14.611  71.502  1.00  0.00    -0.338 A  
HETATM   18  C   UNL     1     -11.587  14.747  70.655  1.00  0.00    -0.324 A  
BRANCH  17  19
HETATM   19  O   UNL     1     -13.118  15.571  72.387  1.00  0.00    -0.370 OA 
BRANCH  19  20
HETATM   20  C   UNL     1     -12.289  16.588  72.806  1.00  0.00    -0.189 A  
HETATM   21  C   UNL     1     -11.922  17.534  71.843  1.00  0.00     3.245 A  
HETATM   22  C   UNL     1     -10.881  18.892  73.548  1.00  0.00     2.930 A  
HETATM   23  C   UNL     1     -11.947  16.798  74.143  1.00  0.00    -0.188 A  
HETATM   24  C   UNL     1     -11.216  18.682  72.211  1.00  0.00     4.039 A  
HETATM   25  C   UNL     1     -11.240  17.949  74.510  1.00  0.00     1.485 A  
ENDBRANCH  19  20
ENDBRANCH  17  19
ENDBRANCH  10  13
BRANCH  12  26
HETATM   26  C   UNL     1     -10.829   8.244  67.866  1.00  0.00     0.033 C  
HETATM   27  C   UNL     1      -9.509   5.437  65.847  1.00  0.00    -0.122 C  
HETATM   28  C   UNL     1     -10.126   7.898  69.193  1.00  0.00    -0.197 C  
HETATM   29  C   UNL     1      -8.675   6.255  67.982  1.00  0.00    -0.114 C  
HETATM   30  C   UNL     1      -9.585   6.468  69.184  1.00  0.00    -0.137 C  
HETATM   31  O   UNL     1      -9.003   4.336  66.077  1.00  0.00    -0.117 OA 
HETATM   32  N   UNL     1      -9.429   6.486  66.751  1.00  0.00    -0.154 N  
HETATM   33  C   UNL     1      -9.981   7.851  66.635  1.00  0.00    -0.246 C  
BRANCH  27  34
HETATM   34  C   UNL     1     -10.233   5.641  64.563  1.00  0.00     2.050 C  
HETATM   35  C   UNL     1     -10.013   4.801  63.541  1.00  0.00     0.458 C  
ENDBRANCH  27  34
ENDBRANCH  12  26
TORSDOF 5
ENDMDL
MODEL      178
REMARK 921   NORMALIZED FREE ENERGY PREDICTED BY IDOCK:   11.55 KCAL/MOL
REMARK 922        TOTAL FREE ENERGY PREDICTED BY IDOCK:   14.45 KCAL/MOL
REMARK 923 INTER-LIGAND FREE ENERGY PREDICTED BY IDOCK:   15.26 KCAL/MOL
REMARK 924 INTRA-LIGAND FREE ENERGY PREDICTED BY IDOCK:   -0.81 KCAL/MOL
REMARK 927      BINDING AFFINITY PREDICTED BY RF-SCORE:    0.00 PKD
ROOT
HETATM    1  N   UNL     1      -7.208  15.345  71.948  1.00  0.00     2.958 NA 
HETATM    2  C   UNL     1      -7.994  15.409  70.803  1.00  0.00     1.990 A  
HETATM    3  H1  UNL     1      -6.790  14.432  72.127  1.00  0.00     0.000 HD 
HETATM    4  H2  UNL     1      -7.741  15.657  72.760  1.00  0.00     0.000 HD 
HETATM    5  N   UNL     1      -8.548  16.618  70.564  1.00  0.00     2.883 NA 
HETATM    6  C   UNL     1      -9.242  16.804  69.429  1.00  0.00     0.088 A  
HETATM    7  N   UNL     1      -9.441  15.921  68.445  1.00  0.00    -0.197 NA 
HETATM    8  C   UNL     1      -8.903  14.726  68.735  1.00  0.00    -0.179 A  
HETATM    9  C   UNL     1      -8.198  14.369  69.879  1.00  0.00     0.720 A  
HETATM   10  C   UNL     1      -7.883  12.975  69.693  1.00  0.00     1.211 A  
HETATM   11  N   UNL     1      -8.310  12.559  68.478  1.00  0.00    -0.116 NA 
HETATM   12  N   UNL     1      -8.915  13.627  67.926  1.00  0.00    -0.185 NA 
ENDROOT
BRANCH  10  13
HETATM   13  C   UNL     1      -7.179  11.999  70.558  1.00  0.00     2.491 A  
HETATM   14  C   UNL     1      -5.963  12.264  71.202  1.00  0.00     0.575 A  
HETATM   15  C   UNL     1      -5.334  11.275  71.982  1.00  0.00     0.375 A  
HETATM   16  C   UNL     1      -7.761  10.734  70.777  1.00  0.00     2.230 A  
HETATM   17  C   UNL     1      -5.923  10.019  72.173  1.00  0.00     0.513 A  
HETATM   18  C   UNL     1      -7.147   9.754  71.572  1.00  0.00     0.656 A  
BRANCH  17  19
HETATM   19  O   UNL     1      -5.173   9.102  72.875  1.00  0.00    -0.073 OA 
BRANCH  19  20
HETATM   20  C   UNL     1      -5.597   7.800  73.030  1.00  0.00    -0.044 A  
HETATM   21  C   UNL     1      -5.213   6.894  72.036  1.00  0.00    -0.032 A  
HETATM   22  C   UNL     1      -6.089   5.061  73.344  1.00  0.00    -0.038 A  
HETATM   23  C   UNL     1      -6.230   7.332  74.183  1.00  0.00    -0.077 A  
HETATM   24  C   UNL     1      -5.462   5.528  72.190  1.00  0.00    -0.017 A  
HETATM   25  C   UNL     1      -6.478   5.962  74.335  1.00  0.00    -0.075 A  
ENDBRANCH  19  20
ENDBRANCH  17  19
ENDBRANCH  10  13
BRANCH  12  26
HETATM   26  C   UNL     1      -9.439  13.558  66.563  1.00  0.00    -0.256 C  
HETATM   27  C   UNL     1      -9.219  11.677  63.384  1.00  0.00    -0.019 C  
HETATM   28  C   UNL     1     -10.938  13.907  66.499  1.00  0.00    -0.300 C  
HETATM   29  C   UNL     1     -11.226  12.270  64.626  1.00  0.00    -0.315 C  
HETATM   30  C   UNL     1     -11.504  13.691  65.095  1.00  0.00    -0.328 C  
HETATM   31  O   UNL     1      -9.890  11.592  62.352  1.00  0.00     0.066 OA 
HETATM   32  N   UNL     1      -9.783  12.036  64.599  1.00  0.00    -0.146 N  
HETATM   33  C   UNL     1      -9.127  12.190  65.913  1.00  0.00     0.002 C  
BRANCH  27  34
HETATM   34  C   UNL     1      -7.761  11.391  63.319  1.00  0.00     1.039 C  
HETATM   35  C   UNL     1      -7.343  10.139  63.079  1.00  0.00    -0.139 C  
ENDBRANCH  27  34
ENDBRANCH  12  26
TORSDOF 5
ENDMDL
MODEL      179
REMARK 921   NORMALIZED FREE ENERGY PREDICTED BY IDOCK:   29.18 KCAL/MOL
REMARK 922        TOTAL FREE ENERGY PREDICTED BY IDOCK:   37.23 KCAL/MOL
REMARK 923 INTER-LIGAND FREE ENERGY PREDICTED BY IDOCK:   36.24 KCAL/MOL
REMARK 924 INTRA-LIGAND FREE ENERGY PREDICTED BY IDOCK:    0.99 KCAL/MOL
REMARK 927      BINDING AFFINITY PREDICTED BY RF-SCORE:    0.00 PKD
ROOT
HETATM    1  N   UNL     1     -11.450  13.125  64.170  1.00  0.00    -0.384 NA 
HETATM    2  C   UNL     1     -11.020  14.126  65.033  1.00  0.00    -0.384 A  
HETATM    3  H1  UNL     1     -11.443  12.187  64.568  1.00  0.00     0.000 HD 
HETATM    4  H2  UNL     1     -10.909  13.148  63.305  1.00  0.00     0.000 HD 
HETATM    5  N   UNL     1     -11.029  15.371  64.506  1.00  0.00    -0.294 NA 
HETATM    6  C   UNL     1     -10.725  16.414  65.295  1.00  0.00    -0.295 A  
HETATM    7  N   UNL     1     -10.429  16.389  66.599  1.00  0.00    -0.293 NA 
HETATM    8  C   UNL     1     -10.400  15.133  67.075  1.00  0.00    -0.271 A  
HETATM    9  C   UNL     1     -10.648  13.956  66.378  1.00  0.00    -0.280 A  
HETATM   10  C   UNL     1     -10.447  12.909  67.349  1.00  0.00    -0.233 A  
HETATM   11  N   UNL     1     -10.174  13.444  68.561  1.00  0.00    -0.238 NA 
HETATM   12  N   UNL     1     -10.153  14.775  68.369  1.00  0.00    -0.220 NA 
ENDROOT
BRANCH  10  13
HETATM   13  C   UNL     1     -10.523  11.434  67.237  1.00  0.00    -0.241 A  
HETATM   14  C   UNL     1     -11.561  10.663  67.777  1.00  0.00    -0.063 A  
HETATM   15  C   UNL     1     -11.550   9.260  67.660  1.00  0.00     1.595 A  
HETATM   16  C   UNL     1      -9.515  10.748  66.528  1.00  0.00    -0.197 A  
HETATM   17  C   UNL     1     -10.528   8.599  66.966  1.00  0.00    -0.284 A  
HETATM   18  C   UNL     1      -9.511   9.352  66.392  1.00  0.00    -0.259 A  
BRANCH  17  19
HETATM   19  O   UNL     1     -10.570   7.223  66.999  1.00  0.00    -0.306 OA 
BRANCH  19  20
HETATM   20  C   UNL     1     -11.269   6.552  67.978  1.00  0.00    -0.148 A  
HETATM   21  C   UNL     1     -11.485   7.241  69.177  1.00  0.00     0.288 A  
HETATM   22  C   UNL     1     -12.941   5.475  69.949  1.00  0.00     8.123 A  
HETATM   23  C   UNL     1     -11.892   5.320  67.769  1.00  0.00     4.374 A  
HETATM   24  C   UNL     1     -12.316   6.702  70.162  1.00  0.00     0.235 A  
HETATM   25  C   UNL     1     -12.724   4.783  68.759  1.00  0.00    16.436 A  
ENDBRANCH  19  20
ENDBRANCH  17  19
ENDBRANCH  10  13
BRANCH  12  26
HETATM   26  C   UNL     1      -9.956  15.683  69.498  1.00  0.00    -0.285 C  
HETATM   27  C   UNL     1      -9.281  19.209  70.397  1.00  0.00     1.837 C  
HETATM   28  C   UNL     1     -10.865  15.331  70.691  1.00  0.00    -0.278 C  
HETATM   29  C   UNL     1     -11.038  17.764  71.260  1.00  0.00     2.433 C  
HETATM   30  C   UNL     1     -10.754  16.372  71.806  1.00  0.00     1.532 C  
HETATM   31  O   UNL     1      -9.351  19.896  71.418  1.00  0.00     1.758 OA 
HETATM   32  N   UNL     1     -10.073  18.085  70.210  1.00  0.00     1.179 N  
HETATM   33  C   UNL     1     -10.107  17.159  69.061  1.00  0.00    -0.297 C  
BRANCH  27  34
HETATM   34  C   UNL     1      -8.312  19.596  69.336  1.00  0.00     0.157 C  
HETATM   35  C   UNL     1      -7.745  20.811  69.370  1.00  0.00     1.546 C  
ENDBRANCH  27  34
ENDBRANCH  12  26
TORSDOF 5
ENDMDL
MODEL      180
REMARK 921   NORMALIZED FREE ENERGY PREDICTED BY IDOCK:   36.98 KCAL/MOL
REMARK 922        TOTAL FREE ENERGY PREDICTED BY IDOCK:   47.32 KCAL/MOL
REMARK 923 INTER-LIGAND FREE ENERGY PREDICTED BY IDOCK:   47.17 KCAL/MOL
REMARK 924 INTRA-LIGAND FREE ENERGY PREDICTED BY IDOCK:    0.15 KCAL/MOL
REMARK 927      BINDING AFFINITY PREDICTED BY RF-SCORE:    0.00 PKD
ROOT
HETATM    1  N   UNL     1     -12.348  13.135  72.143  1.00  0.00     0.248 NA 
HETATM    2  C   UNL     1     -11.849  11.914  72.580  1.00  0.00     5.398 A  
HETATM    3  H1  UNL     1     -12.369  13.249  71.129  1.00  0.00     0.000 HD 
HETATM    4  H2  UNL     1     -11.833  13.903  72.575  1.00  0.00     0.000 HD 
HETATM    5  N   UNL     1     -11.821  11.763  73.923  1.00  0.00    12.474 NA 
HETATM    6  C   UNL     1     -11.449  10.579  74.438  1.00  0.00    21.048 A  
HETATM    7  N   UNL     1     -11.115   9.471  73.768  1.00  0.00     6.343 NA 
HETATM    8  C   UNL     1     -11.125   9.672  72.440  1.00  0.00     1.455 A  
HETATM    9  C   UNL     1     -11.445  10.844  71.763  1.00  0.00     1.827 A  
HETATM   10  C   UNL     1     -11.260  10.522  70.370  1.00  0.00    -0.298 A  
HETATM   11  N   UNL     1     -10.928   9.217  70.234  1.00  0.00    -0.238 NA 
HETATM   12  N   UNL     1     -10.855   8.733  71.487  1.00  0.00    -0.277 NA 
ENDROOT
BRANCH  10  13
HETATM   13  C   UNL     1     -11.402  11.339  69.142  1.00  0.00    -0.349 A  
HETATM   14  C   UNL     1     -10.369  11.544  68.219  1.00  0.00    -0.211 A  
HETATM   15  C   UNL     1     -10.567  12.362  67.090  1.00  0.00    -0.247 A  
HETATM   16  C   UNL     1     -12.649  11.932  68.856  1.00  0.00     0.771 A  
HETATM   17  C   UNL     1     -11.810  12.955  66.834  1.00  0.00    -0.379 A  
HETATM   18  C   UNL     1     -12.856  12.730  67.720  1.00  0.00     2.129 A  
BRANCH  17  19
HETATM   19  O   UNL     1     -11.859  13.809  65.755  1.00  0.00    -0.340 OA 
BRANCH  19  20
HETATM   20  C   UNL     1     -11.391  15.102  65.844  1.00  0.00    -0.225 A  
HETATM   21  C   UNL     1     -10.510  15.378  66.895  1.00  0.00    -0.295 A  
HETATM   22  C   UNL     1     -10.091  17.577  65.990  1.00  0.00    -0.270 A  
HETATM   23  C   UNL     1     -11.620  16.069  64.864  1.00  0.00    -0.009 A  
HETATM   24  C   UNL     1      -9.865  16.614  66.971  1.00  0.00    -0.260 A  
HETATM   25  C   UNL     1     -10.971  17.308  64.943  1.00  0.00     0.341 A  
ENDBRANCH  19  20
ENDBRANCH  17  19
ENDBRANCH  10  13
BRANCH  12  26
HETATM   26  C   UNL     1     -10.585   7.315  71.719  1.00  0.00    -0.205 C  
HETATM   27  C   UNL     1      -8.358   4.517  70.767  1.00  0.00    -0.087 C  
HETATM   28  C   UNL     1     -10.813   6.913  73.189  1.00  0.00    -0.328 C  
HETATM   29  C   UNL     1      -8.947   5.253  73.011  1.00  0.00    -0.119 C  
HETATM   30  C   UNL     1     -10.390   5.467  73.446  1.00  0.00    -0.244 C  
HETATM   31  O   UNL     1      -8.101   3.395  71.208  1.00  0.00    -0.058 OA 
HETATM   32  N   UNL     1      -8.818   5.541  71.583  1.00  0.00    -0.135 N  
HETATM   33  C   UNL     1      -9.176   6.925  71.216  1.00  0.00    -0.157 C  
BRANCH  27  34
HETATM   34  C   UNL     1      -8.175   4.777  69.313  1.00  0.00    -0.077 C  
HETATM   35  C   UNL     1      -6.999   4.492  68.735  1.00  0.00    -0.052 C  
ENDBRANCH  27  34
ENDBRANCH  12  26
TORSDOF 5
ENDMDL
MODEL      181
REMARK 921   NORMALIZED FREE ENERGY PREDICTED BY IDOCK:   40.33 KCAL/MOL
REMARK 922        TOTAL FREE ENERGY PREDICTED BY IDOCK:   51.65 KCAL/MOL
REMARK 923 INTER-LIGAND FREE ENERGY PREDICTED BY IDOCK:   52.85 KCAL/MOL
REMARK 924 INTRA-LIGAND FREE ENERGY PREDICTED BY IDOCK:   -1.20 KCAL/MOL
REMARK 927      BINDING AFFINITY PREDICTED BY RF-SCORE:    0.00 PKD
ROOT
HETATM    1  N   UNL     1     -12.957  12.927  66.226  1.00  0.00     0.352 NA 
HETATM    2  C   UNL     1     -12.764  11.555  66.109  1.00  0.00     3.685 A  
HETATM    3  H1  UNL     1     -12.152  13.442  66.582  1.00  0.00     0.000 HD 
HETATM    4  H2  UNL     1     -13.782  13.121  66.794  1.00  0.00     0.000 HD 
HETATM    5  N   UNL     1     -13.830  10.872  65.636  1.00  0.00    11.084 NA 
HETATM    6  C   UNL     1     -13.706   9.557  65.395  1.00  0.00    22.218 A  
HETATM    7  N   UNL     1     -12.610   8.804  65.539  1.00  0.00    14.230 NA 
HETATM    8  C   UNL     1     -11.584   9.512  66.039  1.00  0.00     3.763 A  
HETATM    9  C   UNL     1     -11.571  10.861  66.377  1.00  0.00     0.663 A  
HETATM   10  C   UNL     1     -10.246  11.094  66.895  1.00  0.00    -0.222 A  
HETATM   11  N   UNL     1      -9.502   9.968  66.794  1.00  0.00    -0.163 NA 
HETATM   12  N   UNL     1     -10.327   9.039  66.278  1.00  0.00    -0.181 NA 
ENDROOT
BRANCH  10  13
HETATM   13  C   UNL     1      -9.605  12.308  67.452  1.00  0.00    -0.179 A  
HETATM   14  C   UNL     1      -9.885  12.823  68.725  1.00  0.00     0.020 A  
HETATM   15  C   UNL     1      -9.261  14.002  69.176  1.00  0.00     0.267 A  
HETATM   16  C   UNL     1      -8.635  12.984  66.684  1.00  0.00     0.027 A  
HETATM   17  C   UNL     1      -8.313  14.667  68.388  1.00  0.00    -0.157 A  
HETATM   18  C   UNL     1      -7.995  14.147  67.139  1.00  0.00    -0.100 A  
BRANCH  17  19
HETATM   19  O   UNL     1      -7.841  15.859  68.890  1.00  0.00    -0.169 OA 
BRANCH  19  20
HETATM   20  C   UNL     1      -8.035  17.045  68.217  1.00  0.00    -0.222 A  
HETATM   21  C   UNL     1      -9.359  17.389  67.924  1.00  0.00    -0.267 A  
HETATM   22  C   UNL     1      -8.641  19.562  67.150  1.00  0.00    -0.337 A  
HETATM   23  C   UNL     1      -7.013  17.965  67.974  1.00  0.00    -0.202 A  
HETATM   24  C   UNL     1      -9.662  18.643  67.388  1.00  0.00    -0.330 A  
HETATM   25  C   UNL     1      -7.320  19.221  67.436  1.00  0.00    -0.251 A  
ENDBRANCH  19  20
ENDBRANCH  17  19
ENDBRANCH  10  13
BRANCH  12  26
HETATM   26  C   UNL     1      -9.829   7.701  65.962  1.00  0.00     0.267 C  
HETATM   27  C   UNL     1      -6.924   5.852  64.608  1.00  0.00    -0.052 C  
HETATM   28  C   UNL     1     -10.283   6.654  66.997  1.00  0.00    -0.288 C  
HETATM   29  C   UNL     1      -8.123   5.426  66.682  1.00  0.00    -0.105 C  
HETATM   30  C   UNL     1      -9.638   5.292  66.735  1.00  0.00    -0.156 C  
HETATM   31  O   UNL     1      -6.544   4.679  64.593  1.00  0.00    -0.041 OA 
HETATM   32  N   UNL     1      -7.749   6.345  65.608  1.00  0.00    -0.089 N  
HETATM   33  C   UNL     1      -8.296   7.707  65.768  1.00  0.00    -0.141 C  
BRANCH  27  34
HETATM   34  C   UNL     1      -6.487   6.763  63.516  1.00  0.00    -0.042 C  
HETATM   35  C   UNL     1      -5.328   7.427  63.635  1.00  0.00    -0.033 C  
ENDBRANCH  27  34
ENDBRANCH  12  26
TORSDOF 5
ENDMDL
