MODEL        1
REMARK 921   NORMALIZED FREE ENERGY PREDICTED BY IDOCK:   -6.08 KCAL/MOL
REMARK 922        TOTAL FREE ENERGY PREDICTED BY IDOCK:   -6.79 KCAL/MOL
REMARK 923 INTER-LIGAND FREE ENERGY PREDICTED BY IDOCK:   -6.44 KCAL/MOL
REMARK 924 INTRA-LIGAND FREE ENERGY PREDICTED BY IDOCK:   -0.35 KCAL/MOL
REMARK 927      BINDING AFFINITY PREDICTED BY RF-SCORE:    0.00 PKD
ROOT
HETATM    1  C   UNL     1     -14.389  15.129  71.017  1.00  0.00    -0.260 C  
HETATM    2  C   UNL     1     -13.037  15.560  71.592  1.00  0.00    -0.561 C  
HETATM    3  C   UNL     1     -13.170  15.791  73.099  1.00  0.00    -0.694 C  
HETATM    4  C   UNL     1     -11.927  14.526  71.308  1.00  0.00    -0.396 C  
ENDROOT
BRANCH   4   5
HETATM    5  C   UNL     1     -11.679  14.290  69.835  1.00  0.00    -0.373 A  
HETATM    6  C   UNL     1     -11.400  15.356  68.974  1.00  0.00    -0.324 A  
HETATM    7  C   UNL     1     -11.236  15.139  67.603  1.00  0.00    -0.329 A  
HETATM    8  C   UNL     1     -11.336  13.847  67.062  1.00  0.00    -0.343 A  
HETATM    9  C   UNL     1     -11.232  13.672  65.548  1.00  0.00    -0.301 C  
HETATM   10  C   UNL     1     -11.584  12.778  67.932  1.00  0.00    -0.400 A  
HETATM   11  C   UNL     1     -12.532  13.906  64.776  1.00  0.00    -0.354 C  
HETATM   12  C   UNL     1     -11.748  12.998  69.304  1.00  0.00    -0.375 A  
HETATM   13  C   UNL     1     -10.645  12.322  65.123  1.00  0.00    -0.320 C  
HETATM   14  O   UNL     1     -13.639  14.173  65.502  1.00  0.00    -0.568 OA 
HETATM   15  O   UNL     1     -12.588  13.857  63.551  1.00  0.00    -0.842 OA 
ENDBRANCH   4   5
TORSDOF 1
ENDMDL
MODEL        2
REMARK 921   NORMALIZED FREE ENERGY PREDICTED BY IDOCK:   -5.79 KCAL/MOL
REMARK 922        TOTAL FREE ENERGY PREDICTED BY IDOCK:   -6.48 KCAL/MOL
REMARK 923 INTER-LIGAND FREE ENERGY PREDICTED BY IDOCK:   -6.15 KCAL/MOL
REMARK 924 INTRA-LIGAND FREE ENERGY PREDICTED BY IDOCK:   -0.33 KCAL/MOL
REMARK 927      BINDING AFFINITY PREDICTED BY RF-SCORE:    0.00 PKD
ROOT
HETATM    1  C   UNL     1     -14.328  14.614  71.869  1.00  0.00    -0.656 C  
HETATM    2  C   UNL     1     -13.074  15.485  71.980  1.00  0.00    -0.535 C  
HETATM    3  C   UNL     1     -12.936  16.007  73.412  1.00  0.00    -0.676 C  
HETATM    4  C   UNL     1     -11.797  14.725  71.565  1.00  0.00    -0.394 C  
ENDROOT
BRANCH   4   5
HETATM    5  C   UNL     1     -11.820  14.236  70.134  1.00  0.00    -0.379 A  
HETATM    6  C   UNL     1     -11.828  12.868  69.842  1.00  0.00    -0.373 A  
HETATM    7  C   UNL     1     -11.785  12.424  68.518  1.00  0.00    -0.373 A  
HETATM    8  C   UNL     1     -11.744  13.337  67.452  1.00  0.00    -0.419 A  
HETATM    9  C   UNL     1     -11.613  12.803  66.028  1.00  0.00    -0.432 C  
HETATM   10  C   UNL     1     -11.768  14.706  67.748  1.00  0.00    -0.386 A  
HETATM   11  C   UNL     1     -10.184  12.487  65.581  1.00  0.00    -0.267 C  
HETATM   12  C   UNL     1     -11.812  15.149  69.074  1.00  0.00    -0.331 A  
HETATM   13  C   UNL     1     -12.271  13.697  64.972  1.00  0.00    -0.450 C  
HETATM   14  O   UNL     1      -9.192  12.770  66.451  1.00  0.00    -0.221 OA 
HETATM   15  O   UNL     1      -9.931  11.998  64.484  1.00  0.00    -0.257 OA 
ENDBRANCH   4   5
TORSDOF 1
ENDMDL
MODEL        3
REMARK 921   NORMALIZED FREE ENERGY PREDICTED BY IDOCK:   -5.72 KCAL/MOL
REMARK 922        TOTAL FREE ENERGY PREDICTED BY IDOCK:   -6.40 KCAL/MOL
REMARK 923 INTER-LIGAND FREE ENERGY PREDICTED BY IDOCK:   -6.08 KCAL/MOL
REMARK 924 INTRA-LIGAND FREE ENERGY PREDICTED BY IDOCK:   -0.33 KCAL/MOL
REMARK 927      BINDING AFFINITY PREDICTED BY RF-SCORE:    0.00 PKD
ROOT
HETATM    1  C   UNL     1     -10.476  19.664  66.050  1.00  0.00    -0.622 C  
HETATM    2  C   UNL     1      -9.163  19.347  66.770  1.00  0.00    -0.387 C  
HETATM    3  C   UNL     1      -8.607  20.622  67.410  1.00  0.00    -0.300 C  
HETATM    4  C   UNL     1      -9.336  18.247  67.839  1.00  0.00    -0.284 C  
ENDROOT
BRANCH   4   5
HETATM    5  C   UNL     1      -9.815  16.927  67.279  1.00  0.00    -0.265 A  
HETATM    6  C   UNL     1      -9.181  16.340  66.180  1.00  0.00    -0.376 A  
HETATM    7  C   UNL     1      -9.668  15.152  65.629  1.00  0.00    -0.351 A  
HETATM    8  C   UNL     1     -10.797  14.516  66.170  1.00  0.00    -0.317 A  
HETATM    9  C   UNL     1     -11.341  13.267  65.481  1.00  0.00    -0.315 C  
HETATM   10  C   UNL     1     -11.411  15.091  67.291  1.00  0.00    -0.337 A  
HETATM   11  C   UNL     1     -12.275  13.532  64.299  1.00  0.00    -0.396 C  
HETATM   12  C   UNL     1     -10.920  16.280  67.842  1.00  0.00    -0.310 A  
HETATM   13  C   UNL     1     -12.026  12.285  66.438  1.00  0.00    -0.286 C  
HETATM   14  O   UNL     1     -12.575  14.820  64.029  1.00  0.00    -0.822 OA 
HETATM   15  O   UNL     1     -12.744  12.626  63.614  1.00  0.00    -0.711 OA 
ENDBRANCH   4   5
TORSDOF 1
ENDMDL
MODEL        4
REMARK 921   NORMALIZED FREE ENERGY PREDICTED BY IDOCK:   -5.70 KCAL/MOL
REMARK 922        TOTAL FREE ENERGY PREDICTED BY IDOCK:   -6.38 KCAL/MOL
REMARK 923 INTER-LIGAND FREE ENERGY PREDICTED BY IDOCK:   -6.28 KCAL/MOL
REMARK 924 INTRA-LIGAND FREE ENERGY PREDICTED BY IDOCK:   -0.10 KCAL/MOL
REMARK 927      BINDING AFFINITY PREDICTED BY RF-SCORE:    0.00 PKD
ROOT
HETATM    1  C   UNL     1     -10.004   9.583  70.563  1.00  0.00    -0.335 C  
HETATM    2  C   UNL     1     -11.525   9.652  70.720  1.00  0.00    -0.399 C  
HETATM    3  C   UNL     1     -11.934   9.018  72.052  1.00  0.00    -0.433 C  
HETATM    4  C   UNL     1     -12.054  11.100  70.635  1.00  0.00    -0.477 C  
ENDROOT
BRANCH   4   5
HETATM    5  C   UNL     1     -11.755  11.778  69.317  1.00  0.00    -0.398 A  
HETATM    6  C   UNL     1     -11.591  13.165  69.244  1.00  0.00    -0.370 A  
HETATM    7  C   UNL     1     -11.378  13.792  68.014  1.00  0.00    -0.318 A  
HETATM    8  C   UNL     1     -11.315  13.045  66.826  1.00  0.00    -0.365 A  
HETATM    9  C   UNL     1     -11.165  13.784  65.498  1.00  0.00    -0.303 C  
HETATM   10  C   UNL     1     -11.449  11.653  66.908  1.00  0.00    -0.320 A  
HETATM   11  C   UNL     1     -12.471  14.305  64.894  1.00  0.00    -0.390 C  
HETATM   12  C   UNL     1     -11.661  11.028  68.141  1.00  0.00    -0.345 A  
HETATM   13  C   UNL     1     -10.414  12.982  64.429  1.00  0.00    -0.426 C  
HETATM   14  O   UNL     1     -13.613  14.007  65.548  1.00  0.00    -0.596 OA 
HETATM   15  O   UNL     1     -12.500  14.966  63.859  1.00  0.00    -0.806 OA 
ENDBRANCH   4   5
TORSDOF 1
ENDMDL
MODEL        5
REMARK 921   NORMALIZED FREE ENERGY PREDICTED BY IDOCK:   -5.68 KCAL/MOL
REMARK 922        TOTAL FREE ENERGY PREDICTED BY IDOCK:   -6.36 KCAL/MOL
REMARK 923 INTER-LIGAND FREE ENERGY PREDICTED BY IDOCK:   -6.00 KCAL/MOL
REMARK 924 INTRA-LIGAND FREE ENERGY PREDICTED BY IDOCK:   -0.36 KCAL/MOL
REMARK 927      BINDING AFFINITY PREDICTED BY RF-SCORE:    0.00 PKD
ROOT
HETATM    1  C   UNL     1      -8.152  20.459  67.340  1.00  0.00    -0.367 C  
HETATM    2  C   UNL     1      -7.018  19.616  67.927  1.00  0.00    -0.290 C  
HETATM    3  C   UNL     1      -6.065  20.516  68.718  1.00  0.00    -0.373 C  
HETATM    4  C   UNL     1      -7.543  18.477  68.826  1.00  0.00    -0.308 C  
ENDROOT
BRANCH   4   5
HETATM    5  C   UNL     1      -8.438  17.496  68.102  1.00  0.00    -0.254 A  
HETATM    6  C   UNL     1      -7.959  16.750  67.021  1.00  0.00    -0.231 A  
HETATM    7  C   UNL     1      -8.809  15.893  66.316  1.00  0.00    -0.386 A  
HETATM    8  C   UNL     1     -10.158  15.754  66.684  1.00  0.00    -0.287 A  
HETATM    9  C   UNL     1     -11.067  14.870  65.832  1.00  0.00    -0.338 C  
HETATM   10  C   UNL     1     -10.625  16.479  67.787  1.00  0.00    -0.332 A  
HETATM   11  C   UNL     1     -11.656  15.548  64.593  1.00  0.00    -0.281 C  
HETATM   12  C   UNL     1      -9.772  17.335  68.491  1.00  0.00    -0.296 A  
HETATM   13  C   UNL     1     -12.204  14.214  66.622  1.00  0.00    -0.450 C  
HETATM   14  O   UNL     1     -11.375  16.856  64.416  1.00  0.00    -1.133 OA 
HETATM   15  O   UNL     1     -12.358  14.946  63.785  1.00  0.00    -0.673 OA 
ENDBRANCH   4   5
TORSDOF 1
ENDMDL
MODEL        6
REMARK 921   NORMALIZED FREE ENERGY PREDICTED BY IDOCK:   -5.42 KCAL/MOL
REMARK 922        TOTAL FREE ENERGY PREDICTED BY IDOCK:   -6.08 KCAL/MOL
REMARK 923 INTER-LIGAND FREE ENERGY PREDICTED BY IDOCK:   -5.75 KCAL/MOL
REMARK 924 INTRA-LIGAND FREE ENERGY PREDICTED BY IDOCK:   -0.33 KCAL/MOL
REMARK 927      BINDING AFFINITY PREDICTED BY RF-SCORE:    0.00 PKD
ROOT
HETATM    1  C   UNL     1     -10.068  20.189  66.634  1.00  0.00    -0.584 C  
HETATM    2  C   UNL     1      -8.679  19.565  66.790  1.00  0.00    -0.358 C  
HETATM    3  C   UNL     1      -7.657  20.658  67.112  1.00  0.00    -0.364 C  
HETATM    4  C   UNL     1      -8.650  18.471  67.879  1.00  0.00    -0.304 C  
ENDROOT
BRANCH   4   5
HETATM    5  C   UNL     1      -9.582  17.313  67.601  1.00  0.00    -0.256 A  
HETATM    6  C   UNL     1     -10.554  16.934  68.531  1.00  0.00    -0.367 A  
HETATM    7  C   UNL     1     -11.369  15.823  68.295  1.00  0.00    -0.354 A  
HETATM    8  C   UNL     1     -11.238  15.071  67.116  1.00  0.00    -0.336 A  
HETATM    9  C   UNL     1     -12.093  13.818  66.943  1.00  0.00    -0.454 C  
HETATM   10  C   UNL     1     -10.284  15.474  66.173  1.00  0.00    -0.322 A  
HETATM   11  C   UNL     1     -11.536  12.555  67.603  1.00  0.00    -0.355 C  
HETATM   12  C   UNL     1      -9.470  16.586  66.411  1.00  0.00    -0.314 A  
HETATM   13  C   UNL     1     -12.432  13.501  65.483  1.00  0.00    -0.538 C  
HETATM   14  O   UNL     1     -10.332  12.655  68.204  1.00  0.00    -0.220 OA 
HETATM   15  O   UNL     1     -12.142  11.486  67.595  1.00  0.00    -0.623 OA 
ENDBRANCH   4   5
TORSDOF 1
ENDMDL
MODEL        7
REMARK 921   NORMALIZED FREE ENERGY PREDICTED BY IDOCK:   -5.37 KCAL/MOL
REMARK 922        TOTAL FREE ENERGY PREDICTED BY IDOCK:   -6.03 KCAL/MOL
REMARK 923 INTER-LIGAND FREE ENERGY PREDICTED BY IDOCK:   -5.69 KCAL/MOL
REMARK 924 INTRA-LIGAND FREE ENERGY PREDICTED BY IDOCK:   -0.34 KCAL/MOL
REMARK 927      BINDING AFFINITY PREDICTED BY RF-SCORE:    0.00 PKD
ROOT
HETATM    1  C   UNL     1     -12.408  13.186  65.078  1.00  0.00    -0.511 C  
HETATM    2  C   UNL     1     -11.335  12.307  65.724  1.00  0.00    -0.400 C  
HETATM    3  C   UNL     1     -10.495  11.635  64.634  1.00  0.00    -0.354 C  
HETATM    4  C   UNL     1     -10.424  13.105  66.681  1.00  0.00    -0.280 C  
ENDROOT
BRANCH   4   5
HETATM    5  C   UNL     1     -11.167  13.744  67.833  1.00  0.00    -0.299 A  
HETATM    6  C   UNL     1     -11.137  15.128  68.028  1.00  0.00    -0.310 A  
HETATM    7  C   UNL     1     -11.772  15.704  69.131  1.00  0.00    -0.402 A  
HETATM    8  C   UNL     1     -12.464  14.910  70.061  1.00  0.00    -0.320 A  
HETATM    9  C   UNL     1     -13.070  15.576  71.294  1.00  0.00    -0.581 C  
HETATM   10  C   UNL     1     -12.518  13.527  69.844  1.00  0.00    -0.194 A  
HETATM   11  C   UNL     1     -12.102  15.789  72.459  1.00  0.00    -0.489 C  
HETATM   12  C   UNL     1     -11.882  12.953  68.739  1.00  0.00    -0.353 A  
HETATM   13  C   UNL     1     -14.325  14.872  71.820  1.00  0.00    -0.668 C  
HETATM   14  O   UNL     1     -10.847  15.313  72.311  1.00  0.00    -0.042 OA 
HETATM   15  O   UNL     1     -12.432  16.363  73.493  1.00  0.00    -0.484 OA 
ENDBRANCH   4   5
TORSDOF 1
ENDMDL
MODEL        8
REMARK 921   NORMALIZED FREE ENERGY PREDICTED BY IDOCK:   -5.21 KCAL/MOL
REMARK 922        TOTAL FREE ENERGY PREDICTED BY IDOCK:   -5.86 KCAL/MOL
REMARK 923 INTER-LIGAND FREE ENERGY PREDICTED BY IDOCK:   -5.66 KCAL/MOL
REMARK 924 INTRA-LIGAND FREE ENERGY PREDICTED BY IDOCK:   -0.20 KCAL/MOL
REMARK 927      BINDING AFFINITY PREDICTED BY RF-SCORE:    0.00 PKD
ROOT
HETATM    1  C   UNL     1     -14.058  15.189  71.270  1.00  0.00    -0.537 C  
HETATM    2  C   UNL     1     -12.917  14.208  71.551  1.00  0.00    -0.417 C  
HETATM    3  C   UNL     1     -13.438  13.041  72.394  1.00  0.00    -0.615 C  
HETATM    4  C   UNL     1     -12.269  13.679  70.254  1.00  0.00    -0.423 C  
ENDROOT
BRANCH   4   5
HETATM    5  C   UNL     1     -11.662  14.764  69.393  1.00  0.00    -0.358 A  
HETATM    6  C   UNL     1     -11.740  14.703  67.999  1.00  0.00    -0.371 A  
HETATM    7  C   UNL     1     -11.122  15.676  67.208  1.00  0.00    -0.238 A  
HETATM    8  C   UNL     1     -10.419  16.741  67.796  1.00  0.00    -0.335 A  
HETATM    9  C   UNL     1      -9.689  17.731  66.890  1.00  0.00    -0.300 C  
HETATM   10  C   UNL     1     -10.370  16.815  69.194  1.00  0.00    -0.326 A  
HETATM   11  C   UNL     1      -8.296  17.291  66.436  1.00  0.00    -0.280 C  
HETATM   12  C   UNL     1     -10.990  15.841  69.982  1.00  0.00    -0.344 A  
HETATM   13  C   UNL     1      -9.593  19.144  67.475  1.00  0.00    -0.373 C  
HETATM   14  O   UNL     1      -7.829  16.124  66.927  1.00  0.00    -0.197 OA 
HETATM   15  O   UNL     1      -7.615  17.958  65.661  1.00  0.00    -0.546 OA 
ENDBRANCH   4   5
TORSDOF 1
ENDMDL
MODEL        9
REMARK 921   NORMALIZED FREE ENERGY PREDICTED BY IDOCK:   -5.17 KCAL/MOL
REMARK 922        TOTAL FREE ENERGY PREDICTED BY IDOCK:   -5.82 KCAL/MOL
REMARK 923 INTER-LIGAND FREE ENERGY PREDICTED BY IDOCK:   -5.55 KCAL/MOL
REMARK 924 INTRA-LIGAND FREE ENERGY PREDICTED BY IDOCK:   -0.26 KCAL/MOL
REMARK 927      BINDING AFFINITY PREDICTED BY RF-SCORE:    0.00 PKD
ROOT
HETATM    1  C   UNL     1     -10.725  11.696  64.949  1.00  0.00    -0.352 C  
HETATM    2  C   UNL     1     -11.642  12.652  64.182  1.00  0.00    -0.458 C  
HETATM    3  C   UNL     1     -12.630  11.848  63.334  1.00  0.00    -0.555 C  
HETATM    4  C   UNL     1     -12.404  13.609  65.124  1.00  0.00    -0.486 C  
ENDROOT
BRANCH   4   5
HETATM    5  C   UNL     1     -11.500  14.496  65.949  1.00  0.00    -0.345 A  
HETATM    6  C   UNL     1     -11.737  14.694  67.313  1.00  0.00    -0.406 A  
HETATM    7  C   UNL     1     -10.936  15.565  68.056  1.00  0.00    -0.311 A  
HETATM    8  C   UNL     1      -9.869  16.252  67.453  1.00  0.00    -0.242 A  
HETATM    9  C   UNL     1      -9.075  17.256  68.286  1.00  0.00    -0.262 C  
HETATM   10  C   UNL     1      -9.615  16.027  66.094  1.00  0.00    -0.366 A  
HETATM   11  C   UNL     1      -9.692  18.653  68.381  1.00  0.00    -0.367 C  
HETATM   12  C   UNL     1     -10.419  15.154  65.353  1.00  0.00    -0.416 A  
HETATM   13  C   UNL     1      -7.611  17.393  67.854  1.00  0.00    -0.196 C  
HETATM   14  O   UNL     1     -10.821  18.876  67.676  1.00  0.00    -0.428 OA 
HETATM   15  O   UNL     1      -9.196  19.547  69.062  1.00  0.00    -0.364 OA 
ENDBRANCH   4   5
TORSDOF 1
ENDMDL
MODEL       10
REMARK 921   NORMALIZED FREE ENERGY PREDICTED BY IDOCK:   -5.07 KCAL/MOL
REMARK 922        TOTAL FREE ENERGY PREDICTED BY IDOCK:   -5.71 KCAL/MOL
REMARK 923 INTER-LIGAND FREE ENERGY PREDICTED BY IDOCK:   -5.70 KCAL/MOL
REMARK 924 INTRA-LIGAND FREE ENERGY PREDICTED BY IDOCK:   -0.01 KCAL/MOL
REMARK 927      BINDING AFFINITY PREDICTED BY RF-SCORE:    0.00 PKD
ROOT
HETATM    1  C   UNL     1     -11.661  10.711  70.608  1.00  0.00    -0.454 C  
HETATM    2  C   UNL     1     -10.699   9.907  69.729  1.00  0.00    -0.298 C  
HETATM    3  C   UNL     1     -10.784   8.424  70.096  1.00  0.00    -0.238 C  
HETATM    4  C   UNL     1     -10.984  10.101  68.224  1.00  0.00    -0.299 C  
ENDROOT
BRANCH   4   5
HETATM    5  C   UNL     1     -10.850  11.534  67.761  1.00  0.00    -0.270 A  
HETATM    6  C   UNL     1     -11.900  12.443  67.924  1.00  0.00    -0.370 A  
HETATM    7  C   UNL     1     -11.792  13.748  67.436  1.00  0.00    -0.431 A  
HETATM    8  C   UNL     1     -10.626  14.179  66.781  1.00  0.00    -0.277 A  
HETATM    9  C   UNL     1     -10.589  15.587  66.192  1.00  0.00    -0.321 C  
HETATM   10  C   UNL     1      -9.566  13.274  66.648  1.00  0.00    -0.262 A  
HETATM   11  C   UNL     1     -11.212  15.725  64.801  1.00  0.00    -0.366 C  
HETATM   12  C   UNL     1      -9.675  11.968  67.138  1.00  0.00    -0.203 A  
HETATM   13  C   UNL     1      -9.189  16.208  66.168  1.00  0.00    -0.382 C  
HETATM   14  O   UNL     1     -11.662  14.597  64.213  1.00  0.00    -0.358 OA 
HETATM   15  O   UNL     1     -11.304  16.807  64.226  1.00  0.00    -1.170 OA 
ENDBRANCH   4   5
TORSDOF 1
ENDMDL
MODEL       11
REMARK 921   NORMALIZED FREE ENERGY PREDICTED BY IDOCK:   -5.00 KCAL/MOL
REMARK 922        TOTAL FREE ENERGY PREDICTED BY IDOCK:   -5.63 KCAL/MOL
REMARK 923 INTER-LIGAND FREE ENERGY PREDICTED BY IDOCK:   -5.27 KCAL/MOL
REMARK 924 INTRA-LIGAND FREE ENERGY PREDICTED BY IDOCK:   -0.36 KCAL/MOL
REMARK 927      BINDING AFFINITY PREDICTED BY RF-SCORE:    0.00 PKD
ROOT
HETATM    1  C   UNL     1     -10.086  18.626  68.637  1.00  0.00    -0.412 C  
HETATM    2  C   UNL     1     -10.019  19.105  67.185  1.00  0.00    -0.435 C  
HETATM    3  C   UNL     1      -9.645  20.589  67.149  1.00  0.00    -0.570 C  
HETATM    4  C   UNL     1      -9.017  18.283  66.346  1.00  0.00    -0.257 C  
ENDROOT
BRANCH   4   5
HETATM    5  C   UNL     1      -9.354  16.812  66.268  1.00  0.00    -0.310 A  
HETATM    6  C   UNL     1     -10.556  16.379  65.699  1.00  0.00    -0.337 A  
HETATM    7  C   UNL     1     -10.890  15.022  65.688  1.00  0.00    -0.356 A  
HETATM    8  C   UNL     1     -10.023  14.063  66.237  1.00  0.00    -0.317 A  
HETATM    9  C   UNL     1     -10.469  12.603  66.277  1.00  0.00    -0.270 C  
HETATM   10  C   UNL     1      -8.806  14.497  66.778  1.00  0.00    -0.248 A  
HETATM   11  C   UNL     1     -11.356  12.227  67.466  1.00  0.00    -0.325 C  
HETATM   12  C   UNL     1      -8.474  15.856  66.787  1.00  0.00    -0.297 A  
HETATM   13  C   UNL     1      -9.312  11.602  66.191  1.00  0.00    -0.237 C  
HETATM   14  O   UNL     1     -11.595  13.188  68.383  1.00  0.00    -0.292 OA 
HETATM   15  O   UNL     1     -11.837  11.105  67.600  1.00  0.00    -0.612 OA 
ENDBRANCH   4   5
TORSDOF 1
ENDMDL
MODEL       12
REMARK 921   NORMALIZED FREE ENERGY PREDICTED BY IDOCK:   -4.95 KCAL/MOL
REMARK 922        TOTAL FREE ENERGY PREDICTED BY IDOCK:   -5.58 KCAL/MOL
REMARK 923 INTER-LIGAND FREE ENERGY PREDICTED BY IDOCK:   -5.26 KCAL/MOL
REMARK 924 INTRA-LIGAND FREE ENERGY PREDICTED BY IDOCK:   -0.32 KCAL/MOL
REMARK 927      BINDING AFFINITY PREDICTED BY RF-SCORE:    0.00 PKD
ROOT
HETATM    1  C   UNL     1     -11.925  12.976  65.996  1.00  0.00    -0.498 C  
HETATM    2  C   UNL     1     -11.602  12.911  67.491  1.00  0.00    -0.409 C  
HETATM    3  C   UNL     1     -11.757  11.472  67.989  1.00  0.00    -0.343 C  
HETATM    4  C   UNL     1     -10.183  13.433  67.804  1.00  0.00    -0.235 C  
ENDROOT
BRANCH   4   5
HETATM    5  C   UNL     1      -9.967  14.876  67.409  1.00  0.00    -0.223 A  
HETATM    6  C   UNL     1      -8.884  15.246  66.605  1.00  0.00    -0.328 A  
HETATM    7  C   UNL     1      -8.654  16.590  66.296  1.00  0.00    -0.367 A  
HETATM    8  C   UNL     1      -9.509  17.596  66.776  1.00  0.00    -0.285 A  
HETATM    9  C   UNL     1      -9.168  19.055  66.482  1.00  0.00    -0.357 C  
HETATM   10  C   UNL     1     -10.610  17.217  67.555  1.00  0.00    -0.329 A  
HETATM   11  C   UNL     1      -8.163  19.694  67.443  1.00  0.00    -0.298 C  
HETATM   12  C   UNL     1     -10.838  15.872  67.862  1.00  0.00    -0.327 A  
HETATM   13  C   UNL     1     -10.396  19.965  66.378  1.00  0.00    -0.611 C  
HETATM   14  O   UNL     1      -7.736  18.939  68.477  1.00  0.00    -0.307 OA 
HETATM   15  O   UNL     1      -7.751  20.842  67.298  1.00  0.00    -0.348 OA 
ENDBRANCH   4   5
TORSDOF 1
ENDMDL
MODEL       13
REMARK 921   NORMALIZED FREE ENERGY PREDICTED BY IDOCK:   -4.91 KCAL/MOL
REMARK 922        TOTAL FREE ENERGY PREDICTED BY IDOCK:   -5.54 KCAL/MOL
REMARK 923 INTER-LIGAND FREE ENERGY PREDICTED BY IDOCK:   -5.20 KCAL/MOL
REMARK 924 INTRA-LIGAND FREE ENERGY PREDICTED BY IDOCK:   -0.34 KCAL/MOL
REMARK 927      BINDING AFFINITY PREDICTED BY RF-SCORE:    0.00 PKD
ROOT
HETATM    1  C   UNL     1     -10.897  17.053  68.911  1.00  0.00    -0.228 C  
HETATM    2  C   UNL     1     -10.370  18.112  67.939  1.00  0.00    -0.410 C  
HETATM    3  C   UNL     1      -9.787  19.289  68.725  1.00  0.00    -0.514 C  
HETATM    4  C   UNL     1      -9.310  17.541  66.973  1.00  0.00    -0.262 C  
ENDROOT
BRANCH   4   5
HETATM    5  C   UNL     1      -9.826  16.417  66.102  1.00  0.00    -0.362 A  
HETATM    6  C   UNL     1     -10.790  16.656  65.118  1.00  0.00    -0.199 A  
HETATM    7  C   UNL     1     -11.309  15.602  64.360  1.00  0.00    -0.272 A  
HETATM    8  C   UNL     1     -10.866  14.284  64.561  1.00  0.00    -0.305 A  
HETATM    9  C   UNL     1     -11.523  13.157  63.768  1.00  0.00    -0.426 C  
HETATM   10  C   UNL     1      -9.877  14.055  65.526  1.00  0.00    -0.229 A  
HETATM   11  C   UNL     1     -12.830  12.623  64.359  1.00  0.00    -0.257 C  
HETATM   12  C   UNL     1      -9.359  15.111  66.283  1.00  0.00    -0.348 A  
HETATM   13  C   UNL     1     -10.589  11.974  63.490  1.00  0.00    -0.514 C  
HETATM   14  O   UNL     1     -13.230  13.144  65.537  1.00  0.00    -0.460 OA 
HETATM   15  O   UNL     1     -13.498  11.756  63.801  1.00  0.00    -0.418 OA 
ENDBRANCH   4   5
TORSDOF 1
ENDMDL
MODEL       14
REMARK 921   NORMALIZED FREE ENERGY PREDICTED BY IDOCK:   -4.89 KCAL/MOL
REMARK 922        TOTAL FREE ENERGY PREDICTED BY IDOCK:   -5.52 KCAL/MOL
REMARK 923 INTER-LIGAND FREE ENERGY PREDICTED BY IDOCK:   -5.24 KCAL/MOL
REMARK 924 INTRA-LIGAND FREE ENERGY PREDICTED BY IDOCK:   -0.28 KCAL/MOL
REMARK 927      BINDING AFFINITY PREDICTED BY RF-SCORE:    0.00 PKD
ROOT
HETATM    1  C   UNL     1      -9.140   9.407  70.378  1.00  0.00    -0.302 C  
HETATM    2  C   UNL     1      -9.225   8.407  69.222  1.00  0.00    -0.154 C  
HETATM    3  C   UNL     1      -9.116   6.981  69.766  1.00  0.00    -0.144 C  
HETATM    4  C   UNL     1     -10.526   8.568  68.407  1.00  0.00    -0.215 C  
ENDROOT
BRANCH   4   5
HETATM    5  C   UNL     1     -10.678   9.931  67.771  1.00  0.00    -0.332 A  
HETATM    6  C   UNL     1     -11.593  10.861  68.275  1.00  0.00    -0.335 A  
HETATM    7  C   UNL     1     -11.774  12.094  67.644  1.00  0.00    -0.386 A  
HETATM    8  C   UNL     1     -11.037  12.432  66.497  1.00  0.00    -0.346 A  
HETATM    9  C   UNL     1     -11.331  13.756  65.795  1.00  0.00    -0.309 C  
HETATM   10  C   UNL     1     -10.099  11.510  66.014  1.00  0.00    -0.270 A  
HETATM   11  C   UNL     1     -12.506  13.725  64.816  1.00  0.00    -0.349 C  
HETATM   12  C   UNL     1      -9.919  10.277  66.648  1.00  0.00    -0.270 A  
HETATM   13  C   UNL     1     -10.115  14.359  65.085  1.00  0.00    -0.359 C  
HETATM   14  O   UNL     1     -13.113  12.535  64.622  1.00  0.00    -0.845 OA 
HETATM   15  O   UNL     1     -12.895  14.727  64.222  1.00  0.00    -0.622 OA 
ENDBRANCH   4   5
TORSDOF 1
ENDMDL
MODEL       15
REMARK 921   NORMALIZED FREE ENERGY PREDICTED BY IDOCK:   -4.87 KCAL/MOL
REMARK 922        TOTAL FREE ENERGY PREDICTED BY IDOCK:   -5.50 KCAL/MOL
REMARK 923 INTER-LIGAND FREE ENERGY PREDICTED BY IDOCK:   -5.14 KCAL/MOL
REMARK 924 INTRA-LIGAND FREE ENERGY PREDICTED BY IDOCK:   -0.36 KCAL/MOL
REMARK 927      BINDING AFFINITY PREDICTED BY RF-SCORE:    0.00 PKD
ROOT
HETATM    1  C   UNL     1     -10.669  12.313  66.191  1.00  0.00    -0.296 C  
HETATM    2  C   UNL     1     -11.238  12.093  67.595  1.00  0.00    -0.345 C  
HETATM    3  C   UNL     1     -11.284  10.594  67.902  1.00  0.00    -0.376 C  
HETATM    4  C   UNL     1     -10.422  12.833  68.677  1.00  0.00    -0.230 C  
ENDROOT
BRANCH   4   5
HETATM    5  C   UNL     1     -10.387  14.333  68.489  1.00  0.00    -0.244 A  
HETATM    6  C   UNL     1     -11.567  15.080  68.451  1.00  0.00    -0.352 A  
HETATM    7  C   UNL     1     -11.530  16.457  68.213  1.00  0.00    -0.143 A  
HETATM    8  C   UNL     1     -10.308  17.122  68.020  1.00  0.00    -0.353 A  
HETATM    9  C   UNL     1     -10.324  18.611  67.680  1.00  0.00    -0.455 C  
HETATM   10  C   UNL     1      -9.125  16.374  68.091  1.00  0.00    -0.201 A  
HETATM   11  C   UNL     1     -10.536  18.937  66.201  1.00  0.00    -0.457 C  
HETATM   12  C   UNL     1      -9.166  14.996  68.329  1.00  0.00    -0.184 A  
HETATM   13  C   UNL     1      -9.090  19.369  68.180  1.00  0.00    -0.385 C  
HETATM   14  O   UNL     1     -10.617  17.895  65.347  1.00  0.00    -0.656 OA 
HETATM   15  O   UNL     1     -10.628  20.090  65.788  1.00  0.00    -0.465 OA 
ENDBRANCH   4   5
TORSDOF 1
ENDMDL
MODEL       16
REMARK 921   NORMALIZED FREE ENERGY PREDICTED BY IDOCK:   -4.86 KCAL/MOL
REMARK 922        TOTAL FREE ENERGY PREDICTED BY IDOCK:   -5.49 KCAL/MOL
REMARK 923 INTER-LIGAND FREE ENERGY PREDICTED BY IDOCK:   -5.32 KCAL/MOL
REMARK 924 INTRA-LIGAND FREE ENERGY PREDICTED BY IDOCK:   -0.18 KCAL/MOL
REMARK 927      BINDING AFFINITY PREDICTED BY RF-SCORE:    0.00 PKD
ROOT
HETATM    1  C   UNL     1      -9.755  19.240  69.022  1.00  0.00    -0.453 C  
HETATM    2  C   UNL     1     -10.295  19.095  67.597  1.00  0.00    -0.521 C  
HETATM    3  C   UNL     1      -9.935  20.338  66.781  1.00  0.00    -0.587 C  
HETATM    4  C   UNL     1      -9.762  17.826  66.898  1.00  0.00    -0.300 C  
ENDROOT
BRANCH   4   5
HETATM    5  C   UNL     1     -10.138  16.542  67.603  1.00  0.00    -0.266 A  
HETATM    6  C   UNL     1      -9.258  15.455  67.634  1.00  0.00    -0.187 A  
HETATM    7  C   UNL     1      -9.637  14.250  68.232  1.00  0.00    -0.221 A  
HETATM    8  C   UNL     1     -10.903  14.107  68.824  1.00  0.00    -0.271 A  
HETATM    9  C   UNL     1     -11.302  12.745  69.389  1.00  0.00    -0.267 C  
HETATM   10  C   UNL     1     -11.769  15.207  68.818  1.00  0.00    -0.366 A  
HETATM   11  C   UNL     1     -11.861  11.755  68.366  1.00  0.00    -0.282 C  
HETATM   12  C   UNL     1     -11.387  16.413  68.220  1.00  0.00    -0.241 A  
HETATM   13  C   UNL     1     -12.272  12.830  70.572  1.00  0.00    -0.389 C  
HETATM   14  O   UNL     1     -12.008  12.197  67.099  1.00  0.00    -0.580 OA 
HETATM   15  O   UNL     1     -12.170  10.605  68.664  1.00  0.00    -0.386 OA 
ENDBRANCH   4   5
TORSDOF 1
ENDMDL
MODEL       17
REMARK 921   NORMALIZED FREE ENERGY PREDICTED BY IDOCK:   -4.86 KCAL/MOL
REMARK 922        TOTAL FREE ENERGY PREDICTED BY IDOCK:   -5.49 KCAL/MOL
REMARK 923 INTER-LIGAND FREE ENERGY PREDICTED BY IDOCK:   -5.16 KCAL/MOL
REMARK 924 INTRA-LIGAND FREE ENERGY PREDICTED BY IDOCK:   -0.33 KCAL/MOL
REMARK 927      BINDING AFFINITY PREDICTED BY RF-SCORE:    0.00 PKD
ROOT
HETATM    1  C   UNL     1     -11.794  13.664  67.054  1.00  0.00    -0.448 C  
HETATM    2  C   UNL     1     -10.803  13.362  65.927  1.00  0.00    -0.282 C  
HETATM    3  C   UNL     1     -11.304  12.171  65.107  1.00  0.00    -0.379 C  
HETATM    4  C   UNL     1     -10.575  14.582  65.009  1.00  0.00    -0.458 C  
ENDROOT
BRANCH   4   5
HETATM    5  C   UNL     1     -10.009  15.785  65.729  1.00  0.00    -0.389 A  
HETATM    6  C   UNL     1     -10.659  17.022  65.681  1.00  0.00    -0.206 A  
HETATM    7  C   UNL     1     -10.098  18.145  66.295  1.00  0.00    -0.373 A  
HETATM    8  C   UNL     1      -8.876  18.055  66.983  1.00  0.00    -0.259 A  
HETATM    9  C   UNL     1      -8.262  19.326  67.565  1.00  0.00    -0.320 C  
HETATM   10  C   UNL     1      -8.244  16.807  67.055  1.00  0.00    -0.224 A  
HETATM   11  C   UNL     1      -7.445  20.163  66.579  1.00  0.00    -0.277 C  
HETATM   12  C   UNL     1      -8.809  15.684  66.440  1.00  0.00    -0.365 A  
HETATM   13  C   UNL     1      -7.419  19.083  68.821  1.00  0.00    -0.369 C  
HETATM   14  O   UNL     1      -7.293  19.670  65.332  1.00  0.00    -0.403 OA 
HETATM   15  O   UNL     1      -6.940  21.239  66.889  1.00  0.00    -0.406 OA 
ENDBRANCH   4   5
TORSDOF 1
ENDMDL
MODEL       18
REMARK 921   NORMALIZED FREE ENERGY PREDICTED BY IDOCK:   -4.80 KCAL/MOL
REMARK 922        TOTAL FREE ENERGY PREDICTED BY IDOCK:   -5.42 KCAL/MOL
REMARK 923 INTER-LIGAND FREE ENERGY PREDICTED BY IDOCK:   -5.42 KCAL/MOL
REMARK 924 INTRA-LIGAND FREE ENERGY PREDICTED BY IDOCK:    0.00 KCAL/MOL
REMARK 927      BINDING AFFINITY PREDICTED BY RF-SCORE:    0.00 PKD
ROOT
HETATM    1  C   UNL     1     -11.930  12.846  68.025  1.00  0.00    -0.323 C  
HETATM    2  C   UNL     1     -11.406  13.374  69.363  1.00  0.00    -0.286 C  
HETATM    3  C   UNL     1     -11.442  14.904  69.362  1.00  0.00    -0.324 C  
HETATM    4  C   UNL     1     -12.208  12.824  70.561  1.00  0.00    -0.389 C  
ENDROOT
BRANCH   4   5
HETATM    5  C   UNL     1     -12.165  11.317  70.680  1.00  0.00    -0.489 A  
HETATM    6  C   UNL     1     -13.154  10.623  71.383  1.00  0.00    -0.499 A  
HETATM    7  C   UNL     1     -13.074   9.237  71.542  1.00  0.00    -0.430 A  
HETATM    8  C   UNL     1     -12.005   8.509  70.992  1.00  0.00    -0.260 A  
HETATM    9  C   UNL     1     -11.917   7.009  71.264  1.00  0.00    -0.388 C  
HETATM   10  C   UNL     1     -11.033   9.205  70.261  1.00  0.00    -0.279 A  
HETATM   11  C   UNL     1     -11.262   6.628  72.594  1.00  0.00    -0.249 C  
HETATM   12  C   UNL     1     -11.117  10.592  70.102  1.00  0.00    -0.369 A  
HETATM   13  C   UNL     1     -11.242   6.218  70.139  1.00  0.00    -0.470 C  
HETATM   14  O   UNL     1     -10.774   7.634  73.349  1.00  0.00    -0.379 OA 
HETATM   15  O   UNL     1     -11.173   5.464  72.973  1.00  0.00    -0.288 OA 
ENDBRANCH   4   5
TORSDOF 1
ENDMDL
MODEL       19
REMARK 921   NORMALIZED FREE ENERGY PREDICTED BY IDOCK:   -4.79 KCAL/MOL
REMARK 922        TOTAL FREE ENERGY PREDICTED BY IDOCK:   -5.42 KCAL/MOL
REMARK 923 INTER-LIGAND FREE ENERGY PREDICTED BY IDOCK:   -5.10 KCAL/MOL
REMARK 924 INTRA-LIGAND FREE ENERGY PREDICTED BY IDOCK:   -0.32 KCAL/MOL
REMARK 927      BINDING AFFINITY PREDICTED BY RF-SCORE:    0.00 PKD
ROOT
HETATM    1  C   UNL     1      -8.612  11.611  66.720  1.00  0.00    -0.180 C  
HETATM    2  C   UNL     1      -9.851  11.070  66.003  1.00  0.00    -0.273 C  
HETATM    3  C   UNL     1      -9.436   9.990  65.000  1.00  0.00    -0.339 C  
HETATM    4  C   UNL     1     -10.895  10.506  66.990  1.00  0.00    -0.288 C  
ENDROOT
BRANCH   4   5
HETATM    5  C   UNL     1     -11.416  11.530  67.974  1.00  0.00    -0.381 A  
HETATM    6  C   UNL     1     -11.866  12.780  67.539  1.00  0.00    -0.402 A  
HETATM    7  C   UNL     1     -12.285  13.744  68.459  1.00  0.00    -0.194 A  
HETATM    8  C   UNL     1     -12.275  13.477  69.838  1.00  0.00    -0.356 A  
HETATM    9  C   UNL     1     -12.662  14.591  70.808  1.00  0.00    -0.425 C  
HETATM   10  C   UNL     1     -11.853  12.212  70.267  1.00  0.00    -0.339 A  
HETATM   11  C   UNL     1     -11.535  15.562  71.165  1.00  0.00    -0.390 C  
HETATM   12  C   UNL     1     -11.434  11.248  69.344  1.00  0.00    -0.370 A  
HETATM   13  C   UNL     1     -13.304  14.084  72.103  1.00  0.00    -0.545 C  
HETATM   14  O   UNL     1     -10.314  15.303  70.651  1.00  0.00    -0.161 OA 
HETATM   15  O   UNL     1     -11.713  16.539  71.888  1.00  0.00    -0.458 OA 
ENDBRANCH   4   5
TORSDOF 1
ENDMDL
MODEL       20
REMARK 921   NORMALIZED FREE ENERGY PREDICTED BY IDOCK:   -4.79 KCAL/MOL
REMARK 922        TOTAL FREE ENERGY PREDICTED BY IDOCK:   -5.42 KCAL/MOL
REMARK 923 INTER-LIGAND FREE ENERGY PREDICTED BY IDOCK:   -5.06 KCAL/MOL
REMARK 924 INTRA-LIGAND FREE ENERGY PREDICTED BY IDOCK:   -0.35 KCAL/MOL
REMARK 927      BINDING AFFINITY PREDICTED BY RF-SCORE:    0.00 PKD
ROOT
HETATM    1  C   UNL     1      -9.742  14.423  66.795  1.00  0.00    -0.278 C  
HETATM    2  C   UNL     1     -11.084  15.018  67.229  1.00  0.00    -0.334 C  
HETATM    3  C   UNL     1     -12.009  13.901  67.716  1.00  0.00    -0.390 C  
HETATM    4  C   UNL     1     -10.917  16.090  68.328  1.00  0.00    -0.335 C  
ENDROOT
BRANCH   4   5
HETATM    5  C   UNL     1     -10.073  17.270  67.902  1.00  0.00    -0.317 A  
HETATM    6  C   UNL     1     -10.488  18.114  66.867  1.00  0.00    -0.372 A  
HETATM    7  C   UNL     1      -9.673  19.164  66.436  1.00  0.00    -0.412 A  
HETATM    8  C   UNL     1      -8.426  19.402  67.038  1.00  0.00    -0.313 A  
HETATM    9  C   UNL     1      -7.536  20.509  66.477  1.00  0.00    -0.232 C  
HETATM   10  C   UNL     1      -8.029  18.573  68.095  1.00  0.00    -0.308 A  
HETATM   11  C   UNL     1      -6.682  20.107  65.273  1.00  0.00    -0.302 C  
HETATM   12  C   UNL     1      -8.847  17.523  68.525  1.00  0.00    -0.282 A  
HETATM   13  C   UNL     1      -6.631  21.162  67.526  1.00  0.00    -0.428 C  
HETATM   14  O   UNL     1      -6.747  18.819  64.875  1.00  0.00    -0.508 OA 
HETATM   15  O   UNL     1      -5.960  20.906  64.681  1.00  0.00    -0.254 OA 
ENDBRANCH   4   5
TORSDOF 1
ENDMDL
MODEL       21
REMARK 921   NORMALIZED FREE ENERGY PREDICTED BY IDOCK:   -4.78 KCAL/MOL
REMARK 922        TOTAL FREE ENERGY PREDICTED BY IDOCK:   -5.40 KCAL/MOL
REMARK 923 INTER-LIGAND FREE ENERGY PREDICTED BY IDOCK:   -5.63 KCAL/MOL
REMARK 924 INTRA-LIGAND FREE ENERGY PREDICTED BY IDOCK:    0.22 KCAL/MOL
REMARK 927      BINDING AFFINITY PREDICTED BY RF-SCORE:    0.00 PKD
ROOT
HETATM    1  C   UNL     1     -11.427   9.238  71.731  1.00  0.00    -0.448 C  
HETATM    2  C   UNL     1     -12.888   9.600  71.452  1.00  0.00    -0.471 C  
HETATM    3  C   UNL     1     -13.799   8.852  72.429  1.00  0.00    -0.518 C  
HETATM    4  C   UNL     1     -13.141  11.120  71.546  1.00  0.00    -0.489 C  
ENDROOT
BRANCH   4   5
HETATM    5  C   UNL     1     -12.331  11.932  70.561  1.00  0.00    -0.372 A  
HETATM    6  C   UNL     1     -12.330  13.329  70.610  1.00  0.00    -0.416 A  
HETATM    7  C   UNL     1     -11.631  14.074  69.657  1.00  0.00    -0.348 A  
HETATM    8  C   UNL     1     -10.906  13.438  68.636  1.00  0.00    -0.287 A  
HETATM    9  C   UNL     1     -10.228  14.295  67.569  1.00  0.00    -0.240 C  
HETATM   10  C   UNL     1     -10.884  12.038  68.609  1.00  0.00    -0.273 A  
HETATM   11  C   UNL     1     -11.133  14.732  66.415  1.00  0.00    -0.340 C  
HETATM   12  C   UNL     1     -11.584  11.294  69.564  1.00  0.00    -0.398 A  
HETATM   13  C   UNL     1      -8.959  13.665  66.988  1.00  0.00    -0.244 C  
HETATM   14  O   UNL     1     -12.400  14.268  66.418  1.00  0.00    -0.448 OA 
HETATM   15  O   UNL     1     -10.741  15.470  65.515  1.00  0.00    -0.337 OA 
ENDBRANCH   4   5
TORSDOF 1
ENDMDL
MODEL       22
REMARK 921   NORMALIZED FREE ENERGY PREDICTED BY IDOCK:   -4.74 KCAL/MOL
REMARK 922        TOTAL FREE ENERGY PREDICTED BY IDOCK:   -5.36 KCAL/MOL
REMARK 923 INTER-LIGAND FREE ENERGY PREDICTED BY IDOCK:   -5.18 KCAL/MOL
REMARK 924 INTRA-LIGAND FREE ENERGY PREDICTED BY IDOCK:   -0.19 KCAL/MOL
REMARK 927      BINDING AFFINITY PREDICTED BY RF-SCORE:    0.00 PKD
ROOT
HETATM    1  C   UNL     1     -11.423  10.580  68.985  1.00  0.00    -0.304 C  
HETATM    2  C   UNL     1     -10.409  10.238  67.890  1.00  0.00    -0.234 C  
HETATM    3  C   UNL     1     -10.445   8.734  67.609  1.00  0.00    -0.310 C  
HETATM    4  C   UNL     1     -10.667  11.029  66.590  1.00  0.00    -0.305 C  
ENDROOT
BRANCH   4   5
HETATM    5  C   UNL     1     -10.577  12.528  66.765  1.00  0.00    -0.253 A  
HETATM    6  C   UNL     1     -11.727  13.298  66.965  1.00  0.00    -0.439 A  
HETATM    7  C   UNL     1     -11.643  14.690  67.062  1.00  0.00    -0.385 A  
HETATM    8  C   UNL     1     -10.404  15.345  66.971  1.00  0.00    -0.280 A  
HETATM    9  C   UNL     1     -10.373  16.871  66.998  1.00  0.00    -0.307 C  
HETATM   10  C   UNL     1      -9.251  14.567  66.802  1.00  0.00    -0.286 A  
HETATM   11  C   UNL     1     -10.633  17.550  65.652  1.00  0.00    -0.140 C  
HETATM   12  C   UNL     1      -9.338  13.174  66.706  1.00  0.00    -0.244 A  
HETATM   13  C   UNL     1      -9.090  17.450  67.602  1.00  0.00    -0.234 C  
HETATM   14  O   UNL     1     -10.793  16.747  64.579  1.00  0.00    -0.886 OA 
HETATM   15  O   UNL     1     -10.695  18.771  65.532  1.00  0.00    -0.569 OA 
ENDBRANCH   4   5
TORSDOF 1
ENDMDL
MODEL       23
REMARK 921   NORMALIZED FREE ENERGY PREDICTED BY IDOCK:   -4.71 KCAL/MOL
REMARK 922        TOTAL FREE ENERGY PREDICTED BY IDOCK:   -5.33 KCAL/MOL
REMARK 923 INTER-LIGAND FREE ENERGY PREDICTED BY IDOCK:   -4.97 KCAL/MOL
REMARK 924 INTRA-LIGAND FREE ENERGY PREDICTED BY IDOCK:   -0.36 KCAL/MOL
REMARK 927      BINDING AFFINITY PREDICTED BY RF-SCORE:    0.00 PKD
ROOT
HETATM    1  C   UNL     1     -12.444  11.441  70.730  1.00  0.00    -0.460 C  
HETATM    2  C   UNL     1     -11.316  10.511  70.276  1.00  0.00    -0.407 C  
HETATM    3  C   UNL     1     -11.525   9.118  70.875  1.00  0.00    -0.357 C  
HETATM    4  C   UNL     1     -11.219  10.420  68.738  1.00  0.00    -0.295 C  
ENDROOT
BRANCH   4   5
HETATM    5  C   UNL     1     -10.941  11.747  68.068  1.00  0.00    -0.274 A  
HETATM    6  C   UNL     1      -9.759  12.448  68.326  1.00  0.00    -0.218 A  
HETATM    7  C   UNL     1      -9.536  13.703  67.753  1.00  0.00    -0.224 A  
HETATM    8  C   UNL     1     -10.488  14.283  66.898  1.00  0.00    -0.272 A  
HETATM    9  C   UNL     1     -10.237  15.692  66.364  1.00  0.00    -0.300 C  
HETATM   10  C   UNL     1     -11.657  13.563  66.617  1.00  0.00    -0.396 A  
HETATM   11  C   UNL     1     -10.649  16.826  67.305  1.00  0.00    -0.275 C  
HETATM   12  C   UNL     1     -11.876  12.307  67.191  1.00  0.00    -0.328 A  
HETATM   13  C   UNL     1     -10.857  15.946  64.986  1.00  0.00    -0.444 C  
HETATM   14  O   UNL     1     -11.244  16.477  68.464  1.00  0.00    -0.360 OA 
HETATM   15  O   UNL     1     -10.456  18.008  67.034  1.00  0.00    -0.362 OA 
ENDBRANCH   4   5
TORSDOF 1
ENDMDL
MODEL       24
REMARK 921   NORMALIZED FREE ENERGY PREDICTED BY IDOCK:   -4.71 KCAL/MOL
REMARK 922        TOTAL FREE ENERGY PREDICTED BY IDOCK:   -5.33 KCAL/MOL
REMARK 923 INTER-LIGAND FREE ENERGY PREDICTED BY IDOCK:   -4.98 KCAL/MOL
REMARK 924 INTRA-LIGAND FREE ENERGY PREDICTED BY IDOCK:   -0.35 KCAL/MOL
REMARK 927      BINDING AFFINITY PREDICTED BY RF-SCORE:    0.00 PKD
ROOT
HETATM    1  C   UNL     1     -10.287   8.320  68.014  1.00  0.00    -0.268 C  
HETATM    2  C   UNL     1     -10.569   8.910  69.398  1.00  0.00    -0.226 C  
HETATM    3  C   UNL     1     -10.171   7.902  70.478  1.00  0.00    -0.198 C  
HETATM    4  C   UNL     1      -9.834  10.249  69.622  1.00  0.00    -0.230 C  
ENDROOT
BRANCH   4   5
HETATM    5  C   UNL     1     -10.225  11.328  68.638  1.00  0.00    -0.214 A  
HETATM    6  C   UNL     1     -11.527  11.837  68.609  1.00  0.00    -0.346 A  
HETATM    7  C   UNL     1     -11.898  12.788  67.655  1.00  0.00    -0.396 A  
HETATM    8  C   UNL     1     -10.971  13.262  66.712  1.00  0.00    -0.302 A  
HETATM    9  C   UNL     1     -11.445  14.238  65.638  1.00  0.00    -0.329 C  
HETATM   10  C   UNL     1      -9.659  12.773  66.765  1.00  0.00    -0.244 A  
HETATM   11  C   UNL     1     -12.096  13.590  64.414  1.00  0.00    -0.420 C  
HETATM   12  C   UNL     1      -9.290  11.821  67.721  1.00  0.00    -0.181 A  
HETATM   13  C   UNL     1     -10.358  15.207  65.162  1.00  0.00    -0.416 C  
HETATM   14  O   UNL     1     -12.123  12.241  64.373  1.00  0.00    -0.394 OA 
HETATM   15  O   UNL     1     -12.575  14.251  63.496  1.00  0.00    -0.814 OA 
ENDBRANCH   4   5
TORSDOF 1
ENDMDL
MODEL       25
REMARK 921   NORMALIZED FREE ENERGY PREDICTED BY IDOCK:   -4.66 KCAL/MOL
REMARK 922        TOTAL FREE ENERGY PREDICTED BY IDOCK:   -5.28 KCAL/MOL
REMARK 923 INTER-LIGAND FREE ENERGY PREDICTED BY IDOCK:   -4.96 KCAL/MOL
REMARK 924 INTRA-LIGAND FREE ENERGY PREDICTED BY IDOCK:   -0.32 KCAL/MOL
REMARK 927      BINDING AFFINITY PREDICTED BY RF-SCORE:    0.00 PKD
ROOT
HETATM    1  C   UNL     1     -10.318   8.429  68.122  1.00  0.00    -0.255 C  
HETATM    2  C   UNL     1     -10.639   9.272  69.359  1.00  0.00    -0.234 C  
HETATM    3  C   UNL     1     -10.325   8.469  70.624  1.00  0.00    -0.232 C  
HETATM    4  C   UNL     1      -9.866  10.608  69.371  1.00  0.00    -0.164 C  
ENDROOT
BRANCH   4   5
HETATM    5  C   UNL     1     -10.175  11.497  68.188  1.00  0.00    -0.205 A  
HETATM    6  C   UNL     1      -9.150  12.002  67.382  1.00  0.00    -0.178 A  
HETATM    7  C   UNL     1      -9.438  12.875  66.329  1.00  0.00    -0.205 A  
HETATM    8  C   UNL     1     -10.761  13.256  66.050  1.00  0.00    -0.286 A  
HETATM    9  C   UNL     1     -11.017  14.277  64.944  1.00  0.00    -0.413 C  
HETATM   10  C   UNL     1     -11.787  12.723  66.841  1.00  0.00    -0.440 A  
HETATM   11  C   UNL     1     -10.869  15.741  65.364  1.00  0.00    -0.364 C  
HETATM   12  C   UNL     1     -11.497  11.849  67.893  1.00  0.00    -0.385 A  
HETATM   13  C   UNL     1     -12.367  14.100  64.243  1.00  0.00    -0.398 C  
HETATM   14  O   UNL     1     -10.600  15.983  66.664  1.00  0.00    -0.317 OA 
HETATM   15  O   UNL     1     -10.989  16.669  64.569  1.00  0.00    -0.885 OA 
ENDBRANCH   4   5
TORSDOF 1
ENDMDL
MODEL       26
REMARK 921   NORMALIZED FREE ENERGY PREDICTED BY IDOCK:   -4.64 KCAL/MOL
REMARK 922        TOTAL FREE ENERGY PREDICTED BY IDOCK:   -5.26 KCAL/MOL
REMARK 923 INTER-LIGAND FREE ENERGY PREDICTED BY IDOCK:   -5.29 KCAL/MOL
REMARK 924 INTRA-LIGAND FREE ENERGY PREDICTED BY IDOCK:    0.03 KCAL/MOL
REMARK 927      BINDING AFFINITY PREDICTED BY RF-SCORE:    0.00 PKD
ROOT
HETATM    1  C   UNL     1     -10.850  16.328  69.978  1.00  0.00    -0.329 C  
HETATM    2  C   UNL     1     -11.385  15.305  70.983  1.00  0.00    -0.393 C  
HETATM    3  C   UNL     1     -11.876  16.027  72.240  1.00  0.00    -0.628 C  
HETATM    4  C   UNL     1     -12.517  14.441  70.389  1.00  0.00    -0.420 C  
ENDROOT
BRANCH   4   5
HETATM    5  C   UNL     1     -12.094  13.634  69.182  1.00  0.00    -0.361 A  
HETATM    6  C   UNL     1     -11.778  12.277  69.299  1.00  0.00    -0.388 A  
HETATM    7  C   UNL     1     -11.328  11.554  68.192  1.00  0.00    -0.367 A  
HETATM    8  C   UNL     1     -11.192  12.168  66.936  1.00  0.00    -0.375 A  
HETATM    9  C   UNL     1     -10.616  11.358  65.777  1.00  0.00    -0.315 C  
HETATM   10  C   UNL     1     -11.539  13.520  66.816  1.00  0.00    -0.397 A  
HETATM   11  C   UNL     1      -9.088  11.302  65.720  1.00  0.00    -0.203 C  
HETATM   12  C   UNL     1     -11.991  14.242  67.926  1.00  0.00    -0.364 A  
HETATM   13  C   UNL     1     -11.144  11.786  64.404  1.00  0.00    -0.396 C  
HETATM   14  O   UNL     1      -8.411  12.018  66.642  1.00  0.00    -0.180 OA 
HETATM   15  O   UNL     1      -8.484  10.643  64.877  1.00  0.00    -0.172 OA 
ENDBRANCH   4   5
TORSDOF 1
ENDMDL
MODEL       27
REMARK 921   NORMALIZED FREE ENERGY PREDICTED BY IDOCK:   -4.64 KCAL/MOL
REMARK 922        TOTAL FREE ENERGY PREDICTED BY IDOCK:   -5.26 KCAL/MOL
REMARK 923 INTER-LIGAND FREE ENERGY PREDICTED BY IDOCK:   -4.91 KCAL/MOL
REMARK 924 INTRA-LIGAND FREE ENERGY PREDICTED BY IDOCK:   -0.34 KCAL/MOL
REMARK 927      BINDING AFFINITY PREDICTED BY RF-SCORE:    0.00 PKD
ROOT
HETATM    1  C   UNL     1      -7.801  17.387  67.425  1.00  0.00    -0.212 C  
HETATM    2  C   UNL     1      -9.047  17.902  68.148  1.00  0.00    -0.278 C  
HETATM    3  C   UNL     1      -8.777  19.303  68.704  1.00  0.00    -0.402 C  
HETATM    4  C   UNL     1     -10.287  17.924  67.230  1.00  0.00    -0.374 C  
ENDROOT
BRANCH   4   5
HETATM    5  C   UNL     1     -10.669  16.562  66.694  1.00  0.00    -0.150 A  
HETATM    6  C   UNL     1     -11.126  15.556  67.549  1.00  0.00    -0.305 A  
HETATM    7  C   UNL     1     -11.416  14.281  67.056  1.00  0.00    -0.377 A  
HETATM    8  C   UNL     1     -11.265  13.985  65.691  1.00  0.00    -0.310 A  
HETATM    9  C   UNL     1     -11.513  12.555  65.215  1.00  0.00    -0.374 C  
HETATM   10  C   UNL     1     -10.837  15.005  64.833  1.00  0.00    -0.430 A  
HETATM   11  C   UNL     1     -10.327  11.602  65.373  1.00  0.00    -0.267 C  
HETATM   12  C   UNL     1     -10.548  16.281  65.329  1.00  0.00    -0.357 A  
HETATM   13  C   UNL     1     -12.026  12.467  63.774  1.00  0.00    -0.600 C  
HETATM   14  O   UNL     1      -9.177  12.126  65.846  1.00  0.00    -0.182 OA 
HETATM   15  O   UNL     1     -10.397  10.410  65.087  1.00  0.00    -0.295 OA 
ENDBRANCH   4   5
TORSDOF 1
ENDMDL
MODEL       28
REMARK 921   NORMALIZED FREE ENERGY PREDICTED BY IDOCK:   -4.63 KCAL/MOL
REMARK 922        TOTAL FREE ENERGY PREDICTED BY IDOCK:   -5.25 KCAL/MOL
REMARK 923 INTER-LIGAND FREE ENERGY PREDICTED BY IDOCK:   -5.80 KCAL/MOL
REMARK 924 INTRA-LIGAND FREE ENERGY PREDICTED BY IDOCK:    0.55 KCAL/MOL
REMARK 927      BINDING AFFINITY PREDICTED BY RF-SCORE:    0.00 PKD
ROOT
HETATM    1  C   UNL     1     -12.792  15.184  70.719  1.00  0.00    -0.473 C  
HETATM    2  C   UNL     1     -12.919  14.697  72.165  1.00  0.00    -0.421 C  
HETATM    3  C   UNL     1     -13.643  15.754  73.002  1.00  0.00    -0.638 C  
HETATM    4  C   UNL     1     -13.657  13.344  72.262  1.00  0.00    -0.703 C  
ENDROOT
BRANCH   4   5
HETATM    5  C   UNL     1     -12.966  12.222  71.519  1.00  0.00    -0.390 A  
HETATM    6  C   UNL     1     -13.145  10.890  71.904  1.00  0.00    -0.537 A  
HETATM    7  C   UNL     1     -12.454   9.864  71.254  1.00  0.00    -0.479 A  
HETATM    8  C   UNL     1     -11.575  10.145  70.195  1.00  0.00    -0.350 A  
HETATM    9  C   UNL     1     -10.780   8.999  69.572  1.00  0.00    -0.215 C  
HETATM   10  C   UNL     1     -11.424  11.478  69.792  1.00  0.00    -0.362 A  
HETATM   11  C   UNL     1      -9.492   8.626  70.310  1.00  0.00    -0.167 C  
HETATM   12  C   UNL     1     -12.117  12.503  70.444  1.00  0.00    -0.380 A  
HETATM   13  C   UNL     1     -10.454   9.210  68.090  1.00  0.00    -0.260 C  
HETATM   14  O   UNL     1      -9.157   9.377  71.380  1.00  0.00    -0.285 OA 
HETATM   15  O   UNL     1      -8.781   7.689  69.959  1.00  0.00    -0.140 OA 
ENDBRANCH   4   5
TORSDOF 1
ENDMDL
MODEL       29
REMARK 921   NORMALIZED FREE ENERGY PREDICTED BY IDOCK:   -4.62 KCAL/MOL
REMARK 922        TOTAL FREE ENERGY PREDICTED BY IDOCK:   -5.23 KCAL/MOL
REMARK 923 INTER-LIGAND FREE ENERGY PREDICTED BY IDOCK:   -5.03 KCAL/MOL
REMARK 924 INTRA-LIGAND FREE ENERGY PREDICTED BY IDOCK:   -0.20 KCAL/MOL
REMARK 927      BINDING AFFINITY PREDICTED BY RF-SCORE:    0.00 PKD
ROOT
HETATM    1  C   UNL     1      -9.352  12.268  67.514  1.00  0.00    -0.183 C  
HETATM    2  C   UNL     1     -10.876  12.203  67.378  1.00  0.00    -0.286 C  
HETATM    3  C   UNL     1     -11.381  10.853  67.893  1.00  0.00    -0.380 C  
HETATM    4  C   UNL     1     -11.577  13.355  68.128  1.00  0.00    -0.376 C  
ENDROOT
BRANCH   4   5
HETATM    5  C   UNL     1     -11.188  14.729  67.630  1.00  0.00    -0.332 A  
HETATM    6  C   UNL     1     -10.946  14.959  66.272  1.00  0.00    -0.338 A  
HETATM    7  C   UNL     1     -10.524  16.215  65.828  1.00  0.00    -0.384 A  
HETATM    8  C   UNL     1     -10.345  17.276  66.731  1.00  0.00    -0.308 A  
HETATM    9  C   UNL     1      -9.803  18.605  66.209  1.00  0.00    -0.364 C  
HETATM   10  C   UNL     1     -10.619  17.050  68.086  1.00  0.00    -0.369 A  
HETATM   11  C   UNL     1      -8.279  18.682  66.088  1.00  0.00    -0.163 C  
HETATM   12  C   UNL     1     -11.042  15.792  68.528  1.00  0.00    -0.335 A  
HETATM   13  C   UNL     1     -10.295  19.823  66.998  1.00  0.00    -0.593 C  
HETATM   14  O   UNL     1      -7.574  17.612  66.511  1.00  0.00    -0.220 OA 
HETATM   15  O   UNL     1      -7.704  19.666  65.630  1.00  0.00    -0.402 OA 
ENDBRANCH   4   5
TORSDOF 1
ENDMDL
MODEL       30
REMARK 921   NORMALIZED FREE ENERGY PREDICTED BY IDOCK:   -4.59 KCAL/MOL
REMARK 922        TOTAL FREE ENERGY PREDICTED BY IDOCK:   -5.20 KCAL/MOL
REMARK 923 INTER-LIGAND FREE ENERGY PREDICTED BY IDOCK:   -4.95 KCAL/MOL
REMARK 924 INTRA-LIGAND FREE ENERGY PREDICTED BY IDOCK:   -0.25 KCAL/MOL
REMARK 927      BINDING AFFINITY PREDICTED BY RF-SCORE:    0.00 PKD
ROOT
HETATM    1  C   UNL     1     -11.613  10.847  68.286  1.00  0.00    -0.335 C  
HETATM    2  C   UNL     1     -11.444  11.711  69.538  1.00  0.00    -0.371 C  
HETATM    3  C   UNL     1     -11.905  13.140  69.244  1.00  0.00    -0.377 C  
HETATM    4  C   UNL     1     -12.216  11.141  70.748  1.00  0.00    -0.484 C  
ENDROOT
BRANCH   4   5
HETATM    5  C   UNL     1     -11.770   9.754  71.153  1.00  0.00    -0.465 A  
HETATM    6  C   UNL     1     -10.415   9.411  71.170  1.00  0.00    -0.392 A  
HETATM    7  C   UNL     1     -10.014   8.109  71.484  1.00  0.00    -0.237 A  
HETATM    8  C   UNL     1     -10.961   7.121  71.799  1.00  0.00    -0.258 A  
HETATM    9  C   UNL     1     -10.480   5.693  72.052  1.00  0.00    -0.270 C  
HETATM   10  C   UNL     1     -12.316   7.477  71.811  1.00  0.00    -0.357 A  
HETATM   11  C   UNL     1     -10.271   4.846  70.796  1.00  0.00    -0.206 C  
HETATM   12  C   UNL     1     -12.714   8.780  71.497  1.00  0.00    -0.372 A  
HETATM   13  C   UNL     1     -11.361   4.912  73.032  1.00  0.00    -0.354 C  
HETATM   14  O   UNL     1     -10.592   5.410  69.613  1.00  0.00    -0.298 OA 
HETATM   15  O   UNL     1      -9.833   3.699  70.840  1.00  0.00    -0.174 OA 
ENDBRANCH   4   5
TORSDOF 1
ENDMDL
MODEL       31
REMARK 921   NORMALIZED FREE ENERGY PREDICTED BY IDOCK:   -4.58 KCAL/MOL
REMARK 922        TOTAL FREE ENERGY PREDICTED BY IDOCK:   -5.19 KCAL/MOL
REMARK 923 INTER-LIGAND FREE ENERGY PREDICTED BY IDOCK:   -5.32 KCAL/MOL
REMARK 924 INTRA-LIGAND FREE ENERGY PREDICTED BY IDOCK:    0.13 KCAL/MOL
REMARK 927      BINDING AFFINITY PREDICTED BY RF-SCORE:    0.00 PKD
ROOT
HETATM    1  C   UNL     1     -11.996  12.445  69.062  1.00  0.00    -0.291 C  
HETATM    2  C   UNL     1     -12.047  12.803  70.550  1.00  0.00    -0.369 C  
HETATM    3  C   UNL     1     -12.461  14.267  70.712  1.00  0.00    -0.428 C  
HETATM    4  C   UNL     1     -13.007  11.887  71.337  1.00  0.00    -0.385 C  
ENDROOT
BRANCH   4   5
HETATM    5  C   UNL     1     -12.627  10.424  71.289  1.00  0.00    -0.525 A  
HETATM    6  C   UNL     1     -13.522   9.435  71.708  1.00  0.00    -0.485 A  
HETATM    7  C   UNL     1     -13.141   8.091  71.721  1.00  0.00    -0.360 A  
HETATM    8  C   UNL     1     -11.857   7.702  71.304  1.00  0.00    -0.316 A  
HETATM    9  C   UNL     1     -11.459   6.232  71.416  1.00  0.00    -0.352 C  
HETATM   10  C   UNL     1     -10.975   8.693  70.855  1.00  0.00    -0.301 A  
HETATM   11  C   UNL     1     -10.952   5.799  72.793  1.00  0.00    -0.272 C  
HETATM   12  C   UNL     1     -11.359  10.038  70.843  1.00  0.00    -0.439 A  
HETATM   13  C   UNL     1     -10.446   5.786  70.356  1.00  0.00    -0.342 C  
HETATM   14  O   UNL     1     -10.844   6.757  73.737  1.00  0.00    -0.269 OA 
HETATM   15  O   UNL     1     -10.650   4.636  73.048  1.00  0.00    -0.187 OA 
ENDBRANCH   4   5
TORSDOF 1
ENDMDL
MODEL       32
REMARK 921   NORMALIZED FREE ENERGY PREDICTED BY IDOCK:   -4.57 KCAL/MOL
REMARK 922        TOTAL FREE ENERGY PREDICTED BY IDOCK:   -5.18 KCAL/MOL
REMARK 923 INTER-LIGAND FREE ENERGY PREDICTED BY IDOCK:   -4.90 KCAL/MOL
REMARK 924 INTRA-LIGAND FREE ENERGY PREDICTED BY IDOCK:   -0.28 KCAL/MOL
REMARK 927      BINDING AFFINITY PREDICTED BY RF-SCORE:    0.00 PKD
ROOT
HETATM    1  C   UNL     1     -10.422   9.044  71.442  1.00  0.00    -0.395 C  
HETATM    2  C   UNL     1     -11.880   8.756  71.076  1.00  0.00    -0.315 C  
HETATM    3  C   UNL     1     -12.408   7.604  71.934  1.00  0.00    -0.337 C  
HETATM    4  C   UNL     1     -12.780  10.000  71.242  1.00  0.00    -0.500 C  
ENDROOT
BRANCH   4   5
HETATM    5  C   UNL     1     -12.370  11.166  70.371  1.00  0.00    -0.430 A  
HETATM    6  C   UNL     1     -12.029  10.974  69.029  1.00  0.00    -0.364 A  
HETATM    7  C   UNL     1     -11.590  12.046  68.247  1.00  0.00    -0.394 A  
HETATM    8  C   UNL     1     -11.492  13.339  68.787  1.00  0.00    -0.346 A  
HETATM    9  C   UNL     1     -10.928  14.461  67.918  1.00  0.00    -0.272 C  
HETATM   10  C   UNL     1     -11.866  13.532  70.124  1.00  0.00    -0.348 A  
HETATM   11  C   UNL     1      -9.401  14.550  67.882  1.00  0.00    -0.201 C  
HETATM   12  C   UNL     1     -12.305  12.458  70.904  1.00  0.00    -0.358 A  
HETATM   13  C   UNL     1     -11.494  15.845  68.254  1.00  0.00    -0.320 C  
HETATM   14  O   UNL     1      -8.717  13.687  68.663  1.00  0.00    -0.134 OA 
HETATM   15  O   UNL     1      -8.805  15.364  67.183  1.00  0.00    -0.188 OA 
ENDBRANCH   4   5
TORSDOF 1
ENDMDL
MODEL       33
REMARK 921   NORMALIZED FREE ENERGY PREDICTED BY IDOCK:   -4.57 KCAL/MOL
REMARK 922        TOTAL FREE ENERGY PREDICTED BY IDOCK:   -5.18 KCAL/MOL
REMARK 923 INTER-LIGAND FREE ENERGY PREDICTED BY IDOCK:   -4.83 KCAL/MOL
REMARK 924 INTRA-LIGAND FREE ENERGY PREDICTED BY IDOCK:   -0.36 KCAL/MOL
REMARK 927      BINDING AFFINITY PREDICTED BY RF-SCORE:    0.00 PKD
ROOT
HETATM    1  C   UNL     1     -10.002  19.367  66.307  1.00  0.00    -0.509 C  
HETATM    2  C   UNL     1      -8.670  19.332  67.060  1.00  0.00    -0.319 C  
HETATM    3  C   UNL     1      -8.093  20.747  67.152  1.00  0.00    -0.244 C  
HETATM    4  C   UNL     1      -8.814  18.723  68.471  1.00  0.00    -0.378 C  
ENDROOT
BRANCH   4   5
HETATM    5  C   UNL     1      -9.311  17.295  68.467  1.00  0.00    -0.276 A  
HETATM    6  C   UNL     1      -8.627  16.298  67.765  1.00  0.00    -0.175 A  
HETATM    7  C   UNL     1      -9.127  14.994  67.713  1.00  0.00    -0.180 A  
HETATM    8  C   UNL     1     -10.319  14.653  68.374  1.00  0.00    -0.237 A  
HETATM    9  C   UNL     1     -10.869  13.237  68.219  1.00  0.00    -0.276 C  
HETATM   10  C   UNL     1     -10.984  15.648  69.103  1.00  0.00    -0.259 A  
HETATM   11  C   UNL     1     -11.704  12.998  66.959  1.00  0.00    -0.383 C  
HETATM   12  C   UNL     1     -10.481  16.952  69.153  1.00  0.00    -0.335 A  
HETATM   13  C   UNL     1     -11.662  12.748  69.435  1.00  0.00    -0.380 C  
HETATM   14  O   UNL     1     -11.926  14.062  66.159  1.00  0.00    -0.380 OA 
HETATM   15  O   UNL     1     -12.163  11.896  66.673  1.00  0.00    -0.493 OA 
ENDBRANCH   4   5
TORSDOF 1
ENDMDL
MODEL       34
REMARK 921   NORMALIZED FREE ENERGY PREDICTED BY IDOCK:   -4.57 KCAL/MOL
REMARK 922        TOTAL FREE ENERGY PREDICTED BY IDOCK:   -5.18 KCAL/MOL
REMARK 923 INTER-LIGAND FREE ENERGY PREDICTED BY IDOCK:   -4.86 KCAL/MOL
REMARK 924 INTRA-LIGAND FREE ENERGY PREDICTED BY IDOCK:   -0.32 KCAL/MOL
REMARK 927      BINDING AFFINITY PREDICTED BY RF-SCORE:    0.00 PKD
ROOT
HETATM    1  C   UNL     1      -8.370   3.799  71.846  1.00  0.00    -0.090 C  
HETATM    2  C   UNL     1      -9.801   3.259  71.884  1.00  0.00    -0.238 C  
HETATM    3  C   UNL     1      -9.784   1.787  72.303  1.00  0.00    -0.178 C  
HETATM    4  C   UNL     1     -10.707   4.072  72.834  1.00  0.00    -0.217 C  
ENDROOT
BRANCH   4   5
HETATM    5  C   UNL     1     -10.838   5.528  72.448  1.00  0.00    -0.301 A  
HETATM    6  C   UNL     1     -10.580   6.543  73.374  1.00  0.00    -0.309 A  
HETATM    7  C   UNL     1     -10.765   7.885  73.029  1.00  0.00    -0.408 A  
HETATM    8  C   UNL     1     -11.203   8.244  71.743  1.00  0.00    -0.346 A  
HETATM    9  C   UNL     1     -11.471   9.717  71.441  1.00  0.00    -0.455 C  
HETATM   10  C   UNL     1     -11.429   7.225  70.809  1.00  0.00    -0.328 A  
HETATM   11  C   UNL     1     -12.851  10.226  71.862  1.00  0.00    -0.426 C  
HETATM   12  C   UNL     1     -11.242   5.884  71.156  1.00  0.00    -0.281 A  
HETATM   13  C   UNL     1     -11.232  10.097  69.976  1.00  0.00    -0.361 C  
HETATM   14  O   UNL     1     -13.705   9.323  72.387  1.00  0.00    -0.465 OA 
HETATM   15  O   UNL     1     -13.186  11.400  71.734  1.00  0.00    -0.458 OA 
ENDBRANCH   4   5
TORSDOF 1
ENDMDL
MODEL       35
REMARK 921   NORMALIZED FREE ENERGY PREDICTED BY IDOCK:   -4.56 KCAL/MOL
REMARK 922        TOTAL FREE ENERGY PREDICTED BY IDOCK:   -5.18 KCAL/MOL
REMARK 923 INTER-LIGAND FREE ENERGY PREDICTED BY IDOCK:   -4.82 KCAL/MOL
REMARK 924 INTRA-LIGAND FREE ENERGY PREDICTED BY IDOCK:   -0.36 KCAL/MOL
REMARK 927      BINDING AFFINITY PREDICTED BY RF-SCORE:    0.00 PKD
ROOT
HETATM    1  C   UNL     1     -11.395   6.722  69.743  1.00  0.00    -0.350 C  
HETATM    2  C   UNL     1     -11.554   7.122  71.211  1.00  0.00    -0.327 C  
HETATM    3  C   UNL     1     -11.429   5.882  72.099  1.00  0.00    -0.333 C  
HETATM    4  C   UNL     1     -10.524   8.190  71.639  1.00  0.00    -0.288 C  
ENDROOT
BRANCH   4   5
HETATM    5  C   UNL     1     -10.627   9.480  70.858  1.00  0.00    -0.395 A  
HETATM    6  C   UNL     1     -11.796  10.245  70.886  1.00  0.00    -0.473 A  
HETATM    7  C   UNL     1     -11.908  11.403  70.111  1.00  0.00    -0.440 A  
HETATM    8  C   UNL     1     -10.846  11.830  69.297  1.00  0.00    -0.185 A  
HETATM    9  C   UNL     1     -11.045  13.053  68.405  1.00  0.00    -0.292 C  
HETATM   10  C   UNL     1      -9.664  11.077  69.296  1.00  0.00    -0.033 A  
HETATM   11  C   UNL     1     -11.731  12.776  67.066  1.00  0.00    -0.374 C  
HETATM   12  C   UNL     1      -9.555   9.919  70.073  1.00  0.00    -0.260 A  
HETATM   13  C   UNL     1      -9.758  13.842  68.145  1.00  0.00    -0.222 C  
HETATM   14  O   UNL     1     -12.024  11.490  66.780  1.00  0.00    -0.470 OA 
HETATM   15  O   UNL     1     -12.008  13.670  66.271  1.00  0.00    -0.375 OA 
ENDBRANCH   4   5
TORSDOF 1
ENDMDL
MODEL       36
REMARK 921   NORMALIZED FREE ENERGY PREDICTED BY IDOCK:   -4.54 KCAL/MOL
REMARK 922        TOTAL FREE ENERGY PREDICTED BY IDOCK:   -5.15 KCAL/MOL
REMARK 923 INTER-LIGAND FREE ENERGY PREDICTED BY IDOCK:   -4.79 KCAL/MOL
REMARK 924 INTRA-LIGAND FREE ENERGY PREDICTED BY IDOCK:   -0.35 KCAL/MOL
REMARK 927      BINDING AFFINITY PREDICTED BY RF-SCORE:    0.00 PKD
ROOT
HETATM    1  C   UNL     1     -10.425  12.189  64.787  1.00  0.00    -0.332 C  
HETATM    2  C   UNL     1     -11.632  12.832  64.099  1.00  0.00    -0.456 C  
HETATM    3  C   UNL     1     -12.467  11.751  63.408  1.00  0.00    -0.490 C  
HETATM    4  C   UNL     1     -12.509  13.631  65.087  1.00  0.00    -0.488 C  
ENDROOT
BRANCH   4   5
HETATM    5  C   UNL     1     -11.778  14.770  65.762  1.00  0.00    -0.252 A  
HETATM    6  C   UNL     1     -11.146  15.765  65.009  1.00  0.00    -0.380 A  
HETATM    7  C   UNL     1     -10.419  16.779  65.639  1.00  0.00    -0.284 A  
HETATM    8  C   UNL     1     -10.316  16.828  67.039  1.00  0.00    -0.300 A  
HETATM    9  C   UNL     1      -9.441  17.906  67.676  1.00  0.00    -0.260 C  
HETATM   10  C   UNL     1     -10.976  15.847  67.790  1.00  0.00    -0.315 A  
HETATM   11  C   UNL     1      -7.950  17.571  67.752  1.00  0.00    -0.208 C  
HETATM   12  C   UNL     1     -11.704  14.834  67.157  1.00  0.00    -0.351 A  
HETATM   13  C   UNL     1      -9.918  18.345  69.064  1.00  0.00    -0.304 C  
HETATM   14  O   UNL     1      -7.571  16.350  67.319  1.00  0.00    -0.138 OA 
HETATM   15  O   UNL     1      -7.119  18.364  68.187  1.00  0.00    -0.235 OA 
ENDBRANCH   4   5
TORSDOF 1
ENDMDL
MODEL       37
REMARK 921   NORMALIZED FREE ENERGY PREDICTED BY IDOCK:   -4.52 KCAL/MOL
REMARK 922        TOTAL FREE ENERGY PREDICTED BY IDOCK:   -5.14 KCAL/MOL
REMARK 923 INTER-LIGAND FREE ENERGY PREDICTED BY IDOCK:   -4.81 KCAL/MOL
REMARK 924 INTRA-LIGAND FREE ENERGY PREDICTED BY IDOCK:   -0.33 KCAL/MOL
REMARK 927      BINDING AFFINITY PREDICTED BY RF-SCORE:    0.00 PKD
ROOT
HETATM    1  C   UNL     1      -9.785  13.544  68.322  1.00  0.00    -0.224 C  
HETATM    2  C   UNL     1     -11.307  13.419  68.220  1.00  0.00    -0.330 C  
HETATM    3  C   UNL     1     -11.842  14.449  67.222  1.00  0.00    -0.434 C  
HETATM    4  C   UNL     1     -11.748  11.998  67.807  1.00  0.00    -0.379 C  
ENDROOT
BRANCH   4   5
HETATM    5  C   UNL     1     -11.322  10.923  68.781  1.00  0.00    -0.357 A  
HETATM    6  C   UNL     1     -10.577   9.820  68.353  1.00  0.00    -0.264 A  
HETATM    7  C   UNL     1     -10.241   8.799  69.246  1.00  0.00    -0.215 A  
HETATM    8  C   UNL     1     -10.633   8.862  70.593  1.00  0.00    -0.277 A  
HETATM    9  C   UNL     1     -10.315   7.683  71.510  1.00  0.00    -0.223 C  
HETATM   10  C   UNL     1     -11.352   9.984  71.024  1.00  0.00    -0.434 A  
HETATM   11  C   UNL     1     -11.317   6.528  71.453  1.00  0.00    -0.294 C  
HETATM   12  C   UNL     1     -11.687  11.005  70.129  1.00  0.00    -0.442 A  
HETATM   13  C   UNL     1     -10.104   8.081  72.974  1.00  0.00    -0.351 C  
HETATM   14  O   UNL     1     -12.400   6.691  70.665  1.00  0.00    -0.340 OA 
HETATM   15  O   UNL     1     -11.161   5.490  72.092  1.00  0.00    -0.243 OA 
ENDBRANCH   4   5
TORSDOF 1
ENDMDL
MODEL       38
REMARK 921   NORMALIZED FREE ENERGY PREDICTED BY IDOCK:   -4.51 KCAL/MOL
REMARK 922        TOTAL FREE ENERGY PREDICTED BY IDOCK:   -5.12 KCAL/MOL
REMARK 923 INTER-LIGAND FREE ENERGY PREDICTED BY IDOCK:   -4.92 KCAL/MOL
REMARK 924 INTRA-LIGAND FREE ENERGY PREDICTED BY IDOCK:   -0.19 KCAL/MOL
REMARK 927      BINDING AFFINITY PREDICTED BY RF-SCORE:    0.00 PKD
ROOT
HETATM    1  C   UNL     1      -6.141  14.677  67.640  1.00  0.00    -0.078 C  
HETATM    2  C   UNL     1      -7.250  14.666  68.695  1.00  0.00    -0.122 C  
HETATM    3  C   UNL     1      -6.781  15.421  69.942  1.00  0.00    -0.130 C  
HETATM    4  C   UNL     1      -8.564  15.278  68.166  1.00  0.00    -0.160 C  
ENDROOT
BRANCH   4   5
HETATM    5  C   UNL     1      -9.137  14.545  66.974  1.00  0.00    -0.254 A  
HETATM    6  C   UNL     1      -9.759  15.241  65.933  1.00  0.00    -0.390 A  
HETATM    7  C   UNL     1     -10.343  14.553  64.866  1.00  0.00    -0.401 A  
HETATM    8  C   UNL     1     -10.309  13.150  64.808  1.00  0.00    -0.369 A  
HETATM    9  C   UNL     1     -11.033  12.441  63.666  1.00  0.00    -0.525 C  
HETATM   10  C   UNL     1      -9.657  12.458  65.837  1.00  0.00    -0.193 A  
HETATM   11  C   UNL     1     -12.532  12.221  63.884  1.00  0.00    -0.485 C  
HETATM   12  C   UNL     1      -9.073  13.149  66.904  1.00  0.00    -0.231 A  
HETATM   13  C   UNL     1     -10.394  11.108  63.265  1.00  0.00    -0.368 C  
HETATM   14  O   UNL     1     -13.043  12.607  65.072  1.00  0.00    -0.808 OA 
HETATM   15  O   UNL     1     -13.254  11.716  63.029  1.00  0.00    -0.411 OA 
ENDBRANCH   4   5
TORSDOF 1
ENDMDL
MODEL       39
REMARK 921   NORMALIZED FREE ENERGY PREDICTED BY IDOCK:   -4.50 KCAL/MOL
REMARK 922        TOTAL FREE ENERGY PREDICTED BY IDOCK:   -5.11 KCAL/MOL
REMARK 923 INTER-LIGAND FREE ENERGY PREDICTED BY IDOCK:   -4.76 KCAL/MOL
REMARK 924 INTRA-LIGAND FREE ENERGY PREDICTED BY IDOCK:   -0.35 KCAL/MOL
REMARK 927      BINDING AFFINITY PREDICTED BY RF-SCORE:    0.00 PKD
ROOT
HETATM    1  C   UNL     1     -10.265  17.417  68.808  1.00  0.00    -0.361 C  
HETATM    2  C   UNL     1     -10.645  17.419  67.326  1.00  0.00    -0.284 C  
HETATM    3  C   UNL     1     -10.247  18.756  66.695  1.00  0.00    -0.453 C  
HETATM    4  C   UNL     1      -9.993  16.252  66.555  1.00  0.00    -0.290 C  
ENDROOT
BRANCH   4   5
HETATM    5  C   UNL     1     -10.392  14.887  67.069  1.00  0.00    -0.264 A  
HETATM    6  C   UNL     1     -11.718  14.451  66.995  1.00  0.00    -0.420 A  
HETATM    7  C   UNL     1     -12.091  13.215  67.530  1.00  0.00    -0.300 A  
HETATM    8  C   UNL     1     -11.143  12.379  68.142  1.00  0.00    -0.288 A  
HETATM    9  C   UNL     1     -11.614  11.077  68.786  1.00  0.00    -0.386 C  
HETATM   10  C   UNL     1      -9.809  12.806  68.186  1.00  0.00    -0.226 A  
HETATM   11  C   UNL     1     -12.155  11.215  70.211  1.00  0.00    -0.377 C  
HETATM   12  C   UNL     1      -9.438  14.043  67.649  1.00  0.00    -0.210 A  
HETATM   13  C   UNL     1     -10.562   9.964  68.765  1.00  0.00    -0.246 C  
HETATM   14  O   UNL     1     -12.099  12.441  70.774  1.00  0.00    -0.333 OA 
HETATM   15  O   UNL     1     -12.621  10.265  70.833  1.00  0.00    -0.322 OA 
ENDBRANCH   4   5
TORSDOF 1
ENDMDL
MODEL       40
REMARK 921   NORMALIZED FREE ENERGY PREDICTED BY IDOCK:   -4.50 KCAL/MOL
REMARK 922        TOTAL FREE ENERGY PREDICTED BY IDOCK:   -5.11 KCAL/MOL
REMARK 923 INTER-LIGAND FREE ENERGY PREDICTED BY IDOCK:   -4.79 KCAL/MOL
REMARK 924 INTRA-LIGAND FREE ENERGY PREDICTED BY IDOCK:   -0.32 KCAL/MOL
REMARK 927      BINDING AFFINITY PREDICTED BY RF-SCORE:    0.00 PKD
ROOT
HETATM    1  C   UNL     1     -11.625   7.328  70.213  1.00  0.00    -0.208 C  
HETATM    2  C   UNL     1     -11.450   8.459  71.230  1.00  0.00    -0.325 C  
HETATM    3  C   UNL     1     -11.144   7.869  72.608  1.00  0.00    -0.447 C  
HETATM    4  C   UNL     1     -10.340   9.448  70.815  1.00  0.00    -0.366 C  
ENDROOT
BRANCH   4   5
HETATM    5  C   UNL     1     -10.601  10.133  69.493  1.00  0.00    -0.269 A  
HETATM    6  C   UNL     1      -9.807   9.863  68.374  1.00  0.00    -0.166 A  
HETATM    7  C   UNL     1     -10.013  10.546  67.173  1.00  0.00    -0.234 A  
HETATM    8  C   UNL     1     -11.028  11.511  67.059  1.00  0.00    -0.347 A  
HETATM    9  C   UNL     1     -11.160  12.291  65.752  1.00  0.00    -0.362 C  
HETATM   10  C   UNL     1     -11.841  11.756  68.172  1.00  0.00    -0.324 A  
HETATM   11  C   UNL     1     -10.234  13.503  65.623  1.00  0.00    -0.296 C  
HETATM   12  C   UNL     1     -11.633  11.070  69.373  1.00  0.00    -0.383 A  
HETATM   13  C   UNL     1     -12.593  12.732  65.440  1.00  0.00    -0.387 C  
HETATM   14  O   UNL     1      -9.455  13.798  66.685  1.00  0.00    -0.267 OA 
HETATM   15  O   UNL     1     -10.188  14.191  64.606  1.00  0.00    -0.408 OA 
ENDBRANCH   4   5
TORSDOF 1
ENDMDL
MODEL       41
REMARK 921   NORMALIZED FREE ENERGY PREDICTED BY IDOCK:   -4.40 KCAL/MOL
REMARK 922        TOTAL FREE ENERGY PREDICTED BY IDOCK:   -5.00 KCAL/MOL
REMARK 923 INTER-LIGAND FREE ENERGY PREDICTED BY IDOCK:   -4.66 KCAL/MOL
REMARK 924 INTRA-LIGAND FREE ENERGY PREDICTED BY IDOCK:   -0.33 KCAL/MOL
REMARK 927      BINDING AFFINITY PREDICTED BY RF-SCORE:    0.00 PKD
ROOT
HETATM    1  C   UNL     1      -6.396  19.629  68.340  1.00  0.00    -0.289 C  
HETATM    2  C   UNL     1      -6.899  20.278  67.048  1.00  0.00    -0.284 C  
HETATM    3  C   UNL     1      -5.841  21.246  66.513  1.00  0.00    -0.349 C  
HETATM    4  C   UNL     1      -7.256  19.231  65.971  1.00  0.00    -0.296 C  
ENDROOT
BRANCH   4   5
HETATM    5  C   UNL     1      -8.349  18.276  66.393  1.00  0.00    -0.267 A  
HETATM    6  C   UNL     1      -9.565  18.751  66.894  1.00  0.00    -0.332 A  
HETATM    7  C   UNL     1     -10.546  17.862  67.341  1.00  0.00    -0.370 A  
HETATM    8  C   UNL     1     -10.339  16.474  67.287  1.00  0.00    -0.296 A  
HETATM    9  C   UNL     1     -11.406  15.546  67.864  1.00  0.00    -0.309 C  
HETATM   10  C   UNL     1      -9.132  16.001  66.754  1.00  0.00    -0.271 A  
HETATM   11  C   UNL     1     -11.323  15.323  69.376  1.00  0.00    -0.294 C  
HETATM   12  C   UNL     1      -8.152  16.893  66.307  1.00  0.00    -0.351 A  
HETATM   13  C   UNL     1     -11.478  14.183  67.169  1.00  0.00    -0.373 C  
HETATM   14  O   UNL     1     -10.293  15.903  70.028  1.00  0.00    -0.289 OA 
HETATM   15  O   UNL     1     -12.147  14.648  69.987  1.00  0.00    -0.293 OA 
ENDBRANCH   4   5
TORSDOF 1
ENDMDL
MODEL       42
REMARK 921   NORMALIZED FREE ENERGY PREDICTED BY IDOCK:   -4.39 KCAL/MOL
REMARK 922        TOTAL FREE ENERGY PREDICTED BY IDOCK:   -5.00 KCAL/MOL
REMARK 923 INTER-LIGAND FREE ENERGY PREDICTED BY IDOCK:   -4.69 KCAL/MOL
REMARK 924 INTRA-LIGAND FREE ENERGY PREDICTED BY IDOCK:   -0.31 KCAL/MOL
REMARK 927      BINDING AFFINITY PREDICTED BY RF-SCORE:    0.00 PKD
ROOT
HETATM    1  C   UNL     1     -10.227   9.581  70.498  1.00  0.00    -0.349 C  
HETATM    2  C   UNL     1      -9.783   8.863  69.221  1.00  0.00    -0.165 C  
HETATM    3  C   UNL     1      -9.909   7.350  69.411  1.00  0.00    -0.168 C  
HETATM    4  C   UNL     1     -10.594   9.314  67.987  1.00  0.00    -0.262 C  
ENDROOT
BRANCH   4   5
HETATM    5  C   UNL     1     -10.466  10.789  67.683  1.00  0.00    -0.252 A  
HETATM    6  C   UNL     1     -11.547  11.657  67.866  1.00  0.00    -0.369 A  
HETATM    7  C   UNL     1     -11.442  13.007  67.523  1.00  0.00    -0.375 A  
HETATM    8  C   UNL     1     -10.246  13.526  66.997  1.00  0.00    -0.249 A  
HETATM    9  C   UNL     1     -10.207  14.988  66.559  1.00  0.00    -0.281 C  
HETATM   10  C   UNL     1      -9.156  12.659  66.845  1.00  0.00    -0.218 A  
HETATM   11  C   UNL     1     -10.739  15.259  65.150  1.00  0.00    -0.436 C  
HETATM   12  C   UNL     1      -9.264  11.308  67.190  1.00  0.00    -0.169 A  
HETATM   13  C   UNL     1      -8.824  15.634  66.695  1.00  0.00    -0.327 C  
HETATM   14  O   UNL     1     -11.120  14.189  64.421  1.00  0.00    -0.350 OA 
HETATM   15  O   UNL     1     -10.821  16.392  64.684  1.00  0.00    -0.717 OA 
ENDBRANCH   4   5
TORSDOF 1
ENDMDL
MODEL       43
REMARK 921   NORMALIZED FREE ENERGY PREDICTED BY IDOCK:   -4.38 KCAL/MOL
REMARK 922        TOTAL FREE ENERGY PREDICTED BY IDOCK:   -4.99 KCAL/MOL
REMARK 923 INTER-LIGAND FREE ENERGY PREDICTED BY IDOCK:   -4.82 KCAL/MOL
REMARK 924 INTRA-LIGAND FREE ENERGY PREDICTED BY IDOCK:   -0.16 KCAL/MOL
REMARK 927      BINDING AFFINITY PREDICTED BY RF-SCORE:    0.00 PKD
ROOT
HETATM    1  C   UNL     1      -9.105  12.090  66.960  1.00  0.00    -0.191 C  
HETATM    2  C   UNL     1      -9.977  12.436  65.750  1.00  0.00    -0.270 C  
HETATM    3  C   UNL     1     -10.593  11.158  65.176  1.00  0.00    -0.319 C  
HETATM    4  C   UNL     1     -11.086  13.451  66.102  1.00  0.00    -0.299 C  
ENDROOT
BRANCH   4   5
HETATM    5  C   UNL     1     -10.559  14.774  66.609  1.00  0.00    -0.299 A  
HETATM    6  C   UNL     1     -11.249  15.495  67.588  1.00  0.00    -0.291 A  
HETATM    7  C   UNL     1     -10.790  16.747  68.006  1.00  0.00    -0.341 A  
HETATM    8  C   UNL     1      -9.621  17.304  67.462  1.00  0.00    -0.259 A  
HETATM    9  C   UNL     1      -9.207  18.710  67.889  1.00  0.00    -0.316 C  
HETATM   10  C   UNL     1      -8.915  16.564  66.505  1.00  0.00    -0.312 A  
HETATM   11  C   UNL     1      -9.892  19.848  67.131  1.00  0.00    -0.406 C  
HETATM   12  C   UNL     1      -9.377  15.311  66.088  1.00  0.00    -0.360 A  
HETATM   13  C   UNL     1      -7.692  18.941  67.859  1.00  0.00    -0.286 C  
HETATM   14  O   UNL     1     -10.730  19.503  66.130  1.00  0.00    -0.457 OA 
HETATM   15  O   UNL     1      -9.701  21.030  67.404  1.00  0.00    -0.416 OA 
ENDBRANCH   4   5
TORSDOF 1
ENDMDL
MODEL       44
REMARK 921   NORMALIZED FREE ENERGY PREDICTED BY IDOCK:   -4.38 KCAL/MOL
REMARK 922        TOTAL FREE ENERGY PREDICTED BY IDOCK:   -4.98 KCAL/MOL
REMARK 923 INTER-LIGAND FREE ENERGY PREDICTED BY IDOCK:   -4.62 KCAL/MOL
REMARK 924 INTRA-LIGAND FREE ENERGY PREDICTED BY IDOCK:   -0.36 KCAL/MOL
REMARK 927      BINDING AFFINITY PREDICTED BY RF-SCORE:    0.00 PKD
ROOT
HETATM    1  C   UNL     1      -8.878  12.858  68.101  1.00  0.00    -0.194 C  
HETATM    2  C   UNL     1     -10.329  13.242  67.796  1.00  0.00    -0.233 C  
HETATM    3  C   UNL     1     -10.360  14.296  66.687  1.00  0.00    -0.279 C  
HETATM    4  C   UNL     1     -11.182  12.021  67.394  1.00  0.00    -0.368 C  
ENDROOT
BRANCH   4   5
HETATM    5  C   UNL     1     -11.265  10.959  68.467  1.00  0.00    -0.335 A  
HETATM    6  C   UNL     1     -11.831  11.240  69.714  1.00  0.00    -0.437 A  
HETATM    7  C   UNL     1     -11.846  10.272  70.723  1.00  0.00    -0.459 A  
HETATM    8  C   UNL     1     -11.306   8.995  70.503  1.00  0.00    -0.282 A  
HETATM    9  C   UNL     1     -11.270   8.000  71.662  1.00  0.00    -0.301 C  
HETATM   10  C   UNL     1     -10.768   8.707  69.242  1.00  0.00    -0.151 A  
HETATM   11  C   UNL     1     -10.079   8.150  72.610  1.00  0.00    -0.309 C  
HETATM   12  C   UNL     1     -10.755   9.677  68.234  1.00  0.00    -0.262 A  
HETATM   13  C   UNL     1     -11.366   6.537  71.220  1.00  0.00    -0.355 C  
HETATM   14  O   UNL     1      -9.157   9.085  72.297  1.00  0.00    -0.351 OA 
HETATM   15  O   UNL     1      -9.948   7.459  73.617  1.00  0.00    -0.305 OA 
ENDBRANCH   4   5
TORSDOF 1
ENDMDL
MODEL       45
REMARK 921   NORMALIZED FREE ENERGY PREDICTED BY IDOCK:   -4.35 KCAL/MOL
REMARK 922        TOTAL FREE ENERGY PREDICTED BY IDOCK:   -4.96 KCAL/MOL
REMARK 923 INTER-LIGAND FREE ENERGY PREDICTED BY IDOCK:   -4.81 KCAL/MOL
REMARK 924 INTRA-LIGAND FREE ENERGY PREDICTED BY IDOCK:   -0.14 KCAL/MOL
REMARK 927      BINDING AFFINITY PREDICTED BY RF-SCORE:    0.00 PKD
ROOT
HETATM    1  C   UNL     1     -11.954   9.716  71.456  1.00  0.00    -0.485 C  
HETATM    2  C   UNL     1     -10.646   8.934  71.588  1.00  0.00    -0.422 C  
HETATM    3  C   UNL     1     -10.716   8.017  72.812  1.00  0.00    -0.431 C  
HETATM    4  C   UNL     1     -10.330   8.109  70.322  1.00  0.00    -0.209 C  
ENDROOT
BRANCH   4   5
HETATM    5  C   UNL     1     -10.171   8.948  69.075  1.00  0.00    -0.217 A  
HETATM    6  C   UNL     1      -9.661  10.248  69.144  1.00  0.00    -0.229 A  
HETATM    7  C   UNL     1      -9.576  11.041  67.996  1.00  0.00    -0.175 A  
HETATM    8  C   UNL     1      -9.991  10.547  66.748  1.00  0.00    -0.252 A  
HETATM    9  C   UNL     1      -9.958  11.480  65.539  1.00  0.00    -0.282 C  
HETATM   10  C   UNL     1     -10.471   9.234  66.678  1.00  0.00    -0.237 A  
HETATM   11  C   UNL     1     -11.178  12.391  65.387  1.00  0.00    -0.318 C  
HETATM   12  C   UNL     1     -10.554   8.442  67.828  1.00  0.00    -0.238 A  
HETATM   13  C   UNL     1      -9.716  10.756  64.210  1.00  0.00    -0.357 C  
HETATM   14  O   UNL     1     -12.176  12.235  66.282  1.00  0.00    -0.628 OA 
HETATM   15  O   UNL     1     -11.265  13.232  64.496  1.00  0.00    -0.332 OA 
ENDBRANCH   4   5
TORSDOF 1
ENDMDL
MODEL       46
REMARK 921   NORMALIZED FREE ENERGY PREDICTED BY IDOCK:   -4.35 KCAL/MOL
REMARK 922        TOTAL FREE ENERGY PREDICTED BY IDOCK:   -4.95 KCAL/MOL
REMARK 923 INTER-LIGAND FREE ENERGY PREDICTED BY IDOCK:   -4.77 KCAL/MOL
REMARK 924 INTRA-LIGAND FREE ENERGY PREDICTED BY IDOCK:   -0.19 KCAL/MOL
REMARK 927      BINDING AFFINITY PREDICTED BY RF-SCORE:    0.00 PKD
ROOT
HETATM    1  C   UNL     1     -10.855   6.678  67.162  1.00  0.00    -0.471 C  
HETATM    2  C   UNL     1     -10.733   7.295  68.557  1.00  0.00    -0.165 C  
HETATM    3  C   UNL     1     -10.212   6.244  69.541  1.00  0.00    -0.239 C  
HETATM    4  C   UNL     1      -9.815   8.536  68.568  1.00  0.00    -0.186 C  
ENDROOT
BRANCH   4   5
HETATM    5  C   UNL     1     -10.299   9.656  67.675  1.00  0.00    -0.290 A  
HETATM    6  C   UNL     1      -9.796   9.810  66.379  1.00  0.00    -0.298 A  
HETATM    7  C   UNL     1     -10.200  10.885  65.583  1.00  0.00    -0.323 A  
HETATM    8  C   UNL     1     -11.127  11.826  66.060  1.00  0.00    -0.363 A  
HETATM    9  C   UNL     1     -11.473  13.029  65.184  1.00  0.00    -0.338 C  
HETATM   10  C   UNL     1     -11.652  11.650  67.347  1.00  0.00    -0.330 A  
HETATM   11  C   UNL     1     -10.497  14.203  65.277  1.00  0.00    -0.384 C  
HETATM   12  C   UNL     1     -11.246  10.573  68.142  1.00  0.00    -0.357 A  
HETATM   13  C   UNL     1     -12.897  13.555  65.396  1.00  0.00    -0.420 C  
HETATM   14  O   UNL     1      -9.481  14.090  66.159  1.00  0.00    -0.263 OA 
HETATM   15  O   UNL     1     -10.615  15.214  64.590  1.00  0.00    -0.339 OA 
ENDBRANCH   4   5
TORSDOF 1
ENDMDL
MODEL       47
REMARK 921   NORMALIZED FREE ENERGY PREDICTED BY IDOCK:   -4.35 KCAL/MOL
REMARK 922        TOTAL FREE ENERGY PREDICTED BY IDOCK:   -4.95 KCAL/MOL
REMARK 923 INTER-LIGAND FREE ENERGY PREDICTED BY IDOCK:   -4.61 KCAL/MOL
REMARK 924 INTRA-LIGAND FREE ENERGY PREDICTED BY IDOCK:   -0.34 KCAL/MOL
REMARK 927      BINDING AFFINITY PREDICTED BY RF-SCORE:    0.00 PKD
ROOT
HETATM    1  C   UNL     1     -12.055  13.539  66.837  1.00  0.00    -0.417 C  
HETATM    2  C   UNL     1     -11.326  12.946  68.045  1.00  0.00    -0.333 C  
HETATM    3  C   UNL     1     -11.638  11.452  68.152  1.00  0.00    -0.364 C  
HETATM    4  C   UNL     1      -9.800  13.168  67.972  1.00  0.00    -0.231 C  
ENDROOT
BRANCH   4   5
HETATM    5  C   UNL     1      -9.400  14.625  67.937  1.00  0.00    -0.198 A  
HETATM    6  C   UNL     1      -9.629  15.460  69.036  1.00  0.00    -0.236 A  
HETATM    7  C   UNL     1      -9.314  16.820  68.973  1.00  0.00    -0.212 A  
HETATM    8  C   UNL     1      -8.752  17.377  67.813  1.00  0.00    -0.232 A  
HETATM    9  C   UNL     1      -8.505  18.883  67.763  1.00  0.00    -0.310 C  
HETATM   10  C   UNL     1      -8.496  16.531  66.726  1.00  0.00    -0.273 A  
HETATM   11  C   UNL     1      -9.718  19.728  67.370  1.00  0.00    -0.373 C  
HETATM   12  C   UNL     1      -8.811  15.170  66.791  1.00  0.00    -0.302 A  
HETATM   13  C   UNL     1      -7.319  19.283  66.878  1.00  0.00    -0.225 C  
HETATM   14  O   UNL     1     -10.849  19.067  67.045  1.00  0.00    -0.445 OA 
HETATM   15  O   UNL     1      -9.684  20.956  67.343  1.00  0.00    -0.456 OA 
ENDBRANCH   4   5
TORSDOF 1
ENDMDL
MODEL       48
REMARK 921   NORMALIZED FREE ENERGY PREDICTED BY IDOCK:   -4.33 KCAL/MOL
REMARK 922        TOTAL FREE ENERGY PREDICTED BY IDOCK:   -4.92 KCAL/MOL
REMARK 923 INTER-LIGAND FREE ENERGY PREDICTED BY IDOCK:   -4.86 KCAL/MOL
REMARK 924 INTRA-LIGAND FREE ENERGY PREDICTED BY IDOCK:   -0.07 KCAL/MOL
REMARK 927      BINDING AFFINITY PREDICTED BY RF-SCORE:    0.00 PKD
ROOT
HETATM    1  C   UNL     1     -11.577  11.847  66.957  1.00  0.00    -0.365 C  
HETATM    2  C   UNL     1     -11.298  12.877  68.054  1.00  0.00    -0.333 C  
HETATM    3  C   UNL     1     -11.720  14.268  67.574  1.00  0.00    -0.415 C  
HETATM    4  C   UNL     1     -12.016  12.530  69.376  1.00  0.00    -0.315 C  
ENDROOT
BRANCH   4   5
HETATM    5  C   UNL     1     -11.600  11.199  69.961  1.00  0.00    -0.421 A  
HETATM    6  C   UNL     1     -10.344  10.652  69.680  1.00  0.00    -0.185 A  
HETATM    7  C   UNL     1      -9.991   9.392  70.172  1.00  0.00    -0.269 A  
HETATM    8  C   UNL     1     -10.884   8.653  70.966  1.00  0.00    -0.302 A  
HETATM    9  C   UNL     1     -10.485   7.246  71.409  1.00  0.00    -0.219 C  
HETATM   10  C   UNL     1     -12.129   9.218  71.270  1.00  0.00    -0.412 A  
HETATM   11  C   UNL     1     -10.756   6.142  70.385  1.00  0.00    -0.284 C  
HETATM   12  C   UNL     1     -12.479  10.480  70.778  1.00  0.00    -0.472 A  
HETATM   13  C   UNL     1     -11.091   6.830  72.753  1.00  0.00    -0.292 C  
HETATM   14  O   UNL     1     -11.371   6.503  69.239  1.00  0.00    -0.335 OA 
HETATM   15  O   UNL     1     -10.436   4.972  70.579  1.00  0.00    -0.240 OA 
ENDBRANCH   4   5
TORSDOF 1
ENDMDL
MODEL       49
REMARK 921   NORMALIZED FREE ENERGY PREDICTED BY IDOCK:   -4.31 KCAL/MOL
REMARK 922        TOTAL FREE ENERGY PREDICTED BY IDOCK:   -4.90 KCAL/MOL
REMARK 923 INTER-LIGAND FREE ENERGY PREDICTED BY IDOCK:   -4.57 KCAL/MOL
REMARK 924 INTRA-LIGAND FREE ENERGY PREDICTED BY IDOCK:   -0.33 KCAL/MOL
REMARK 927      BINDING AFFINITY PREDICTED BY RF-SCORE:    0.00 PKD
ROOT
HETATM    1  C   UNL     1      -8.987   3.947  72.849  1.00  0.00    -0.112 C  
HETATM    2  C   UNL     1     -10.489   3.647  72.837  1.00  0.00    -0.239 C  
HETATM    3  C   UNL     1     -10.771   2.400  73.678  1.00  0.00    -0.265 C  
HETATM    4  C   UNL     1     -11.325   4.838  73.352  1.00  0.00    -0.397 C  
ENDROOT
BRANCH   4   5
HETATM    5  C   UNL     1     -11.160   6.096  72.529  1.00  0.00    -0.313 A  
HETATM    6  C   UNL     1     -10.611   7.253  73.089  1.00  0.00    -0.400 A  
HETATM    7  C   UNL     1     -10.521   8.431  72.342  1.00  0.00    -0.402 A  
HETATM    8  C   UNL     1     -10.968   8.476  71.011  1.00  0.00    -0.296 A  
HETATM    9  C   UNL     1     -10.926   9.806  70.263  1.00  0.00    -0.352 C  
HETATM   10  C   UNL     1     -11.488   7.305  70.444  1.00  0.00    -0.279 A  
HETATM   11  C   UNL     1     -12.121  10.729  70.512  1.00  0.00    -0.366 C  
HETATM   12  C   UNL     1     -11.577   6.127  71.194  1.00  0.00    -0.269 A  
HETATM   13  C   UNL     1     -10.725   9.657  68.752  1.00  0.00    -0.234 C  
HETATM   14  O   UNL     1     -13.110  10.256  71.299  1.00  0.00    -0.370 OA 
HETATM   15  O   UNL     1     -12.196  11.854  70.024  1.00  0.00    -0.273 OA 
ENDBRANCH   4   5
TORSDOF 1
ENDMDL
MODEL       50
REMARK 921   NORMALIZED FREE ENERGY PREDICTED BY IDOCK:   -4.30 KCAL/MOL
REMARK 922        TOTAL FREE ENERGY PREDICTED BY IDOCK:   -4.90 KCAL/MOL
REMARK 923 INTER-LIGAND FREE ENERGY PREDICTED BY IDOCK:   -4.84 KCAL/MOL
REMARK 924 INTRA-LIGAND FREE ENERGY PREDICTED BY IDOCK:   -0.06 KCAL/MOL
REMARK 927      BINDING AFFINITY PREDICTED BY RF-SCORE:    0.00 PKD
ROOT
HETATM    1  C   UNL     1     -11.295  10.028  71.029  1.00  0.00    -0.434 C  
HETATM    2  C   UNL     1     -12.782  10.389  71.065  1.00  0.00    -0.490 C  
HETATM    3  C   UNL     1     -13.522   9.432  72.002  1.00  0.00    -0.522 C  
HETATM    4  C   UNL     1     -13.016  11.851  71.503  1.00  0.00    -0.427 C  
ENDROOT
BRANCH   4   5
HETATM    5  C   UNL     1     -12.377  12.869  70.586  1.00  0.00    -0.385 A  
HETATM    6  C   UNL     1     -12.125  12.569  69.244  1.00  0.00    -0.214 A  
HETATM    7  C   UNL     1     -11.476  13.491  68.418  1.00  0.00    -0.346 A  
HETATM    8  C   UNL     1     -11.074  14.742  68.913  1.00  0.00    -0.264 A  
HETATM    9  C   UNL     1     -10.295  15.682  67.996  1.00  0.00    -0.246 C  
HETATM   10  C   UNL     1     -11.357  15.051  70.250  1.00  0.00    -0.300 A  
HETATM   11  C   UNL     1      -8.789  15.421  67.927  1.00  0.00    -0.168 C  
HETATM   12  C   UNL     1     -12.007  14.127  71.074  1.00  0.00    -0.351 A  
HETATM   13  C   UNL     1     -10.523  17.167  68.298  1.00  0.00    -0.373 C  
HETATM   14  O   UNL     1      -8.296  14.448  68.721  1.00  0.00    -0.157 OA 
HETATM   15  O   UNL     1      -8.043  16.060  67.188  1.00  0.00    -0.164 OA 
ENDBRANCH   4   5
TORSDOF 1
ENDMDL
MODEL       51
REMARK 921   NORMALIZED FREE ENERGY PREDICTED BY IDOCK:   -4.30 KCAL/MOL
REMARK 922        TOTAL FREE ENERGY PREDICTED BY IDOCK:   -4.89 KCAL/MOL
REMARK 923 INTER-LIGAND FREE ENERGY PREDICTED BY IDOCK:   -4.60 KCAL/MOL
REMARK 924 INTRA-LIGAND FREE ENERGY PREDICTED BY IDOCK:   -0.29 KCAL/MOL
REMARK 927      BINDING AFFINITY PREDICTED BY RF-SCORE:    0.00 PKD
ROOT
HETATM    1  C   UNL     1      -9.390  15.157  69.319  1.00  0.00    -0.207 C  
HETATM    2  C   UNL     1     -10.897  15.068  69.574  1.00  0.00    -0.272 C  
HETATM    3  C   UNL     1     -11.311  16.138  70.587  1.00  0.00    -0.394 C  
HETATM    4  C   UNL     1     -11.717  15.219  68.275  1.00  0.00    -0.320 C  
ENDROOT
BRANCH   4   5
HETATM    5  C   UNL     1     -11.422  14.154  67.243  1.00  0.00    -0.371 A  
HETATM    6  C   UNL     1     -11.885  12.845  67.409  1.00  0.00    -0.418 A  
HETATM    7  C   UNL     1     -11.554  11.852  66.484  1.00  0.00    -0.328 A  
HETATM    8  C   UNL     1     -10.760  12.146  65.363  1.00  0.00    -0.323 A  
HETATM    9  C   UNL     1     -10.356  11.010  64.426  1.00  0.00    -0.424 C  
HETATM   10  C   UNL     1     -10.325  13.466  65.184  1.00  0.00    -0.349 A  
HETATM   11  C   UNL     1      -9.128  10.210  64.867  1.00  0.00    -0.215 C  
HETATM   12  C   UNL     1     -10.658  14.459  66.112  1.00  0.00    -0.298 A  
HETATM   13  C   UNL     1     -10.159  11.451  62.972  1.00  0.00    -0.333 C  
HETATM   14  O   UNL     1      -8.494  10.623  65.985  1.00  0.00    -0.153 OA 
HETATM   15  O   UNL     1      -8.721   9.233  64.245  1.00  0.00    -0.196 OA 
ENDBRANCH   4   5
TORSDOF 1
ENDMDL
MODEL       52
REMARK 921   NORMALIZED FREE ENERGY PREDICTED BY IDOCK:   -4.27 KCAL/MOL
REMARK 922        TOTAL FREE ENERGY PREDICTED BY IDOCK:   -4.87 KCAL/MOL
REMARK 923 INTER-LIGAND FREE ENERGY PREDICTED BY IDOCK:   -4.61 KCAL/MOL
REMARK 924 INTRA-LIGAND FREE ENERGY PREDICTED BY IDOCK:   -0.25 KCAL/MOL
REMARK 927      BINDING AFFINITY PREDICTED BY RF-SCORE:    0.00 PKD
ROOT
HETATM    1  C   UNL     1     -11.005   8.731  70.121  1.00  0.00    -0.236 C  
HETATM    2  C   UNL     1      -9.634   9.303  70.493  1.00  0.00    -0.317 C  
HETATM    3  C   UNL     1      -9.105   8.597  71.743  1.00  0.00    -0.317 C  
HETATM    4  C   UNL     1      -8.617   9.175  69.339  1.00  0.00    -0.138 C  
ENDROOT
BRANCH   4   5
HETATM    5  C   UNL     1      -9.030   9.908  68.082  1.00  0.00    -0.118 A  
HETATM    6  C   UNL     1      -8.879  11.294  67.976  1.00  0.00    -0.148 A  
HETATM    7  C   UNL     1      -9.321  11.973  66.838  1.00  0.00    -0.200 A  
HETATM    8  C   UNL     1      -9.916  11.279  65.771  1.00  0.00    -0.281 A  
HETATM    9  C   UNL     1     -10.459  12.074  64.586  1.00  0.00    -0.338 C  
HETATM   10  C   UNL     1     -10.036   9.887  65.868  1.00  0.00    -0.316 A  
HETATM   11  C   UNL     1     -11.869  12.640  64.774  1.00  0.00    -0.380 C  
HETATM   12  C   UNL     1      -9.592   9.210  67.009  1.00  0.00    -0.223 A  
HETATM   13  C   UNL     1     -10.409  11.311  63.258  1.00  0.00    -0.406 C  
HETATM   14  O   UNL     1     -12.508  12.328  65.921  1.00  0.00    -0.535 OA 
HETATM   15  O   UNL     1     -12.412  13.346  63.930  1.00  0.00    -0.658 OA 
ENDBRANCH   4   5
TORSDOF 1
ENDMDL
MODEL       53
REMARK 921   NORMALIZED FREE ENERGY PREDICTED BY IDOCK:   -4.23 KCAL/MOL
REMARK 922        TOTAL FREE ENERGY PREDICTED BY IDOCK:   -4.82 KCAL/MOL
REMARK 923 INTER-LIGAND FREE ENERGY PREDICTED BY IDOCK:   -4.49 KCAL/MOL
REMARK 924 INTRA-LIGAND FREE ENERGY PREDICTED BY IDOCK:   -0.34 KCAL/MOL
REMARK 927      BINDING AFFINITY PREDICTED BY RF-SCORE:    0.00 PKD
ROOT
HETATM    1  C   UNL     1     -10.559  18.880  66.160  1.00  0.00    -0.476 C  
HETATM    2  C   UNL     1      -9.311  18.654  67.018  1.00  0.00    -0.301 C  
HETATM    3  C   UNL     1      -8.881  19.976  67.658  1.00  0.00    -0.407 C  
HETATM    4  C   UNL     1      -9.539  17.584  68.107  1.00  0.00    -0.294 C  
ENDROOT
BRANCH   4   5
HETATM    5  C   UNL     1      -9.898  16.223  67.554  1.00  0.00    -0.238 A  
HETATM    6  C   UNL     1     -11.127  15.628  67.853  1.00  0.00    -0.324 A  
HETATM    7  C   UNL     1     -11.426  14.343  67.392  1.00  0.00    -0.377 A  
HETATM    8  C   UNL     1     -10.506  13.626  66.609  1.00  0.00    -0.272 A  
HETATM    9  C   UNL     1     -10.844  12.194  66.200  1.00  0.00    -0.317 C  
HETATM   10  C   UNL     1      -9.289  14.239  66.285  1.00  0.00    -0.236 A  
HETATM   11  C   UNL     1     -10.520  11.126  67.246  1.00  0.00    -0.226 C  
HETATM   12  C   UNL     1      -8.992  15.525  66.748  1.00  0.00    -0.295 A  
HETATM   13  C   UNL     1     -10.228  11.775  64.861  1.00  0.00    -0.315 C  
HETATM   14  O   UNL     1      -9.916  11.539  68.379  1.00  0.00    -0.194 OA 
HETATM   15  O   UNL     1     -10.789   9.939  67.079  1.00  0.00    -0.213 OA 
ENDBRANCH   4   5
TORSDOF 1
ENDMDL
MODEL       54
REMARK 921   NORMALIZED FREE ENERGY PREDICTED BY IDOCK:   -4.22 KCAL/MOL
REMARK 922        TOTAL FREE ENERGY PREDICTED BY IDOCK:   -4.81 KCAL/MOL
REMARK 923 INTER-LIGAND FREE ENERGY PREDICTED BY IDOCK:   -4.46 KCAL/MOL
REMARK 924 INTRA-LIGAND FREE ENERGY PREDICTED BY IDOCK:   -0.35 KCAL/MOL
REMARK 927      BINDING AFFINITY PREDICTED BY RF-SCORE:    0.00 PKD
ROOT
HETATM    1  C   UNL     1      -6.642  13.247  68.500  1.00  0.00    -0.089 C  
HETATM    2  C   UNL     1      -7.102  14.305  69.507  1.00  0.00    -0.045 C  
HETATM    3  C   UNL     1      -5.936  14.685  70.423  1.00  0.00    -0.165 C  
HETATM    4  C   UNL     1      -7.666  15.563  68.813  1.00  0.00    -0.159 C  
ENDROOT
BRANCH   4   5
HETATM    5  C   UNL     1      -8.870  15.287  67.942  1.00  0.00    -0.165 A  
HETATM    6  C   UNL     1     -10.073  14.843  68.499  1.00  0.00    -0.232 A  
HETATM    7  C   UNL     1     -11.162  14.529  67.681  1.00  0.00    -0.335 A  
HETATM    8  C   UNL     1     -11.077  14.663  66.286  1.00  0.00    -0.336 A  
HETATM    9  C   UNL     1     -12.265  14.227  65.430  1.00  0.00    -0.408 C  
HETATM   10  C   UNL     1      -9.881  15.138  65.734  1.00  0.00    -0.384 A  
HETATM   11  C   UNL     1     -12.321  12.732  65.108  1.00  0.00    -0.496 C  
HETATM   12  C   UNL     1      -8.792  15.452  66.555  1.00  0.00    -0.347 A  
HETATM   13  C   UNL     1     -12.405  15.017  64.124  1.00  0.00    -0.167 C  
HETATM   14  O   UNL     1     -11.297  11.971  65.547  1.00  0.00    -0.336 OA 
HETATM   15  O   UNL     1     -13.247  12.229  64.478  1.00  0.00    -0.799 OA 
ENDBRANCH   4   5
TORSDOF 1
ENDMDL
MODEL       55
REMARK 921   NORMALIZED FREE ENERGY PREDICTED BY IDOCK:   -4.20 KCAL/MOL
REMARK 922        TOTAL FREE ENERGY PREDICTED BY IDOCK:   -4.79 KCAL/MOL
REMARK 923 INTER-LIGAND FREE ENERGY PREDICTED BY IDOCK:   -4.43 KCAL/MOL
REMARK 924 INTRA-LIGAND FREE ENERGY PREDICTED BY IDOCK:   -0.36 KCAL/MOL
REMARK 927      BINDING AFFINITY PREDICTED BY RF-SCORE:    0.00 PKD
ROOT
HETATM    1  C   UNL     1     -11.695  12.339  65.796  1.00  0.00    -0.445 C  
HETATM    2  C   UNL     1     -10.886  11.369  64.931  1.00  0.00    -0.323 C  
HETATM    3  C   UNL     1     -10.652  11.984  63.549  1.00  0.00    -0.514 C  
HETATM    4  C   UNL     1      -9.537  10.993  65.582  1.00  0.00    -0.265 C  
ENDROOT
BRANCH   4   5
HETATM    5  C   UNL     1      -9.680  10.311  66.924  1.00  0.00    -0.229 A  
HETATM    6  C   UNL     1     -10.385   9.111  67.048  1.00  0.00    -0.333 A  
HETATM    7  C   UNL     1     -10.567   8.519  68.301  1.00  0.00    -0.173 A  
HETATM    8  C   UNL     1     -10.038   9.110  69.460  1.00  0.00    -0.202 A  
HETATM    9  C   UNL     1     -10.336   8.472  70.815  1.00  0.00    -0.238 C  
HETATM   10  C   UNL     1      -9.305  10.297  69.327  1.00  0.00    -0.221 A  
HETATM   11  C   UNL     1     -11.677   8.864  71.438  1.00  0.00    -0.315 C  
HETATM   12  C   UNL     1      -9.124  10.886  68.071  1.00  0.00    -0.152 A  
HETATM   13  C   UNL     1      -9.229   8.686  71.853  1.00  0.00    -0.345 C  
HETATM   14  O   UNL     1     -12.421   9.773  70.774  1.00  0.00    -0.280 OA 
HETATM   15  O   UNL     1     -12.076   8.386  72.497  1.00  0.00    -0.393 OA 
ENDBRANCH   4   5
TORSDOF 1
ENDMDL
MODEL       56
REMARK 921   NORMALIZED FREE ENERGY PREDICTED BY IDOCK:   -4.19 KCAL/MOL
REMARK 922        TOTAL FREE ENERGY PREDICTED BY IDOCK:   -4.78 KCAL/MOL
REMARK 923 INTER-LIGAND FREE ENERGY PREDICTED BY IDOCK:   -5.33 KCAL/MOL
REMARK 924 INTRA-LIGAND FREE ENERGY PREDICTED BY IDOCK:    0.54 KCAL/MOL
REMARK 927      BINDING AFFINITY PREDICTED BY RF-SCORE:    0.00 PKD
ROOT
HETATM    1  C   UNL     1     -13.449  13.358  71.966  1.00  0.00    -0.584 C  
HETATM    2  C   UNL     1     -13.428  14.758  71.348  1.00  0.00    -0.477 C  
HETATM    3  C   UNL     1     -13.885  15.786  72.387  1.00  0.00    -0.526 C  
HETATM    4  C   UNL     1     -12.033  15.135  70.805  1.00  0.00    -0.376 C  
ENDROOT
BRANCH   4   5
HETATM    5  C   UNL     1     -11.536  14.209  69.718  1.00  0.00    -0.309 A  
HETATM    6  C   UNL     1     -10.787  14.699  68.644  1.00  0.00    -0.261 A  
HETATM    7  C   UNL     1     -10.384  13.849  67.610  1.00  0.00    -0.242 A  
HETATM    8  C   UNL     1     -10.714  12.483  67.632  1.00  0.00    -0.242 A  
HETATM    9  C   UNL     1     -10.324  11.612  66.439  1.00  0.00    -0.266 C  
HETATM   10  C   UNL     1     -11.437  11.990  68.725  1.00  0.00    -0.355 A  
HETATM   11  C   UNL     1     -11.301  11.650  65.262  1.00  0.00    -0.154 C  
HETATM   12  C   UNL     1     -11.838  12.844  69.759  1.00  0.00    -0.380 A  
HETATM   13  C   UNL     1     -10.054  10.150  66.807  1.00  0.00    -0.277 C  
HETATM   14  O   UNL     1     -12.424  12.382  65.417  1.00  0.00    -0.637 OA 
HETATM   15  O   UNL     1     -11.091  11.045  64.213  1.00  0.00    -0.242 OA 
ENDBRANCH   4   5
TORSDOF 1
ENDMDL
MODEL       57
REMARK 921   NORMALIZED FREE ENERGY PREDICTED BY IDOCK:   -4.19 KCAL/MOL
REMARK 922        TOTAL FREE ENERGY PREDICTED BY IDOCK:   -4.78 KCAL/MOL
REMARK 923 INTER-LIGAND FREE ENERGY PREDICTED BY IDOCK:   -4.45 KCAL/MOL
REMARK 924 INTRA-LIGAND FREE ENERGY PREDICTED BY IDOCK:   -0.32 KCAL/MOL
REMARK 927      BINDING AFFINITY PREDICTED BY RF-SCORE:    0.00 PKD
ROOT
HETATM    1  C   UNL     1     -11.119  16.205  64.777  1.00  0.00    -0.345 C  
HETATM    2  C   UNL     1     -10.279  16.584  65.998  1.00  0.00    -0.372 C  
HETATM    3  C   UNL     1     -10.290  18.104  66.178  1.00  0.00    -0.394 C  
HETATM    4  C   UNL     1     -10.776  15.892  67.286  1.00  0.00    -0.306 C  
ENDROOT
BRANCH   4   5
HETATM    5  C   UNL     1     -10.728  14.382  67.219  1.00  0.00    -0.285 A  
HETATM    6  C   UNL     1     -11.866  13.615  67.486  1.00  0.00    -0.416 A  
HETATM    7  C   UNL     1     -11.799  12.219  67.486  1.00  0.00    -0.331 A  
HETATM    8  C   UNL     1     -10.593  11.556  67.207  1.00  0.00    -0.266 A  
HETATM    9  C   UNL     1     -10.550  10.032  67.301  1.00  0.00    -0.319 C  
HETATM   10  C   UNL     1      -9.463  12.328  66.909  1.00  0.00    -0.217 A  
HETATM   11  C   UNL     1     -10.329   9.474  68.708  1.00  0.00    -0.208 C  
HETATM   12  C   UNL     1      -9.533  13.725  66.909  1.00  0.00    -0.265 A  
HETATM   13  C   UNL     1      -9.539   9.385  66.350  1.00  0.00    -0.285 C  
HETATM   14  O   UNL     1     -10.128  10.368  69.699  1.00  0.00    -0.231 OA 
HETATM   15  O   UNL     1     -10.328   8.269  68.946  1.00  0.00    -0.214 OA 
ENDBRANCH   4   5
TORSDOF 1
ENDMDL
MODEL       58
REMARK 921   NORMALIZED FREE ENERGY PREDICTED BY IDOCK:   -4.19 KCAL/MOL
REMARK 922        TOTAL FREE ENERGY PREDICTED BY IDOCK:   -4.78 KCAL/MOL
REMARK 923 INTER-LIGAND FREE ENERGY PREDICTED BY IDOCK:   -4.42 KCAL/MOL
REMARK 924 INTRA-LIGAND FREE ENERGY PREDICTED BY IDOCK:   -0.36 KCAL/MOL
REMARK 927      BINDING AFFINITY PREDICTED BY RF-SCORE:    0.00 PKD
ROOT
HETATM    1  C   UNL     1     -11.951  13.623  64.538  1.00  0.00    -0.454 C  
HETATM    2  C   UNL     1     -11.061  14.729  65.110  1.00  0.00    -0.389 C  
HETATM    3  C   UNL     1     -11.322  16.039  64.363  1.00  0.00    -0.253 C  
HETATM    4  C   UNL     1     -11.280  14.928  66.625  1.00  0.00    -0.340 C  
ENDROOT
BRANCH   4   5
HETATM    5  C   UNL     1     -10.972  13.698  67.449  1.00  0.00    -0.289 A  
HETATM    6  C   UNL     1      -9.705  13.106  67.411  1.00  0.00    -0.220 A  
HETATM    7  C   UNL     1      -9.447  11.933  68.126  1.00  0.00    -0.195 A  
HETATM    8  C   UNL     1     -10.447  11.330  68.906  1.00  0.00    -0.232 A  
HETATM    9  C   UNL     1     -10.141  10.005  69.600  1.00  0.00    -0.263 C  
HETATM   10  C   UNL     1     -11.704  11.944  68.966  1.00  0.00    -0.391 A  
HETATM   11  C   UNL     1     -10.314   8.759  68.728  1.00  0.00    -0.213 C  
HETATM   12  C   UNL     1     -11.961  13.118  68.251  1.00  0.00    -0.328 A  
HETATM   13  C   UNL     1     -10.914   9.802  70.907  1.00  0.00    -0.411 C  
HETATM   14  O   UNL     1     -10.777   8.946  67.475  1.00  0.00    -0.258 OA 
HETATM   15  O   UNL     1     -10.050   7.630  69.134  1.00  0.00    -0.183 OA 
ENDBRANCH   4   5
TORSDOF 1
ENDMDL
MODEL       59
REMARK 921   NORMALIZED FREE ENERGY PREDICTED BY IDOCK:   -4.19 KCAL/MOL
REMARK 922        TOTAL FREE ENERGY PREDICTED BY IDOCK:   -4.78 KCAL/MOL
REMARK 923 INTER-LIGAND FREE ENERGY PREDICTED BY IDOCK:   -4.60 KCAL/MOL
REMARK 924 INTRA-LIGAND FREE ENERGY PREDICTED BY IDOCK:   -0.17 KCAL/MOL
REMARK 927      BINDING AFFINITY PREDICTED BY RF-SCORE:    0.00 PKD
ROOT
HETATM    1  C   UNL     1     -12.439  10.947  70.580  1.00  0.00    -0.460 C  
HETATM    2  C   UNL     1     -11.255  10.384  69.789  1.00  0.00    -0.353 C  
HETATM    3  C   UNL     1     -11.223   8.860  69.926  1.00  0.00    -0.076 C  
HETATM    4  C   UNL     1     -11.307  10.784  68.299  1.00  0.00    -0.376 C  
ENDROOT
BRANCH   4   5
HETATM    5  C   UNL     1     -11.268  12.278  68.071  1.00  0.00    -0.321 A  
HETATM    6  C   UNL     1     -11.992  12.865  67.028  1.00  0.00    -0.390 A  
HETATM    7  C   UNL     1     -11.902  14.238  66.783  1.00  0.00    -0.449 A  
HETATM    8  C   UNL     1     -11.092  15.060  67.584  1.00  0.00    -0.317 A  
HETATM    9  C   UNL     1     -10.960  16.539  67.225  1.00  0.00    -0.084 C  
HETATM   10  C   UNL     1     -10.393  14.474  68.647  1.00  0.00    -0.242 A  
HETATM   11  C   UNL     1      -9.918  16.856  66.151  1.00  0.00    -0.315 C  
HETATM   12  C   UNL     1     -10.486  13.099  68.890  1.00  0.00    -0.117 A  
HETATM   13  C   UNL     1     -10.712  17.446  68.435  1.00  0.00    -0.301 C  
HETATM   14  O   UNL     1      -9.183  15.825  65.684  1.00  0.00    -0.279 OA 
HETATM   15  O   UNL     1      -9.741  17.993  65.721  1.00  0.00    -0.521 OA 
ENDBRANCH   4   5
TORSDOF 1
ENDMDL
MODEL       60
REMARK 921   NORMALIZED FREE ENERGY PREDICTED BY IDOCK:   -4.13 KCAL/MOL
REMARK 922        TOTAL FREE ENERGY PREDICTED BY IDOCK:   -4.72 KCAL/MOL
REMARK 923 INTER-LIGAND FREE ENERGY PREDICTED BY IDOCK:   -4.39 KCAL/MOL
REMARK 924 INTRA-LIGAND FREE ENERGY PREDICTED BY IDOCK:   -0.34 KCAL/MOL
REMARK 927      BINDING AFFINITY PREDICTED BY RF-SCORE:    0.00 PKD
ROOT
HETATM    1  C   UNL     1     -12.576  13.593  65.232  1.00  0.00    -0.512 C  
HETATM    2  C   UNL     1     -11.069  13.859  65.176  1.00  0.00    -0.334 C  
HETATM    3  C   UNL     1     -10.819  15.335  64.859  1.00  0.00    -0.444 C  
HETATM    4  C   UNL     1     -10.359  13.469  66.490  1.00  0.00    -0.282 C  
ENDROOT
BRANCH   4   5
HETATM    5  C   UNL     1     -10.496  12.004  66.842  1.00  0.00    -0.251 A  
HETATM    6  C   UNL     1     -11.061  11.607  68.057  1.00  0.00    -0.299 A  
HETATM    7  C   UNL     1     -11.126  10.254  68.403  1.00  0.00    -0.302 A  
HETATM    8  C   UNL     1     -10.636   9.265  67.535  1.00  0.00    -0.329 A  
HETATM    9  C   UNL     1     -10.652   7.808  67.993  1.00  0.00    -0.201 C  
HETATM   10  C   UNL     1     -10.099   9.665  66.304  1.00  0.00    -0.322 A  
HETATM   11  C   UNL     1      -9.465   7.387  68.861  1.00  0.00    -0.144 C  
HETATM   12  C   UNL     1     -10.036  11.020  65.960  1.00  0.00    -0.297 A  
HETATM   13  C   UNL     1     -10.804   6.804  66.846  1.00  0.00    -0.402 C  
HETATM   14  O   UNL     1      -8.503   8.308  69.076  1.00  0.00    -0.128 OA 
HETATM   15  O   UNL     1      -9.372   6.264  69.349  1.00  0.00    -0.140 OA 
ENDBRANCH   4   5
TORSDOF 1
ENDMDL
MODEL       61
REMARK 921   NORMALIZED FREE ENERGY PREDICTED BY IDOCK:   -4.12 KCAL/MOL
REMARK 922        TOTAL FREE ENERGY PREDICTED BY IDOCK:   -4.70 KCAL/MOL
REMARK 923 INTER-LIGAND FREE ENERGY PREDICTED BY IDOCK:   -4.35 KCAL/MOL
REMARK 924 INTRA-LIGAND FREE ENERGY PREDICTED BY IDOCK:   -0.35 KCAL/MOL
REMARK 927      BINDING AFFINITY PREDICTED BY RF-SCORE:    0.00 PKD
ROOT
HETATM    1  C   UNL     1      -9.081  15.815  69.052  1.00  0.00    -0.245 C  
HETATM    2  C   UNL     1     -10.349  16.264  68.321  1.00  0.00    -0.272 C  
HETATM    3  C   UNL     1     -10.340  17.786  68.164  1.00  0.00    -0.393 C  
HETATM    4  C   UNL     1     -10.498  15.587  66.942  1.00  0.00    -0.301 C  
ENDROOT
BRANCH   4   5
HETATM    5  C   UNL     1     -10.589  14.079  67.013  1.00  0.00    -0.279 A  
HETATM    6  C   UNL     1     -11.664  13.453  67.650  1.00  0.00    -0.397 A  
HETATM    7  C   UNL     1     -11.710  12.062  67.768  1.00  0.00    -0.379 A  
HETATM    8  C   UNL     1     -10.683  11.261  67.241  1.00  0.00    -0.295 A  
HETATM    9  C   UNL     1     -10.735   9.751  67.468  1.00  0.00    -0.327 C  
HETATM   10  C   UNL     1      -9.623  11.890  66.576  1.00  0.00    -0.226 A  
HETATM   11  C   UNL     1     -10.177   9.277  68.811  1.00  0.00    -0.205 C  
HETATM   12  C   UNL     1      -9.581  13.283  66.459  1.00  0.00    -0.267 A  
HETATM   13  C   UNL     1     -10.080   8.937  66.348  1.00  0.00    -0.333 C  
HETATM   14  O   UNL     1      -9.640  10.215  69.620  1.00  0.00    -0.225 OA 
HETATM   15  O   UNL     1     -10.205   8.099  69.157  1.00  0.00    -0.205 OA 
ENDBRANCH   4   5
TORSDOF 1
ENDMDL
MODEL       62
REMARK 921   NORMALIZED FREE ENERGY PREDICTED BY IDOCK:   -4.11 KCAL/MOL
REMARK 922        TOTAL FREE ENERGY PREDICTED BY IDOCK:   -4.70 KCAL/MOL
REMARK 923 INTER-LIGAND FREE ENERGY PREDICTED BY IDOCK:   -4.39 KCAL/MOL
REMARK 924 INTRA-LIGAND FREE ENERGY PREDICTED BY IDOCK:   -0.30 KCAL/MOL
REMARK 927      BINDING AFFINITY PREDICTED BY RF-SCORE:    0.00 PKD
ROOT
HETATM    1  C   UNL     1     -11.026   6.246  67.312  1.00  0.00    -0.455 C  
HETATM    2  C   UNL     1      -9.633   6.744  66.919  1.00  0.00    -0.200 C  
HETATM    3  C   UNL     1      -9.040   5.822  65.850  1.00  0.00    -0.148 C  
HETATM    4  C   UNL     1      -9.656   8.202  66.412  1.00  0.00    -0.286 C  
ENDROOT
BRANCH   4   5
HETATM    5  C   UNL     1     -10.162   9.192  67.437  1.00  0.00    -0.310 A  
HETATM    6  C   UNL     1      -9.687   9.172  68.751  1.00  0.00    -0.167 A  
HETATM    7  C   UNL     1     -10.206  10.048  69.708  1.00  0.00    -0.286 A  
HETATM    8  C   UNL     1     -11.205  10.975  69.370  1.00  0.00    -0.332 A  
HETATM    9  C   UNL     1     -11.799  11.853  70.469  1.00  0.00    -0.253 C  
HETATM   10  C   UNL     1     -11.656  11.013  68.044  1.00  0.00    -0.326 A  
HETATM   11  C   UNL     1     -12.920  11.205  71.284  1.00  0.00    -0.357 C  
HETATM   12  C   UNL     1     -11.135  10.135  67.088  1.00  0.00    -0.122 A  
HETATM   13  C   UNL     1     -12.279  13.221  69.972  1.00  0.00    -0.345 C  
HETATM   14  O   UNL     1     -13.314   9.969  70.913  1.00  0.00    -0.382 OA 
HETATM   15  O   UNL     1     -13.453  11.770  72.236  1.00  0.00    -0.423 OA 
ENDBRANCH   4   5
TORSDOF 1
ENDMDL
MODEL       63
REMARK 921   NORMALIZED FREE ENERGY PREDICTED BY IDOCK:   -4.11 KCAL/MOL
REMARK 922        TOTAL FREE ENERGY PREDICTED BY IDOCK:   -4.69 KCAL/MOL
REMARK 923 INTER-LIGAND FREE ENERGY PREDICTED BY IDOCK:   -4.36 KCAL/MOL
REMARK 924 INTRA-LIGAND FREE ENERGY PREDICTED BY IDOCK:   -0.33 KCAL/MOL
REMARK 927      BINDING AFFINITY PREDICTED BY RF-SCORE:    0.00 PKD
ROOT
HETATM    1  C   UNL     1     -11.550  10.775  70.362  1.00  0.00    -0.431 C  
HETATM    2  C   UNL     1     -12.338  10.678  71.671  1.00  0.00    -0.336 C  
HETATM    3  C   UNL     1     -13.363  11.813  71.739  1.00  0.00    -0.342 C  
HETATM    4  C   UNL     1     -13.044   9.314  71.827  1.00  0.00    -0.472 C  
ENDROOT
BRANCH   4   5
HETATM    5  C   UNL     1     -12.093   8.138  71.843  1.00  0.00    -0.368 A  
HETATM    6  C   UNL     1     -12.241   7.082  70.939  1.00  0.00    -0.388 A  
HETATM    7  C   UNL     1     -11.399   5.969  71.001  1.00  0.00    -0.299 A  
HETATM    8  C   UNL     1     -10.379   5.890  71.964  1.00  0.00    -0.250 A  
HETATM    9  C   UNL     1      -9.539   4.618  72.047  1.00  0.00    -0.205 C  
HETATM   10  C   UNL     1     -10.214   6.965  72.848  1.00  0.00    -0.226 A  
HETATM   11  C   UNL     1     -10.159   3.482  72.864  1.00  0.00    -0.155 C  
HETATM   12  C   UNL     1     -11.059   8.078  72.783  1.00  0.00    -0.448 A  
HETATM   13  C   UNL     1      -8.108   4.855  72.540  1.00  0.00    -0.115 C  
HETATM   14  O   UNL     1     -11.334   3.736  73.477  1.00  0.00    -0.242 OA 
HETATM   15  O   UNL     1      -9.625   2.381  72.971  1.00  0.00    -0.087 OA 
ENDBRANCH   4   5
TORSDOF 1
ENDMDL
MODEL       64
REMARK 921   NORMALIZED FREE ENERGY PREDICTED BY IDOCK:   -4.06 KCAL/MOL
REMARK 922        TOTAL FREE ENERGY PREDICTED BY IDOCK:   -4.64 KCAL/MOL
REMARK 923 INTER-LIGAND FREE ENERGY PREDICTED BY IDOCK:   -4.28 KCAL/MOL
REMARK 924 INTRA-LIGAND FREE ENERGY PREDICTED BY IDOCK:   -0.36 KCAL/MOL
REMARK 927      BINDING AFFINITY PREDICTED BY RF-SCORE:    0.00 PKD
ROOT
HETATM    1  C   UNL     1      -7.136  10.576  65.903  1.00  0.00    -0.134 C  
HETATM    2  C   UNL     1      -7.866   9.449  65.168  1.00  0.00    -0.110 C  
HETATM    3  C   UNL     1      -7.166   8.116  65.446  1.00  0.00    -0.068 C  
HETATM    4  C   UNL     1      -9.355   9.362  65.567  1.00  0.00    -0.315 C  
ENDROOT
BRANCH   4   5
HETATM    5  C   UNL     1     -10.140  10.617  65.259  1.00  0.00    -0.363 A  
HETATM    6  C   UNL     1     -10.218  11.113  63.954  1.00  0.00    -0.420 A  
HETATM    7  C   UNL     1     -10.892  12.308  63.686  1.00  0.00    -0.522 A  
HETATM    8  C   UNL     1     -11.514  13.030  64.718  1.00  0.00    -0.363 A  
HETATM    9  C   UNL     1     -12.165  14.372  64.389  1.00  0.00    -0.481 C  
HETATM   10  C   UNL     1     -11.460  12.513  66.019  1.00  0.00    -0.423 A  
HETATM   11  C   UNL     1     -11.211  15.568  64.364  1.00  0.00    -0.219 C  
HETATM   12  C   UNL     1     -10.786  11.317  66.283  1.00  0.00    -0.312 A  
HETATM   13  C   UNL     1     -13.359  14.713  65.287  1.00  0.00     0.733 C  
HETATM   14  O   UNL     1      -9.924  15.335  64.696  1.00  0.00    -0.087 OA 
HETATM   15  O   UNL     1     -11.582  16.699  64.060  1.00  0.00    -1.197 OA 
ENDBRANCH   4   5
TORSDOF 1
ENDMDL
MODEL       65
REMARK 921   NORMALIZED FREE ENERGY PREDICTED BY IDOCK:   -4.05 KCAL/MOL
REMARK 922        TOTAL FREE ENERGY PREDICTED BY IDOCK:   -4.63 KCAL/MOL
REMARK 923 INTER-LIGAND FREE ENERGY PREDICTED BY IDOCK:   -4.29 KCAL/MOL
REMARK 924 INTRA-LIGAND FREE ENERGY PREDICTED BY IDOCK:   -0.34 KCAL/MOL
REMARK 927      BINDING AFFINITY PREDICTED BY RF-SCORE:    0.00 PKD
ROOT
HETATM    1  C   UNL     1     -12.200  11.121  69.943  1.00  0.00    -0.385 C  
HETATM    2  C   UNL     1     -12.439  11.067  71.454  1.00  0.00    -0.436 C  
HETATM    3  C   UNL     1     -13.410  12.177  71.861  1.00  0.00    -0.421 C  
HETATM    4  C   UNL     1     -12.978   9.694  71.910  1.00  0.00    -0.527 C  
ENDROOT
BRANCH   4   5
HETATM    5  C   UNL     1     -12.042   8.545  71.610  1.00  0.00    -0.373 A  
HETATM    6  C   UNL     1     -10.708   8.577  72.028  1.00  0.00    -0.410 A  
HETATM    7  C   UNL     1      -9.833   7.540  71.692  1.00  0.00    -0.185 A  
HETATM    8  C   UNL     1     -10.274   6.440  70.938  1.00  0.00    -0.226 A  
HETATM    9  C   UNL     1      -9.260   5.375  70.525  1.00  0.00    -0.183 C  
HETATM   10  C   UNL     1     -11.619   6.398  70.548  1.00  0.00    -0.424 A  
HETATM   11  C   UNL     1      -8.459   5.697  69.262  1.00  0.00    -0.106 C  
HETATM   12  C   UNL     1     -12.493   7.436  70.886  1.00  0.00    -0.208 A  
HETATM   13  C   UNL     1      -9.864   3.974  70.382  1.00  0.00    -0.209 C  
HETATM   14  O   UNL     1      -8.768   6.837  68.611  1.00  0.00    -0.125 OA 
HETATM   15  O   UNL     1      -7.569   4.961  68.842  1.00  0.00    -0.067 OA 
ENDBRANCH   4   5
TORSDOF 1
ENDMDL
MODEL       66
REMARK 921   NORMALIZED FREE ENERGY PREDICTED BY IDOCK:   -4.04 KCAL/MOL
REMARK 922        TOTAL FREE ENERGY PREDICTED BY IDOCK:   -4.63 KCAL/MOL
REMARK 923 INTER-LIGAND FREE ENERGY PREDICTED BY IDOCK:   -4.33 KCAL/MOL
REMARK 924 INTRA-LIGAND FREE ENERGY PREDICTED BY IDOCK:   -0.30 KCAL/MOL
REMARK 927      BINDING AFFINITY PREDICTED BY RF-SCORE:    0.00 PKD
ROOT
HETATM    1  C   UNL     1     -10.859   9.726  70.806  1.00  0.00    -0.403 C  
HETATM    2  C   UNL     1     -12.017   9.321  71.721  1.00  0.00    -0.455 C  
HETATM    3  C   UNL     1     -13.020  10.473  71.823  1.00  0.00    -0.582 C  
HETATM    4  C   UNL     1     -12.726   8.040  71.232  1.00  0.00    -0.234 C  
ENDROOT
BRANCH   4   5
HETATM    5  C   UNL     1     -11.820   6.830  71.172  1.00  0.00    -0.410 A  
HETATM    6  C   UNL     1     -11.402   6.187  72.341  1.00  0.00    -0.340 A  
HETATM    7  C   UNL     1     -10.514   5.109  72.281  1.00  0.00    -0.277 A  
HETATM    8  C   UNL     1     -10.030   4.642  71.047  1.00  0.00    -0.270 A  
HETATM    9  C   UNL     1      -8.997   3.517  71.039  1.00  0.00    -0.158 C  
HETATM   10  C   UNL     1     -10.476   5.270  69.877  1.00  0.00    -0.351 A  
HETATM   11  C   UNL     1      -7.548   3.965  71.239  1.00  0.00    -0.052 C  
HETATM   12  C   UNL     1     -11.366   6.347  69.940  1.00  0.00    -0.500 A  
HETATM   13  C   UNL     1      -9.070   2.625  69.796  1.00  0.00    -0.189 C  
HETATM   14  O   UNL     1      -7.322   5.292  71.333  1.00  0.00    -0.080 OA 
HETATM   15  O   UNL     1      -6.617   3.167  71.311  1.00  0.00    -0.028 OA 
ENDBRANCH   4   5
TORSDOF 1
ENDMDL
MODEL       67
REMARK 921   NORMALIZED FREE ENERGY PREDICTED BY IDOCK:   -4.04 KCAL/MOL
REMARK 922        TOTAL FREE ENERGY PREDICTED BY IDOCK:   -4.63 KCAL/MOL
REMARK 923 INTER-LIGAND FREE ENERGY PREDICTED BY IDOCK:   -4.27 KCAL/MOL
REMARK 924 INTRA-LIGAND FREE ENERGY PREDICTED BY IDOCK:   -0.36 KCAL/MOL
REMARK 927      BINDING AFFINITY PREDICTED BY RF-SCORE:    0.00 PKD
ROOT
HETATM    1  C   UNL     1      -8.747   5.126  73.396  1.00  0.00    -0.114 C  
HETATM    2  C   UNL     1      -9.982   4.324  72.978  1.00  0.00    -0.196 C  
HETATM    3  C   UNL     1     -10.082   3.054  73.828  1.00  0.00    -0.181 C  
HETATM    4  C   UNL     1     -11.281   5.149  73.098  1.00  0.00    -0.398 C  
ENDROOT
BRANCH   4   5
HETATM    5  C   UNL     1     -11.295   6.387  72.231  1.00  0.00    -0.330 A  
HETATM    6  C   UNL     1     -11.170   6.294  70.842  1.00  0.00    -0.386 A  
HETATM    7  C   UNL     1     -11.120   7.446  70.053  1.00  0.00    -0.238 A  
HETATM    8  C   UNL     1     -11.204   8.722  70.635  1.00  0.00    -0.294 A  
HETATM    9  C   UNL     1     -11.060   9.951  69.740  1.00  0.00    -0.294 C  
HETATM   10  C   UNL     1     -11.361   8.810  72.024  1.00  0.00    -0.441 A  
HETATM   11  C   UNL     1      -9.619  10.373  69.444  1.00  0.00    -0.192 C  
HETATM   12  C   UNL     1     -11.412   7.655  72.811  1.00  0.00    -0.384 A  
HETATM   13  C   UNL     1     -11.837  11.172  70.242  1.00  0.00    -0.455 C  
HETATM   14  O   UNL     1      -8.637   9.672  70.047  1.00  0.00    -0.184 OA 
HETATM   15  O   UNL     1      -9.348  11.308  68.695  1.00  0.00    -0.180 OA 
ENDBRANCH   4   5
TORSDOF 1
ENDMDL
MODEL       68
REMARK 921   NORMALIZED FREE ENERGY PREDICTED BY IDOCK:   -4.04 KCAL/MOL
REMARK 922        TOTAL FREE ENERGY PREDICTED BY IDOCK:   -4.62 KCAL/MOL
REMARK 923 INTER-LIGAND FREE ENERGY PREDICTED BY IDOCK:   -4.32 KCAL/MOL
REMARK 924 INTRA-LIGAND FREE ENERGY PREDICTED BY IDOCK:   -0.30 KCAL/MOL
REMARK 927      BINDING AFFINITY PREDICTED BY RF-SCORE:    0.00 PKD
ROOT
HETATM    1  C   UNL     1     -11.252  10.134  69.472  1.00  0.00    -0.288 C  
HETATM    2  C   UNL     1     -11.707  10.789  70.778  1.00  0.00    -0.400 C  
HETATM    3  C   UNL     1     -12.401  12.118  70.472  1.00  0.00    -0.358 C  
HETATM    4  C   UNL     1     -12.645   9.874  71.593  1.00  0.00    -0.519 C  
ENDROOT
BRANCH   4   5
HETATM    5  C   UNL     1     -12.011   8.564  72.002  1.00  0.00    -0.427 A  
HETATM    6  C   UNL     1     -10.730   8.529  72.561  1.00  0.00    -0.303 A  
HETATM    7  C   UNL     1     -10.124   7.310  72.877  1.00  0.00    -0.272 A  
HETATM    8  C   UNL     1     -10.791   6.095  72.651  1.00  0.00    -0.279 A  
HETATM    9  C   UNL     1     -10.055   4.787  72.934  1.00  0.00    -0.212 C  
HETATM   10  C   UNL     1     -12.087   6.135  72.121  1.00  0.00    -0.263 A  
HETATM   11  C   UNL     1      -9.146   4.296  71.806  1.00  0.00    -0.123 C  
HETATM   12  C   UNL     1     -12.691   7.357  71.806  1.00  0.00    -0.367 A  
HETATM   13  C   UNL     1     -10.979   3.640  73.356  1.00  0.00    -0.312 C  
HETATM   14  O   UNL     1      -9.136   5.017  70.666  1.00  0.00    -0.126 OA 
HETATM   15  O   UNL     1      -8.449   3.290  71.913  1.00  0.00    -0.071 OA 
ENDBRANCH   4   5
TORSDOF 1
ENDMDL
MODEL       69
REMARK 921   NORMALIZED FREE ENERGY PREDICTED BY IDOCK:   -4.02 KCAL/MOL
REMARK 922        TOTAL FREE ENERGY PREDICTED BY IDOCK:   -4.60 KCAL/MOL
REMARK 923 INTER-LIGAND FREE ENERGY PREDICTED BY IDOCK:   -4.45 KCAL/MOL
REMARK 924 INTRA-LIGAND FREE ENERGY PREDICTED BY IDOCK:   -0.15 KCAL/MOL
REMARK 927      BINDING AFFINITY PREDICTED BY RF-SCORE:    0.00 PKD
ROOT
HETATM    1  C   UNL     1     -10.474   9.589  71.381  1.00  0.00    -0.258 C  
HETATM    2  C   UNL     1     -11.892   9.942  70.925  1.00  0.00    -0.443 C  
HETATM    3  C   UNL     1     -12.795  10.125  72.148  1.00  0.00    -0.381 C  
HETATM    4  C   UNL     1     -11.923  11.211  70.047  1.00  0.00    -0.447 C  
ENDROOT
BRANCH   4   5
HETATM    5  C   UNL     1     -11.112  11.089  68.776  1.00  0.00    -0.293 A  
HETATM    6  C   UNL     1     -10.454  12.197  68.235  1.00  0.00    -0.225 A  
HETATM    7  C   UNL     1      -9.759  12.092  67.027  1.00  0.00    -0.208 A  
HETATM    8  C   UNL     1      -9.697  10.871  66.336  1.00  0.00    -0.240 A  
HETATM    9  C   UNL     1      -8.997  10.826  64.979  1.00  0.00    -0.211 C  
HETATM   10  C   UNL     1     -10.331   9.755  66.898  1.00  0.00    -0.301 A  
HETATM   11  C   UNL     1      -9.859  11.255  63.790  1.00  0.00    -0.322 C  
HETATM   12  C   UNL     1     -11.025   9.863  68.108  1.00  0.00    -0.261 A  
HETATM   13  C   UNL     1      -8.358   9.471  64.661  1.00  0.00    -0.161 C  
HETATM   14  O   UNL     1     -11.149  11.559  64.043  1.00  0.00    -0.365 OA 
HETATM   15  O   UNL     1      -9.416  11.324  62.647  1.00  0.00    -0.337 OA 
ENDBRANCH   4   5
TORSDOF 1
ENDMDL
MODEL       70
REMARK 921   NORMALIZED FREE ENERGY PREDICTED BY IDOCK:   -4.02 KCAL/MOL
REMARK 922        TOTAL FREE ENERGY PREDICTED BY IDOCK:   -4.60 KCAL/MOL
REMARK 923 INTER-LIGAND FREE ENERGY PREDICTED BY IDOCK:   -4.26 KCAL/MOL
REMARK 924 INTRA-LIGAND FREE ENERGY PREDICTED BY IDOCK:   -0.33 KCAL/MOL
REMARK 927      BINDING AFFINITY PREDICTED BY RF-SCORE:    0.00 PKD
ROOT
HETATM    1  C   UNL     1      -9.009   5.480  72.409  1.00  0.00    -0.137 C  
HETATM    2  C   UNL     1     -10.539   5.429  72.406  1.00  0.00    -0.276 C  
HETATM    3  C   UNL     1     -11.030   4.659  73.634  1.00  0.00    -0.392 C  
HETATM    4  C   UNL     1     -11.168   6.838  72.373  1.00  0.00    -0.300 C  
ENDROOT
BRANCH   4   5
HETATM    5  C   UNL     1     -10.791   7.643  71.150  1.00  0.00    -0.251 A  
HETATM    6  C   UNL     1     -10.194   8.901  71.274  1.00  0.00    -0.361 A  
HETATM    7  C   UNL     1      -9.907   9.667  70.141  1.00  0.00    -0.310 A  
HETATM    8  C   UNL     1     -10.200   9.187  68.854  1.00  0.00    -0.221 A  
HETATM    9  C   UNL     1      -9.945  10.095  67.653  1.00  0.00    -0.216 C  
HETATM   10  C   UNL     1     -10.769   7.913  68.733  1.00  0.00    -0.082 A  
HETATM   11  C   UNL     1     -11.062  11.094  67.345  1.00  0.00    -0.307 C  
HETATM   12  C   UNL     1     -11.055   7.148  69.869  1.00  0.00    -0.264 A  
HETATM   13  C   UNL     1      -9.598   9.334  66.369  1.00  0.00    -0.301 C  
HETATM   14  O   UNL     1     -12.173  11.029  68.109  1.00  0.00    -0.578 OA 
HETATM   15  O   UNL     1     -10.972  11.924  66.445  1.00  0.00    -0.267 OA 
ENDBRANCH   4   5
TORSDOF 1
ENDMDL
MODEL       71
REMARK 921   NORMALIZED FREE ENERGY PREDICTED BY IDOCK:   -4.00 KCAL/MOL
REMARK 922        TOTAL FREE ENERGY PREDICTED BY IDOCK:   -4.58 KCAL/MOL
REMARK 923 INTER-LIGAND FREE ENERGY PREDICTED BY IDOCK:   -4.28 KCAL/MOL
REMARK 924 INTRA-LIGAND FREE ENERGY PREDICTED BY IDOCK:   -0.30 KCAL/MOL
REMARK 927      BINDING AFFINITY PREDICTED BY RF-SCORE:    0.00 PKD
ROOT
HETATM    1  C   UNL     1      -6.673  19.746  67.705  1.00  0.00    -0.275 C  
HETATM    2  C   UNL     1      -7.140  19.794  66.248  1.00  0.00    -0.263 C  
HETATM    3  C   UNL     1      -6.267  20.774  65.460  1.00  0.00    -0.279 C  
HETATM    4  C   UNL     1      -7.112  18.402  65.581  1.00  0.00    -0.200 C  
ENDROOT
BRANCH   4   5
HETATM    5  C   UNL     1      -8.008  17.388  66.256  1.00  0.00    -0.314 A  
HETATM    6  C   UNL     1      -7.530  16.117  66.591  1.00  0.00    -0.200 A  
HETATM    7  C   UNL     1      -8.381  15.164  67.157  1.00  0.00    -0.247 A  
HETATM    8  C   UNL     1      -9.730  15.462  67.411  1.00  0.00    -0.215 A  
HETATM    9  C   UNL     1     -10.639  14.361  67.952  1.00  0.00    -0.240 C  
HETATM   10  C   UNL     1     -10.196  16.747  67.103  1.00  0.00    -0.295 A  
HETATM   11  C   UNL     1     -11.227  13.426  66.893  1.00  0.00    -0.308 C  
HETATM   12  C   UNL     1      -9.342  17.699  66.538  1.00  0.00    -0.286 A  
HETATM   13  C   UNL     1     -11.777  14.882  68.836  1.00  0.00    -0.343 C  
HETATM   14  O   UNL     1     -10.945  13.704  65.603  1.00  0.00    -0.287 OA 
HETATM   15  O   UNL     1     -11.930  12.462  67.184  1.00  0.00    -0.528 OA 
ENDBRANCH   4   5
TORSDOF 1
ENDMDL
MODEL       72
REMARK 921   NORMALIZED FREE ENERGY PREDICTED BY IDOCK:   -3.99 KCAL/MOL
REMARK 922        TOTAL FREE ENERGY PREDICTED BY IDOCK:   -4.57 KCAL/MOL
REMARK 923 INTER-LIGAND FREE ENERGY PREDICTED BY IDOCK:   -4.22 KCAL/MOL
REMARK 924 INTRA-LIGAND FREE ENERGY PREDICTED BY IDOCK:   -0.36 KCAL/MOL
REMARK 927      BINDING AFFINITY PREDICTED BY RF-SCORE:    0.00 PKD
ROOT
HETATM    1  C   UNL     1      -9.462  14.578  68.224  1.00  0.00    -0.207 C  
HETATM    2  C   UNL     1     -10.897  14.727  68.736  1.00  0.00    -0.259 C  
HETATM    3  C   UNL     1     -11.335  16.189  68.619  1.00  0.00    -0.365 C  
HETATM    4  C   UNL     1     -11.884  13.814  67.978  1.00  0.00    -0.408 C  
ENDROOT
BRANCH   4   5
HETATM    5  C   UNL     1     -11.565  12.341  68.102  1.00  0.00    -0.396 A  
HETATM    6  C   UNL     1     -11.582  11.705  69.347  1.00  0.00    -0.392 A  
HETATM    7  C   UNL     1     -11.224  10.359  69.462  1.00  0.00    -0.325 A  
HETATM    8  C   UNL     1     -10.851   9.613  68.331  1.00  0.00    -0.212 A  
HETATM    9  C   UNL     1     -10.388   8.170  68.520  1.00  0.00    -0.230 C  
HETATM   10  C   UNL     1     -10.867  10.246  67.082  1.00  0.00    -0.278 A  
HETATM   11  C   UNL     1      -8.915   8.005  68.898  1.00  0.00    -0.141 C  
HETATM   12  C   UNL     1     -11.226  11.593  66.969  1.00  0.00    -0.376 A  
HETATM   13  C   UNL     1     -10.693   7.264  67.323  1.00  0.00    -0.391 C  
HETATM   14  O   UNL     1      -8.166   9.127  68.959  1.00  0.00    -0.110 OA 
HETATM   15  O   UNL     1      -8.415   6.909  69.137  1.00  0.00    -0.127 OA 
ENDBRANCH   4   5
TORSDOF 1
ENDMDL
MODEL       73
REMARK 921   NORMALIZED FREE ENERGY PREDICTED BY IDOCK:   -3.99 KCAL/MOL
REMARK 922        TOTAL FREE ENERGY PREDICTED BY IDOCK:   -4.57 KCAL/MOL
REMARK 923 INTER-LIGAND FREE ENERGY PREDICTED BY IDOCK:   -4.24 KCAL/MOL
REMARK 924 INTRA-LIGAND FREE ENERGY PREDICTED BY IDOCK:   -0.33 KCAL/MOL
REMARK 927      BINDING AFFINITY PREDICTED BY RF-SCORE:    0.00 PKD
ROOT
HETATM    1  C   UNL     1     -12.693  13.258  71.314  1.00  0.00    -0.411 C  
HETATM    2  C   UNL     1     -12.900  14.510  70.458  1.00  0.00    -0.361 C  
HETATM    3  C   UNL     1     -13.356  15.671  71.345  1.00  0.00    -0.512 C  
HETATM    4  C   UNL     1     -11.625  14.902  69.681  1.00  0.00    -0.337 C  
ENDROOT
BRANCH   4   5
HETATM    5  C   UNL     1     -11.145  13.835  68.723  1.00  0.00    -0.295 A  
HETATM    6  C   UNL     1     -12.014  13.268  67.786  1.00  0.00    -0.356 A  
HETATM    7  C   UNL     1     -11.581  12.237  66.947  1.00  0.00    -0.427 A  
HETATM    8  C   UNL     1     -10.263  11.756  67.019  1.00  0.00    -0.240 A  
HETATM    9  C   UNL     1      -9.862  10.573  66.141  1.00  0.00    -0.271 C  
HETATM   10  C   UNL     1      -9.388  12.348  67.937  1.00  0.00    -0.195 A  
HETATM   11  C   UNL     1     -10.211   9.195  66.708  1.00  0.00    -0.261 C  
HETATM   12  C   UNL     1      -9.823  13.380  68.775  1.00  0.00    -0.030 A  
HETATM   13  C   UNL     1      -8.384  10.579  65.737  1.00  0.00    -0.166 C  
HETATM   14  O   UNL     1     -10.766   9.159  67.937  1.00  0.00    -0.230 OA 
HETATM   15  O   UNL     1     -10.000   8.156  66.089  1.00  0.00    -0.149 OA 
ENDBRANCH   4   5
TORSDOF 1
ENDMDL
MODEL       74
REMARK 921   NORMALIZED FREE ENERGY PREDICTED BY IDOCK:   -3.97 KCAL/MOL
REMARK 922        TOTAL FREE ENERGY PREDICTED BY IDOCK:   -4.54 KCAL/MOL
REMARK 923 INTER-LIGAND FREE ENERGY PREDICTED BY IDOCK:   -4.18 KCAL/MOL
REMARK 924 INTRA-LIGAND FREE ENERGY PREDICTED BY IDOCK:   -0.36 KCAL/MOL
REMARK 927      BINDING AFFINITY PREDICTED BY RF-SCORE:    0.00 PKD
ROOT
HETATM    1  C   UNL     1      -7.974   4.964  71.989  1.00  0.00    -0.110 C  
HETATM    2  C   UNL     1      -9.137   3.980  71.842  1.00  0.00    -0.167 C  
HETATM    3  C   UNL     1      -8.703   2.594  72.326  1.00  0.00    -0.089 C  
HETATM    4  C   UNL     1     -10.393   4.443  72.610  1.00  0.00    -0.248 C  
ENDROOT
BRANCH   4   5
HETATM    5  C   UNL     1     -10.934   5.775  72.143  1.00  0.00    -0.311 A  
HETATM    6  C   UNL     1     -11.331   5.964  70.816  1.00  0.00    -0.205 A  
HETATM    7  C   UNL     1     -11.769   7.216  70.375  1.00  0.00    -0.273 A  
HETATM    8  C   UNL     1     -11.831   8.308  71.257  1.00  0.00    -0.319 A  
HETATM    9  C   UNL     1     -12.236   9.675  70.709  1.00  0.00    -0.309 C  
HETATM   10  C   UNL     1     -11.463   8.107  72.593  1.00  0.00    -0.454 A  
HETATM   11  C   UNL     1     -11.103  10.480  70.069  1.00  0.00    -0.308 C  
HETATM   12  C   UNL     1     -11.025   6.852  73.031  1.00  0.00    -0.308 A  
HETATM   13  C   UNL     1     -12.951  10.561  71.734  1.00  0.00    -0.582 C  
HETATM   14  O   UNL     1      -9.866   9.942  70.112  1.00  0.00    -0.247 OA 
HETATM   15  O   UNL     1     -11.290  11.571  69.536  1.00  0.00    -0.256 OA 
ENDBRANCH   4   5
TORSDOF 1
ENDMDL
MODEL       75
REMARK 921   NORMALIZED FREE ENERGY PREDICTED BY IDOCK:   -3.96 KCAL/MOL
REMARK 922        TOTAL FREE ENERGY PREDICTED BY IDOCK:   -4.54 KCAL/MOL
REMARK 923 INTER-LIGAND FREE ENERGY PREDICTED BY IDOCK:   -4.19 KCAL/MOL
REMARK 924 INTRA-LIGAND FREE ENERGY PREDICTED BY IDOCK:   -0.35 KCAL/MOL
REMARK 927      BINDING AFFINITY PREDICTED BY RF-SCORE:    0.00 PKD
ROOT
HETATM    1  C   UNL     1     -10.533   7.778  66.959  1.00  0.00    -0.419 C  
HETATM    2  C   UNL     1      -9.063   7.744  66.536  1.00  0.00    -0.208 C  
HETATM    3  C   UNL     1      -8.651   6.303  66.223  1.00  0.00    -0.138 C  
HETATM    4  C   UNL     1      -8.785   8.653  65.319  1.00  0.00    -0.200 C  
ENDROOT
BRANCH   4   5
HETATM    5  C   UNL     1      -9.097  10.111  65.569  1.00  0.00    -0.216 A  
HETATM    6  C   UNL     1      -8.513  10.799  66.637  1.00  0.00    -0.142 A  
HETATM    7  C   UNL     1      -8.855  12.128  66.899  1.00  0.00    -0.202 A  
HETATM    8  C   UNL     1      -9.782  12.806  66.091  1.00  0.00    -0.246 A  
HETATM    9  C   UNL     1     -10.186  14.230  66.468  1.00  0.00    -0.277 C  
HETATM   10  C   UNL     1     -10.340  12.124  65.003  1.00  0.00    -0.320 A  
HETATM   11  C   UNL     1     -11.291  14.335  67.520  1.00  0.00    -0.326 C  
HETATM   12  C   UNL     1      -9.996  10.793  64.742  1.00  0.00    -0.382 A  
HETATM   13  C   UNL     1     -10.567  15.100  65.265  1.00  0.00    -0.432 C  
HETATM   14  O   UNL     1     -11.838  13.180  67.954  1.00  0.00    -0.342 OA 
HETATM   15  O   UNL     1     -11.679  15.413  67.962  1.00  0.00    -0.336 OA 
ENDBRANCH   4   5
TORSDOF 1
ENDMDL
MODEL       76
REMARK 921   NORMALIZED FREE ENERGY PREDICTED BY IDOCK:   -3.94 KCAL/MOL
REMARK 922        TOTAL FREE ENERGY PREDICTED BY IDOCK:   -4.52 KCAL/MOL
REMARK 923 INTER-LIGAND FREE ENERGY PREDICTED BY IDOCK:   -4.20 KCAL/MOL
REMARK 924 INTRA-LIGAND FREE ENERGY PREDICTED BY IDOCK:   -0.31 KCAL/MOL
REMARK 927      BINDING AFFINITY PREDICTED BY RF-SCORE:    0.00 PKD
ROOT
HETATM    1  C   UNL     1     -10.083  14.322  65.458  1.00  0.00    -0.370 C  
HETATM    2  C   UNL     1     -11.536  13.885  65.253  1.00  0.00    -0.319 C  
HETATM    3  C   UNL     1     -12.266  14.915  64.387  1.00  0.00    -0.399 C  
HETATM    4  C   UNL     1     -11.639  12.484  64.614  1.00  0.00    -0.396 C  
ENDROOT
BRANCH   4   5
HETATM    5  C   UNL     1     -11.004  11.391  65.444  1.00  0.00    -0.249 A  
HETATM    6  C   UNL     1     -10.074  10.511  64.882  1.00  0.00    -0.403 A  
HETATM    7  C   UNL     1      -9.540   9.463  65.637  1.00  0.00    -0.345 A  
HETATM    8  C   UNL     1      -9.915   9.278  66.978  1.00  0.00    -0.286 A  
HETATM    9  C   UNL     1      -9.369   8.070  67.737  1.00  0.00    -0.151 C  
HETATM   10  C   UNL     1     -10.823  10.181  67.546  1.00  0.00    -0.349 A  
HETATM   11  C   UNL     1     -10.139   6.766  67.523  1.00  0.00    -0.170 C  
HETATM   12  C   UNL     1     -11.356  11.228  66.788  1.00  0.00    -0.187 A  
HETATM   13  C   UNL     1      -9.212   8.308  69.242  1.00  0.00    -0.151 C  
HETATM   14  O   UNL     1     -11.246   6.824  66.753  1.00  0.00    -0.312 OA 
HETATM   15  O   UNL     1      -9.783   5.701  68.022  1.00  0.00    -0.117 OA 
ENDBRANCH   4   5
TORSDOF 1
ENDMDL
MODEL       77
REMARK 921   NORMALIZED FREE ENERGY PREDICTED BY IDOCK:   -3.93 KCAL/MOL
REMARK 922        TOTAL FREE ENERGY PREDICTED BY IDOCK:   -4.51 KCAL/MOL
REMARK 923 INTER-LIGAND FREE ENERGY PREDICTED BY IDOCK:   -4.30 KCAL/MOL
REMARK 924 INTRA-LIGAND FREE ENERGY PREDICTED BY IDOCK:   -0.21 KCAL/MOL
REMARK 927      BINDING AFFINITY PREDICTED BY RF-SCORE:    0.00 PKD
ROOT
HETATM    1  C   UNL     1     -10.282  12.192  66.056  1.00  0.00    -0.265 C  
HETATM    2  C   UNL     1     -11.256  12.895  65.107  1.00  0.00    -0.319 C  
HETATM    3  C   UNL     1     -12.204  11.866  64.488  1.00  0.00    -0.231 C  
HETATM    4  C   UNL     1     -12.063  14.003  65.818  1.00  0.00    -0.445 C  
ENDROOT
BRANCH   4   5
HETATM    5  C   UNL     1     -11.203  15.103  66.398  1.00  0.00    -0.277 A  
HETATM    6  C   UNL     1     -10.058  15.548  65.730  1.00  0.00    -0.388 A  
HETATM    7  C   UNL     1      -9.233  16.520  66.302  1.00  0.00    -0.345 A  
HETATM    8  C   UNL     1      -9.539  17.079  67.554  1.00  0.00    -0.249 A  
HETATM    9  C   UNL     1      -8.563  18.075  68.176  1.00  0.00    -0.277 C  
HETATM   10  C   UNL     1     -10.704  16.653  68.205  1.00  0.00    -0.351 A  
HETATM   11  C   UNL     1      -7.393  17.449  68.937  1.00  0.00    -0.244 C  
HETATM   12  C   UNL     1     -11.529  15.681  67.630  1.00  0.00    -0.167 A  
HETATM   13  C   UNL     1      -9.236  19.116  69.076  1.00  0.00    -0.302 C  
HETATM   14  O   UNL     1      -7.377  16.103  69.042  1.00  0.00    -0.177 OA 
HETATM   15  O   UNL     1      -6.499  18.124  69.441  1.00  0.00    -0.260 OA 
ENDBRANCH   4   5
TORSDOF 1
ENDMDL
MODEL       78
REMARK 921   NORMALIZED FREE ENERGY PREDICTED BY IDOCK:   -3.92 KCAL/MOL
REMARK 922        TOTAL FREE ENERGY PREDICTED BY IDOCK:   -4.49 KCAL/MOL
REMARK 923 INTER-LIGAND FREE ENERGY PREDICTED BY IDOCK:   -4.14 KCAL/MOL
REMARK 924 INTRA-LIGAND FREE ENERGY PREDICTED BY IDOCK:   -0.36 KCAL/MOL
REMARK 927      BINDING AFFINITY PREDICTED BY RF-SCORE:    0.00 PKD
ROOT
HETATM    1  C   UNL     1     -10.558  10.914  66.817  1.00  0.00    -0.313 C  
HETATM    2  C   UNL     1     -10.402   9.979  65.615  1.00  0.00    -0.171 C  
HETATM    3  C   UNL     1     -10.106  10.801  64.359  1.00  0.00    -0.419 C  
HETATM    4  C   UNL     1      -9.294   8.927  65.836  1.00  0.00    -0.301 C  
ENDROOT
BRANCH   4   5
HETATM    5  C   UNL     1      -9.545   8.020  67.020  1.00  0.00    -0.252 A  
HETATM    6  C   UNL     1     -10.667   7.187  67.061  1.00  0.00    -0.420 A  
HETATM    7  C   UNL     1     -10.927   6.400  68.186  1.00  0.00    -0.393 A  
HETATM    8  C   UNL     1     -10.064   6.418  69.294  1.00  0.00    -0.203 A  
HETATM    9  C   UNL     1     -10.435   5.605  70.532  1.00  0.00    -0.347 C  
HETATM   10  C   UNL     1      -8.924   7.231  69.235  1.00  0.00    -0.135 A  
HETATM   11  C   UNL     1     -11.402   6.294  71.496  1.00  0.00    -0.296 C  
HETATM   12  C   UNL     1      -8.666   8.017  68.107  1.00  0.00    -0.126 A  
HETATM   13  C   UNL     1      -9.223   5.104  71.325  1.00  0.00    -0.182 C  
HETATM   14  O   UNL     1     -11.772   7.557  71.197  1.00  0.00    -0.279 OA 
HETATM   15  O   UNL     1     -11.833   5.741  72.504  1.00  0.00    -0.297 OA 
ENDBRANCH   4   5
TORSDOF 1
ENDMDL
MODEL       79
REMARK 921   NORMALIZED FREE ENERGY PREDICTED BY IDOCK:   -3.89 KCAL/MOL
REMARK 922        TOTAL FREE ENERGY PREDICTED BY IDOCK:   -4.47 KCAL/MOL
REMARK 923 INTER-LIGAND FREE ENERGY PREDICTED BY IDOCK:   -4.25 KCAL/MOL
REMARK 924 INTRA-LIGAND FREE ENERGY PREDICTED BY IDOCK:   -0.21 KCAL/MOL
REMARK 927      BINDING AFFINITY PREDICTED BY RF-SCORE:    0.00 PKD
ROOT
HETATM    1  C   UNL     1     -10.526   7.897  67.197  1.00  0.00    -0.414 C  
HETATM    2  C   UNL     1      -9.278   8.380  66.453  1.00  0.00    -0.253 C  
HETATM    3  C   UNL     1      -8.637   7.207  65.708  1.00  0.00    -0.143 C  
HETATM    4  C   UNL     1      -9.594   9.527  65.469  1.00  0.00    -0.349 C  
ENDROOT
BRANCH   4   5
HETATM    5  C   UNL     1     -10.166  10.758  66.135  1.00  0.00    -0.308 A  
HETATM    6  C   UNL     1     -11.189  11.493  65.528  1.00  0.00    -0.204 A  
HETATM    7  C   UNL     1     -11.669  12.665  66.119  1.00  0.00    -0.461 A  
HETATM    8  C   UNL     1     -11.143  13.125  67.337  1.00  0.00    -0.301 A  
HETATM    9  C   UNL     1     -11.640  14.455  67.900  1.00  0.00    -0.374 C  
HETATM   10  C   UNL     1     -10.139  12.369  67.957  1.00  0.00    -0.214 A  
HETATM   11  C   UNL     1     -10.951  15.698  67.334  1.00  0.00    -0.293 C  
HETATM   12  C   UNL     1      -9.662  11.195  67.364  1.00  0.00    -0.191 A  
HETATM   13  C   UNL     1     -11.606  14.527  69.430  1.00  0.00    -0.343 C  
HETATM   14  O   UNL     1      -9.943  15.498  66.459  1.00  0.00    -0.249 OA 
HETATM   15  O   UNL     1     -11.285  16.837  67.650  1.00  0.00    -0.159 OA 
ENDBRANCH   4   5
TORSDOF 1
ENDMDL
MODEL       80
REMARK 921   NORMALIZED FREE ENERGY PREDICTED BY IDOCK:   -3.84 KCAL/MOL
REMARK 922        TOTAL FREE ENERGY PREDICTED BY IDOCK:   -4.41 KCAL/MOL
REMARK 923 INTER-LIGAND FREE ENERGY PREDICTED BY IDOCK:   -4.08 KCAL/MOL
REMARK 924 INTRA-LIGAND FREE ENERGY PREDICTED BY IDOCK:   -0.33 KCAL/MOL
REMARK 927      BINDING AFFINITY PREDICTED BY RF-SCORE:    0.00 PKD
ROOT
HETATM    1  C   UNL     1      -8.774   8.487  65.554  1.00  0.00    -0.208 C  
HETATM    2  C   UNL     1      -8.015   9.811  65.672  1.00  0.00    -0.117 C  
HETATM    3  C   UNL     1      -7.323  10.127  64.344  1.00  0.00    -0.116 C  
HETATM    4  C   UNL     1      -8.938  10.978  66.082  1.00  0.00    -0.203 C  
ENDROOT
BRANCH   4   5
HETATM    5  C   UNL     1      -9.608  10.778  67.423  1.00  0.00    -0.179 A  
HETATM    6  C   UNL     1      -8.861  10.451  68.558  1.00  0.00    -0.142 A  
HETATM    7  C   UNL     1      -9.494  10.205  69.780  1.00  0.00    -0.201 A  
HETATM    8  C   UNL     1     -10.891  10.293  69.898  1.00  0.00    -0.355 A  
HETATM    9  C   UNL     1     -11.542   9.934  71.232  1.00  0.00    -0.456 C  
HETATM   10  C   UNL     1     -11.633  10.653  68.766  1.00  0.00    -0.309 A  
HETATM   11  C   UNL     1     -11.792   8.441  71.452  1.00  0.00    -0.296 C  
HETATM   12  C   UNL     1     -10.997  10.898  67.544  1.00  0.00    -0.352 A  
HETATM   13  C   UNL     1     -12.842  10.696  71.507  1.00  0.00    -0.567 C  
HETATM   14  O   UNL     1     -11.482   7.609  70.435  1.00  0.00    -0.259 OA 
HETATM   15  O   UNL     1     -12.257   7.998  72.499  1.00  0.00    -0.318 OA 
ENDBRANCH   4   5
TORSDOF 1
ENDMDL
MODEL       81
REMARK 921   NORMALIZED FREE ENERGY PREDICTED BY IDOCK:   -3.83 KCAL/MOL
REMARK 922        TOTAL FREE ENERGY PREDICTED BY IDOCK:   -4.40 KCAL/MOL
REMARK 923 INTER-LIGAND FREE ENERGY PREDICTED BY IDOCK:   -4.25 KCAL/MOL
REMARK 924 INTRA-LIGAND FREE ENERGY PREDICTED BY IDOCK:   -0.15 KCAL/MOL
REMARK 927      BINDING AFFINITY PREDICTED BY RF-SCORE:    0.00 PKD
ROOT
HETATM    1  C   UNL     1      -9.298  12.279  65.951  1.00  0.00    -0.098 C  
HETATM    2  C   UNL     1     -10.042  11.054  65.414  1.00  0.00    -0.326 C  
HETATM    3  C   UNL     1      -9.524  10.710  64.015  1.00  0.00    -0.329 C  
HETATM    4  C   UNL     1      -9.905   9.833  66.348  1.00  0.00    -0.298 C  
ENDROOT
BRANCH   4   5
HETATM    5  C   UNL     1     -10.462  10.064  67.735  1.00  0.00    -0.282 A  
HETATM    6  C   UNL     1      -9.877   9.462  68.853  1.00  0.00    -0.176 A  
HETATM    7  C   UNL     1     -10.435   9.628  70.123  1.00  0.00    -0.321 A  
HETATM    8  C   UNL     1     -11.586  10.412  70.307  1.00  0.00    -0.410 A  
HETATM    9  C   UNL     1     -12.207  10.495  71.700  1.00  0.00    -0.292 C  
HETATM   10  C   UNL     1     -12.150  11.039  69.189  1.00  0.00    -0.333 A  
HETATM   11  C   UNL     1     -13.145   9.343  72.064  1.00  0.00    -0.433 C  
HETATM   12  C   UNL     1     -11.589  10.871  67.918  1.00  0.00    -0.270 A  
HETATM   13  C   UNL     1     -12.925  11.820  71.976  1.00  0.00    -0.370 C  
HETATM   14  O   UNL     1     -13.382   8.418  71.109  1.00  0.00    -0.166 OA 
HETATM   15  O   UNL     1     -13.671   9.246  73.169  1.00  0.00    -0.143 OA 
ENDBRANCH   4   5
TORSDOF 1
ENDMDL
MODEL       82
REMARK 921   NORMALIZED FREE ENERGY PREDICTED BY IDOCK:   -3.80 KCAL/MOL
REMARK 922        TOTAL FREE ENERGY PREDICTED BY IDOCK:   -4.37 KCAL/MOL
REMARK 923 INTER-LIGAND FREE ENERGY PREDICTED BY IDOCK:   -4.07 KCAL/MOL
REMARK 924 INTRA-LIGAND FREE ENERGY PREDICTED BY IDOCK:   -0.30 KCAL/MOL
REMARK 927      BINDING AFFINITY PREDICTED BY RF-SCORE:    0.00 PKD
ROOT
HETATM    1  C   UNL     1     -10.362   7.922  67.259  1.00  0.00    -0.377 C  
HETATM    2  C   UNL     1      -9.213   8.412  66.374  1.00  0.00    -0.253 C  
HETATM    3  C   UNL     1      -8.784   7.294  65.422  1.00  0.00     0.009 C  
HETATM    4  C   UNL     1      -9.592   9.677  65.574  1.00  0.00    -0.351 C  
ENDROOT
BRANCH   4   5
HETATM    5  C   UNL     1      -9.960  10.857  66.444  1.00  0.00    -0.266 A  
HETATM    6  C   UNL     1      -9.170  11.217  67.540  1.00  0.00    -0.159 A  
HETATM    7  C   UNL     1      -9.551  12.269  68.377  1.00  0.00    -0.183 A  
HETATM    8  C   UNL     1     -10.728  12.995  68.132  1.00  0.00    -0.258 A  
HETATM    9  C   UNL     1     -11.145  14.080  69.122  1.00  0.00    -0.294 C  
HETATM   10  C   UNL     1     -11.501  12.652  67.015  1.00  0.00    -0.406 A  
HETATM   11  C   UNL     1     -11.916  13.581  70.346  1.00  0.00    -0.295 C  
HETATM   12  C   UNL     1     -11.117  11.599  66.178  1.00  0.00    -0.335 A  
HETATM   13  C   UNL     1     -11.930  15.229  68.481  1.00  0.00    -0.228 C  
HETATM   14  O   UNL     1     -12.206  12.264  70.395  1.00  0.00    -0.342 OA 
HETATM   15  O   UNL     1     -12.266  14.330  71.253  1.00  0.00    -0.334 OA 
ENDBRANCH   4   5
TORSDOF 1
ENDMDL
MODEL       83
REMARK 921   NORMALIZED FREE ENERGY PREDICTED BY IDOCK:   -3.75 KCAL/MOL
REMARK 922        TOTAL FREE ENERGY PREDICTED BY IDOCK:   -4.32 KCAL/MOL
REMARK 923 INTER-LIGAND FREE ENERGY PREDICTED BY IDOCK:   -4.18 KCAL/MOL
REMARK 924 INTRA-LIGAND FREE ENERGY PREDICTED BY IDOCK:   -0.14 KCAL/MOL
REMARK 927      BINDING AFFINITY PREDICTED BY RF-SCORE:    0.00 PKD
ROOT
HETATM    1  C   UNL     1      -9.952  13.318  68.038  1.00  0.00    -0.233 C  
HETATM    2  C   UNL     1     -11.034  14.085  68.803  1.00  0.00    -0.282 C  
HETATM    3  C   UNL     1     -11.909  13.100  69.583  1.00  0.00    -0.390 C  
HETATM    4  C   UNL     1     -10.435  15.138  69.760  1.00  0.00    -0.248 C  
ENDROOT
BRANCH   4   5
HETATM    5  C   UNL     1      -9.613  16.196  69.060  1.00  0.00    -0.251 A  
HETATM    6  C   UNL     1      -8.231  16.048  68.909  1.00  0.00    -0.223 A  
HETATM    7  C   UNL     1      -7.468  17.059  68.317  1.00  0.00    -0.207 A  
HETATM    8  C   UNL     1      -8.072  18.238  67.852  1.00  0.00    -0.260 A  
HETATM    9  C   UNL     1      -7.186  19.348  67.291  1.00  0.00    -0.231 C  
HETATM   10  C   UNL     1      -9.461  18.368  67.977  1.00  0.00    -0.305 A  
HETATM   11  C   UNL     1      -6.573  20.282  68.336  1.00  0.00    -0.300 C  
HETATM   12  C   UNL     1     -10.222  17.355  68.568  1.00  0.00    -0.369 A  
HETATM   13  C   UNL     1      -7.870  20.197  66.214  1.00  0.00    -0.281 C  
HETATM   14  O   UNL     1      -6.924  20.079  69.623  1.00  0.00    -0.281 OA 
HETATM   15  O   UNL     1      -5.795  21.184  68.038  1.00  0.00    -0.316 OA 
ENDBRANCH   4   5
TORSDOF 1
ENDMDL
MODEL       84
REMARK 921   NORMALIZED FREE ENERGY PREDICTED BY IDOCK:   -3.73 KCAL/MOL
REMARK 922        TOTAL FREE ENERGY PREDICTED BY IDOCK:   -4.30 KCAL/MOL
REMARK 923 INTER-LIGAND FREE ENERGY PREDICTED BY IDOCK:   -3.96 KCAL/MOL
REMARK 924 INTRA-LIGAND FREE ENERGY PREDICTED BY IDOCK:   -0.34 KCAL/MOL
REMARK 927      BINDING AFFINITY PREDICTED BY RF-SCORE:    0.00 PKD
ROOT
HETATM    1  C   UNL     1      -8.583   8.468  65.362  1.00  0.00    -0.202 C  
HETATM    2  C   UNL     1      -7.710   9.661  65.759  1.00  0.00    -0.106 C  
HETATM    3  C   UNL     1      -6.707   9.959  64.642  1.00  0.00    -0.123 C  
HETATM    4  C   UNL     1      -8.548  10.918  66.071  1.00  0.00    -0.179 C  
ENDROOT
BRANCH   4   5
HETATM    5  C   UNL     1      -9.518  10.732  67.216  1.00  0.00    -0.177 A  
HETATM    6  C   UNL     1     -10.891  10.921  67.032  1.00  0.00    -0.323 A  
HETATM    7  C   UNL     1     -11.775  10.810  68.109  1.00  0.00    -0.173 A  
HETATM    8  C   UNL     1     -11.306  10.495  69.396  1.00  0.00    -0.331 A  
HETATM    9  C   UNL     1     -12.300  10.468  70.555  1.00  0.00    -0.432 C  
HETATM   10  C   UNL     1      -9.934  10.276  69.569  1.00  0.00    -0.252 A  
HETATM   11  C   UNL     1     -12.599  11.829  71.187  1.00  0.00    -0.309 C  
HETATM   12  C   UNL     1      -9.052  10.387  68.489  1.00  0.00    -0.145 A  
HETATM   13  C   UNL     1     -11.922   9.482  71.666  1.00  0.00    -0.474 C  
HETATM   14  O   UNL     1     -11.916  12.891  70.711  1.00  0.00    -0.258 OA 
HETATM   15  O   UNL     1     -13.419  11.969  72.090  1.00  0.00    -0.476 OA 
ENDBRANCH   4   5
TORSDOF 1
ENDMDL
MODEL       85
REMARK 921   NORMALIZED FREE ENERGY PREDICTED BY IDOCK:   -3.73 KCAL/MOL
REMARK 922        TOTAL FREE ENERGY PREDICTED BY IDOCK:   -4.29 KCAL/MOL
REMARK 923 INTER-LIGAND FREE ENERGY PREDICTED BY IDOCK:   -4.79 KCAL/MOL
REMARK 924 INTRA-LIGAND FREE ENERGY PREDICTED BY IDOCK:    0.50 KCAL/MOL
REMARK 927      BINDING AFFINITY PREDICTED BY RF-SCORE:    0.00 PKD
ROOT
HETATM    1  C   UNL     1      -8.452   7.285  65.496  1.00  0.00    -0.119 C  
HETATM    2  C   UNL     1      -7.651   7.723  64.267  1.00  0.00    -0.111 C  
HETATM    3  C   UNL     1      -7.017   6.499  63.603  1.00  0.00    -0.051 C  
HETATM    4  C   UNL     1      -8.520   8.491  63.248  1.00  0.00    -0.051 C  
ENDROOT
BRANCH   4   5
HETATM    5  C   UNL     1      -9.128   9.759  63.804  1.00  0.00    -0.270 A  
HETATM    6  C   UNL     1      -9.670   9.791  65.092  1.00  0.00    -0.338 A  
HETATM    7  C   UNL     1     -10.288  10.948  65.576  1.00  0.00    -0.316 A  
HETATM    8  C   UNL     1     -10.369  12.105  64.784  1.00  0.00    -0.320 A  
HETATM    9  C   UNL     1     -11.127  13.316  65.324  1.00  0.00    -0.306 C  
HETATM   10  C   UNL     1      -9.797  12.078  63.506  1.00  0.00    -0.314 A  
HETATM   11  C   UNL     1     -12.642  13.279  65.116  1.00  0.00    -0.453 C  
HETATM   12  C   UNL     1      -9.178  10.920  63.025  1.00  0.00    -0.329 A  
HETATM   13  C   UNL     1     -10.592  14.657  64.810  1.00  0.00    -0.379 C  
HETATM   14  O   UNL     1     -13.143  12.232  64.427  1.00  0.00    -0.780 OA 
HETATM   15  O   UNL     1     -13.388  14.155  65.547  1.00  0.00    -0.656 OA 
ENDBRANCH   4   5
TORSDOF 1
ENDMDL
MODEL       86
REMARK 921   NORMALIZED FREE ENERGY PREDICTED BY IDOCK:   -3.69 KCAL/MOL
REMARK 922        TOTAL FREE ENERGY PREDICTED BY IDOCK:   -4.25 KCAL/MOL
REMARK 923 INTER-LIGAND FREE ENERGY PREDICTED BY IDOCK:   -4.00 KCAL/MOL
REMARK 924 INTRA-LIGAND FREE ENERGY PREDICTED BY IDOCK:   -0.25 KCAL/MOL
REMARK 927      BINDING AFFINITY PREDICTED BY RF-SCORE:    0.00 PKD
ROOT
HETATM    1  C   UNL     1      -8.388   8.781  70.439  1.00  0.00    -0.146 C  
HETATM    2  C   UNL     1      -9.892   8.578  70.637  1.00  0.00    -0.218 C  
HETATM    3  C   UNL     1     -10.195   8.403  72.127  1.00  0.00    -0.390 C  
HETATM    4  C   UNL     1     -10.718   9.747  70.059  1.00  0.00    -0.326 C  
ENDROOT
BRANCH   4   5
HETATM    5  C   UNL     1     -10.533   9.944  68.572  1.00  0.00    -0.232 A  
HETATM    6  C   UNL     1     -10.464   8.850  67.705  1.00  0.00    -0.320 A  
HETATM    7  C   UNL     1     -10.228   9.037  66.340  1.00  0.00    -0.297 A  
HETATM    8  C   UNL     1     -10.066  10.327  65.807  1.00  0.00    -0.325 A  
HETATM    9  C   UNL     1      -9.727  10.475  64.326  1.00  0.00    -0.391 C  
HETATM   10  C   UNL     1     -10.167  11.422  66.675  1.00  0.00    -0.258 A  
HETATM   11  C   UNL     1      -8.243  10.336  63.982  1.00  0.00    -0.151 C  
HETATM   12  C   UNL     1     -10.404  11.232  68.040  1.00  0.00    -0.204 A  
HETATM   13  C   UNL     1     -10.259  11.768  63.699  1.00  0.00    -0.461 C  
HETATM   14  O   UNL     1      -7.386  10.168  65.011  1.00  0.00    -0.136 OA 
HETATM   15  O   UNL     1      -7.828  10.376  62.827  1.00  0.00    -0.147 OA 
ENDBRANCH   4   5
TORSDOF 1
ENDMDL
MODEL       87
REMARK 921   NORMALIZED FREE ENERGY PREDICTED BY IDOCK:   -3.66 KCAL/MOL
REMARK 922        TOTAL FREE ENERGY PREDICTED BY IDOCK:   -4.23 KCAL/MOL
REMARK 923 INTER-LIGAND FREE ENERGY PREDICTED BY IDOCK:   -3.94 KCAL/MOL
REMARK 924 INTRA-LIGAND FREE ENERGY PREDICTED BY IDOCK:   -0.29 KCAL/MOL
REMARK 927      BINDING AFFINITY PREDICTED BY RF-SCORE:    0.00 PKD
ROOT
HETATM    1  C   UNL     1      -9.213   6.972  72.738  1.00  0.00    -0.157 C  
HETATM    2  C   UNL     1     -10.443   6.170  72.308  1.00  0.00    -0.229 C  
HETATM    3  C   UNL     1     -10.771   5.120  73.372  1.00  0.00    -0.331 C  
HETATM    4  C   UNL     1     -11.670   7.073  72.056  1.00  0.00    -0.332 C  
ENDROOT
BRANCH   4   5
HETATM    5  C   UNL     1     -11.456   8.096  70.964  1.00  0.00    -0.301 A  
HETATM    6  C   UNL     1     -10.862   7.738  69.750  1.00  0.00    -0.211 A  
HETATM    7  C   UNL     1     -10.609   8.702  68.770  1.00  0.00    -0.169 A  
HETATM    8  C   UNL     1     -10.955  10.047  68.977  1.00  0.00    -0.249 A  
HETATM    9  C   UNL     1     -10.582  11.077  67.912  1.00  0.00    -0.244 C  
HETATM   10  C   UNL     1     -11.578  10.396  70.182  1.00  0.00    -0.392 A  
HETATM   11  C   UNL     1      -9.152  11.612  67.999  1.00  0.00    -0.177 C  
HETATM   12  C   UNL     1     -11.831   9.430  71.161  1.00  0.00    -0.413 A  
HETATM   13  C   UNL     1     -11.549  12.263  67.838  1.00  0.00    -0.416 C  
HETATM   14  O   UNL     1      -8.396  11.182  69.030  1.00  0.00    -0.134 OA 
HETATM   15  O   UNL     1      -8.694  12.402  67.177  1.00  0.00    -0.182 OA 
ENDBRANCH   4   5
TORSDOF 1
ENDMDL
MODEL       88
REMARK 921   NORMALIZED FREE ENERGY PREDICTED BY IDOCK:   -3.63 KCAL/MOL
REMARK 922        TOTAL FREE ENERGY PREDICTED BY IDOCK:   -4.19 KCAL/MOL
REMARK 923 INTER-LIGAND FREE ENERGY PREDICTED BY IDOCK:   -3.85 KCAL/MOL
REMARK 924 INTRA-LIGAND FREE ENERGY PREDICTED BY IDOCK:   -0.34 KCAL/MOL
REMARK 927      BINDING AFFINITY PREDICTED BY RF-SCORE:    0.00 PKD
ROOT
HETATM    1  C   UNL     1      -8.964   7.791  66.055  1.00  0.00    -0.185 C  
HETATM    2  C   UNL     1     -10.101   7.781  67.081  1.00  0.00    -0.328 C  
HETATM    3  C   UNL     1     -10.175   6.407  67.752  1.00  0.00    -0.196 C  
HETATM    4  C   UNL     1      -9.936   8.886  68.145  1.00  0.00    -0.208 C  
ENDROOT
BRANCH   4   5
HETATM    5  C   UNL     1      -9.927  10.285  67.571  1.00  0.00    -0.226 A  
HETATM    6  C   UNL     1      -8.813  11.116  67.723  1.00  0.00    -0.135 A  
HETATM    7  C   UNL     1      -8.835  12.429  67.246  1.00  0.00    -0.192 A  
HETATM    8  C   UNL     1      -9.970  12.940  66.594  1.00  0.00    -0.251 A  
HETATM    9  C   UNL     1      -9.978  14.405  66.166  1.00  0.00    -0.328 C  
HETATM   10  C   UNL     1     -11.072  12.093  66.416  1.00  0.00    -0.358 A  
HETATM   11  C   UNL     1     -10.374  15.400  67.259  1.00  0.00    -0.271 C  
HETATM   12  C   UNL     1     -11.047  10.779  66.895  1.00  0.00    -0.204 A  
HETATM   13  C   UNL     1     -10.828  14.678  64.921  1.00  0.00    -0.436 C  
HETATM   14  O   UNL     1     -10.738  14.888  68.454  1.00  0.00    -0.235 OA 
HETATM   15  O   UNL     1     -10.369  16.614  67.077  1.00  0.00    -0.296 OA 
ENDBRANCH   4   5
TORSDOF 1
ENDMDL
MODEL       89
REMARK 921   NORMALIZED FREE ENERGY PREDICTED BY IDOCK:   -3.62 KCAL/MOL
REMARK 922        TOTAL FREE ENERGY PREDICTED BY IDOCK:   -4.18 KCAL/MOL
REMARK 923 INTER-LIGAND FREE ENERGY PREDICTED BY IDOCK:   -4.14 KCAL/MOL
REMARK 924 INTRA-LIGAND FREE ENERGY PREDICTED BY IDOCK:   -0.03 KCAL/MOL
REMARK 927      BINDING AFFINITY PREDICTED BY RF-SCORE:    0.00 PKD
ROOT
HETATM    1  C   UNL     1      -8.385   7.684  65.036  1.00  0.00    -0.078 C  
HETATM    2  C   UNL     1      -7.777   8.509  63.899  1.00  0.00    -0.141 C  
HETATM    3  C   UNL     1      -7.223   7.573  62.823  1.00  0.00    -0.085 C  
HETATM    4  C   UNL     1      -8.798   9.488  63.279  1.00  0.00    -0.233 C  
ENDROOT
BRANCH   4   5
HETATM    5  C   UNL     1      -9.343  10.499  64.261  1.00  0.00    -0.310 A  
HETATM    6  C   UNL     1      -8.627  10.841  65.412  1.00  0.00    -0.162 A  
HETATM    7  C   UNL     1      -9.166  11.729  66.348  1.00  0.00    -0.223 A  
HETATM    8  C   UNL     1     -10.431  12.305  66.148  1.00  0.00    -0.270 A  
HETATM    9  C   UNL     1     -11.013  13.202  67.239  1.00  0.00    -0.288 C  
HETATM   10  C   UNL     1     -11.132  11.984  64.978  1.00  0.00    -0.368 A  
HETATM   11  C   UNL     1     -11.721  12.465  68.377  1.00  0.00    -0.336 C  
HETATM   12  C   UNL     1     -10.590  11.096  64.044  1.00  0.00    -0.436 A  
HETATM   13  C   UNL     1     -11.945  14.294  66.704  1.00  0.00    -0.454 C  
HETATM   14  O   UNL     1     -11.820  11.124  68.274  1.00  0.00    -0.522 OA 
HETATM   15  O   UNL     1     -12.187  13.051  69.351  1.00  0.00    -0.237 OA 
ENDBRANCH   4   5
TORSDOF 1
ENDMDL
MODEL       90
REMARK 921   NORMALIZED FREE ENERGY PREDICTED BY IDOCK:   -3.62 KCAL/MOL
REMARK 922        TOTAL FREE ENERGY PREDICTED BY IDOCK:   -4.18 KCAL/MOL
REMARK 923 INTER-LIGAND FREE ENERGY PREDICTED BY IDOCK:   -4.01 KCAL/MOL
REMARK 924 INTRA-LIGAND FREE ENERGY PREDICTED BY IDOCK:   -0.17 KCAL/MOL
REMARK 927      BINDING AFFINITY PREDICTED BY RF-SCORE:    0.00 PKD
ROOT
HETATM    1  C   UNL     1      -8.603  14.349  67.886  1.00  0.00    -0.165 C  
HETATM    2  C   UNL     1      -9.848  14.211  67.005  1.00  0.00    -0.258 C  
HETATM    3  C   UNL     1      -9.727  15.139  65.794  1.00  0.00    -0.379 C  
HETATM    4  C   UNL     1     -10.075  12.756  66.541  1.00  0.00    -0.264 C  
ENDROOT
BRANCH   4   5
HETATM    5  C   UNL     1     -10.277  11.781  67.678  1.00  0.00    -0.216 A  
HETATM    6  C   UNL     1      -9.205  11.046  68.194  1.00  0.00    -0.165 A  
HETATM    7  C   UNL     1      -9.411  10.100  69.202  1.00  0.00    -0.215 A  
HETATM    8  C   UNL     1     -10.694   9.874  69.726  1.00  0.00    -0.298 A  
HETATM    9  C   UNL     1     -10.882   8.771  70.766  1.00  0.00    -0.282 C  
HETATM   10  C   UNL     1     -11.760  10.635  69.229  1.00  0.00    -0.336 A  
HETATM   11  C   UNL     1     -11.058   7.363  70.195  1.00  0.00    -0.246 C  
HETATM   12  C   UNL     1     -11.551  11.582  68.221  1.00  0.00    -0.378 A  
HETATM   13  C   UNL     1     -12.018   9.046  71.757  1.00  0.00    -0.438 C  
HETATM   14  O   UNL     1     -11.098   7.245  68.851  1.00  0.00    -0.080 OA 
HETATM   15  O   UNL     1     -11.162   6.371  70.911  1.00  0.00    -0.290 OA 
ENDBRANCH   4   5
TORSDOF 1
ENDMDL
MODEL       91
REMARK 921   NORMALIZED FREE ENERGY PREDICTED BY IDOCK:   -3.62 KCAL/MOL
REMARK 922        TOTAL FREE ENERGY PREDICTED BY IDOCK:   -4.17 KCAL/MOL
REMARK 923 INTER-LIGAND FREE ENERGY PREDICTED BY IDOCK:   -3.84 KCAL/MOL
REMARK 924 INTRA-LIGAND FREE ENERGY PREDICTED BY IDOCK:   -0.33 KCAL/MOL
REMARK 927      BINDING AFFINITY PREDICTED BY RF-SCORE:    0.00 PKD
ROOT
HETATM    1  C   UNL     1      -8.874  17.308  68.826  1.00  0.00    -0.233 C  
HETATM    2  C   UNL     1     -10.067  17.395  67.871  1.00  0.00    -0.326 C  
HETATM    3  C   UNL     1     -10.130  18.794  67.252  1.00  0.00    -0.401 C  
HETATM    4  C   UNL     1     -10.006  16.325  66.761  1.00  0.00    -0.268 C  
ENDROOT
BRANCH   4   5
HETATM    5  C   UNL     1     -10.014  14.906  67.285  1.00  0.00    -0.230 A  
HETATM    6  C   UNL     1      -8.914  14.064  67.097  1.00  0.00    -0.241 A  
HETATM    7  C   UNL     1      -8.954  12.735  67.528  1.00  0.00    -0.192 A  
HETATM    8  C   UNL     1     -10.093  12.219  68.168  1.00  0.00    -0.211 A  
HETATM    9  C   UNL     1     -10.121  10.740  68.544  1.00  0.00    -0.187 C  
HETATM   10  C   UNL     1     -11.181  13.076  68.382  1.00  0.00    -0.304 A  
HETATM   11  C   UNL     1     -10.538   9.791  67.419  1.00  0.00    -0.267 C  
HETATM   12  C   UNL     1     -11.138  14.405  67.951  1.00  0.00    -0.288 A  
HETATM   13  C   UNL     1     -10.968  10.435  69.784  1.00  0.00    -0.345 C  
HETATM   14  O   UNL     1     -10.901  10.350  66.245  1.00  0.00    -0.095 OA 
HETATM   15  O   UNL     1     -10.551   8.570  67.558  1.00  0.00    -0.256 OA 
ENDBRANCH   4   5
TORSDOF 1
ENDMDL
MODEL       92
REMARK 921   NORMALIZED FREE ENERGY PREDICTED BY IDOCK:   -3.59 KCAL/MOL
REMARK 922        TOTAL FREE ENERGY PREDICTED BY IDOCK:   -4.15 KCAL/MOL
REMARK 923 INTER-LIGAND FREE ENERGY PREDICTED BY IDOCK:   -3.79 KCAL/MOL
REMARK 924 INTRA-LIGAND FREE ENERGY PREDICTED BY IDOCK:   -0.36 KCAL/MOL
REMARK 927      BINDING AFFINITY PREDICTED BY RF-SCORE:    0.00 PKD
ROOT
HETATM    1  C   UNL     1      -6.986   8.761  64.782  1.00  0.00    -0.073 C  
HETATM    2  C   UNL     1      -7.250   7.942  66.048  1.00  0.00    -0.073 C  
HETATM    3  C   UNL     1      -6.119   6.933  66.253  1.00  0.00    -0.035 C  
HETATM    4  C   UNL     1      -7.401   8.834  67.298  1.00  0.00    -0.081 C  
ENDROOT
BRANCH   4   5
HETATM    5  C   UNL     1      -8.548   9.816  67.209  1.00  0.00    -0.128 A  
HETATM    6  C   UNL     1      -9.865   9.371  67.069  1.00  0.00    -0.258 A  
HETATM    7  C   UNL     1     -10.913  10.284  66.923  1.00  0.00    -0.140 A  
HETATM    8  C   UNL     1     -10.669  11.667  66.924  1.00  0.00    -0.295 A  
HETATM    9  C   UNL     1     -11.834  12.622  66.677  1.00  0.00    -0.449 C  
HETATM   10  C   UNL     1      -9.351  12.109  67.097  1.00  0.00    -0.193 A  
HETATM   11  C   UNL     1     -12.177  12.861  65.206  1.00  0.00    -0.476 C  
HETATM   12  C   UNL     1      -8.304  11.193  67.243  1.00  0.00    -0.135 A  
HETATM   13  C   UNL     1     -11.677  13.978  67.373  1.00  0.00    -0.421 C  
HETATM   14  O   UNL     1     -11.387  12.269  64.286  1.00  0.00    -0.313 OA 
HETATM   15  O   UNL     1     -13.125  13.560  64.856  1.00  0.00    -0.718 OA 
ENDBRANCH   4   5
TORSDOF 1
ENDMDL
MODEL       93
REMARK 921   NORMALIZED FREE ENERGY PREDICTED BY IDOCK:   -3.57 KCAL/MOL
REMARK 922        TOTAL FREE ENERGY PREDICTED BY IDOCK:   -4.13 KCAL/MOL
REMARK 923 INTER-LIGAND FREE ENERGY PREDICTED BY IDOCK:   -4.58 KCAL/MOL
REMARK 924 INTRA-LIGAND FREE ENERGY PREDICTED BY IDOCK:    0.45 KCAL/MOL
REMARK 927      BINDING AFFINITY PREDICTED BY RF-SCORE:    0.00 PKD
ROOT
HETATM    1  C   UNL     1     -10.849   6.156  67.375  1.00  0.00    -0.431 C  
HETATM    2  C   UNL     1     -10.666   6.802  68.751  1.00  0.00    -0.280 C  
HETATM    3  C   UNL     1     -10.485   5.712  69.810  1.00  0.00    -0.377 C  
HETATM    4  C   UNL     1      -9.471   7.778  68.782  1.00  0.00    -0.149 C  
ENDROOT
BRANCH   4   5
HETATM    5  C   UNL     1      -9.604   8.931  67.812  1.00  0.00    -0.176 A  
HETATM    6  C   UNL     1      -9.411  10.250  68.233  1.00  0.00    -0.147 A  
HETATM    7  C   UNL     1      -9.598  11.314  67.346  1.00  0.00    -0.182 A  
HETATM    8  C   UNL     1      -9.972  11.083  66.012  1.00  0.00    -0.285 A  
HETATM    9  C   UNL     1     -10.246  12.280  65.105  1.00  0.00    -0.305 C  
HETATM   10  C   UNL     1     -10.133   9.758  65.586  1.00  0.00    -0.282 A  
HETATM   11  C   UNL     1     -11.654  12.869  65.214  1.00  0.00    -0.340 C  
HETATM   12  C   UNL     1      -9.944   8.695  66.476  1.00  0.00    -0.353 A  
HETATM   13  C   UNL     1      -9.936  12.017  63.628  1.00  0.00    -0.387 C  
HETATM   14  O   UNL     1     -12.521  12.241  66.035  1.00  0.00    -0.503 OA 
HETATM   15  O   UNL     1     -12.000  13.867  64.588  1.00  0.00    -0.379 OA 
ENDBRANCH   4   5
TORSDOF 1
ENDMDL
MODEL       94
REMARK 921   NORMALIZED FREE ENERGY PREDICTED BY IDOCK:   -3.56 KCAL/MOL
REMARK 922        TOTAL FREE ENERGY PREDICTED BY IDOCK:   -4.12 KCAL/MOL
REMARK 923 INTER-LIGAND FREE ENERGY PREDICTED BY IDOCK:   -3.78 KCAL/MOL
REMARK 924 INTRA-LIGAND FREE ENERGY PREDICTED BY IDOCK:   -0.34 KCAL/MOL
REMARK 927      BINDING AFFINITY PREDICTED BY RF-SCORE:    0.00 PKD
ROOT
HETATM    1  C   UNL     1      -9.140  18.268  68.616  1.00  0.00    -0.301 C  
HETATM    2  C   UNL     1      -8.136  18.236  67.461  1.00  0.00    -0.241 C  
HETATM    3  C   UNL     1      -7.167  19.414  67.588  1.00  0.00    -0.263 C  
HETATM    4  C   UNL     1      -7.353  16.907  67.406  1.00  0.00    -0.186 C  
ENDROOT
BRANCH   4   5
HETATM    5  C   UNL     1      -8.232  15.692  67.207  1.00  0.00    -0.218 A  
HETATM    6  C   UNL     1      -8.217  14.637  68.124  1.00  0.00    -0.142 A  
HETATM    7  C   UNL     1      -8.984  13.490  67.901  1.00  0.00    -0.200 A  
HETATM    8  C   UNL     1      -9.794  13.377  66.759  1.00  0.00    -0.265 A  
HETATM    9  C   UNL     1     -10.548  12.071  66.517  1.00  0.00    -0.269 C  
HETATM   10  C   UNL     1      -9.831  14.450  65.860  1.00  0.00    -0.336 A  
HETATM   11  C   UNL     1      -9.736  10.968  65.836  1.00  0.00    -0.224 C  
HETATM   12  C   UNL     1      -9.063  15.596  66.086  1.00  0.00    -0.378 A  
HETATM   13  C   UNL     1     -11.866  12.252  65.757  1.00  0.00    -0.417 C  
HETATM   14  O   UNL     1      -8.476  11.275  65.460  1.00  0.00    -0.075 OA 
HETATM   15  O   UNL     1     -10.192   9.847  65.629  1.00  0.00    -0.269 OA 
ENDBRANCH   4   5
TORSDOF 1
ENDMDL
MODEL       95
REMARK 921   NORMALIZED FREE ENERGY PREDICTED BY IDOCK:   -3.56 KCAL/MOL
REMARK 922        TOTAL FREE ENERGY PREDICTED BY IDOCK:   -4.12 KCAL/MOL
REMARK 923 INTER-LIGAND FREE ENERGY PREDICTED BY IDOCK:   -3.76 KCAL/MOL
REMARK 924 INTRA-LIGAND FREE ENERGY PREDICTED BY IDOCK:   -0.35 KCAL/MOL
REMARK 927      BINDING AFFINITY PREDICTED BY RF-SCORE:    0.00 PKD
ROOT
HETATM    1  C   UNL     1      -8.049   5.583  69.824  1.00  0.00    -0.101 C  
HETATM    2  C   UNL     1      -9.316   4.827  69.417  1.00  0.00    -0.197 C  
HETATM    3  C   UNL     1      -9.331   3.451  70.087  1.00  0.00    -0.244 C  
HETATM    4  C   UNL     1     -10.600   5.606  69.772  1.00  0.00    -0.400 C  
ENDROOT
BRANCH   4   5
HETATM    5  C   UNL     1     -10.700   6.953  69.092  1.00  0.00    -0.262 A  
HETATM    6  C   UNL     1     -10.629   7.062  67.700  1.00  0.00    -0.327 A  
HETATM    7  C   UNL     1     -10.658   8.315  67.082  1.00  0.00    -0.340 A  
HETATM    8  C   UNL     1     -10.771   9.490  67.842  1.00  0.00    -0.285 A  
HETATM    9  C   UNL     1     -10.714  10.839  67.127  1.00  0.00    -0.324 C  
HETATM   10  C   UNL     1     -10.874   9.375  69.234  1.00  0.00    -0.190 A  
HETATM   11  C   UNL     1      -9.305  11.365  66.844  1.00  0.00    -0.181 C  
HETATM   12  C   UNL     1     -10.845   8.120  69.850  1.00  0.00    -0.215 A  
HETATM   13  C   UNL     1     -11.519  11.940  67.825  1.00  0.00    -0.389 C  
HETATM   14  O   UNL     1      -8.271  10.632  67.307  1.00  0.00    -0.115 OA 
HETATM   15  O   UNL     1      -9.104  12.407  66.227  1.00  0.00    -0.194 OA 
ENDBRANCH   4   5
TORSDOF 1
ENDMDL
MODEL       96
REMARK 921   NORMALIZED FREE ENERGY PREDICTED BY IDOCK:   -3.55 KCAL/MOL
REMARK 922        TOTAL FREE ENERGY PREDICTED BY IDOCK:   -4.11 KCAL/MOL
REMARK 923 INTER-LIGAND FREE ENERGY PREDICTED BY IDOCK:   -3.79 KCAL/MOL
REMARK 924 INTRA-LIGAND FREE ENERGY PREDICTED BY IDOCK:   -0.32 KCAL/MOL
REMARK 927      BINDING AFFINITY PREDICTED BY RF-SCORE:    0.00 PKD
ROOT
HETATM    1  C   UNL     1     -11.950  11.602  69.747  1.00  0.00    -0.402 C  
HETATM    2  C   UNL     1     -11.478  10.838  68.507  1.00  0.00    -0.362 C  
HETATM    3  C   UNL     1     -11.390  11.794  67.316  1.00  0.00    -0.379 C  
HETATM    4  C   UNL     1     -10.119  10.142  68.733  1.00  0.00    -0.198 C  
ENDROOT
BRANCH   4   5
HETATM    5  C   UNL     1     -10.137   9.123  69.850  1.00  0.00    -0.219 A  
HETATM    6  C   UNL     1      -9.417   9.336  71.029  1.00  0.00    -0.313 A  
HETATM    7  C   UNL     1      -9.387   8.361  72.030  1.00  0.00    -0.332 A  
HETATM    8  C   UNL     1     -10.087   7.153  71.881  1.00  0.00    -0.197 A  
HETATM    9  C   UNL     1      -9.956   6.085  72.964  1.00  0.00    -0.186 C  
HETATM   10  C   UNL     1     -10.834   6.957  70.711  1.00  0.00    -0.279 A  
HETATM   11  C   UNL     1      -8.725   5.184  72.843  1.00  0.00    -0.118 C  
HETATM   12  C   UNL     1     -10.862   7.934  69.711  1.00  0.00    -0.202 A  
HETATM   13  C   UNL     1     -11.199   5.202  73.113  1.00  0.00    -0.398 C  
HETATM   14  O   UNL     1      -7.928   5.374  71.771  1.00  0.00    -0.109 OA 
HETATM   15  O   UNL     1      -8.458   4.319  73.673  1.00  0.00    -0.093 OA 
ENDBRANCH   4   5
TORSDOF 1
ENDMDL
MODEL       97
REMARK 921   NORMALIZED FREE ENERGY PREDICTED BY IDOCK:   -3.53 KCAL/MOL
REMARK 922        TOTAL FREE ENERGY PREDICTED BY IDOCK:   -4.09 KCAL/MOL
REMARK 923 INTER-LIGAND FREE ENERGY PREDICTED BY IDOCK:   -3.77 KCAL/MOL
REMARK 924 INTRA-LIGAND FREE ENERGY PREDICTED BY IDOCK:   -0.32 KCAL/MOL
REMARK 927      BINDING AFFINITY PREDICTED BY RF-SCORE:    0.00 PKD
ROOT
HETATM    1  C   UNL     1      -7.635   4.120  74.286  1.00  0.00    -0.076 C  
HETATM    2  C   UNL     1      -7.630   3.197  73.064  1.00  0.00    -0.055 C  
HETATM    3  C   UNL     1      -6.811   1.942  73.371  1.00  0.00    -0.022 C  
HETATM    4  C   UNL     1      -9.057   2.808  72.623  1.00  0.00    -0.119 C  
ENDROOT
BRANCH   4   5
HETATM    5  C   UNL     1      -9.915   3.990  72.231  1.00  0.00    -0.236 A  
HETATM    6  C   UNL     1      -9.662   4.702  71.055  1.00  0.00    -0.258 A  
HETATM    7  C   UNL     1     -10.418   5.831  70.730  1.00  0.00    -0.324 A  
HETATM    8  C   UNL     1     -11.455   6.270  71.571  1.00  0.00    -0.351 A  
HETATM    9  C   UNL     1     -12.197   7.557  71.217  1.00  0.00    -0.357 C  
HETATM   10  C   UNL     1     -11.725   5.535  72.733  1.00  0.00    -0.240 A  
HETATM   11  C   UNL     1     -11.515   8.847  71.676  1.00  0.00    -0.339 C  
HETATM   12  C   UNL     1     -10.967   4.404  73.054  1.00  0.00    -0.289 A  
HETATM   13  C   UNL     1     -13.654   7.576  71.688  1.00  0.00    -0.442 C  
HETATM   14  O   UNL     1     -10.380   8.720  72.395  1.00  0.00    -0.300 OA 
HETATM   15  O   UNL     1     -11.965   9.959  71.413  1.00  0.00    -0.362 OA 
ENDBRANCH   4   5
TORSDOF 1
ENDMDL
MODEL       98
REMARK 921   NORMALIZED FREE ENERGY PREDICTED BY IDOCK:   -3.52 KCAL/MOL
REMARK 922        TOTAL FREE ENERGY PREDICTED BY IDOCK:   -4.08 KCAL/MOL
REMARK 923 INTER-LIGAND FREE ENERGY PREDICTED BY IDOCK:   -4.33 KCAL/MOL
REMARK 924 INTRA-LIGAND FREE ENERGY PREDICTED BY IDOCK:    0.25 KCAL/MOL
REMARK 927      BINDING AFFINITY PREDICTED BY RF-SCORE:    0.00 PKD
ROOT
HETATM    1  C   UNL     1     -13.175  12.521  71.957  1.00  0.00    -0.524 C  
HETATM    2  C   UNL     1     -12.425  11.409  71.221  1.00  0.00    -0.423 C  
HETATM    3  C   UNL     1     -13.091  10.062  71.507  1.00  0.00    -0.531 C  
HETATM    4  C   UNL     1     -12.360  11.658  69.699  1.00  0.00    -0.172 C  
ENDROOT
BRANCH   4   5
HETATM    5  C   UNL     1     -11.649  12.939  69.323  1.00  0.00    -0.368 A  
HETATM    6  C   UNL     1     -12.170  14.184  69.691  1.00  0.00    -0.376 A  
HETATM    7  C   UNL     1     -11.542  15.365  69.286  1.00  0.00    -0.354 A  
HETATM    8  C   UNL     1     -10.370  15.329  68.512  1.00  0.00    -0.231 A  
HETATM    9  C   UNL     1      -9.769  16.645  68.023  1.00  0.00    -0.241 C  
HETATM   10  C   UNL     1      -9.835  14.079  68.172  1.00  0.00    -0.235 A  
HETATM   11  C   UNL     1     -10.389  17.207  66.742  1.00  0.00    -0.302 C  
HETATM   12  C   UNL     1     -10.465  12.899  68.580  1.00  0.00    -0.260 A  
HETATM   13  C   UNL     1      -8.247  16.600  67.854  1.00  0.00    -0.183 C  
HETATM   14  O   UNL     1     -11.343  16.463  66.144  1.00  0.00     0.234 OA 
HETATM   15  O   UNL     1     -10.047  18.284  66.263  1.00  0.00    -0.364 OA 
ENDBRANCH   4   5
TORSDOF 1
ENDMDL
MODEL       99
REMARK 921   NORMALIZED FREE ENERGY PREDICTED BY IDOCK:   -3.52 KCAL/MOL
REMARK 922        TOTAL FREE ENERGY PREDICTED BY IDOCK:   -4.07 KCAL/MOL
REMARK 923 INTER-LIGAND FREE ENERGY PREDICTED BY IDOCK:   -3.79 KCAL/MOL
REMARK 924 INTRA-LIGAND FREE ENERGY PREDICTED BY IDOCK:   -0.28 KCAL/MOL
REMARK 927      BINDING AFFINITY PREDICTED BY RF-SCORE:    0.00 PKD
ROOT
HETATM    1  C   UNL     1     -11.887  12.586  68.176  1.00  0.00    -0.371 C  
HETATM    2  C   UNL     1     -11.608  12.333  66.692  1.00  0.00    -0.438 C  
HETATM    3  C   UNL     1     -11.791  13.633  65.905  1.00  0.00    -0.406 C  
HETATM    4  C   UNL     1     -10.194  11.761  66.455  1.00  0.00    -0.248 C  
ENDROOT
BRANCH   4   5
HETATM    5  C   UNL     1      -9.953  10.435  67.140  1.00  0.00    -0.239 A  
HETATM    6  C   UNL     1     -10.502   9.254  66.633  1.00  0.00    -0.237 A  
HETATM    7  C   UNL     1     -10.328   8.042  67.307  1.00  0.00    -0.371 A  
HETATM    8  C   UNL     1      -9.591   7.981  68.501  1.00  0.00    -0.159 A  
HETATM    9  C   UNL     1      -9.500   6.650  69.244  1.00  0.00    -0.141 C  
HETATM   10  C   UNL     1      -9.017   9.162  68.989  1.00  0.00    -0.143 A  
HETATM   11  C   UNL     1     -10.683   6.338  70.164  1.00  0.00    -0.286 C  
HETATM   12  C   UNL     1      -9.191  10.373  68.312  1.00  0.00    -0.149 A  
HETATM   13  C   UNL     1      -8.201   6.475  70.037  1.00  0.00    -0.130 C  
HETATM   14  O   UNL     1     -11.640   7.283  70.278  1.00  0.00    -0.257 OA 
HETATM   15  O   UNL     1     -10.775   5.280  70.781  1.00  0.00    -0.221 OA 
ENDBRANCH   4   5
TORSDOF 1
ENDMDL
MODEL      100
REMARK 921   NORMALIZED FREE ENERGY PREDICTED BY IDOCK:   -3.51 KCAL/MOL
REMARK 922        TOTAL FREE ENERGY PREDICTED BY IDOCK:   -4.07 KCAL/MOL
REMARK 923 INTER-LIGAND FREE ENERGY PREDICTED BY IDOCK:   -4.57 KCAL/MOL
REMARK 924 INTRA-LIGAND FREE ENERGY PREDICTED BY IDOCK:    0.50 KCAL/MOL
REMARK 927      BINDING AFFINITY PREDICTED BY RF-SCORE:    0.00 PKD
ROOT
HETATM    1  C   UNL     1     -11.215   9.397  71.160  1.00  0.00    -0.427 C  
HETATM    2  C   UNL     1     -12.604  10.001  70.938  1.00  0.00    -0.424 C  
HETATM    3  C   UNL     1     -13.573   9.465  71.994  1.00  0.00    -0.505 C  
HETATM    4  C   UNL     1     -12.581  11.544  70.971  1.00  0.00    -0.457 C  
ENDROOT
BRANCH   4   5
HETATM    5  C   UNL     1     -11.700  12.161  69.908  1.00  0.00    -0.361 A  
HETATM    6  C   UNL     1     -10.731  11.400  69.247  1.00  0.00    -0.195 A  
HETATM    7  C   UNL     1      -9.878  11.991  68.312  1.00  0.00    -0.204 A  
HETATM    8  C   UNL     1      -9.982  13.358  68.005  1.00  0.00    -0.239 A  
HETATM    9  C   UNL     1      -8.973  13.975  67.039  1.00  0.00    -0.248 C  
HETATM   10  C   UNL     1     -10.975  14.110  68.646  1.00  0.00    -0.275 A  
HETATM   11  C   UNL     1      -7.644  14.397  67.669  1.00  0.00    -0.179 C  
HETATM   12  C   UNL     1     -11.828  13.515  69.581  1.00  0.00    -0.398 A  
HETATM   13  C   UNL     1      -9.532  15.154  66.236  1.00  0.00    -0.341 C  
HETATM   14  O   UNL     1      -7.522  14.247  69.005  1.00  0.00    -0.126 OA 
HETATM   15  O   UNL     1      -6.717  14.855  67.006  1.00  0.00    -0.186 OA 
ENDBRANCH   4   5
TORSDOF 1
ENDMDL
MODEL      101
REMARK 921   NORMALIZED FREE ENERGY PREDICTED BY IDOCK:   -3.50 KCAL/MOL
REMARK 922        TOTAL FREE ENERGY PREDICTED BY IDOCK:   -4.05 KCAL/MOL
REMARK 923 INTER-LIGAND FREE ENERGY PREDICTED BY IDOCK:   -3.69 KCAL/MOL
REMARK 924 INTRA-LIGAND FREE ENERGY PREDICTED BY IDOCK:   -0.36 KCAL/MOL
REMARK 927      BINDING AFFINITY PREDICTED BY RF-SCORE:    0.00 PKD
ROOT
HETATM    1  C   UNL     1     -10.466   9.499  70.923  1.00  0.00    -0.382 C  
HETATM    2  C   UNL     1      -9.209   8.882  70.306  1.00  0.00    -0.207 C  
HETATM    3  C   UNL     1      -8.914   7.537  70.975  1.00  0.00    -0.147 C  
HETATM    4  C   UNL     1      -9.339   8.699  68.778  1.00  0.00    -0.142 C  
ENDROOT
BRANCH   4   5
HETATM    5  C   UNL     1      -9.560   9.993  68.029  1.00  0.00    -0.154 A  
HETATM    6  C   UNL     1      -8.593  11.003  68.039  1.00  0.00    -0.134 A  
HETATM    7  C   UNL     1      -8.830  12.222  67.398  1.00  0.00    -0.185 A  
HETATM    8  C   UNL     1     -10.038  12.456  66.720  1.00  0.00    -0.226 A  
HETATM    9  C   UNL     1     -10.285  13.833  66.107  1.00  0.00    -0.305 C  
HETATM   10  C   UNL     1     -10.991  11.430  66.685  1.00  0.00    -0.341 A  
HETATM   11  C   UNL     1     -10.826  14.887  67.074  1.00  0.00    -0.315 C  
HETATM   12  C   UNL     1     -10.750  10.211  67.328  1.00  0.00    -0.316 A  
HETATM   13  C   UNL     1     -11.178  13.801  64.863  1.00  0.00    -0.352 C  
HETATM   14  O   UNL     1     -11.092  14.486  68.335  1.00  0.00    -0.240 OA 
HETATM   15  O   UNL     1     -11.019  16.052  66.737  1.00  0.00    -0.248 OA 
ENDBRANCH   4   5
TORSDOF 1
ENDMDL
MODEL      102
REMARK 921   NORMALIZED FREE ENERGY PREDICTED BY IDOCK:   -3.48 KCAL/MOL
REMARK 922        TOTAL FREE ENERGY PREDICTED BY IDOCK:   -4.03 KCAL/MOL
REMARK 923 INTER-LIGAND FREE ENERGY PREDICTED BY IDOCK:   -4.54 KCAL/MOL
REMARK 924 INTRA-LIGAND FREE ENERGY PREDICTED BY IDOCK:    0.51 KCAL/MOL
REMARK 927      BINDING AFFINITY PREDICTED BY RF-SCORE:    0.00 PKD
ROOT
HETATM    1  C   UNL     1     -10.840  12.366  63.581  1.00  0.00    -0.509 C  
HETATM    2  C   UNL     1     -10.306  10.979  63.948  1.00  0.00    -0.436 C  
HETATM    3  C   UNL     1      -9.618  10.353  62.732  1.00  0.00    -0.311 C  
HETATM    4  C   UNL     1      -9.332  11.027  65.145  1.00  0.00    -0.249 C  
ENDROOT
BRANCH   4   5
HETATM    5  C   UNL     1      -9.955  11.567  66.412  1.00  0.00    -0.241 A  
HETATM    6  C   UNL     1      -9.351  11.355  67.656  1.00  0.00    -0.159 A  
HETATM    7  C   UNL     1      -9.964  11.802  68.829  1.00  0.00    -0.128 A  
HETATM    8  C   UNL     1     -11.193  12.480  68.787  1.00  0.00    -0.318 A  
HETATM    9  C   UNL     1     -11.865  12.873  70.101  1.00  0.00    -0.319 C  
HETATM   10  C   UNL     1     -11.779  12.717  67.536  1.00  0.00    -0.422 A  
HETATM   11  C   UNL     1     -12.695  11.771  70.761  1.00  0.00    -0.167 C  
HETATM   12  C   UNL     1     -11.163  12.270  66.363  1.00  0.00    -0.370 A  
HETATM   13  C   UNL     1     -12.720  14.141  70.000  1.00  0.00    -0.155 C  
HETATM   14  O   UNL     1     -12.807  10.603  70.095  1.00  0.00    -0.276 OA 
HETATM   15  O   UNL     1     -13.246  11.924  71.848  1.00  0.00    -0.482 OA 
ENDBRANCH   4   5
TORSDOF 1
ENDMDL
MODEL      103
REMARK 921   NORMALIZED FREE ENERGY PREDICTED BY IDOCK:   -3.48 KCAL/MOL
REMARK 922        TOTAL FREE ENERGY PREDICTED BY IDOCK:   -4.03 KCAL/MOL
REMARK 923 INTER-LIGAND FREE ENERGY PREDICTED BY IDOCK:   -3.67 KCAL/MOL
REMARK 924 INTRA-LIGAND FREE ENERGY PREDICTED BY IDOCK:   -0.36 KCAL/MOL
REMARK 927      BINDING AFFINITY PREDICTED BY RF-SCORE:    0.00 PKD
ROOT
HETATM    1  C   UNL     1      -8.780   5.146  72.494  1.00  0.00    -0.120 C  
HETATM    2  C   UNL     1     -10.243   4.695  72.514  1.00  0.00    -0.243 C  
HETATM    3  C   UNL     1     -10.542   3.978  73.833  1.00  0.00    -0.293 C  
HETATM    4  C   UNL     1     -11.220   5.873  72.315  1.00  0.00    -0.343 C  
ENDROOT
BRANCH   4   5
HETATM    5  C   UNL     1     -11.040   6.594  70.998  1.00  0.00    -0.330 A  
HETATM    6  C   UNL     1     -11.189   5.919  69.783  1.00  0.00    -0.331 A  
HETATM    7  C   UNL     1     -10.960   6.576  68.572  1.00  0.00    -0.360 A  
HETATM    8  C   UNL     1     -10.586   7.930  68.546  1.00  0.00    -0.146 A  
HETATM    9  C   UNL     1     -10.264   8.580  67.202  1.00  0.00    -0.355 C  
HETATM   10  C   UNL     1     -10.469   8.611  69.764  1.00  0.00    -0.220 A  
HETATM   11  C   UNL     1      -8.837   8.357  66.697  1.00  0.00    -0.142 C  
HETATM   12  C   UNL     1     -10.700   7.951  70.976  1.00  0.00    -0.239 A  
HETATM   13  C   UNL     1     -10.574  10.080  67.155  1.00  0.00    -0.296 C  
HETATM   14  O   UNL     1      -7.998   7.678  67.507  1.00  0.00    -0.116 OA 
HETATM   15  O   UNL     1      -8.452   8.772  65.607  1.00  0.00    -0.141 OA 
ENDBRANCH   4   5
TORSDOF 1
ENDMDL
MODEL      104
REMARK 921   NORMALIZED FREE ENERGY PREDICTED BY IDOCK:   -3.48 KCAL/MOL
REMARK 922        TOTAL FREE ENERGY PREDICTED BY IDOCK:   -4.03 KCAL/MOL
REMARK 923 INTER-LIGAND FREE ENERGY PREDICTED BY IDOCK:   -3.67 KCAL/MOL
REMARK 924 INTRA-LIGAND FREE ENERGY PREDICTED BY IDOCK:   -0.36 KCAL/MOL
REMARK 927      BINDING AFFINITY PREDICTED BY RF-SCORE:    0.00 PKD
ROOT
HETATM    1  C   UNL     1      -7.355   5.708  66.147  1.00  0.00    -0.078 C  
HETATM    2  C   UNL     1      -8.559   5.151  65.383  1.00  0.00    -0.146 C  
HETATM    3  C   UNL     1      -8.078   4.418  64.129  1.00  0.00    -0.095 C  
HETATM    4  C   UNL     1      -9.417   4.209  66.255  1.00  0.00    -0.193 C  
ENDROOT
BRANCH   4   5
HETATM    5  C   UNL     1      -9.995   4.877  67.482  1.00  0.00    -0.202 A  
HETATM    6  C   UNL     1     -10.806   6.010  67.369  1.00  0.00    -0.394 A  
HETATM    7  C   UNL     1     -11.284   6.660  68.511  1.00  0.00    -0.227 A  
HETATM    8  C   UNL     1     -10.970   6.184  69.795  1.00  0.00    -0.459 A  
HETATM    9  C   UNL     1     -11.445   6.976  71.011  1.00  0.00    -0.343 C  
HETATM   10  C   UNL     1     -10.183   5.030  69.902  1.00  0.00    -0.340 A  
HETATM   11  C   UNL     1     -10.547   8.146  71.416  1.00  0.00    -0.220 C  
HETATM   12  C   UNL     1      -9.707   4.382  68.758  1.00  0.00    -0.200 A  
HETATM   13  C   UNL     1     -11.709   6.108  72.246  1.00  0.00    -0.352 C  
HETATM   14  O   UNL     1      -9.408   8.318  70.713  1.00  0.00    -0.154 OA 
HETATM   15  O   UNL     1     -10.831   8.905  72.338  1.00  0.00    -0.272 OA 
ENDBRANCH   4   5
TORSDOF 1
ENDMDL
MODEL      105
REMARK 921   NORMALIZED FREE ENERGY PREDICTED BY IDOCK:   -3.46 KCAL/MOL
REMARK 922        TOTAL FREE ENERGY PREDICTED BY IDOCK:   -4.01 KCAL/MOL
REMARK 923 INTER-LIGAND FREE ENERGY PREDICTED BY IDOCK:   -3.70 KCAL/MOL
REMARK 924 INTRA-LIGAND FREE ENERGY PREDICTED BY IDOCK:   -0.31 KCAL/MOL
REMARK 927      BINDING AFFINITY PREDICTED BY RF-SCORE:    0.00 PKD
ROOT
HETATM    1  C   UNL     1     -10.421  12.209  63.471  1.00  0.00    -0.490 C  
HETATM    2  C   UNL     1     -11.545  12.701  64.386  1.00  0.00    -0.415 C  
HETATM    3  C   UNL     1     -12.784  11.822  64.197  1.00  0.00    -0.152 C  
HETATM    4  C   UNL     1     -11.124  12.714  65.871  1.00  0.00    -0.323 C  
ENDROOT
BRANCH   4   5
HETATM    5  C   UNL     1      -9.948  13.619  66.160  1.00  0.00    -0.314 A  
HETATM    6  C   UNL     1      -8.836  13.148  66.865  1.00  0.00    -0.184 A  
HETATM    7  C   UNL     1      -7.780  14.007  67.183  1.00  0.00    -0.004 A  
HETATM    8  C   UNL     1      -7.807  15.356  66.794  1.00  0.00    -0.105 A  
HETATM    9  C   UNL     1      -6.670  16.274  67.239  1.00  0.00    -0.228 C  
HETATM   10  C   UNL     1      -8.908  15.816  66.061  1.00  0.00    -0.260 A  
HETATM   11  C   UNL     1      -6.818  16.858  68.645  1.00  0.00    -0.183 C  
HETATM   12  C   UNL     1      -9.963  14.954  65.743  1.00  0.00    -0.376 A  
HETATM   13  C   UNL     1      -6.383  17.417  66.259  1.00  0.00    -0.253 C  
HETATM   14  O   UNL     1      -7.951  16.565  69.316  1.00  0.00    -0.224 OA 
HETATM   15  O   UNL     1      -5.956  17.566  69.158  1.00  0.00    -0.189 OA 
ENDBRANCH   4   5
TORSDOF 1
ENDMDL
MODEL      106
REMARK 921   NORMALIZED FREE ENERGY PREDICTED BY IDOCK:   -3.46 KCAL/MOL
REMARK 922        TOTAL FREE ENERGY PREDICTED BY IDOCK:   -4.01 KCAL/MOL
REMARK 923 INTER-LIGAND FREE ENERGY PREDICTED BY IDOCK:   -3.73 KCAL/MOL
REMARK 924 INTRA-LIGAND FREE ENERGY PREDICTED BY IDOCK:   -0.28 KCAL/MOL
REMARK 927      BINDING AFFINITY PREDICTED BY RF-SCORE:    0.00 PKD
ROOT
HETATM    1  C   UNL     1      -8.638  13.766  67.767  1.00  0.00    -0.184 C  
HETATM    2  C   UNL     1     -10.048  14.099  67.272  1.00  0.00    -0.256 C  
HETATM    3  C   UNL     1     -10.064  15.507  66.673  1.00  0.00    -0.275 C  
HETATM    4  C   UNL     1     -10.560  13.074  66.238  1.00  0.00    -0.283 C  
ENDROOT
BRANCH   4   5
HETATM    5  C   UNL     1     -10.645  11.663  66.773  1.00  0.00    -0.280 A  
HETATM    6  C   UNL     1     -11.176  11.406  68.041  1.00  0.00    -0.346 A  
HETATM    7  C   UNL     1     -11.193  10.106  68.555  1.00  0.00    -0.226 A  
HETATM    8  C   UNL     1     -10.689   9.029  67.807  1.00  0.00    -0.217 A  
HETATM    9  C   UNL     1     -10.653   7.642  68.444  1.00  0.00    -0.166 C  
HETATM   10  C   UNL     1     -10.188   9.287  66.524  1.00  0.00    -0.316 A  
HETATM   11  C   UNL     1      -9.438   7.367  69.332  1.00  0.00    -0.155 C  
HETATM   12  C   UNL     1     -10.173  10.588  66.012  1.00  0.00    -0.310 A  
HETATM   13  C   UNL     1     -10.796   6.497  67.436  1.00  0.00    -0.449 C  
HETATM   14  O   UNL     1      -8.500   8.334  69.408  1.00  0.00    -0.120 OA 
HETATM   15  O   UNL     1      -9.302   6.317  69.955  1.00  0.00    -0.149 OA 
ENDBRANCH   4   5
TORSDOF 1
ENDMDL
MODEL      107
REMARK 921   NORMALIZED FREE ENERGY PREDICTED BY IDOCK:   -3.45 KCAL/MOL
REMARK 922        TOTAL FREE ENERGY PREDICTED BY IDOCK:   -4.00 KCAL/MOL
REMARK 923 INTER-LIGAND FREE ENERGY PREDICTED BY IDOCK:   -4.28 KCAL/MOL
REMARK 924 INTRA-LIGAND FREE ENERGY PREDICTED BY IDOCK:    0.28 KCAL/MOL
REMARK 927      BINDING AFFINITY PREDICTED BY RF-SCORE:    0.00 PKD
ROOT
HETATM    1  C   UNL     1     -10.445  12.312  63.912  1.00  0.00    -0.458 C  
HETATM    2  C   UNL     1     -11.799  12.984  64.152  1.00  0.00    -0.478 C  
HETATM    3  C   UNL     1     -12.857  12.349  63.246  1.00  0.00    -0.172 C  
HETATM    4  C   UNL     1     -12.240  12.895  65.629  1.00  0.00    -0.519 C  
ENDROOT
BRANCH   4   5
HETATM    5  C   UNL     1     -11.283  13.564  66.589  1.00  0.00    -0.328 A  
HETATM    6  C   UNL     1     -11.683  14.668  67.349  1.00  0.00    -0.413 A  
HETATM    7  C   UNL     1     -10.775  15.321  68.187  1.00  0.00    -0.257 A  
HETATM    8  C   UNL     1      -9.446  14.878  68.293  1.00  0.00    -0.210 A  
HETATM    9  C   UNL     1      -8.471  15.675  69.157  1.00  0.00    -0.253 C  
HETATM   10  C   UNL     1      -9.059  13.753  67.554  1.00  0.00    -0.209 A  
HETATM   11  C   UNL     1      -7.830  16.882  68.468  1.00  0.00    -0.240 C  
HETATM   12  C   UNL     1      -9.970  13.101  66.717  1.00  0.00    -0.250 A  
HETATM   13  C   UNL     1      -7.364  14.821  69.783  1.00  0.00    -0.063 C  
HETATM   14  O   UNL     1      -8.132  17.080  67.168  1.00  0.00    -0.178 OA 
HETATM   15  O   UNL     1      -7.070  17.647  69.055  1.00  0.00    -0.250 OA 
ENDBRANCH   4   5
TORSDOF 1
ENDMDL
MODEL      108
REMARK 921   NORMALIZED FREE ENERGY PREDICTED BY IDOCK:   -3.45 KCAL/MOL
REMARK 922        TOTAL FREE ENERGY PREDICTED BY IDOCK:   -4.00 KCAL/MOL
REMARK 923 INTER-LIGAND FREE ENERGY PREDICTED BY IDOCK:   -3.80 KCAL/MOL
REMARK 924 INTRA-LIGAND FREE ENERGY PREDICTED BY IDOCK:   -0.20 KCAL/MOL
REMARK 927      BINDING AFFINITY PREDICTED BY RF-SCORE:    0.00 PKD
ROOT
HETATM    1  C   UNL     1      -5.939  13.972  70.043  1.00  0.00    -0.142 C  
HETATM    2  C   UNL     1      -6.406  15.381  70.418  1.00  0.00     0.036 C  
HETATM    3  C   UNL     1      -5.297  16.103  71.188  1.00  0.00     0.012 C  
HETATM    4  C   UNL     1      -6.819  16.207  69.180  1.00  0.00    -0.196 C  
ENDROOT
BRANCH   4   5
HETATM    5  C   UNL     1      -7.963  15.599  68.400  1.00  0.00    -0.136 A  
HETATM    6  C   UNL     1      -7.724  14.830  67.257  1.00  0.00    -0.214 A  
HETATM    7  C   UNL     1      -8.788  14.326  66.504  1.00  0.00    -0.095 A  
HETATM    8  C   UNL     1     -10.118  14.569  66.884  1.00  0.00    -0.257 A  
HETATM    9  C   UNL     1     -11.246  14.068  65.984  1.00  0.00    -0.310 C  
HETATM   10  C   UNL     1     -10.352  15.313  68.048  1.00  0.00    -0.244 A  
HETATM   11  C   UNL     1     -11.597  14.985  64.811  1.00  0.00    -0.395 C  
HETATM   12  C   UNL     1      -9.286  15.817  68.800  1.00  0.00    -0.216 A  
HETATM   13  C   UNL     1     -12.532  13.724  66.742  1.00  0.00    -0.254 C  
HETATM   14  O   UNL     1     -10.935  16.158  64.729  1.00  0.00    -0.594 OA 
HETATM   15  O   UNL     1     -12.443  14.687  63.972  1.00  0.00    -0.796 OA 
ENDBRANCH   4   5
TORSDOF 1
ENDMDL
MODEL      109
REMARK 921   NORMALIZED FREE ENERGY PREDICTED BY IDOCK:   -3.44 KCAL/MOL
REMARK 922        TOTAL FREE ENERGY PREDICTED BY IDOCK:   -3.99 KCAL/MOL
REMARK 923 INTER-LIGAND FREE ENERGY PREDICTED BY IDOCK:   -3.65 KCAL/MOL
REMARK 924 INTRA-LIGAND FREE ENERGY PREDICTED BY IDOCK:   -0.34 KCAL/MOL
REMARK 927      BINDING AFFINITY PREDICTED BY RF-SCORE:    0.00 PKD
ROOT
HETATM    1  C   UNL     1     -10.324   5.675  67.590  1.00  0.00    -0.266 C  
HETATM    2  C   UNL     1      -8.896   6.189  67.794  1.00  0.00    -0.110 C  
HETATM    3  C   UNL     1      -7.900   5.195  67.192  1.00  0.00    -0.096 C  
HETATM    4  C   UNL     1      -8.688   7.590  67.180  1.00  0.00    -0.121 C  
ENDROOT
BRANCH   4   5
HETATM    5  C   UNL     1      -9.586   8.652  67.774  1.00  0.00    -0.178 A  
HETATM    6  C   UNL     1     -10.502   9.346  66.977  1.00  0.00    -0.302 A  
HETATM    7  C   UNL     1     -11.283  10.370  67.519  1.00  0.00    -0.254 A  
HETATM    8  C   UNL     1     -11.175  10.718  68.875  1.00  0.00    -0.328 A  
HETATM    9  C   UNL     1     -11.988  11.899  69.401  1.00  0.00    -0.350 C  
HETATM   10  C   UNL     1     -10.279   9.999  69.677  1.00  0.00    -0.267 A  
HETATM   11  C   UNL     1     -11.355  13.274  69.179  1.00  0.00    -0.282 C  
HETATM   12  C   UNL     1      -9.499   8.974  69.132  1.00  0.00    -0.153 A  
HETATM   13  C   UNL     1     -12.378  11.770  70.877  1.00  0.00    -0.420 C  
HETATM   14  O   UNL     1     -10.130  13.302  68.612  1.00  0.00    -0.221 OA 
HETATM   15  O   UNL     1     -11.918  14.317  69.497  1.00  0.00    -0.299 OA 
ENDBRANCH   4   5
TORSDOF 1
ENDMDL
MODEL      110
REMARK 921   NORMALIZED FREE ENERGY PREDICTED BY IDOCK:   -3.44 KCAL/MOL
REMARK 922        TOTAL FREE ENERGY PREDICTED BY IDOCK:   -3.99 KCAL/MOL
REMARK 923 INTER-LIGAND FREE ENERGY PREDICTED BY IDOCK:   -4.05 KCAL/MOL
REMARK 924 INTRA-LIGAND FREE ENERGY PREDICTED BY IDOCK:    0.07 KCAL/MOL
REMARK 927      BINDING AFFINITY PREDICTED BY RF-SCORE:    0.00 PKD
ROOT
HETATM    1  C   UNL     1     -11.409   8.183  71.526  1.00  0.00    -0.308 C  
HETATM    2  C   UNL     1     -12.587   9.114  71.229  1.00  0.00    -0.351 C  
HETATM    3  C   UNL     1     -13.560   9.107  72.411  1.00  0.00    -0.544 C  
HETATM    4  C   UNL     1     -12.129  10.556  70.925  1.00  0.00    -0.487 C  
ENDROOT
BRANCH   4   5
HETATM    5  C   UNL     1     -11.220  10.663  69.721  1.00  0.00    -0.363 A  
HETATM    6  C   UNL     1     -11.705  11.119  68.492  1.00  0.00    -0.368 A  
HETATM    7  C   UNL     1     -10.875  11.155  67.369  1.00  0.00    -0.317 A  
HETATM    8  C   UNL     1      -9.534  10.745  67.450  1.00  0.00    -0.171 A  
HETATM    9  C   UNL     1      -8.691  10.723  66.177  1.00  0.00    -0.186 C  
HETATM   10  C   UNL     1      -9.043  10.319  68.691  1.00  0.00    -0.152 A  
HETATM   11  C   UNL     1      -8.841   9.464  65.321  1.00  0.00    -0.190 C  
HETATM   12  C   UNL     1      -9.876  10.285  69.814  1.00  0.00    -0.201 A  
HETATM   13  C   UNL     1      -7.200  10.976  66.422  1.00  0.00    -0.127 C  
HETATM   14  O   UNL     1      -9.637   8.485  65.800  1.00  0.00    -0.152 OA 
HETATM   15  O   UNL     1      -8.269   9.329  64.242  1.00  0.00    -0.135 OA 
ENDBRANCH   4   5
TORSDOF 1
ENDMDL
MODEL      111
REMARK 921   NORMALIZED FREE ENERGY PREDICTED BY IDOCK:   -3.43 KCAL/MOL
REMARK 922        TOTAL FREE ENERGY PREDICTED BY IDOCK:   -3.98 KCAL/MOL
REMARK 923 INTER-LIGAND FREE ENERGY PREDICTED BY IDOCK:   -3.67 KCAL/MOL
REMARK 924 INTRA-LIGAND FREE ENERGY PREDICTED BY IDOCK:   -0.30 KCAL/MOL
REMARK 927      BINDING AFFINITY PREDICTED BY RF-SCORE:    0.00 PKD
ROOT
HETATM    1  C   UNL     1      -7.943   4.382  65.504  1.00  0.00    -0.094 C  
HETATM    2  C   UNL     1      -9.288   4.784  64.894  1.00  0.00    -0.090 C  
HETATM    3  C   UNL     1      -9.545   3.964  63.628  1.00  0.00    -0.155 C  
HETATM    4  C   UNL     1     -10.455   4.607  65.889  1.00  0.00    -0.305 C  
ENDROOT
BRANCH   4   5
HETATM    5  C   UNL     1     -10.316   5.442  67.142  1.00  0.00    -0.288 A  
HETATM    6  C   UNL     1     -10.043   4.846  68.376  1.00  0.00    -0.148 A  
HETATM    7  C   UNL     1      -9.980   5.616  69.540  1.00  0.00    -0.263 A  
HETATM    8  C   UNL     1     -10.177   7.006  69.496  1.00  0.00    -0.208 A  
HETATM    9  C   UNL     1     -10.182   7.793  70.805  1.00  0.00    -0.200 C  
HETATM   10  C   UNL     1     -10.419   7.604  68.252  1.00  0.00    -0.219 A  
HETATM   11  C   UNL     1     -11.517   7.803  71.552  1.00  0.00    -0.264 C  
HETATM   12  C   UNL     1     -10.482   6.830  67.088  1.00  0.00    -0.364 A  
HETATM   13  C   UNL     1      -9.689   9.236  70.657  1.00  0.00    -0.334 C  
HETATM   14  O   UNL     1     -12.559   7.185  70.957  1.00  0.00    -0.357 OA 
HETATM   15  O   UNL     1     -11.655   8.347  72.644  1.00  0.00    -0.385 OA 
ENDBRANCH   4   5
TORSDOF 1
ENDMDL
MODEL      112
REMARK 921   NORMALIZED FREE ENERGY PREDICTED BY IDOCK:   -3.38 KCAL/MOL
REMARK 922        TOTAL FREE ENERGY PREDICTED BY IDOCK:   -3.93 KCAL/MOL
REMARK 923 INTER-LIGAND FREE ENERGY PREDICTED BY IDOCK:   -3.64 KCAL/MOL
REMARK 924 INTRA-LIGAND FREE ENERGY PREDICTED BY IDOCK:   -0.29 KCAL/MOL
REMARK 927      BINDING AFFINITY PREDICTED BY RF-SCORE:    0.00 PKD
ROOT
HETATM    1  C   UNL     1      -7.738   9.732  66.711  1.00  0.00    -0.098 C  
HETATM    2  C   UNL     1      -9.079  10.092  66.068  1.00  0.00    -0.185 C  
HETATM    3  C   UNL     1      -8.871  10.409  64.585  1.00  0.00    -0.216 C  
HETATM    4  C   UNL     1     -10.124   8.967  66.231  1.00  0.00    -0.311 C  
ENDROOT
BRANCH   4   5
HETATM    5  C   UNL     1     -10.444   8.640  67.672  1.00  0.00    -0.311 A  
HETATM    6  C   UNL     1     -10.681   9.655  68.603  1.00  0.00    -0.233 A  
HETATM    7  C   UNL     1     -10.913   9.348  69.947  1.00  0.00    -0.251 A  
HETATM    8  C   UNL     1     -10.924   8.015  70.389  1.00  0.00    -0.248 A  
HETATM    9  C   UNL     1     -11.099   7.734  71.880  1.00  0.00    -0.302 C  
HETATM   10  C   UNL     1     -10.718   7.000  69.447  1.00  0.00    -0.259 A  
HETATM   11  C   UNL     1      -9.816   7.816  72.711  1.00  0.00    -0.246 C  
HETATM   12  C   UNL     1     -10.486   7.310  68.103  1.00  0.00    -0.244 A  
HETATM   13  C   UNL     1     -11.794   6.403  72.179  1.00  0.00    -0.361 C  
HETATM   14  O   UNL     1      -8.667   8.055  72.045  1.00  0.00    -0.122 OA 
HETATM   15  O   UNL     1      -9.811   7.670  73.930  1.00  0.00    -0.250 OA 
ENDBRANCH   4   5
TORSDOF 1
ENDMDL
MODEL      113
REMARK 921   NORMALIZED FREE ENERGY PREDICTED BY IDOCK:   -3.36 KCAL/MOL
REMARK 922        TOTAL FREE ENERGY PREDICTED BY IDOCK:   -3.91 KCAL/MOL
REMARK 923 INTER-LIGAND FREE ENERGY PREDICTED BY IDOCK:   -3.85 KCAL/MOL
REMARK 924 INTRA-LIGAND FREE ENERGY PREDICTED BY IDOCK:   -0.05 KCAL/MOL
REMARK 927      BINDING AFFINITY PREDICTED BY RF-SCORE:    0.00 PKD
ROOT
HETATM    1  C   UNL     1     -11.715   6.587  70.027  1.00  0.00    -0.388 C  
HETATM    2  C   UNL     1     -11.344   7.878  70.762  1.00  0.00    -0.283 C  
HETATM    3  C   UNL     1     -11.284   7.613  72.268  1.00  0.00    -0.343 C  
HETATM    4  C   UNL     1     -10.002   8.463  70.271  1.00  0.00    -0.193 C  
ENDROOT
BRANCH   4   5
HETATM    5  C   UNL     1      -9.998   8.822  68.802  1.00  0.00    -0.197 A  
HETATM    6  C   UNL     1      -9.695   7.865  67.830  1.00  0.00    -0.189 A  
HETATM    7  C   UNL     1      -9.631   8.219  66.479  1.00  0.00    -0.312 A  
HETATM    8  C   UNL     1      -9.880   9.539  66.068  1.00  0.00    -0.353 A  
HETATM    9  C   UNL     1      -9.715   9.895  64.592  1.00  0.00    -0.265 C  
HETATM   10  C   UNL     1     -10.214  10.488  67.043  1.00  0.00    -0.275 A  
HETATM   11  C   UNL     1      -8.283  10.214  64.157  1.00  0.00    -0.165 C  
HETATM   12  C   UNL     1     -10.278  10.130  68.394  1.00  0.00    -0.192 A  
HETATM   13  C   UNL     1     -10.635  11.027  64.125  1.00  0.00    -0.412 C  
HETATM   14  O   UNL     1      -7.335  10.216  65.117  1.00  0.00    -0.134 OA 
HETATM   15  O   UNL     1      -7.990  10.461  62.990  1.00  0.00    -0.152 OA 
ENDBRANCH   4   5
TORSDOF 1
ENDMDL
MODEL      114
REMARK 921   NORMALIZED FREE ENERGY PREDICTED BY IDOCK:   -3.36 KCAL/MOL
REMARK 922        TOTAL FREE ENERGY PREDICTED BY IDOCK:   -3.91 KCAL/MOL
REMARK 923 INTER-LIGAND FREE ENERGY PREDICTED BY IDOCK:   -3.57 KCAL/MOL
REMARK 924 INTRA-LIGAND FREE ENERGY PREDICTED BY IDOCK:   -0.34 KCAL/MOL
REMARK 927      BINDING AFFINITY PREDICTED BY RF-SCORE:    0.00 PKD
ROOT
HETATM    1  C   UNL     1      -7.652   9.925  66.369  1.00  0.00    -0.101 C  
HETATM    2  C   UNL     1      -8.593   9.813  67.571  1.00  0.00    -0.125 C  
HETATM    3  C   UNL     1      -8.286   8.529  68.346  1.00  0.00    -0.124 C  
HETATM    4  C   UNL     1      -8.490  11.037  68.507  1.00  0.00    -0.153 C  
ENDROOT
BRANCH   4   5
HETATM    5  C   UNL     1      -8.849  12.344  67.837  1.00  0.00    -0.180 A  
HETATM    6  C   UNL     1      -7.922  13.388  67.756  1.00  0.00    -0.167 A  
HETATM    7  C   UNL     1      -8.281  14.616  67.193  1.00  0.00    -0.227 A  
HETATM    8  C   UNL     1      -9.574  14.825  66.686  1.00  0.00    -0.289 A  
HETATM    9  C   UNL     1      -9.944  16.210  66.158  1.00  0.00    -0.357 C  
HETATM   10  C   UNL     1     -10.490  13.766  66.741  1.00  0.00    -0.270 A  
HETATM   11  C   UNL     1     -10.387  17.214  67.223  1.00  0.00    -0.320 C  
HETATM   12  C   UNL     1     -10.128  12.539  67.305  1.00  0.00    -0.216 A  
HETATM   13  C   UNL     1     -10.991  16.182  65.040  1.00  0.00    -0.357 C  
HETATM   14  O   UNL     1     -10.472  16.767  68.493  1.00  0.00    -0.293 OA 
HETATM   15  O   UNL     1     -10.660  18.381  66.954  1.00  0.00    -0.386 OA 
ENDBRANCH   4   5
TORSDOF 1
ENDMDL
MODEL      115
REMARK 921   NORMALIZED FREE ENERGY PREDICTED BY IDOCK:   -3.36 KCAL/MOL
REMARK 922        TOTAL FREE ENERGY PREDICTED BY IDOCK:   -3.90 KCAL/MOL
REMARK 923 INTER-LIGAND FREE ENERGY PREDICTED BY IDOCK:   -3.56 KCAL/MOL
REMARK 924 INTRA-LIGAND FREE ENERGY PREDICTED BY IDOCK:   -0.34 KCAL/MOL
REMARK 927      BINDING AFFINITY PREDICTED BY RF-SCORE:    0.00 PKD
ROOT
HETATM    1  C   UNL     1      -8.540   4.115  67.209  1.00  0.00    -0.103 C  
HETATM    2  C   UNL     1      -9.145   5.063  66.171  1.00  0.00    -0.138 C  
HETATM    3  C   UNL     1      -9.273   4.341  64.828  1.00  0.00    -0.156 C  
HETATM    4  C   UNL     1     -10.518   5.612  66.613  1.00  0.00    -0.340 C  
ENDROOT
BRANCH   4   5
HETATM    5  C   UNL     1     -10.469   6.404  67.900  1.00  0.00    -0.276 A  
HETATM    6  C   UNL     1      -9.798   7.629  67.965  1.00  0.00    -0.188 A  
HETATM    7  C   UNL     1      -9.703   8.325  69.173  1.00  0.00    -0.171 A  
HETATM    8  C   UNL     1     -10.287   7.816  70.345  1.00  0.00    -0.212 A  
HETATM    9  C   UNL     1     -10.083   8.571  71.657  1.00  0.00    -0.338 C  
HETATM   10  C   UNL     1     -10.985   6.605  70.269  1.00  0.00    -0.355 A  
HETATM   11  C   UNL     1      -8.773   8.265  72.386  1.00  0.00    -0.213 C  
HETATM   12  C   UNL     1     -11.080   5.911  69.058  1.00  0.00    -0.295 A  
HETATM   13  C   UNL     1     -11.244   8.413  72.644  1.00  0.00    -0.339 C  
HETATM   14  O   UNL     1      -7.972   7.324  71.843  1.00  0.00    -0.091 OA 
HETATM   15  O   UNL     1      -8.448   8.838  73.423  1.00  0.00    -0.351 OA 
ENDBRANCH   4   5
TORSDOF 1
ENDMDL
MODEL      116
REMARK 921   NORMALIZED FREE ENERGY PREDICTED BY IDOCK:   -3.35 KCAL/MOL
REMARK 922        TOTAL FREE ENERGY PREDICTED BY IDOCK:   -3.89 KCAL/MOL
REMARK 923 INTER-LIGAND FREE ENERGY PREDICTED BY IDOCK:   -4.03 KCAL/MOL
REMARK 924 INTRA-LIGAND FREE ENERGY PREDICTED BY IDOCK:    0.15 KCAL/MOL
REMARK 927      BINDING AFFINITY PREDICTED BY RF-SCORE:    0.00 PKD
ROOT
HETATM    1  C   UNL     1     -11.579   7.523  70.568  1.00  0.00    -0.224 C  
HETATM    2  C   UNL     1     -10.185   7.703  69.962  1.00  0.00    -0.213 C  
HETATM    3  C   UNL     1      -9.553   6.333  69.708  1.00  0.00    -0.169 C  
HETATM    4  C   UNL     1     -10.219   8.524  68.655  1.00  0.00    -0.217 C  
ENDROOT
BRANCH   4   5
HETATM    5  C   UNL     1     -10.764   9.924  68.832  1.00  0.00    -0.244 A  
HETATM    6  C   UNL     1     -11.100  10.709  67.725  1.00  0.00    -0.385 A  
HETATM    7  C   UNL     1     -11.542  12.024  67.894  1.00  0.00    -0.405 A  
HETATM    8  C   UNL     1     -11.670  12.582  69.177  1.00  0.00    -0.375 A  
HETATM    9  C   UNL     1     -12.076  14.048  69.306  1.00  0.00    -0.380 C  
HETATM   10  C   UNL     1     -11.362  11.781  70.284  1.00  0.00     0.095 A  
HETATM   11  C   UNL     1     -10.931  15.054  69.174  1.00  0.00    -0.261 C  
HETATM   12  C   UNL     1     -10.921  10.465  70.113  1.00  0.00    -0.365 A  
HETATM   13  C   UNL     1     -12.859  14.360  70.586  1.00  0.00    -0.390 C  
HETATM   14  O   UNL     1      -9.686  14.552  69.027  1.00  0.00    -0.200 OA 
HETATM   15  O   UNL     1     -11.114  16.268  69.199  1.00  0.00    -0.300 OA 
ENDBRANCH   4   5
TORSDOF 1
ENDMDL
MODEL      117
REMARK 921   NORMALIZED FREE ENERGY PREDICTED BY IDOCK:   -3.34 KCAL/MOL
REMARK 922        TOTAL FREE ENERGY PREDICTED BY IDOCK:   -3.88 KCAL/MOL
REMARK 923 INTER-LIGAND FREE ENERGY PREDICTED BY IDOCK:   -3.85 KCAL/MOL
REMARK 924 INTRA-LIGAND FREE ENERGY PREDICTED BY IDOCK:   -0.02 KCAL/MOL
REMARK 927      BINDING AFFINITY PREDICTED BY RF-SCORE:    0.00 PKD
ROOT
HETATM    1  C   UNL     1     -13.358  13.905  71.617  1.00  0.00    -0.437 C  
HETATM    2  C   UNL     1     -13.042  15.327  72.089  1.00  0.00    -0.471 C  
HETATM    3  C   UNL     1     -13.306  15.441  73.592  1.00  0.00    -0.161 C  
HETATM    4  C   UNL     1     -11.587  15.736  71.771  1.00  0.00    -0.541 C  
ENDROOT
BRANCH   4   5
HETATM    5  C   UNL     1     -11.262  15.721  70.295  1.00  0.00    -0.377 A  
HETATM    6  C   UNL     1     -12.272  15.831  69.335  1.00  0.00    -0.149 A  
HETATM    7  C   UNL     1     -11.971  15.753  67.973  1.00  0.00     0.183 A  
HETATM    8  C   UNL     1     -10.648  15.573  67.537  1.00  0.00    -0.297 A  
HETATM    9  C   UNL     1     -10.379  15.409  66.042  1.00  0.00    -0.339 C  
HETATM   10  C   UNL     1      -9.634  15.495  68.501  1.00  0.00    -0.203 A  
HETATM   11  C   UNL     1     -10.565  13.990  65.501  1.00  0.00    -0.318 C  
HETATM   12  C   UNL     1      -9.939  15.575  69.864  1.00  0.00    -0.243 A  
HETATM   13  C   UNL     1      -9.006  15.928  65.603  1.00  0.00     0.133 C  
HETATM   14  O   UNL     1     -10.875  13.027  66.394  1.00  0.00    -0.275 OA 
HETATM   15  O   UNL     1     -10.440  13.719  64.310  1.00  0.00    -0.359 OA 
ENDBRANCH   4   5
TORSDOF 1
ENDMDL
MODEL      118
REMARK 921   NORMALIZED FREE ENERGY PREDICTED BY IDOCK:   -3.32 KCAL/MOL
REMARK 922        TOTAL FREE ENERGY PREDICTED BY IDOCK:   -3.86 KCAL/MOL
REMARK 923 INTER-LIGAND FREE ENERGY PREDICTED BY IDOCK:   -3.93 KCAL/MOL
REMARK 924 INTRA-LIGAND FREE ENERGY PREDICTED BY IDOCK:    0.08 KCAL/MOL
REMARK 927      BINDING AFFINITY PREDICTED BY RF-SCORE:    0.00 PKD
ROOT
HETATM    1  C   UNL     1     -11.529  13.115  64.338  1.00  0.00    -0.407 C  
HETATM    2  C   UNL     1     -10.797  14.199  65.133  1.00  0.00    -0.380 C  
HETATM    3  C   UNL     1     -11.057  15.567  64.498  1.00  0.00    -0.290 C  
HETATM    4  C   UNL     1     -11.214  14.213  66.620  1.00  0.00    -0.330 C  
ENDROOT
BRANCH   4   5
HETATM    5  C   UNL     1     -10.924  12.919  67.344  1.00  0.00    -0.288 A  
HETATM    6  C   UNL     1     -11.738  11.797  67.165  1.00  0.00    -0.267 A  
HETATM    7  C   UNL     1     -11.501  10.623  67.887  1.00  0.00    -0.261 A  
HETATM    8  C   UNL     1     -10.435  10.541  68.798  1.00  0.00    -0.216 A  
HETATM    9  C   UNL     1     -10.268   9.267  69.623  1.00  0.00    -0.219 C  
HETATM   10  C   UNL     1      -9.603  11.657  68.950  1.00  0.00    -0.006 A  
HETATM   11  C   UNL     1     -11.126   9.196  70.889  1.00  0.00    -0.291 C  
HETATM   12  C   UNL     1      -9.842  12.829  68.227  1.00  0.00    -0.224 A  
HETATM   13  C   UNL     1      -8.814   8.962  69.997  1.00  0.00    -0.165 C  
HETATM   14  O   UNL     1     -11.880  10.276  71.181  1.00  0.00    -0.353 OA 
HETATM   15  O   UNL     1     -11.139   8.209  71.620  1.00  0.00    -0.239 OA 
ENDBRANCH   4   5
TORSDOF 1
ENDMDL
MODEL      119
REMARK 921   NORMALIZED FREE ENERGY PREDICTED BY IDOCK:   -3.32 KCAL/MOL
REMARK 922        TOTAL FREE ENERGY PREDICTED BY IDOCK:   -3.86 KCAL/MOL
REMARK 923 INTER-LIGAND FREE ENERGY PREDICTED BY IDOCK:   -3.52 KCAL/MOL
REMARK 924 INTRA-LIGAND FREE ENERGY PREDICTED BY IDOCK:   -0.34 KCAL/MOL
REMARK 927      BINDING AFFINITY PREDICTED BY RF-SCORE:    0.00 PKD
ROOT
HETATM    1  C   UNL     1      -9.281  10.959  66.266  1.00  0.00    -0.197 C  
HETATM    2  C   UNL     1      -9.719   9.898  65.253  1.00  0.00    -0.383 C  
HETATM    3  C   UNL     1      -9.428  10.391  63.834  1.00  0.00    -0.354 C  
HETATM    4  C   UNL     1      -9.029   8.539  65.497  1.00  0.00    -0.182 C  
ENDROOT
BRANCH   4   5
HETATM    5  C   UNL     1      -9.325   7.944  66.855  1.00  0.00    -0.209 A  
HETATM    6  C   UNL     1      -8.300   7.713  67.777  1.00  0.00    -0.118 A  
HETATM    7  C   UNL     1      -8.571   7.104  69.005  1.00  0.00    -0.129 A  
HETATM    8  C   UNL     1      -9.879   6.720  69.345  1.00  0.00    -0.162 A  
HETATM    9  C   UNL     1     -10.112   5.982  70.662  1.00  0.00    -0.246 C  
HETATM   10  C   UNL     1     -10.908   6.982  68.431  1.00  0.00    -0.191 A  
HETATM   11  C   UNL     1      -9.870   4.472  70.612  1.00  0.00    -0.222 C  
HETATM   12  C   UNL     1     -10.633   7.592  67.203  1.00  0.00    -0.410 A  
HETATM   13  C   UNL     1     -11.493   6.238  71.275  1.00  0.00    -0.352 C  
HETATM   14  O   UNL     1      -9.546   3.941  69.415  1.00  0.00    -0.182 OA 
HETATM   15  O   UNL     1      -9.962   3.757  71.607  1.00  0.00    -0.182 OA 
ENDBRANCH   4   5
TORSDOF 1
ENDMDL
MODEL      120
REMARK 921   NORMALIZED FREE ENERGY PREDICTED BY IDOCK:   -3.29 KCAL/MOL
REMARK 922        TOTAL FREE ENERGY PREDICTED BY IDOCK:   -3.83 KCAL/MOL
REMARK 923 INTER-LIGAND FREE ENERGY PREDICTED BY IDOCK:   -3.50 KCAL/MOL
REMARK 924 INTRA-LIGAND FREE ENERGY PREDICTED BY IDOCK:   -0.32 KCAL/MOL
REMARK 927      BINDING AFFINITY PREDICTED BY RF-SCORE:    0.00 PKD
ROOT
HETATM    1  C   UNL     1     -10.238   8.602  70.618  1.00  0.00    -0.237 C  
HETATM    2  C   UNL     1     -10.889   7.452  71.391  1.00  0.00    -0.250 C  
HETATM    3  C   UNL     1     -11.712   8.015  72.553  1.00  0.00    -0.446 C  
HETATM    4  C   UNL     1     -11.778   6.571  70.487  1.00  0.00    -0.438 C  
ENDROOT
BRANCH   4   5
HETATM    5  C   UNL     1     -11.026   5.916  69.351  1.00  0.00    -0.421 A  
HETATM    6  C   UNL     1     -10.099   4.898  69.596  1.00  0.00    -0.300 A  
HETATM    7  C   UNL     1      -9.362   4.341  68.548  1.00  0.00    -0.209 A  
HETATM    8  C   UNL     1      -9.542   4.781  67.226  1.00  0.00    -0.185 A  
HETATM    9  C   UNL     1      -8.654   4.201  66.128  1.00  0.00    -0.113 C  
HETATM   10  C   UNL     1     -10.495   5.779  66.982  1.00  0.00    -0.342 A  
HETATM   11  C   UNL     1      -7.286   4.870  65.978  1.00  0.00    -0.076 C  
HETATM   12  C   UNL     1     -11.232   6.334  68.032  1.00  0.00    -0.223 A  
HETATM   13  C   UNL     1      -9.329   4.149  64.753  1.00  0.00    -0.164 C  
HETATM   14  O   UNL     1      -7.030   5.932  66.771  1.00  0.00    -0.065 OA 
HETATM   15  O   UNL     1      -6.444   4.475  65.176  1.00  0.00    -0.034 OA 
ENDBRANCH   4   5
TORSDOF 1
ENDMDL
MODEL      121
REMARK 921   NORMALIZED FREE ENERGY PREDICTED BY IDOCK:   -3.28 KCAL/MOL
REMARK 922        TOTAL FREE ENERGY PREDICTED BY IDOCK:   -3.82 KCAL/MOL
REMARK 923 INTER-LIGAND FREE ENERGY PREDICTED BY IDOCK:   -3.66 KCAL/MOL
REMARK 924 INTRA-LIGAND FREE ENERGY PREDICTED BY IDOCK:   -0.16 KCAL/MOL
REMARK 927      BINDING AFFINITY PREDICTED BY RF-SCORE:    0.00 PKD
ROOT
HETATM    1  C   UNL     1     -12.303  13.385  70.713  1.00  0.00    -0.433 C  
HETATM    2  C   UNL     1     -12.042  14.156  69.417  1.00  0.00    -0.372 C  
HETATM    3  C   UNL     1     -12.123  15.660  69.688  1.00  0.00    -0.329 C  
HETATM    4  C   UNL     1     -10.675  13.800  68.793  1.00  0.00    -0.267 C  
ENDROOT
BRANCH   4   5
HETATM    5  C   UNL     1     -10.538  12.340  68.426  1.00  0.00    -0.250 A  
HETATM    6  C   UNL     1     -11.644  11.599  67.999  1.00  0.00    -0.383 A  
HETATM    7  C   UNL     1     -11.522  10.235  67.722  1.00  0.00     0.044 A  
HETATM    8  C   UNL     1     -10.287   9.580  67.856  1.00  0.00    -0.276 A  
HETATM    9  C   UNL     1     -10.223   8.072  67.624  1.00  0.00    -0.291 C  
HETATM   10  C   UNL     1      -9.175  10.333  68.254  1.00  0.00    -0.139 A  
HETATM   11  C   UNL     1     -10.611   7.212  68.829  1.00  0.00    -0.196 C  
HETATM   12  C   UNL     1      -9.299  11.699  68.529  1.00  0.00    -0.169 A  
HETATM   13  C   UNL     1      -8.871   7.588  67.089  1.00  0.00    -0.127 C  
HETATM   14  O   UNL     1     -10.900   7.859  69.978  1.00  0.00    -0.247 OA 
HETATM   15  O   UNL     1     -10.661   5.986  68.774  1.00  0.00    -0.221 OA 
ENDBRANCH   4   5
TORSDOF 1
ENDMDL
MODEL      122
REMARK 921   NORMALIZED FREE ENERGY PREDICTED BY IDOCK:   -3.27 KCAL/MOL
REMARK 922        TOTAL FREE ENERGY PREDICTED BY IDOCK:   -3.81 KCAL/MOL
REMARK 923 INTER-LIGAND FREE ENERGY PREDICTED BY IDOCK:   -3.61 KCAL/MOL
REMARK 924 INTRA-LIGAND FREE ENERGY PREDICTED BY IDOCK:   -0.20 KCAL/MOL
REMARK 927      BINDING AFFINITY PREDICTED BY RF-SCORE:    0.00 PKD
ROOT
HETATM    1  C   UNL     1     -10.020   8.677  70.853  1.00  0.00    -0.257 C  
HETATM    2  C   UNL     1     -10.649   7.391  71.394  1.00  0.00    -0.232 C  
HETATM    3  C   UNL     1     -11.432   7.699  72.672  1.00  0.00    -0.403 C  
HETATM    4  C   UNL     1     -11.567   6.709  70.358  1.00  0.00    -0.457 C  
ENDROOT
BRANCH   4   5
HETATM    5  C   UNL     1     -10.853   6.303  69.088  1.00  0.00    -0.403 A  
HETATM    6  C   UNL     1     -10.904   7.109  67.947  1.00  0.00    -0.219 A  
HETATM    7  C   UNL     1     -10.296   6.697  66.758  1.00  0.00    -0.280 A  
HETATM    8  C   UNL     1      -9.611   5.473  66.686  1.00  0.00    -0.163 A  
HETATM    9  C   UNL     1      -9.035   5.028  65.343  1.00  0.00    -0.152 C  
HETATM   10  C   UNL     1      -9.535   4.684  67.841  1.00  0.00    -0.194 A  
HETATM   11  C   UNL     1     -10.026   4.328  64.411  1.00  0.00    -0.083 C  
HETATM   12  C   UNL     1     -10.144   5.099  69.030  1.00  0.00    -0.257 A  
HETATM   13  C   UNL     1      -7.780   4.158  65.470  1.00  0.00    -0.086 C  
HETATM   14  O   UNL     1     -11.271   4.115  64.886  1.00  0.00    -0.281 OA 
HETATM   15  O   UNL     1      -9.720   3.966  63.278  1.00  0.00    -0.142 OA 
ENDBRANCH   4   5
TORSDOF 1
ENDMDL
MODEL      123
REMARK 921   NORMALIZED FREE ENERGY PREDICTED BY IDOCK:   -3.25 KCAL/MOL
REMARK 922        TOTAL FREE ENERGY PREDICTED BY IDOCK:   -3.79 KCAL/MOL
REMARK 923 INTER-LIGAND FREE ENERGY PREDICTED BY IDOCK:   -3.45 KCAL/MOL
REMARK 924 INTRA-LIGAND FREE ENERGY PREDICTED BY IDOCK:   -0.33 KCAL/MOL
REMARK 927      BINDING AFFINITY PREDICTED BY RF-SCORE:    0.00 PKD
ROOT
HETATM    1  C   UNL     1     -11.796   8.872  71.726  1.00  0.00    -0.429 C  
HETATM    2  C   UNL     1     -12.328  10.034  70.884  1.00  0.00    -0.438 C  
HETATM    3  C   UNL     1     -13.179  10.957  71.760  1.00  0.00    -0.513 C  
HETATM    4  C   UNL     1     -11.193  10.835  70.212  1.00  0.00    -0.326 C  
ENDROOT
BRANCH   4   5
HETATM    5  C   UNL     1     -10.344  10.012  69.270  1.00  0.00    -0.237 A  
HETATM    6  C   UNL     1      -8.988   9.792  69.529  1.00  0.00    -0.215 A  
HETATM    7  C   UNL     1      -8.196   9.084  68.622  1.00  0.00    -0.118 A  
HETATM    8  C   UNL     1      -8.744   8.569  67.436  1.00  0.00    -0.136 A  
HETATM    9  C   UNL     1      -7.821   7.876  66.436  1.00  0.00    -0.097 C  
HETATM   10  C   UNL     1     -10.110   8.765  67.194  1.00  0.00    -0.320 A  
HETATM   11  C   UNL     1      -7.079   8.813  65.480  1.00  0.00    -0.083 C  
HETATM   12  C   UNL     1     -10.901   9.473  68.105  1.00  0.00    -0.208 A  
HETATM   13  C   UNL     1      -8.511   6.782  65.616  1.00  0.00    -0.142 C  
HETATM   14  O   UNL     1      -7.360  10.130  65.567  1.00  0.00    -0.130 OA 
HETATM   15  O   UNL     1      -6.260   8.403  64.661  1.00  0.00    -0.063 OA 
ENDBRANCH   4   5
TORSDOF 1
ENDMDL
MODEL      124
REMARK 921   NORMALIZED FREE ENERGY PREDICTED BY IDOCK:   -3.25 KCAL/MOL
REMARK 922        TOTAL FREE ENERGY PREDICTED BY IDOCK:   -3.78 KCAL/MOL
REMARK 923 INTER-LIGAND FREE ENERGY PREDICTED BY IDOCK:   -3.52 KCAL/MOL
REMARK 924 INTRA-LIGAND FREE ENERGY PREDICTED BY IDOCK:   -0.26 KCAL/MOL
REMARK 927      BINDING AFFINITY PREDICTED BY RF-SCORE:    0.00 PKD
ROOT
HETATM    1  C   UNL     1      -9.385  12.954  66.745  1.00  0.00    -0.243 C  
HETATM    2  C   UNL     1      -8.429  12.883  67.939  1.00  0.00    -0.181 C  
HETATM    3  C   UNL     1      -7.923  11.448  68.107  1.00  0.00    -0.133 C  
HETATM    4  C   UNL     1      -7.238  13.853  67.791  1.00  0.00    -0.173 C  
ENDROOT
BRANCH   4   5
HETATM    5  C   UNL     1      -7.647  15.305  67.691  1.00  0.00    -0.193 A  
HETATM    6  C   UNL     1      -8.652  15.827  68.513  1.00  0.00    -0.183 A  
HETATM    7  C   UNL     1      -9.069  17.153  68.372  1.00  0.00    -0.263 A  
HETATM    8  C   UNL     1      -8.483  17.994  67.411  1.00  0.00    -0.240 A  
HETATM    9  C   UNL     1      -9.031  19.409  67.238  1.00  0.00    -0.351 C  
HETATM   10  C   UNL     1      -7.456  17.477  66.612  1.00  0.00    -0.280 A  
HETATM   11  C   UNL     1     -10.260  19.524  66.334  1.00  0.00    -0.479 C  
HETATM   12  C   UNL     1      -7.039  16.149  66.756  1.00  0.00    -0.152 A  
HETATM   13  C   UNL     1      -7.981  20.423  66.772  1.00  0.00    -0.295 C  
HETATM   14  O   UNL     1     -10.690  18.394  65.734  1.00  0.00    -0.482 OA 
HETATM   15  O   UNL     1     -10.843  20.589  66.147  1.00  0.00     0.123 OA 
ENDBRANCH   4   5
TORSDOF 1
ENDMDL
MODEL      125
REMARK 921   NORMALIZED FREE ENERGY PREDICTED BY IDOCK:   -3.24 KCAL/MOL
REMARK 922        TOTAL FREE ENERGY PREDICTED BY IDOCK:   -3.78 KCAL/MOL
REMARK 923 INTER-LIGAND FREE ENERGY PREDICTED BY IDOCK:   -3.44 KCAL/MOL
REMARK 924 INTRA-LIGAND FREE ENERGY PREDICTED BY IDOCK:   -0.34 KCAL/MOL
REMARK 927      BINDING AFFINITY PREDICTED BY RF-SCORE:    0.00 PKD
ROOT
HETATM    1  C   UNL     1      -7.810   4.365  67.467  1.00  0.00    -0.085 C  
HETATM    2  C   UNL     1      -7.768   5.728  66.771  1.00  0.00    -0.100 C  
HETATM    3  C   UNL     1      -7.207   5.566  65.356  1.00  0.00    -0.067 C  
HETATM    4  C   UNL     1      -9.157   6.399  66.719  1.00  0.00    -0.147 C  
ENDROOT
BRANCH   4   5
HETATM    5  C   UNL     1      -9.754   6.663  68.083  1.00  0.00    -0.130 A  
HETATM    6  C   UNL     1     -11.003   6.141  68.434  1.00  0.00    -0.391 A  
HETATM    7  C   UNL     1     -11.577   6.442  69.672  1.00  0.00    -0.351 A  
HETATM    8  C   UNL     1     -10.910   7.265  70.595  1.00  0.00    -0.261 A  
HETATM    9  C   UNL     1     -11.614   7.633  71.899  1.00  0.00    -0.321 C  
HETATM   10  C   UNL     1      -9.645   7.760  70.252  1.00  0.00    -0.175 A  
HETATM   11  C   UNL     1     -12.578   8.817  71.805  1.00  0.00    -0.356 C  
HETATM   12  C   UNL     1      -9.072   7.457  69.012  1.00  0.00    -0.133 A  
HETATM   13  C   UNL     1     -10.656   7.870  73.070  1.00  0.00    -0.406 C  
HETATM   14  O   UNL     1     -12.657   9.452  70.616  1.00  0.00    -0.122 OA 
HETATM   15  O   UNL     1     -13.257   9.191  72.757  1.00  0.00    -0.394 OA 
ENDBRANCH   4   5
TORSDOF 1
ENDMDL
MODEL      126
REMARK 921   NORMALIZED FREE ENERGY PREDICTED BY IDOCK:   -3.23 KCAL/MOL
REMARK 922        TOTAL FREE ENERGY PREDICTED BY IDOCK:   -3.76 KCAL/MOL
REMARK 923 INTER-LIGAND FREE ENERGY PREDICTED BY IDOCK:   -3.91 KCAL/MOL
REMARK 924 INTRA-LIGAND FREE ENERGY PREDICTED BY IDOCK:    0.15 KCAL/MOL
REMARK 927      BINDING AFFINITY PREDICTED BY RF-SCORE:    0.00 PKD
ROOT
HETATM    1  C   UNL     1     -10.245  13.194  65.271  1.00  0.00    -0.299 C  
HETATM    2  C   UNL     1     -10.412  13.147  66.792  1.00  0.00    -0.262 C  
HETATM    3  C   UNL     1     -11.114  11.847  67.193  1.00  0.00    -0.347 C  
HETATM    4  C   UNL     1      -9.062  13.273  67.531  1.00  0.00    -0.208 C  
ENDROOT
BRANCH   4   5
HETATM    5  C   UNL     1      -8.333  14.566  67.247  1.00  0.00    -0.232 A  
HETATM    6  C   UNL     1      -6.999  14.738  67.628  1.00  0.00    -0.204 A  
HETATM    7  C   UNL     1      -6.351  15.959  67.419  1.00  0.00    -0.196 A  
HETATM    8  C   UNL     1      -7.020  17.035  66.814  1.00  0.00    -0.268 A  
HETATM    9  C   UNL     1      -6.297  18.374  66.685  1.00  0.00    -0.207 C  
HETATM   10  C   UNL     1      -8.347  16.849  66.406  1.00  0.00    -0.333 A  
HETATM   11  C   UNL     1      -6.353  19.265  67.927  1.00  0.00    -0.218 C  
HETATM   12  C   UNL     1      -8.993  15.626  66.615  1.00  0.00    -0.317 A  
HETATM   13  C   UNL     1      -6.737  19.196  65.469  1.00  0.00    -0.300 C  
HETATM   14  O   UNL     1      -7.080  18.818  68.972  1.00  0.00    -0.306 OA 
HETATM   15  O   UNL     1      -5.770  20.344  67.990  1.00  0.00    -0.212 OA 
ENDBRANCH   4   5
TORSDOF 1
ENDMDL
MODEL      127
REMARK 921   NORMALIZED FREE ENERGY PREDICTED BY IDOCK:   -3.21 KCAL/MOL
REMARK 922        TOTAL FREE ENERGY PREDICTED BY IDOCK:   -3.74 KCAL/MOL
REMARK 923 INTER-LIGAND FREE ENERGY PREDICTED BY IDOCK:   -3.39 KCAL/MOL
REMARK 924 INTRA-LIGAND FREE ENERGY PREDICTED BY IDOCK:   -0.35 KCAL/MOL
REMARK 927      BINDING AFFINITY PREDICTED BY RF-SCORE:    0.00 PKD
ROOT
HETATM    1  C   UNL     1      -7.118   6.128  66.944  1.00  0.00    -0.073 C  
HETATM    2  C   UNL     1      -7.742   7.246  66.104  1.00  0.00    -0.101 C  
HETATM    3  C   UNL     1      -7.189   7.188  64.678  1.00  0.00    -0.073 C  
HETATM    4  C   UNL     1      -9.283   7.167  66.081  1.00  0.00    -0.126 C  
ENDROOT
BRANCH   4   5
HETATM    5  C   UNL     1      -9.918   7.290  67.449  1.00  0.00    -0.228 A  
HETATM    6  C   UNL     1      -9.666   8.400  68.260  1.00  0.00    -0.170 A  
HETATM    7  C   UNL     1     -10.204   8.476  69.548  1.00  0.00    -0.206 A  
HETATM    8  C   UNL     1     -11.018   7.448  70.050  1.00  0.00    -0.264 A  
HETATM    9  C   UNL     1     -11.513   7.537  71.492  1.00  0.00    -0.293 C  
HETATM   10  C   UNL     1     -11.293   6.352  69.222  1.00  0.00    -0.405 A  
HETATM   11  C   UNL     1     -10.528   7.037  72.550  1.00  0.00    -0.216 C  
HETATM   12  C   UNL     1     -10.754   6.278  67.934  1.00  0.00    -0.380 A  
HETATM   13  C   UNL     1     -12.868   6.858  71.721  1.00  0.00    -0.349 C  
HETATM   14  O   UNL     1      -9.366   6.511  72.108  1.00  0.00    -0.144 OA 
HETATM   15  O   UNL     1     -10.765   7.100  73.753  1.00  0.00    -0.361 OA 
ENDBRANCH   4   5
TORSDOF 1
ENDMDL
MODEL      128
REMARK 921   NORMALIZED FREE ENERGY PREDICTED BY IDOCK:   -3.20 KCAL/MOL
REMARK 922        TOTAL FREE ENERGY PREDICTED BY IDOCK:   -3.73 KCAL/MOL
REMARK 923 INTER-LIGAND FREE ENERGY PREDICTED BY IDOCK:   -3.43 KCAL/MOL
REMARK 924 INTRA-LIGAND FREE ENERGY PREDICTED BY IDOCK:   -0.31 KCAL/MOL
REMARK 927      BINDING AFFINITY PREDICTED BY RF-SCORE:    0.00 PKD
ROOT
HETATM    1  C   UNL     1     -10.564  15.763  67.491  1.00  0.00    -0.309 C  
HETATM    2  C   UNL     1     -10.657  15.155  68.893  1.00  0.00    -0.242 C  
HETATM    3  C   UNL     1     -11.358  16.137  69.834  1.00  0.00    -0.318 C  
HETATM    4  C   UNL     1     -11.395  13.799  68.892  1.00  0.00    -0.328 C  
ENDROOT
BRANCH   4   5
HETATM    5  C   UNL     1     -10.725  12.745  68.041  1.00  0.00    -0.246 A  
HETATM    6  C   UNL     1     -11.453  12.014  67.097  1.00  0.00    -0.401 A  
HETATM    7  C   UNL     1     -10.842  10.997  66.359  1.00  0.00    -0.253 A  
HETATM    8  C   UNL     1      -9.483  10.693  66.539  1.00  0.00    -0.199 A  
HETATM    9  C   UNL     1      -8.881   9.519  65.771  1.00  0.00    -0.193 C  
HETATM   10  C   UNL     1      -8.749  11.449  67.463  1.00  0.00    -0.140 A  
HETATM   11  C   UNL     1      -9.093   8.146  66.413  1.00  0.00    -0.183 C  
HETATM   12  C   UNL     1      -9.363  12.467  68.200  1.00  0.00    -0.209 A  
HETATM   13  C   UNL     1      -7.392   9.689  65.453  1.00  0.00    -0.108 C  
HETATM   14  O   UNL     1      -9.719   8.116  67.608  1.00  0.00    -0.147 OA 
HETATM   15  O   UNL     1      -8.715   7.105  65.881  1.00  0.00    -0.149 OA 
ENDBRANCH   4   5
TORSDOF 1
ENDMDL
MODEL      129
REMARK 921   NORMALIZED FREE ENERGY PREDICTED BY IDOCK:   -3.20 KCAL/MOL
REMARK 922        TOTAL FREE ENERGY PREDICTED BY IDOCK:   -3.73 KCAL/MOL
REMARK 923 INTER-LIGAND FREE ENERGY PREDICTED BY IDOCK:   -3.50 KCAL/MOL
REMARK 924 INTRA-LIGAND FREE ENERGY PREDICTED BY IDOCK:   -0.23 KCAL/MOL
REMARK 927      BINDING AFFINITY PREDICTED BY RF-SCORE:    0.00 PKD
ROOT
HETATM    1  C   UNL     1     -12.780  11.219  69.869  1.00  0.00    -0.033 C  
HETATM    2  C   UNL     1     -12.452  11.073  71.357  1.00  0.00    -0.436 C  
HETATM    3  C   UNL     1     -13.363  11.989  72.178  1.00  0.00    -0.396 C  
HETATM    4  C   UNL     1     -12.587   9.614  71.844  1.00  0.00    -0.481 C  
ENDROOT
BRANCH   4   5
HETATM    5  C   UNL     1     -11.665   8.650  71.133  1.00  0.00    -0.334 A  
HETATM    6  C   UNL     1     -12.107   7.378  70.756  1.00  0.00    -0.233 A  
HETATM    7  C   UNL     1     -11.231   6.469  70.157  1.00  0.00    -0.437 A  
HETATM    8  C   UNL     1      -9.892   6.815  69.910  1.00  0.00    -0.174 A  
HETATM    9  C   UNL     1      -8.953   5.759  69.330  1.00  0.00    -0.121 C  
HETATM   10  C   UNL     1      -9.462   8.101  70.260  1.00  0.00    -0.170 A  
HETATM   11  C   UNL     1      -8.335   4.806  70.356  1.00  0.00    -0.087 C  
HETATM   12  C   UNL     1     -10.341   9.009  70.859  1.00  0.00    -0.323 A  
HETATM   13  C   UNL     1      -7.833   6.341  68.462  1.00  0.00    -0.105 C  
HETATM   14  O   UNL     1      -8.621   5.032  71.655  1.00  0.00    -0.124 OA 
HETATM   15  O   UNL     1      -7.605   3.873  70.031  1.00  0.00    -0.048 OA 
ENDBRANCH   4   5
TORSDOF 1
ENDMDL
MODEL      130
REMARK 921   NORMALIZED FREE ENERGY PREDICTED BY IDOCK:   -3.19 KCAL/MOL
REMARK 922        TOTAL FREE ENERGY PREDICTED BY IDOCK:   -3.72 KCAL/MOL
REMARK 923 INTER-LIGAND FREE ENERGY PREDICTED BY IDOCK:   -3.48 KCAL/MOL
REMARK 924 INTRA-LIGAND FREE ENERGY PREDICTED BY IDOCK:   -0.24 KCAL/MOL
REMARK 927      BINDING AFFINITY PREDICTED BY RF-SCORE:    0.00 PKD
ROOT
HETATM    1  C   UNL     1     -11.382  10.278  70.057  1.00  0.00    -0.370 C  
HETATM    2  C   UNL     1     -11.902  10.310  71.497  1.00  0.00    -0.290 C  
HETATM    3  C   UNL     1     -13.067  11.296  71.601  1.00  0.00    -0.513 C  
HETATM    4  C   UNL     1     -12.340   8.914  71.989  1.00  0.00    -0.460 C  
ENDROOT
BRANCH   4   5
HETATM    5  C   UNL     1     -11.225   7.893  71.987  1.00  0.00    -0.339 A  
HETATM    6  C   UNL     1     -10.277   7.862  73.015  1.00  0.00    -0.394 A  
HETATM    7  C   UNL     1      -9.213   6.957  72.974  1.00  0.00    -0.153 A  
HETATM    8  C   UNL     1      -9.078   6.052  71.908  1.00  0.00    -0.143 A  
HETATM    9  C   UNL     1      -7.853   5.141  71.865  1.00  0.00    -0.110 C  
HETATM   10  C   UNL     1     -10.047   6.065  70.897  1.00  0.00    -0.246 A  
HETATM   11  C   UNL     1      -6.596   5.770  71.261  1.00  0.00    -0.046 C  
HETATM   12  C   UNL     1     -11.112   6.971  70.941  1.00  0.00    -0.300 A  
HETATM   13  C   UNL     1      -8.109   3.796  71.177  1.00  0.00    -0.064 C  
HETATM   14  O   UNL     1      -6.710   7.023  70.772  1.00  0.00    -0.051 OA 
HETATM   15  O   UNL     1      -5.521   5.177  71.213  1.00  0.00    -0.004 OA 
ENDBRANCH   4   5
TORSDOF 1
ENDMDL
MODEL      131
REMARK 921   NORMALIZED FREE ENERGY PREDICTED BY IDOCK:   -3.18 KCAL/MOL
REMARK 922        TOTAL FREE ENERGY PREDICTED BY IDOCK:   -3.72 KCAL/MOL
REMARK 923 INTER-LIGAND FREE ENERGY PREDICTED BY IDOCK:   -3.36 KCAL/MOL
REMARK 924 INTRA-LIGAND FREE ENERGY PREDICTED BY IDOCK:   -0.35 KCAL/MOL
REMARK 927      BINDING AFFINITY PREDICTED BY RF-SCORE:    0.00 PKD
ROOT
HETATM    1  C   UNL     1      -9.412   4.561  67.394  1.00  0.00    -0.189 C  
HETATM    2  C   UNL     1      -8.070   5.171  66.983  1.00  0.00    -0.104 C  
HETATM    3  C   UNL     1      -7.315   4.192  66.080  1.00  0.00    -0.080 C  
HETATM    4  C   UNL     1      -8.241   6.529  66.270  1.00  0.00    -0.119 C  
ENDROOT
BRANCH   4   5
HETATM    5  C   UNL     1      -8.915   7.581  67.121  1.00  0.00    -0.136 A  
HETATM    6  C   UNL     1      -8.321   8.040  68.300  1.00  0.00    -0.123 A  
HETATM    7  C   UNL     1      -8.979   8.965  69.115  1.00  0.00    -0.140 A  
HETATM    8  C   UNL     1     -10.245   9.462  68.764  1.00  0.00    -0.221 A  
HETATM    9  C   UNL     1     -10.961  10.406  69.728  1.00  0.00    -0.345 C  
HETATM   10  C   UNL     1     -10.823   9.023  67.565  1.00  0.00    -0.130 A  
HETATM   11  C   UNL     1     -11.736   9.719  70.854  1.00  0.00    -0.347 C  
HETATM   12  C   UNL     1     -10.161   8.098  66.751  1.00  0.00    -0.372 A  
HETATM   13  C   UNL     1     -11.887  11.409  69.033  1.00  0.00    -0.415 C  
HETATM   14  O   UNL     1     -11.768   8.370  70.844  1.00  0.00    -0.284 OA 
HETATM   15  O   UNL     1     -12.313  10.350  71.735  1.00  0.00    -0.355 OA 
ENDBRANCH   4   5
TORSDOF 1
ENDMDL
MODEL      132
REMARK 921   NORMALIZED FREE ENERGY PREDICTED BY IDOCK:   -3.17 KCAL/MOL
REMARK 922        TOTAL FREE ENERGY PREDICTED BY IDOCK:   -3.70 KCAL/MOL
REMARK 923 INTER-LIGAND FREE ENERGY PREDICTED BY IDOCK:   -3.52 KCAL/MOL
REMARK 924 INTRA-LIGAND FREE ENERGY PREDICTED BY IDOCK:   -0.17 KCAL/MOL
REMARK 927      BINDING AFFINITY PREDICTED BY RF-SCORE:    0.00 PKD
ROOT
HETATM    1  C   UNL     1      -9.105   3.428  72.654  1.00  0.00    -0.119 C  
HETATM    2  C   UNL     1     -10.527   3.471  73.219  1.00  0.00    -0.262 C  
HETATM    3  C   UNL     1     -10.672   2.424  74.326  1.00  0.00    -0.201 C  
HETATM    4  C   UNL     1     -10.899   4.869  73.756  1.00  0.00    -0.376 C  
ENDROOT
BRANCH   4   5
HETATM    5  C   UNL     1     -10.852   5.955  72.704  1.00  0.00    -0.290 A  
HETATM    6  C   UNL     1     -11.953   6.204  71.879  1.00  0.00    -0.278 A  
HETATM    7  C   UNL     1     -11.880   7.165  70.867  1.00  0.00    -0.379 A  
HETATM    8  C   UNL     1     -10.707   7.910  70.664  1.00  0.00    -0.230 A  
HETATM    9  C   UNL     1     -10.648   8.888  69.493  1.00  0.00    -0.233 C  
HETATM   10  C   UNL     1      -9.617   7.679  71.514  1.00  0.00    -0.179 A  
HETATM   11  C   UNL     1     -10.278   8.267  68.145  1.00  0.00    -0.210 C  
HETATM   12  C   UNL     1      -9.692   6.717  72.526  1.00  0.00    -0.166 A  
HETATM   13  C   UNL     1      -9.738  10.095  69.744  1.00  0.00    -0.232 C  
HETATM   14  O   UNL     1      -9.979   6.951  68.136  1.00  0.00    -0.147 OA 
HETATM   15  O   UNL     1     -10.248   8.920  67.105  1.00  0.00    -0.223 OA 
ENDBRANCH   4   5
TORSDOF 1
ENDMDL
MODEL      133
REMARK 921   NORMALIZED FREE ENERGY PREDICTED BY IDOCK:   -3.16 KCAL/MOL
REMARK 922        TOTAL FREE ENERGY PREDICTED BY IDOCK:   -3.69 KCAL/MOL
REMARK 923 INTER-LIGAND FREE ENERGY PREDICTED BY IDOCK:   -3.39 KCAL/MOL
REMARK 924 INTRA-LIGAND FREE ENERGY PREDICTED BY IDOCK:   -0.30 KCAL/MOL
REMARK 927      BINDING AFFINITY PREDICTED BY RF-SCORE:    0.00 PKD
ROOT
HETATM    1  C   UNL     1      -6.323  10.848  66.184  1.00  0.00    -0.123 C  
HETATM    2  C   UNL     1      -7.362  10.161  65.295  1.00  0.00    -0.141 C  
HETATM    3  C   UNL     1      -6.898   8.739  64.966  1.00  0.00    -0.072 C  
HETATM    4  C   UNL     1      -8.759  10.127  65.950  1.00  0.00    -0.159 C  
ENDROOT
BRANCH   4   5
HETATM    5  C   UNL     1      -9.325  11.498  66.242  1.00  0.00    -0.227 A  
HETATM    6  C   UNL     1      -9.790  12.319  65.210  1.00  0.00    -0.199 A  
HETATM    7  C   UNL     1     -10.253  13.609  65.480  1.00  0.00    -0.316 A  
HETATM    8  C   UNL     1     -10.271  14.107  66.794  1.00  0.00    -0.262 A  
HETATM    9  C   UNL     1     -10.706  15.552  67.028  1.00  0.00    -0.321 C  
HETATM   10  C   UNL     1      -9.834  13.270  67.828  1.00  0.00    -0.224 A  
HETATM   11  C   UNL     1      -9.609  16.601  66.833  1.00  0.00    -0.249 C  
HETATM   12  C   UNL     1      -9.373  11.979  67.555  1.00  0.00    -0.179 A  
HETATM   13  C   UNL     1     -11.370  15.782  68.390  1.00  0.00    -0.372 C  
HETATM   14  O   UNL     1      -8.371  16.148  66.545  1.00  0.00    -0.261 OA 
HETATM   15  O   UNL     1      -9.825  17.806  66.932  1.00  0.00    -0.286 OA 
ENDBRANCH   4   5
TORSDOF 1
ENDMDL
MODEL      134
REMARK 921   NORMALIZED FREE ENERGY PREDICTED BY IDOCK:   -3.15 KCAL/MOL
REMARK 922        TOTAL FREE ENERGY PREDICTED BY IDOCK:   -3.68 KCAL/MOL
REMARK 923 INTER-LIGAND FREE ENERGY PREDICTED BY IDOCK:   -3.37 KCAL/MOL
REMARK 924 INTRA-LIGAND FREE ENERGY PREDICTED BY IDOCK:   -0.31 KCAL/MOL
REMARK 927      BINDING AFFINITY PREDICTED BY RF-SCORE:    0.00 PKD
ROOT
HETATM    1  C   UNL     1     -10.851   7.418  70.871  1.00  0.00    -0.255 C  
HETATM    2  C   UNL     1     -11.756   8.652  70.854  1.00  0.00    -0.287 C  
HETATM    3  C   UNL     1     -12.520   8.748  72.177  1.00  0.00    -0.460 C  
HETATM    4  C   UNL     1     -10.964   9.952  70.601  1.00  0.00    -0.405 C  
ENDROOT
BRANCH   4   5
HETATM    5  C   UNL     1     -10.235   9.971  69.276  1.00  0.00    -0.229 A  
HETATM    6  C   UNL     1     -10.935  10.099  68.073  1.00  0.00    -0.326 A  
HETATM    7  C   UNL     1     -10.261  10.051  66.850  1.00  0.00    -0.299 A  
HETATM    8  C   UNL     1      -8.867   9.885  66.801  1.00  0.00    -0.147 A  
HETATM    9  C   UNL     1      -8.187   9.755  65.440  1.00  0.00    -0.131 C  
HETATM   10  C   UNL     1      -8.166   9.789  68.010  1.00  0.00    -0.109 A  
HETATM   11  C   UNL     1      -8.201   8.347  64.839  1.00  0.00    -0.153 C  
HETATM   12  C   UNL     1      -8.843   9.838  69.233  1.00  0.00    -0.171 A  
HETATM   13  C   UNL     1      -6.751  10.286  65.416  1.00  0.00    -0.123 C  
HETATM   14  O   UNL     1      -8.741   7.364  65.589  1.00  0.00    -0.145 OA 
HETATM   15  O   UNL     1      -7.742   8.102  63.727  1.00  0.00    -0.126 OA 
ENDBRANCH   4   5
TORSDOF 1
ENDMDL
MODEL      135
REMARK 921   NORMALIZED FREE ENERGY PREDICTED BY IDOCK:   -3.13 KCAL/MOL
REMARK 922        TOTAL FREE ENERGY PREDICTED BY IDOCK:   -3.66 KCAL/MOL
REMARK 923 INTER-LIGAND FREE ENERGY PREDICTED BY IDOCK:   -3.34 KCAL/MOL
REMARK 924 INTRA-LIGAND FREE ENERGY PREDICTED BY IDOCK:   -0.32 KCAL/MOL
REMARK 927      BINDING AFFINITY PREDICTED BY RF-SCORE:    0.00 PKD
ROOT
HETATM    1  C   UNL     1      -8.460   7.294  65.661  1.00  0.00    -0.138 C  
HETATM    2  C   UNL     1      -7.426   8.091  64.861  1.00  0.00    -0.089 C  
HETATM    3  C   UNL     1      -6.665   7.151  63.923  1.00  0.00    -0.044 C  
HETATM    4  C   UNL     1      -8.071   9.239  64.056  1.00  0.00    -0.150 C  
ENDROOT
BRANCH   4   5
HETATM    5  C   UNL     1      -8.785  10.258  64.916  1.00  0.00    -0.198 A  
HETATM    6  C   UNL     1     -10.114  10.609  64.661  1.00  0.00    -0.417 A  
HETATM    7  C   UNL     1     -10.747  11.597  65.420  1.00  0.00    -0.341 A  
HETATM    8  C   UNL     1     -10.068  12.251  66.461  1.00  0.00    -0.232 A  
HETATM    9  C   UNL     1     -10.774  13.381  67.206  1.00  0.00    -0.265 C  
HETATM   10  C   UNL     1      -8.747  11.873  66.734  1.00  0.00    -0.193 A  
HETATM   11  C   UNL     1     -10.697  14.752  66.530  1.00  0.00    -0.319 C  
HETATM   12  C   UNL     1      -8.116  10.884  65.973  1.00  0.00    -0.142 A  
HETATM   13  C   UNL     1     -10.332  13.527  68.666  1.00  0.00    -0.220 C  
HETATM   14  O   UNL     1      -9.968  14.839  65.398  1.00  0.00    -0.357 OA 
HETATM   15  O   UNL     1     -11.265  15.742  66.984  1.00  0.00    -0.229 OA 
ENDBRANCH   4   5
TORSDOF 1
ENDMDL
MODEL      136
REMARK 921   NORMALIZED FREE ENERGY PREDICTED BY IDOCK:   -3.08 KCAL/MOL
REMARK 922        TOTAL FREE ENERGY PREDICTED BY IDOCK:   -3.61 KCAL/MOL
REMARK 923 INTER-LIGAND FREE ENERGY PREDICTED BY IDOCK:   -3.38 KCAL/MOL
REMARK 924 INTRA-LIGAND FREE ENERGY PREDICTED BY IDOCK:   -0.23 KCAL/MOL
REMARK 927      BINDING AFFINITY PREDICTED BY RF-SCORE:    0.00 PKD
ROOT
HETATM    1  C   UNL     1      -9.854   9.084  66.139  1.00  0.00    -0.349 C  
HETATM    2  C   UNL     1     -10.108  10.542  66.530  1.00  0.00    -0.280 C  
HETATM    3  C   UNL     1     -10.625  11.318  65.316  1.00  0.00    -0.323 C  
HETATM    4  C   UNL     1     -11.103  10.666  67.704  1.00  0.00    -0.385 C  
ENDROOT
BRANCH   4   5
HETATM    5  C   UNL     1     -10.634   9.986  68.970  1.00  0.00    -0.235 A  
HETATM    6  C   UNL     1      -9.292  10.035  69.358  1.00  0.00    -0.237 A  
HETATM    7  C   UNL     1      -8.854   9.351  70.495  1.00  0.00    -0.287 A  
HETATM    8  C   UNL     1      -9.753   8.610  71.280  1.00  0.00    -0.305 A  
HETATM    9  C   UNL     1      -9.212   7.812  72.464  1.00  0.00    -0.227 C  
HETATM   10  C   UNL     1     -11.102   8.589  70.906  1.00  0.00    -0.295 A  
HETATM   11  C   UNL     1      -8.650   6.432  72.116  1.00  0.00    -0.125 C  
HETATM   12  C   UNL     1     -11.538   9.275  69.768  1.00  0.00     0.156 A  
HETATM   13  C   UNL     1     -10.215   7.659  73.613  1.00  0.00    -0.237 C  
HETATM   14  O   UNL     1      -8.748   6.035  70.830  1.00  0.00    -0.132 OA 
HETATM   15  O   UNL     1      -8.130   5.701  72.955  1.00  0.00    -0.116 OA 
ENDBRANCH   4   5
TORSDOF 1
ENDMDL
MODEL      137
REMARK 921   NORMALIZED FREE ENERGY PREDICTED BY IDOCK:   -3.00 KCAL/MOL
REMARK 922        TOTAL FREE ENERGY PREDICTED BY IDOCK:   -3.52 KCAL/MOL
REMARK 923 INTER-LIGAND FREE ENERGY PREDICTED BY IDOCK:   -3.54 KCAL/MOL
REMARK 924 INTRA-LIGAND FREE ENERGY PREDICTED BY IDOCK:    0.02 KCAL/MOL
REMARK 927      BINDING AFFINITY PREDICTED BY RF-SCORE:    0.00 PKD
ROOT
HETATM    1  C   UNL     1     -10.952  13.637  66.916  1.00  0.00    -0.296 C  
HETATM    2  C   UNL     1     -12.056  13.070  66.021  1.00  0.00    -0.493 C  
HETATM    3  C   UNL     1     -12.879  14.216  65.428  1.00  0.00    -0.393 C  
HETATM    4  C   UNL     1     -11.492  12.180  64.892  1.00  0.00    -0.379 C  
ENDROOT
BRANCH   4   5
HETATM    5  C   UNL     1     -10.724  10.978  65.394  1.00  0.00    -0.222 A  
HETATM    6  C   UNL     1     -10.898  10.508  66.699  1.00  0.00    -0.166 A  
HETATM    7  C   UNL     1     -10.139   9.436  67.176  1.00  0.00    -0.292 A  
HETATM    8  C   UNL     1      -9.193   8.801  66.354  1.00  0.00    -0.241 A  
HETATM    9  C   UNL     1      -8.328   7.691  66.946  1.00  0.00    -0.124 C  
HETATM   10  C   UNL     1      -9.044   9.256  65.037  1.00  0.00    -0.245 A  
HETATM   11  C   UNL     1      -7.089   8.167  67.706  1.00  0.00    -0.087 C  
HETATM   12  C   UNL     1      -9.806  10.328  64.562  1.00  0.00    -0.384 A  
HETATM   13  C   UNL     1      -7.902   6.631  65.924  1.00  0.00    -0.102 C  
HETATM   14  O   UNL     1      -6.849   9.495  67.719  1.00  0.00    -0.076 OA 
HETATM   15  O   UNL     1      -6.332   7.392  68.284  1.00  0.00    -0.038 OA 
ENDBRANCH   4   5
TORSDOF 1
ENDMDL
MODEL      138
REMARK 921   NORMALIZED FREE ENERGY PREDICTED BY IDOCK:   -2.99 KCAL/MOL
REMARK 922        TOTAL FREE ENERGY PREDICTED BY IDOCK:   -3.51 KCAL/MOL
REMARK 923 INTER-LIGAND FREE ENERGY PREDICTED BY IDOCK:   -3.15 KCAL/MOL
REMARK 924 INTRA-LIGAND FREE ENERGY PREDICTED BY IDOCK:   -0.36 KCAL/MOL
REMARK 927      BINDING AFFINITY PREDICTED BY RF-SCORE:    0.00 PKD
ROOT
HETATM    1  C   UNL     1     -10.600   3.431  72.955  1.00  0.00    -0.213 C  
HETATM    2  C   UNL     1      -9.129   3.238  72.578  1.00  0.00    -0.128 C  
HETATM    3  C   UNL     1      -8.695   1.809  72.913  1.00  0.00    -0.062 C  
HETATM    4  C   UNL     1      -8.865   3.538  71.087  1.00  0.00    -0.136 C  
ENDROOT
BRANCH   4   5
HETATM    5  C   UNL     1      -9.200   4.957  70.685  1.00  0.00    -0.189 A  
HETATM    6  C   UNL     1      -8.530   6.042  71.259  1.00  0.00    -0.128 A  
HETATM    7  C   UNL     1      -8.888   7.353  70.930  1.00  0.00    -0.148 A  
HETATM    8  C   UNL     1      -9.919   7.609  70.011  1.00  0.00    -0.190 A  
HETATM    9  C   UNL     1     -10.330   9.056  69.748  1.00  0.00    -0.219 C  
HETATM   10  C   UNL     1     -10.566   6.518  69.415  1.00  0.00    -0.291 A  
HETATM   11  C   UNL     1     -11.320   9.643  70.756  1.00  0.00    -0.340 C  
HETATM   12  C   UNL     1     -10.205   5.208  69.745  1.00  0.00    -0.357 A  
HETATM   13  C   UNL     1     -10.867   9.297  68.334  1.00  0.00    -0.125 C  
HETATM   14  O   UNL     1     -11.778   8.818  71.721  1.00  0.00    -0.300 OA 
HETATM   15  O   UNL     1     -11.697  10.811  70.705  1.00  0.00    -0.328 OA 
ENDBRANCH   4   5
TORSDOF 1
ENDMDL
MODEL      139
REMARK 921   NORMALIZED FREE ENERGY PREDICTED BY IDOCK:   -2.99 KCAL/MOL
REMARK 922        TOTAL FREE ENERGY PREDICTED BY IDOCK:   -3.51 KCAL/MOL
REMARK 923 INTER-LIGAND FREE ENERGY PREDICTED BY IDOCK:   -3.18 KCAL/MOL
REMARK 924 INTRA-LIGAND FREE ENERGY PREDICTED BY IDOCK:   -0.33 KCAL/MOL
REMARK 927      BINDING AFFINITY PREDICTED BY RF-SCORE:    0.00 PKD
ROOT
HETATM    1  C   UNL     1     -11.798  12.649  65.994  1.00  0.00    -0.492 C  
HETATM    2  C   UNL     1     -10.983  13.502  66.970  1.00  0.00    -0.297 C  
HETATM    3  C   UNL     1     -11.525  14.934  66.978  1.00  0.00    -0.333 C  
HETATM    4  C   UNL     1     -10.993  12.921  68.400  1.00  0.00    -0.285 C  
ENDROOT
BRANCH   4   5
HETATM    5  C   UNL     1     -10.405  11.532  68.494  1.00  0.00    -0.224 A  
HETATM    6  C   UNL     1      -9.038  11.315  68.294  1.00  0.00    -0.173 A  
HETATM    7  C   UNL     1      -8.512  10.020  68.320  1.00  0.00    -0.111 A  
HETATM    8  C   UNL     1      -9.340   8.911  68.557  1.00  0.00    -0.141 A  
HETATM    9  C   UNL     1      -8.734   7.511  68.492  1.00  0.00    -0.128 C  
HETATM   10  C   UNL     1     -10.703   9.136  68.789  1.00  0.00    -0.162 A  
HETATM   11  C   UNL     1      -8.631   6.912  67.088  1.00  0.00    -0.121 C  
HETATM   12  C   UNL     1     -11.227  10.432  68.763  1.00  0.00    -0.295 A  
HETATM   13  C   UNL     1      -9.425   6.497  69.410  1.00  0.00    -0.147 C  
HETATM   14  O   UNL     1      -9.140   7.639  66.071  1.00  0.00    -0.166 OA 
HETATM   15  O   UNL     1      -8.114   5.819  66.875  1.00  0.00    -0.102 OA 
ENDBRANCH   4   5
TORSDOF 1
ENDMDL
MODEL      140
REMARK 921   NORMALIZED FREE ENERGY PREDICTED BY IDOCK:   -2.98 KCAL/MOL
REMARK 922        TOTAL FREE ENERGY PREDICTED BY IDOCK:   -3.50 KCAL/MOL
REMARK 923 INTER-LIGAND FREE ENERGY PREDICTED BY IDOCK:   -3.84 KCAL/MOL
REMARK 924 INTRA-LIGAND FREE ENERGY PREDICTED BY IDOCK:    0.35 KCAL/MOL
REMARK 927      BINDING AFFINITY PREDICTED BY RF-SCORE:    0.00 PKD
ROOT
HETATM    1  C   UNL     1      -5.386  11.623  68.177  1.00  0.00    -0.043 C  
HETATM    2  C   UNL     1      -6.243  11.940  69.405  1.00  0.00    -0.108 C  
HETATM    3  C   UNL     1      -5.354  12.013  70.648  1.00  0.00    -0.150 C  
HETATM    4  C   UNL     1      -7.036  13.254  69.239  1.00  0.00     0.018 C  
ENDROOT
BRANCH   4   5
HETATM    5  C   UNL     1      -7.996  13.240  68.071  1.00  0.00    -0.152 A  
HETATM    6  C   UNL     1      -8.816  14.340  67.802  1.00  0.00    -0.185 A  
HETATM    7  C   UNL     1      -9.747  14.296  66.760  1.00  0.00    -0.282 A  
HETATM    8  C   UNL     1      -9.872  13.152  65.955  1.00  0.00    -0.266 A  
HETATM    9  C   UNL     1     -10.961  13.120  64.884  1.00  0.00    -0.337 C  
HETATM   10  C   UNL     1      -9.027  12.064  66.208  1.00  0.00    -0.129 A  
HETATM   11  C   UNL     1     -12.349  12.709  65.381  1.00  0.00    -0.436 C  
HETATM   12  C   UNL     1      -8.096  12.111  67.251  1.00  0.00    -0.176 A  
HETATM   13  C   UNL     1     -10.601  12.264  63.666  1.00  0.00    -0.501 C  
HETATM   14  O   UNL     1     -12.457  12.355  66.679  1.00  0.00    -0.329 OA 
HETATM   15  O   UNL     1     -13.332  12.693  64.646  1.00  0.00    -0.767 OA 
ENDBRANCH   4   5
TORSDOF 1
ENDMDL
MODEL      141
REMARK 921   NORMALIZED FREE ENERGY PREDICTED BY IDOCK:   -2.96 KCAL/MOL
REMARK 922        TOTAL FREE ENERGY PREDICTED BY IDOCK:   -3.48 KCAL/MOL
REMARK 923 INTER-LIGAND FREE ENERGY PREDICTED BY IDOCK:   -3.46 KCAL/MOL
REMARK 924 INTRA-LIGAND FREE ENERGY PREDICTED BY IDOCK:   -0.02 KCAL/MOL
REMARK 927      BINDING AFFINITY PREDICTED BY RF-SCORE:    0.00 PKD
ROOT
HETATM    1  C   UNL     1      -7.253   8.921  65.737  1.00  0.00    -0.085 C  
HETATM    2  C   UNL     1      -7.607   9.429  64.337  1.00  0.00    -0.114 C  
HETATM    3  C   UNL     1      -7.073   8.452  63.286  1.00  0.00    -0.091 C  
HETATM    4  C   UNL     1      -9.127   9.627  64.156  1.00  0.00    -0.256 C  
ENDROOT
BRANCH   4   5
HETATM    5  C   UNL     1      -9.725  10.635  65.111  1.00  0.00    -0.327 A  
HETATM    6  C   UNL     1      -9.929  11.962  64.720  1.00  0.00    -0.262 A  
HETATM    7  C   UNL     1     -10.423  12.903  65.627  1.00  0.00    -0.292 A  
HETATM    8  C   UNL     1     -10.735  12.536  66.947  1.00  0.00    -0.268 A  
HETATM    9  C   UNL     1     -11.191  13.618  67.924  1.00  0.00    -0.300 C  
HETATM   10  C   UNL     1     -10.559  11.199  67.325  1.00  0.00    -0.279 A  
HETATM   11  C   UNL     1     -10.064  14.404  68.595  1.00  0.00    -0.242 C  
HETATM   12  C   UNL     1     -10.065  10.259  66.414  1.00  0.00    -0.296 A  
HETATM   13  C   UNL     1     -12.146  13.105  69.007  1.00  0.00    -0.240 C  
HETATM   14  O   UNL     1      -8.799  14.027  68.315  1.00  0.00    -0.175 OA 
HETATM   15  O   UNL     1     -10.280  15.341  69.361  1.00  0.00    -0.230 OA 
ENDBRANCH   4   5
TORSDOF 1
ENDMDL
MODEL      142
REMARK 921   NORMALIZED FREE ENERGY PREDICTED BY IDOCK:   -2.95 KCAL/MOL
REMARK 922        TOTAL FREE ENERGY PREDICTED BY IDOCK:   -3.47 KCAL/MOL
REMARK 923 INTER-LIGAND FREE ENERGY PREDICTED BY IDOCK:   -3.38 KCAL/MOL
REMARK 924 INTRA-LIGAND FREE ENERGY PREDICTED BY IDOCK:   -0.09 KCAL/MOL
REMARK 927      BINDING AFFINITY PREDICTED BY RF-SCORE:    0.00 PKD
ROOT
HETATM    1  C   UNL     1     -11.010  12.815  63.868  1.00  0.00    -0.458 C  
HETATM    2  C   UNL     1     -11.277  13.874  64.940  1.00  0.00    -0.356 C  
HETATM    3  C   UNL     1     -12.226  14.940  64.386  1.00  0.00    -0.399 C  
HETATM    4  C   UNL     1     -11.861  13.262  66.231  1.00  0.00    -0.444 C  
ENDROOT
BRANCH   4   5
HETATM    5  C   UNL     1     -10.951  12.248  66.887  1.00  0.00    -0.312 A  
HETATM    6  C   UNL     1     -10.037  12.633  67.872  1.00  0.00    -0.222 A  
HETATM    7  C   UNL     1      -9.155  11.702  68.427  1.00  0.00    -0.180 A  
HETATM    8  C   UNL     1      -9.175  10.359  68.019  1.00  0.00    -0.142 A  
HETATM    9  C   UNL     1      -8.136   9.398  68.594  1.00  0.00    -0.104 C  
HETATM   10  C   UNL     1     -10.114   9.970  67.055  1.00  0.00    -0.274 A  
HETATM   11  C   UNL     1      -6.779   9.410  67.888  1.00  0.00    -0.067 C  
HETATM   12  C   UNL     1     -10.996  10.904  66.501  1.00  0.00    -0.187 A  
HETATM   13  C   UNL     1      -8.626   7.949  68.693  1.00  0.00    -0.128 C  
HETATM   14  O   UNL     1      -6.657  10.204  66.804  1.00  0.00    -0.069 OA 
HETATM   15  O   UNL     1      -5.830   8.733  68.275  1.00  0.00    -0.041 OA 
ENDBRANCH   4   5
TORSDOF 1
ENDMDL
MODEL      143
REMARK 921   NORMALIZED FREE ENERGY PREDICTED BY IDOCK:   -2.95 KCAL/MOL
REMARK 922        TOTAL FREE ENERGY PREDICTED BY IDOCK:   -3.47 KCAL/MOL
REMARK 923 INTER-LIGAND FREE ENERGY PREDICTED BY IDOCK:   -3.11 KCAL/MOL
REMARK 924 INTRA-LIGAND FREE ENERGY PREDICTED BY IDOCK:   -0.36 KCAL/MOL
REMARK 927      BINDING AFFINITY PREDICTED BY RF-SCORE:    0.00 PKD
ROOT
HETATM    1  C   UNL     1      -8.897   7.152  70.564  1.00  0.00    -0.154 C  
HETATM    2  C   UNL     1      -9.674   5.939  70.049  1.00  0.00    -0.209 C  
HETATM    3  C   UNL     1     -10.303   5.192  71.228  1.00  0.00    -0.276 C  
HETATM    4  C   UNL     1     -10.762   6.334  69.028  1.00  0.00    -0.362 C  
ENDROOT
BRANCH   4   5
HETATM    5  C   UNL     1     -10.217   7.015  67.793  1.00  0.00    -0.227 A  
HETATM    6  C   UNL     1      -9.320   6.357  66.946  1.00  0.00    -0.150 A  
HETATM    7  C   UNL     1      -8.771   7.014  65.842  1.00  0.00    -0.140 A  
HETATM    8  C   UNL     1      -9.114   8.345  65.552  1.00  0.00    -0.108 A  
HETATM    9  C   UNL     1      -8.423   9.047  64.385  1.00  0.00    -0.190 C  
HETATM   10  C   UNL     1     -10.037   8.991  66.385  1.00  0.00    -0.351 A  
HETATM   11  C   UNL     1      -7.057   9.654  64.709  1.00  0.00    -0.115 C  
HETATM   12  C   UNL     1     -10.586   8.330  67.489  1.00  0.00    -0.291 A  
HETATM   13  C   UNL     1      -9.289  10.116  63.710  1.00  0.00    -0.336 C  
HETATM   14  O   UNL     1      -6.634   9.571  65.988  1.00  0.00    -0.074 OA 
HETATM   15  O   UNL     1      -6.360  10.199  63.856  1.00  0.00    -0.128 OA 
ENDBRANCH   4   5
TORSDOF 1
ENDMDL
MODEL      144
REMARK 921   NORMALIZED FREE ENERGY PREDICTED BY IDOCK:   -2.89 KCAL/MOL
REMARK 922        TOTAL FREE ENERGY PREDICTED BY IDOCK:   -3.41 KCAL/MOL
REMARK 923 INTER-LIGAND FREE ENERGY PREDICTED BY IDOCK:   -3.21 KCAL/MOL
REMARK 924 INTRA-LIGAND FREE ENERGY PREDICTED BY IDOCK:   -0.20 KCAL/MOL
REMARK 927      BINDING AFFINITY PREDICTED BY RF-SCORE:    0.00 PKD
ROOT
HETATM    1  C   UNL     1      -6.873  14.526  69.503  1.00  0.00    -0.152 C  
HETATM    2  C   UNL     1      -8.036  15.373  68.980  1.00  0.00    -0.202 C  
HETATM    3  C   UNL     1      -7.618  16.845  68.931  1.00  0.00    -0.234 C  
HETATM    4  C   UNL     1      -8.516  14.909  67.589  1.00  0.00    -0.176 C  
ENDROOT
BRANCH   4   5
HETATM    5  C   UNL     1      -9.017  13.483  67.565  1.00  0.00    -0.210 A  
HETATM    6  C   UNL     1     -10.328  13.175  67.941  1.00  0.00    -0.232 A  
HETATM    7  C   UNL     1     -10.764  11.848  67.977  1.00  0.00    -0.242 A  
HETATM    8  C   UNL     1      -9.901  10.796  67.627  1.00  0.00    -0.193 A  
HETATM    9  C   UNL     1     -10.398   9.358  67.763  1.00  0.00    -0.291 C  
HETATM   10  C   UNL     1      -8.599  11.111  67.220  1.00  0.00    -0.140 A  
HETATM   11  C   UNL     1     -10.276   8.759  69.166  1.00  0.00    -0.207 C  
HETATM   12  C   UNL     1      -8.165  12.440  67.184  1.00  0.00    -0.176 A  
HETATM   13  C   UNL     1      -9.766   8.390  66.757  1.00  0.00    -0.309 C  
HETATM   14  O   UNL     1      -9.688   9.522  70.111  1.00  0.00    -0.214 OA 
HETATM   15  O   UNL     1     -10.686   7.634  69.439  1.00  0.00    -0.230 OA 
ENDBRANCH   4   5
TORSDOF 1
ENDMDL
MODEL      145
REMARK 921   NORMALIZED FREE ENERGY PREDICTED BY IDOCK:   -2.84 KCAL/MOL
REMARK 922        TOTAL FREE ENERGY PREDICTED BY IDOCK:   -3.35 KCAL/MOL
REMARK 923 INTER-LIGAND FREE ENERGY PREDICTED BY IDOCK:   -3.27 KCAL/MOL
REMARK 924 INTRA-LIGAND FREE ENERGY PREDICTED BY IDOCK:   -0.08 KCAL/MOL
REMARK 927      BINDING AFFINITY PREDICTED BY RF-SCORE:    0.00 PKD
ROOT
HETATM    1  C   UNL     1     -12.287  10.658  71.118  1.00  0.00    -0.505 C  
HETATM    2  C   UNL     1     -12.422   9.368  71.932  1.00  0.00    -0.468 C  
HETATM    3  C   UNL     1     -13.865   9.216  72.419  1.00  0.00    -0.524 C  
HETATM    4  C   UNL     1     -11.999   8.123  71.124  1.00  0.00    -0.296 C  
ENDROOT
BRANCH   4   5
HETATM    5  C   UNL     1     -10.559   8.158  70.664  1.00  0.00    -0.229 A  
HETATM    6  C   UNL     1      -9.595   8.879  71.375  1.00  0.00    -0.359 A  
HETATM    7  C   UNL     1      -8.280   8.959  70.909  1.00  0.00    -0.207 A  
HETATM    8  C   UNL     1      -7.895   8.311  69.724  1.00  0.00    -0.100 A  
HETATM    9  C   UNL     1      -6.469   8.498  69.211  1.00  0.00    -0.042 C  
HETATM   10  C   UNL     1      -8.857   7.564  69.031  1.00  0.00    -0.132 A  
HETATM   11  C   UNL     1      -6.236   9.765  68.387  1.00  0.00    -0.050 C  
HETATM   12  C   UNL     1     -10.172   7.484  69.500  1.00  0.00    -0.207 A  
HETATM   13  C   UNL     1      -5.934   7.295  68.427  1.00  0.00    -0.027 C  
HETATM   14  O   UNL     1      -7.310  10.544  68.140  1.00  0.00    -0.086 OA 
HETATM   15  O   UNL     1      -5.128  10.077  67.957  1.00  0.00    -0.036 OA 
ENDBRANCH   4   5
TORSDOF 1
ENDMDL
MODEL      146
REMARK 921   NORMALIZED FREE ENERGY PREDICTED BY IDOCK:   -2.83 KCAL/MOL
REMARK 922        TOTAL FREE ENERGY PREDICTED BY IDOCK:   -3.34 KCAL/MOL
REMARK 923 INTER-LIGAND FREE ENERGY PREDICTED BY IDOCK:   -3.01 KCAL/MOL
REMARK 924 INTRA-LIGAND FREE ENERGY PREDICTED BY IDOCK:   -0.33 KCAL/MOL
REMARK 927      BINDING AFFINITY PREDICTED BY RF-SCORE:    0.00 PKD
ROOT
HETATM    1  C   UNL     1      -9.405  13.285  68.177  1.00  0.00    -0.220 C  
HETATM    2  C   UNL     1     -10.066  13.063  66.815  1.00  0.00    -0.247 C  
HETATM    3  C   UNL     1     -10.049  14.368  66.016  1.00  0.00    -0.338 C  
HETATM    4  C   UNL     1      -9.380  11.937  66.011  1.00  0.00    -0.215 C  
ENDROOT
BRANCH   4   5
HETATM    5  C   UNL     1      -9.416  10.592  66.699  1.00  0.00    -0.199 A  
HETATM    6  C   UNL     1      -8.238   9.885  66.958  1.00  0.00    -0.117 A  
HETATM    7  C   UNL     1      -8.283   8.614  67.536  1.00  0.00    -0.110 A  
HETATM    8  C   UNL     1      -9.510   8.022  67.880  1.00  0.00    -0.161 A  
HETATM    9  C   UNL     1      -9.513   6.598  68.431  1.00  0.00    -0.125 C  
HETATM   10  C   UNL     1     -10.686   8.747  67.648  1.00  0.00    -0.206 A  
HETATM   11  C   UNL     1      -9.476   5.492  67.375  1.00  0.00    -0.117 C  
HETATM   12  C   UNL     1     -10.638  10.019  67.070  1.00  0.00    -0.279 A  
HETATM   13  C   UNL     1     -10.667   6.315  69.399  1.00  0.00    -0.364 C  
HETATM   14  O   UNL     1      -9.513   5.876  66.081  1.00  0.00    -0.158 OA 
HETATM   15  O   UNL     1      -9.417   4.302  67.670  1.00  0.00    -0.154 OA 
ENDBRANCH   4   5
TORSDOF 1
ENDMDL
MODEL      147
REMARK 921   NORMALIZED FREE ENERGY PREDICTED BY IDOCK:   -2.77 KCAL/MOL
REMARK 922        TOTAL FREE ENERGY PREDICTED BY IDOCK:   -3.28 KCAL/MOL
REMARK 923 INTER-LIGAND FREE ENERGY PREDICTED BY IDOCK:   -3.26 KCAL/MOL
REMARK 924 INTRA-LIGAND FREE ENERGY PREDICTED BY IDOCK:   -0.02 KCAL/MOL
REMARK 927      BINDING AFFINITY PREDICTED BY RF-SCORE:    0.00 PKD
ROOT
HETATM    1  C   UNL     1     -10.788   7.570  71.364  1.00  0.00    -0.251 C  
HETATM    2  C   UNL     1      -9.260   7.648  71.307  1.00  0.00    -0.155 C  
HETATM    3  C   UNL     1      -8.655   6.546  72.180  1.00  0.00    -0.123 C  
HETATM    4  C   UNL     1      -8.724   7.539  69.864  1.00  0.00    -0.140 C  
ENDROOT
BRANCH   4   5
HETATM    5  C   UNL     1      -9.217   8.637  68.948  1.00  0.00    -0.145 A  
HETATM    6  C   UNL     1     -10.463   8.543  68.320  1.00  0.00    -0.222 A  
HETATM    7  C   UNL     1     -10.884   9.531  67.426  1.00  0.00    -0.215 A  
HETATM    8  C   UNL     1     -10.073  10.644  67.147  1.00  0.00    -0.248 A  
HETATM    9  C   UNL     1     -10.540  11.653  66.100  1.00  0.00    -0.306 C  
HETATM   10  C   UNL     1      -8.840  10.749  67.803  1.00  0.00    -0.130 A  
HETATM   11  C   UNL     1     -10.224  11.279  64.651  1.00  0.00    -0.301 C  
HETATM   12  C   UNL     1      -8.421   9.759  68.698  1.00  0.00    -0.116 A  
HETATM   13  C   UNL     1     -10.048  13.080  66.359  1.00  0.00    -0.279 C  
HETATM   14  O   UNL     1      -9.515  10.148  64.448  1.00  0.00    -0.269 OA 
HETATM   15  O   UNL     1     -10.588  11.965  63.699  1.00  0.00    -0.360 OA 
ENDBRANCH   4   5
TORSDOF 1
ENDMDL
MODEL      148
REMARK 921   NORMALIZED FREE ENERGY PREDICTED BY IDOCK:   -2.71 KCAL/MOL
REMARK 922        TOTAL FREE ENERGY PREDICTED BY IDOCK:   -3.22 KCAL/MOL
REMARK 923 INTER-LIGAND FREE ENERGY PREDICTED BY IDOCK:   -3.28 KCAL/MOL
REMARK 924 INTRA-LIGAND FREE ENERGY PREDICTED BY IDOCK:    0.06 KCAL/MOL
REMARK 927      BINDING AFFINITY PREDICTED BY RF-SCORE:    0.00 PKD
ROOT
HETATM    1  C   UNL     1     -11.757   9.768  70.191  1.00  0.00    -0.190 C  
HETATM    2  C   UNL     1     -12.151   8.973  71.438  1.00  0.00    -0.392 C  
HETATM    3  C   UNL     1     -13.381   9.611  72.088  1.00  0.00    -0.545 C  
HETATM    4  C   UNL     1     -12.428   7.488  71.119  1.00  0.00    -0.306 C  
ENDROOT
BRANCH   4   5
HETATM    5  C   UNL     1     -11.236   6.760  70.538  1.00  0.00    -0.370 A  
HETATM    6  C   UNL     1     -10.881   6.921  69.196  1.00  0.00    -0.262 A  
HETATM    7  C   UNL     1      -9.818   6.196  68.650  1.00  0.00    -0.160 A  
HETATM    8  C   UNL     1      -9.077   5.300  69.438  1.00  0.00    -0.135 A  
HETATM    9  C   UNL     1      -7.979   4.469  68.777  1.00  0.00    -0.078 C  
HETATM   10  C   UNL     1      -9.417   5.166  70.791  1.00  0.00    -0.224 A  
HETATM   11  C   UNL     1      -8.459   3.191  68.086  1.00  0.00    -0.086 C  
HETATM   12  C   UNL     1     -10.481   5.893  71.335  1.00  0.00    -0.291 A  
HETATM   13  C   UNL     1      -6.823   4.115  69.718  1.00  0.00    -0.041 C  
HETATM   14  O   UNL     1      -9.772   2.894  68.186  1.00  0.00    -0.136 OA 
HETATM   15  O   UNL     1      -7.699   2.454  67.464  1.00  0.00    -0.060 OA 
ENDBRANCH   4   5
TORSDOF 1
ENDMDL
MODEL      149
REMARK 921   NORMALIZED FREE ENERGY PREDICTED BY IDOCK:   -2.69 KCAL/MOL
REMARK 922        TOTAL FREE ENERGY PREDICTED BY IDOCK:   -3.19 KCAL/MOL
REMARK 923 INTER-LIGAND FREE ENERGY PREDICTED BY IDOCK:   -2.84 KCAL/MOL
REMARK 924 INTRA-LIGAND FREE ENERGY PREDICTED BY IDOCK:   -0.35 KCAL/MOL
REMARK 927      BINDING AFFINITY PREDICTED BY RF-SCORE:    0.00 PKD
ROOT
HETATM    1  C   UNL     1      -8.818   3.871  68.915  1.00  0.00    -0.153 C  
HETATM    2  C   UNL     1      -9.678   3.890  70.181  1.00  0.00    -0.242 C  
HETATM    3  C   UNL     1      -9.474   2.590  70.961  1.00  0.00    -0.222 C  
HETATM    4  C   UNL     1      -9.365   5.105  71.080  1.00  0.00    -0.198 C  
ENDROOT
BRANCH   4   5
HETATM    5  C   UNL     1      -9.612   6.437  70.407  1.00  0.00    -0.178 A  
HETATM    6  C   UNL     1     -10.898   6.814  70.010  1.00  0.00    -0.311 A  
HETATM    7  C   UNL     1     -11.108   8.018  69.332  1.00  0.00     0.081 A  
HETATM    8  C   UNL     1     -10.037   8.880  69.045  1.00  0.00    -0.205 A  
HETATM    9  C   UNL     1     -10.305  10.142  68.228  1.00  0.00    -0.215 C  
HETATM   10  C   UNL     1      -8.755   8.513  69.473  1.00  0.00    -0.136 A  
HETATM   11  C   UNL     1     -10.323   9.943  66.711  1.00  0.00    -0.217 C  
HETATM   12  C   UNL     1      -8.547   7.308  70.152  1.00  0.00    -0.140 A  
HETATM   13  C   UNL     1      -9.361  11.302  68.561  1.00  0.00    -0.182 C  
HETATM   14  O   UNL     1     -10.037   8.708  66.250  1.00  0.00    -0.277 OA 
HETATM   15  O   UNL     1     -10.581  10.856  65.931  1.00  0.00    -0.241 OA 
ENDBRANCH   4   5
TORSDOF 1
ENDMDL
MODEL      150
REMARK 921   NORMALIZED FREE ENERGY PREDICTED BY IDOCK:   -2.67 KCAL/MOL
REMARK 922        TOTAL FREE ENERGY PREDICTED BY IDOCK:   -3.17 KCAL/MOL
REMARK 923 INTER-LIGAND FREE ENERGY PREDICTED BY IDOCK:   -2.83 KCAL/MOL
REMARK 924 INTRA-LIGAND FREE ENERGY PREDICTED BY IDOCK:   -0.33 KCAL/MOL
REMARK 927      BINDING AFFINITY PREDICTED BY RF-SCORE:    0.00 PKD
ROOT
HETATM    1  C   UNL     1      -6.944   8.213  72.050  1.00  0.00    -0.086 C  
HETATM    2  C   UNL     1      -8.453   7.982  72.163  1.00  0.00    -0.194 C  
HETATM    3  C   UNL     1      -8.852   7.903  73.638  1.00  0.00    -0.336 C  
HETATM    4  C   UNL     1      -9.266   9.084  71.450  1.00  0.00    -0.293 C  
ENDROOT
BRANCH   4   5
HETATM    5  C   UNL     1      -8.985   9.182  69.968  1.00  0.00    -0.201 A  
HETATM    6  C   UNL     1      -8.404  10.331  69.421  1.00  0.00    -0.169 A  
HETATM    7  C   UNL     1      -8.205  10.440  68.042  1.00  0.00    -0.114 A  
HETATM    8  C   UNL     1      -8.574   9.397  67.176  1.00  0.00    -0.130 A  
HETATM    9  C   UNL     1      -8.416   9.597  65.671  1.00  0.00    -0.141 C  
HETATM   10  C   UNL     1      -9.127   8.236  67.731  1.00  0.00    -0.138 A  
HETATM   11  C   UNL     1      -9.569  10.337  64.989  1.00  0.00    -0.285 C  
HETATM   12  C   UNL     1      -9.324   8.129  69.112  1.00  0.00    -0.151 A  
HETATM   13  C   UNL     1      -8.140   8.301  64.903  1.00  0.00    -0.150 C  
HETATM   14  O   UNL     1     -10.625  10.672  65.759  1.00  0.00    -0.194 OA 
HETATM   15  O   UNL     1      -9.554  10.620  63.794  1.00  0.00    -0.253 OA 
ENDBRANCH   4   5
TORSDOF 1
ENDMDL
MODEL      151
REMARK 921   NORMALIZED FREE ENERGY PREDICTED BY IDOCK:   -2.66 KCAL/MOL
REMARK 922        TOTAL FREE ENERGY PREDICTED BY IDOCK:   -3.16 KCAL/MOL
REMARK 923 INTER-LIGAND FREE ENERGY PREDICTED BY IDOCK:   -2.80 KCAL/MOL
REMARK 924 INTRA-LIGAND FREE ENERGY PREDICTED BY IDOCK:   -0.36 KCAL/MOL
REMARK 927      BINDING AFFINITY PREDICTED BY RF-SCORE:    0.00 PKD
ROOT
HETATM    1  C   UNL     1      -8.304   3.967  67.352  1.00  0.00    -0.098 C  
HETATM    2  C   UNL     1      -6.934   4.454  67.832  1.00  0.00    -0.056 C  
HETATM    3  C   UNL     1      -5.833   3.792  67.000  1.00  0.00    -0.023 C  
HETATM    4  C   UNL     1      -6.804   5.990  67.762  1.00  0.00    -0.060 C  
ENDROOT
BRANCH   4   5
HETATM    5  C   UNL     1      -7.812   6.724  68.617  1.00  0.00    -0.118 A  
HETATM    6  C   UNL     1      -7.863   6.523  70.000  1.00  0.00    -0.111 A  
HETATM    7  C   UNL     1      -8.839   7.156  70.775  1.00  0.00    -0.148 A  
HETATM    8  C   UNL     1      -9.782   8.014  70.186  1.00  0.00    -0.176 A  
HETATM    9  C   UNL     1     -10.879   8.616  71.061  1.00  0.00    -0.302 C  
HETATM   10  C   UNL     1      -9.707   8.237  68.805  1.00  0.00    -0.160 A  
HETATM   11  C   UNL     1     -12.097   7.717  71.285  1.00  0.00    -0.314 C  
HETATM   12  C   UNL     1      -8.729   7.603  68.032  1.00  0.00    -0.125 A  
HETATM   13  C   UNL     1     -11.362   9.990  70.586  1.00  0.00    -0.425 C  
HETATM   14  O   UNL     1     -12.112   6.530  70.642  1.00  0.00    -0.366 OA 
HETATM   15  O   UNL     1     -13.032   8.044  72.012  1.00  0.00    -0.317 OA 
ENDBRANCH   4   5
TORSDOF 1
ENDMDL
MODEL      152
REMARK 921   NORMALIZED FREE ENERGY PREDICTED BY IDOCK:   -2.62 KCAL/MOL
REMARK 922        TOTAL FREE ENERGY PREDICTED BY IDOCK:   -3.11 KCAL/MOL
REMARK 923 INTER-LIGAND FREE ENERGY PREDICTED BY IDOCK:   -2.79 KCAL/MOL
REMARK 924 INTRA-LIGAND FREE ENERGY PREDICTED BY IDOCK:   -0.33 KCAL/MOL
REMARK 927      BINDING AFFINITY PREDICTED BY RF-SCORE:    0.00 PKD
ROOT
HETATM    1  C   UNL     1     -10.459   6.007  71.789  1.00  0.00    -0.268 C  
HETATM    2  C   UNL     1     -10.851   7.473  71.583  1.00  0.00    -0.249 C  
HETATM    3  C   UNL     1     -11.112   8.131  72.940  1.00  0.00    -0.310 C  
HETATM    4  C   UNL     1      -9.773   8.261  70.808  1.00  0.00    -0.197 C  
ENDROOT
BRANCH   4   5
HETATM    5  C   UNL     1      -9.504   7.719  69.423  1.00  0.00    -0.156 A  
HETATM    6  C   UNL     1     -10.462   7.828  68.410  1.00  0.00    -0.207 A  
HETATM    7  C   UNL     1     -10.232   7.269  67.150  1.00  0.00    -0.339 A  
HETATM    8  C   UNL     1      -9.032   6.595  66.869  1.00  0.00    -0.131 A  
HETATM    9  C   UNL     1      -8.863   5.929  65.506  1.00  0.00    -0.100 C  
HETATM   10  C   UNL     1      -8.062   6.516  67.877  1.00  0.00    -0.116 A  
HETATM   11  C   UNL     1      -9.472   4.530  65.386  1.00  0.00    -0.172 C  
HETATM   12  C   UNL     1      -8.295   7.077  69.137  1.00  0.00    -0.125 A  
HETATM   13  C   UNL     1      -7.410   5.876  65.023  1.00  0.00    -0.072 C  
HETATM   14  O   UNL     1     -10.028   4.005  66.498  1.00  0.00    -0.200 OA 
HETATM   15  O   UNL     1      -9.463   3.896  64.334  1.00  0.00    -0.144 OA 
ENDBRANCH   4   5
TORSDOF 1
ENDMDL
MODEL      153
REMARK 921   NORMALIZED FREE ENERGY PREDICTED BY IDOCK:   -2.60 KCAL/MOL
REMARK 922        TOTAL FREE ENERGY PREDICTED BY IDOCK:   -3.10 KCAL/MOL
REMARK 923 INTER-LIGAND FREE ENERGY PREDICTED BY IDOCK:   -2.76 KCAL/MOL
REMARK 924 INTRA-LIGAND FREE ENERGY PREDICTED BY IDOCK:   -0.34 KCAL/MOL
REMARK 927      BINDING AFFINITY PREDICTED BY RF-SCORE:    0.00 PKD
ROOT
HETATM    1  C   UNL     1     -10.209  14.868  65.104  1.00  0.00    -0.409 C  
HETATM    2  C   UNL     1      -9.724  15.892  66.132  1.00  0.00    -0.351 C  
HETATM    3  C   UNL     1     -10.375  17.249  65.853  1.00  0.00    -0.287 C  
HETATM    4  C   UNL     1     -10.019  15.448  67.581  1.00  0.00    -0.225 C  
ENDROOT
BRANCH   4   5
HETATM    5  C   UNL     1      -9.351  14.147  67.964  1.00  0.00    -0.203 A  
HETATM    6  C   UNL     1      -7.959  14.053  68.054  1.00  0.00    -0.152 A  
HETATM    7  C   UNL     1      -7.346  12.832  68.346  1.00  0.00    -0.118 A  
HETATM    8  C   UNL     1      -8.112  11.676  68.567  1.00  0.00    -0.145 A  
HETATM    9  C   UNL     1      -7.394  10.348  68.800  1.00  0.00    -0.089 C  
HETATM   10  C   UNL     1      -9.508  11.782  68.508  1.00  0.00    -0.165 A  
HETATM   11  C   UNL     1      -6.966   9.610  67.530  1.00  0.00    -0.084 C  
HETATM   12  C   UNL     1     -10.119  13.005  68.216  1.00  0.00    -0.239 A  
HETATM   13  C   UNL     1      -8.170   9.378  69.696  1.00  0.00    -0.136 C  
HETATM   14  O   UNL     1      -7.320  10.161  66.350  1.00  0.00    -0.100 OA 
HETATM   15  O   UNL     1      -6.330   8.560  67.562  1.00  0.00    -0.055 OA 
ENDBRANCH   4   5
TORSDOF 1
ENDMDL
MODEL      154
REMARK 921   NORMALIZED FREE ENERGY PREDICTED BY IDOCK:   -2.59 KCAL/MOL
REMARK 922        TOTAL FREE ENERGY PREDICTED BY IDOCK:   -3.09 KCAL/MOL
REMARK 923 INTER-LIGAND FREE ENERGY PREDICTED BY IDOCK:   -2.93 KCAL/MOL
REMARK 924 INTRA-LIGAND FREE ENERGY PREDICTED BY IDOCK:   -0.16 KCAL/MOL
REMARK 927      BINDING AFFINITY PREDICTED BY RF-SCORE:    0.00 PKD
ROOT
HETATM    1  C   UNL     1     -10.258  13.775  68.046  1.00  0.00    -0.248 C  
HETATM    2  C   UNL     1     -10.894  12.989  66.896  1.00  0.00    -0.282 C  
HETATM    3  C   UNL     1     -11.140  13.924  65.709  1.00  0.00    -0.294 C  
HETATM    4  C   UNL     1     -10.025  11.791  66.458  1.00  0.00    -0.229 C  
ENDROOT
BRANCH   4   5
HETATM    5  C   UNL     1      -9.792  10.777  67.555  1.00  0.00    -0.197 A  
HETATM    6  C   UNL     1      -8.652  10.840  68.362  1.00  0.00    -0.141 A  
HETATM    7  C   UNL     1      -8.412   9.863  69.332  1.00  0.00    -0.169 A  
HETATM    8  C   UNL     1      -9.314   8.804  69.526  1.00  0.00    -0.157 A  
HETATM    9  C   UNL     1      -8.966   7.716  70.540  1.00  0.00    -0.151 C  
HETATM   10  C   UNL     1     -10.471   8.763  68.738  1.00  0.00    -0.214 A  
HETATM   11  C   UNL     1      -8.051   6.608  70.015  1.00  0.00    -0.121 C  
HETATM   12  C   UNL     1     -10.709   9.742  67.768  1.00  0.00    -0.329 A  
HETATM   13  C   UNL     1     -10.192   7.072  71.196  1.00  0.00    -0.208 C  
HETATM   14  O   UNL     1      -7.703   6.664  68.712  1.00  0.00    -0.105 OA 
HETATM   15  O   UNL     1      -7.642   5.698  70.731  1.00  0.00    -0.086 OA 
ENDBRANCH   4   5
TORSDOF 1
ENDMDL
MODEL      155
REMARK 921   NORMALIZED FREE ENERGY PREDICTED BY IDOCK:   -2.59 KCAL/MOL
REMARK 922        TOTAL FREE ENERGY PREDICTED BY IDOCK:   -3.08 KCAL/MOL
REMARK 923 INTER-LIGAND FREE ENERGY PREDICTED BY IDOCK:   -3.54 KCAL/MOL
REMARK 924 INTRA-LIGAND FREE ENERGY PREDICTED BY IDOCK:    0.46 KCAL/MOL
REMARK 927      BINDING AFFINITY PREDICTED BY RF-SCORE:    0.00 PKD
ROOT
HETATM    1  C   UNL     1     -11.026  13.226  67.516  1.00  0.00    -0.281 C  
HETATM    2  C   UNL     1     -11.279  13.922  68.856  1.00  0.00    -0.304 C  
HETATM    3  C   UNL     1     -11.790  12.902  69.877  1.00  0.00    -0.373 C  
HETATM    4  C   UNL     1     -10.016  14.627  69.394  1.00  0.00    -0.038 C  
ENDROOT
BRANCH   4   5
HETATM    5  C   UNL     1      -9.486  15.705  68.476  1.00  0.00    -0.200 A  
HETATM    6  C   UNL     1      -9.320  15.466  67.108  1.00  0.00    -0.225 A  
HETATM    7  C   UNL     1      -8.770  16.445  66.277  1.00  0.00    -0.369 A  
HETATM    8  C   UNL     1      -8.382  17.693  66.792  1.00  0.00    -0.276 A  
HETATM    9  C   UNL     1      -7.709  18.699  65.861  1.00  0.00    -0.143 C  
HETATM   10  C   UNL     1      -8.580  17.940  68.157  1.00  0.00    -0.265 A  
HETATM   11  C   UNL     1      -6.203  18.504  65.674  1.00  0.00    -0.259 C  
HETATM   12  C   UNL     1      -9.131  16.958  68.987  1.00  0.00    -0.174 A  
HETATM   13  C   UNL     1      -7.973  20.160  66.238  1.00  0.00    -0.278 C  
HETATM   14  O   UNL     1      -5.616  17.523  66.392  1.00  0.00    -0.175 OA 
HETATM   15  O   UNL     1      -5.538  19.201  64.912  1.00  0.00    -0.181 OA 
ENDBRANCH   4   5
TORSDOF 1
ENDMDL
MODEL      156
REMARK 921   NORMALIZED FREE ENERGY PREDICTED BY IDOCK:   -2.58 KCAL/MOL
REMARK 922        TOTAL FREE ENERGY PREDICTED BY IDOCK:   -3.08 KCAL/MOL
REMARK 923 INTER-LIGAND FREE ENERGY PREDICTED BY IDOCK:   -3.05 KCAL/MOL
REMARK 924 INTRA-LIGAND FREE ENERGY PREDICTED BY IDOCK:   -0.03 KCAL/MOL
REMARK 927      BINDING AFFINITY PREDICTED BY RF-SCORE:    0.00 PKD
ROOT
HETATM    1  C   UNL     1     -10.775  11.660  65.308  1.00  0.00    -0.346 C  
HETATM    2  C   UNL     1     -11.061  11.651  63.804  1.00  0.00    -0.499 C  
HETATM    3  C   UNL     1     -11.890  12.883  63.431  1.00  0.00    -0.576 C  
HETATM    4  C   UNL     1      -9.767  11.606  62.965  1.00  0.00    -0.331 C  
ENDROOT
BRANCH   4   5
HETATM    5  C   UNL     1      -8.921  10.379  63.219  1.00  0.00    -0.241 A  
HETATM    6  C   UNL     1      -9.015   9.257  62.391  1.00  0.00    -0.216 A  
HETATM    7  C   UNL     1      -8.277   8.103  62.670  1.00  0.00    -0.142 A  
HETATM    8  C   UNL     1      -7.418   8.048  63.779  1.00  0.00    -0.121 A  
HETATM    9  C   UNL     1      -6.697   6.738  64.090  1.00  0.00    -0.045 C  
HETATM   10  C   UNL     1      -7.302   9.186  64.588  1.00  0.00    -0.099 A  
HETATM   11  C   UNL     1      -7.513   5.723  64.893  1.00  0.00    -0.079 C  
HETATM   12  C   UNL     1      -8.041  10.340  64.306  1.00  0.00    -0.143 A  
HETATM   13  C   UNL     1      -5.340   6.929  64.773  1.00  0.00    -0.027 C  
HETATM   14  O   UNL     1      -8.742   6.105  65.299  1.00  0.00    -0.124 OA 
HETATM   15  O   UNL     1      -7.086   4.605  65.168  1.00  0.00    -0.060 OA 
ENDBRANCH   4   5
TORSDOF 1
ENDMDL
MODEL      157
REMARK 921   NORMALIZED FREE ENERGY PREDICTED BY IDOCK:   -2.58 KCAL/MOL
REMARK 922        TOTAL FREE ENERGY PREDICTED BY IDOCK:   -3.08 KCAL/MOL
REMARK 923 INTER-LIGAND FREE ENERGY PREDICTED BY IDOCK:   -2.79 KCAL/MOL
REMARK 924 INTRA-LIGAND FREE ENERGY PREDICTED BY IDOCK:   -0.29 KCAL/MOL
REMARK 927      BINDING AFFINITY PREDICTED BY RF-SCORE:    0.00 PKD
ROOT
HETATM    1  C   UNL     1      -8.375   4.309  66.603  1.00  0.00    -0.101 C  
HETATM    2  C   UNL     1      -7.363   5.413  66.282  1.00  0.00    -0.082 C  
HETATM    3  C   UNL     1      -6.569   5.034  65.030  1.00  0.00    -0.040 C  
HETATM    4  C   UNL     1      -8.041   6.786  66.088  1.00  0.00    -0.115 C  
ENDROOT
BRANCH   4   5
HETATM    5  C   UNL     1      -8.791   7.271  67.308  1.00  0.00    -0.124 A  
HETATM    6  C   UNL     1     -10.189   7.284  67.335  1.00  0.00    -0.304 A  
HETATM    7  C   UNL     1     -10.875   7.793  68.441  1.00  0.00     0.009 A  
HETATM    8  C   UNL     1     -10.177   8.291  69.554  1.00  0.00    -0.210 A  
HETATM    9  C   UNL     1     -10.969   8.913  70.702  1.00  0.00    -0.287 C  
HETATM   10  C   UNL     1      -8.777   8.246  69.536  1.00  0.00    -0.138 A  
HETATM   11  C   UNL     1     -11.354  10.381  70.505  1.00  0.00    -0.341 C  
HETATM   12  C   UNL     1      -8.094   7.736  68.428  1.00  0.00    -0.124 A  
HETATM   13  C   UNL     1     -10.295   8.760  72.069  1.00  0.00    -0.411 C  
HETATM   14  O   UNL     1     -10.904  10.990  69.388  1.00  0.00    -0.230 OA 
HETATM   15  O   UNL     1     -12.039  10.996  71.318  1.00  0.00    -0.295 OA 
ENDBRANCH   4   5
TORSDOF 1
ENDMDL
MODEL      158
REMARK 921   NORMALIZED FREE ENERGY PREDICTED BY IDOCK:   -2.56 KCAL/MOL
REMARK 922        TOTAL FREE ENERGY PREDICTED BY IDOCK:   -3.06 KCAL/MOL
REMARK 923 INTER-LIGAND FREE ENERGY PREDICTED BY IDOCK:   -2.72 KCAL/MOL
REMARK 924 INTRA-LIGAND FREE ENERGY PREDICTED BY IDOCK:   -0.34 KCAL/MOL
REMARK 927      BINDING AFFINITY PREDICTED BY RF-SCORE:    0.00 PKD
ROOT
HETATM    1  C   UNL     1      -8.323   2.315  70.702  1.00  0.00    -0.078 C  
HETATM    2  C   UNL     1      -9.631   2.728  71.381  1.00  0.00    -0.223 C  
HETATM    3  C   UNL     1      -9.923   1.784  72.551  1.00  0.00    -0.196 C  
HETATM    4  C   UNL     1      -9.597   4.190  71.873  1.00  0.00    -0.216 C  
ENDROOT
BRANCH   4   5
HETATM    5  C   UNL     1      -9.385   5.198  70.766  1.00  0.00    -0.210 A  
HETATM    6  C   UNL     1      -8.292   6.070  70.787  1.00  0.00    -0.126 A  
HETATM    7  C   UNL     1      -8.138   7.041  69.794  1.00  0.00    -0.126 A  
HETATM    8  C   UNL     1      -9.068   7.156  68.748  1.00  0.00    -0.134 A  
HETATM    9  C   UNL     1      -8.902   8.286  67.734  1.00  0.00    -0.137 C  
HETATM   10  C   UNL     1     -10.144   6.260  68.713  1.00  0.00    -0.191 A  
HETATM   11  C   UNL     1      -9.482   9.635  68.165  1.00  0.00    -0.132 C  
HETATM   12  C   UNL     1     -10.296   5.288  69.708  1.00  0.00    -0.369 A  
HETATM   13  C   UNL     1      -9.434   7.944  66.339  1.00  0.00    -0.258 C  
HETATM   14  O   UNL     1     -10.132   9.676  69.346  1.00  0.00    -0.181 OA 
HETATM   15  O   UNL     1      -9.373  10.647  67.478  1.00  0.00    -0.146 OA 
ENDBRANCH   4   5
TORSDOF 1
ENDMDL
MODEL      159
REMARK 921   NORMALIZED FREE ENERGY PREDICTED BY IDOCK:   -2.56 KCAL/MOL
REMARK 922        TOTAL FREE ENERGY PREDICTED BY IDOCK:   -3.06 KCAL/MOL
REMARK 923 INTER-LIGAND FREE ENERGY PREDICTED BY IDOCK:   -2.84 KCAL/MOL
REMARK 924 INTRA-LIGAND FREE ENERGY PREDICTED BY IDOCK:   -0.22 KCAL/MOL
REMARK 927      BINDING AFFINITY PREDICTED BY RF-SCORE:    0.00 PKD
ROOT
HETATM    1  C   UNL     1      -6.522   8.318  65.665  1.00  0.00    -0.052 C  
HETATM    2  C   UNL     1      -6.252   9.626  66.414  1.00  0.00    -0.068 C  
HETATM    3  C   UNL     1      -5.336  10.520  65.574  1.00  0.00    -0.115 C  
HETATM    4  C   UNL     1      -7.555  10.377  66.763  1.00  0.00    -0.110 C  
ENDROOT
BRANCH   4   5
HETATM    5  C   UNL     1      -8.488   9.590  67.654  1.00  0.00    -0.122 A  
HETATM    6  C   UNL     1      -9.871   9.619  67.450  1.00  0.00    -0.218 A  
HETATM    7  C   UNL     1     -10.733   8.941  68.317  1.00  0.00    -0.135 A  
HETATM    8  C   UNL     1     -10.230   8.206  69.403  1.00  0.00    -0.211 A  
HETATM    9  C   UNL     1     -11.215   7.552  70.370  1.00  0.00    -0.270 C  
HETATM   10  C   UNL     1      -8.842   8.153  69.585  1.00  0.00    -0.143 A  
HETATM   11  C   UNL     1     -11.756   8.471  71.467  1.00  0.00    -0.297 C  
HETATM   12  C   UNL     1      -7.982   8.833  68.716  1.00  0.00    -0.106 A  
HETATM   13  C   UNL     1     -10.680   6.271  71.020  1.00  0.00    -0.313 C  
HETATM   14  O   UNL     1     -11.266   9.728  71.513  1.00  0.00    -0.360 OA 
HETATM   15  O   UNL     1     -12.598   8.099  72.281  1.00  0.00    -0.317 OA 
ENDBRANCH   4   5
TORSDOF 1
ENDMDL
MODEL      160
REMARK 921   NORMALIZED FREE ENERGY PREDICTED BY IDOCK:   -2.56 KCAL/MOL
REMARK 922        TOTAL FREE ENERGY PREDICTED BY IDOCK:   -3.06 KCAL/MOL
REMARK 923 INTER-LIGAND FREE ENERGY PREDICTED BY IDOCK:   -3.55 KCAL/MOL
REMARK 924 INTRA-LIGAND FREE ENERGY PREDICTED BY IDOCK:    0.49 KCAL/MOL
REMARK 927      BINDING AFFINITY PREDICTED BY RF-SCORE:    0.00 PKD
ROOT
HETATM    1  C   UNL     1     -11.391   6.957  70.207  1.00  0.00    -0.373 C  
HETATM    2  C   UNL     1      -9.916   7.168  70.558  1.00  0.00    -0.191 C  
HETATM    3  C   UNL     1      -9.414   5.993  71.400  1.00  0.00    -0.172 C  
HETATM    4  C   UNL     1      -9.037   7.335  69.300  1.00  0.00    -0.138 C  
ENDROOT
BRANCH   4   5
HETATM    5  C   UNL     1      -9.420   8.522  68.445  1.00  0.00    -0.141 A  
HETATM    6  C   UNL     1      -8.558   9.003  67.455  1.00  0.00    -0.120 A  
HETATM    7  C   UNL     1      -8.891  10.139  66.712  1.00  0.00    -0.143 A  
HETATM    8  C   UNL     1     -10.102  10.815  66.935  1.00  0.00    -0.255 A  
HETATM    9  C   UNL     1     -10.383  12.099  66.157  1.00  0.00    -0.264 C  
HETATM   10  C   UNL     1     -10.977  10.311  67.906  1.00  0.00    -0.350 A  
HETATM   11  C   UNL     1      -9.767  13.367  66.752  1.00  0.00    -0.262 C  
HETATM   12  C   UNL     1     -10.641   9.174  68.647  1.00  0.00    -0.207 A  
HETATM   13  C   UNL     1     -11.872  12.350  65.900  1.00  0.00    -0.467 C  
HETATM   14  O   UNL     1      -9.106  13.239  67.922  1.00  0.00    -0.185 OA 
HETATM   15  O   UNL     1      -9.861  14.463  66.206  1.00  0.00    -0.279 OA 
ENDBRANCH   4   5
TORSDOF 1
ENDMDL
MODEL      161
REMARK 921   NORMALIZED FREE ENERGY PREDICTED BY IDOCK:   -2.55 KCAL/MOL
REMARK 922        TOTAL FREE ENERGY PREDICTED BY IDOCK:   -3.04 KCAL/MOL
REMARK 923 INTER-LIGAND FREE ENERGY PREDICTED BY IDOCK:   -3.22 KCAL/MOL
REMARK 924 INTRA-LIGAND FREE ENERGY PREDICTED BY IDOCK:    0.18 KCAL/MOL
REMARK 927      BINDING AFFINITY PREDICTED BY RF-SCORE:    0.00 PKD
ROOT
HETATM    1  C   UNL     1      -8.256   6.523  65.728  1.00  0.00    -0.135 C  
HETATM    2  C   UNL     1      -8.223   6.379  67.251  1.00  0.00    -0.113 C  
HETATM    3  C   UNL     1      -7.395   5.150  67.634  1.00  0.00    -0.075 C  
HETATM    4  C   UNL     1      -7.660   7.638  67.944  1.00  0.00    -0.117 C  
ENDROOT
BRANCH   4   5
HETATM    5  C   UNL     1      -8.466   8.889  67.676  1.00  0.00    -0.121 A  
HETATM    6  C   UNL     1      -7.986  10.147  68.053  1.00  0.00    -0.101 A  
HETATM    7  C   UNL     1      -8.763  11.292  67.860  1.00  0.00    -0.138 A  
HETATM    8  C   UNL     1     -10.037  11.208  67.275  1.00  0.00    -0.218 A  
HETATM    9  C   UNL     1     -10.883  12.475  67.162  1.00  0.00    -0.282 C  
HETATM   10  C   UNL     1     -10.501   9.949  66.870  1.00  0.00    -0.284 A  
HETATM   11  C   UNL     1     -11.676  12.840  68.418  1.00  0.00    -0.339 C  
HETATM   12  C   UNL     1      -9.720   8.805  67.063  1.00  0.00    -0.258 A  
HETATM   13  C   UNL     1     -11.834  12.475  65.961  1.00  0.00    -0.478 C  
HETATM   14  O   UNL     1     -11.606  11.985  69.460  1.00  0.00    -0.293 OA 
HETATM   15  O   UNL     1     -12.355  13.860  68.494  1.00  0.00    -0.272 OA 
ENDBRANCH   4   5
TORSDOF 1
ENDMDL
MODEL      162
REMARK 921   NORMALIZED FREE ENERGY PREDICTED BY IDOCK:   -2.48 KCAL/MOL
REMARK 922        TOTAL FREE ENERGY PREDICTED BY IDOCK:   -2.97 KCAL/MOL
REMARK 923 INTER-LIGAND FREE ENERGY PREDICTED BY IDOCK:   -2.64 KCAL/MOL
REMARK 924 INTRA-LIGAND FREE ENERGY PREDICTED BY IDOCK:   -0.33 KCAL/MOL
REMARK 927      BINDING AFFINITY PREDICTED BY RF-SCORE:    0.00 PKD
ROOT
HETATM    1  C   UNL     1      -6.212  14.445  70.175  1.00  0.00    -0.166 C  
HETATM    2  C   UNL     1      -7.202  15.185  69.272  1.00  0.00    -0.182 C  
HETATM    3  C   UNL     1      -6.750  16.636  69.094  1.00  0.00    -0.217 C  
HETATM    4  C   UNL     1      -7.357  14.503  67.896  1.00  0.00    -0.166 C  
ENDROOT
BRANCH   4   5
HETATM    5  C   UNL     1      -7.872  13.083  67.977  1.00  0.00    -0.146 A  
HETATM    6  C   UNL     1      -7.077  12.007  67.573  1.00  0.00    -0.129 A  
HETATM    7  C   UNL     1      -7.582  10.704  67.590  1.00  0.00    -0.092 A  
HETATM    8  C   UNL     1      -8.892  10.445  68.024  1.00  0.00    -0.130 A  
HETATM    9  C   UNL     1      -9.426   9.016  67.945  1.00  0.00    -0.159 C  
HETATM   10  C   UNL     1      -9.675  11.522  68.458  1.00  0.00    -0.191 A  
HETATM   11  C   UNL     1      -9.983   8.605  66.581  1.00  0.00    -0.287 C  
HETATM   12  C   UNL     1      -9.167  12.826  68.440  1.00  0.00    -0.136 A  
HETATM   13  C   UNL     1     -10.467   8.688  69.021  1.00  0.00    -0.216 C  
HETATM   14  O   UNL     1     -10.010   9.550  65.618  1.00  0.00    -0.305 OA 
HETATM   15  O   UNL     1     -10.394   7.470  66.352  1.00  0.00    -0.121 OA 
ENDBRANCH   4   5
TORSDOF 1
ENDMDL
MODEL      163
REMARK 921   NORMALIZED FREE ENERGY PREDICTED BY IDOCK:   -2.48 KCAL/MOL
REMARK 922        TOTAL FREE ENERGY PREDICTED BY IDOCK:   -2.97 KCAL/MOL
REMARK 923 INTER-LIGAND FREE ENERGY PREDICTED BY IDOCK:   -2.80 KCAL/MOL
REMARK 924 INTRA-LIGAND FREE ENERGY PREDICTED BY IDOCK:   -0.18 KCAL/MOL
REMARK 927      BINDING AFFINITY PREDICTED BY RF-SCORE:    0.00 PKD
ROOT
HETATM    1  C   UNL     1      -9.114   4.987  71.823  1.00  0.00    -0.160 C  
HETATM    2  C   UNL     1     -10.501   5.633  71.859  1.00  0.00    -0.279 C  
HETATM    3  C   UNL     1     -11.126   5.434  73.242  1.00  0.00    -0.352 C  
HETATM    4  C   UNL     1     -10.454   7.135  71.506  1.00  0.00    -0.221 C  
ENDROOT
BRANCH   4   5
HETATM    5  C   UNL     1      -9.916   7.417  70.122  1.00  0.00    -0.184 A  
HETATM    6  C   UNL     1      -9.133   8.547  69.872  1.00  0.00    -0.150 A  
HETATM    7  C   UNL     1      -8.692   8.835  68.578  1.00  0.00    -0.135 A  
HETATM    8  C   UNL     1      -9.016   7.992  67.502  1.00  0.00    -0.143 A  
HETATM    9  C   UNL     1      -8.582   8.393  66.094  1.00  0.00    -0.157 C  
HETATM   10  C   UNL     1      -9.774   6.843  67.762  1.00  0.00    -0.148 A  
HETATM   11  C   UNL     1      -9.518   9.372  65.380  1.00  0.00    -0.253 C  
HETATM   12  C   UNL     1     -10.213   6.557  69.059  1.00  0.00    -0.204 A  
HETATM   13  C   UNL     1      -8.318   7.202  65.168  1.00  0.00    -0.081 C  
HETATM   14  O   UNL     1     -10.649   9.724  66.027  1.00  0.00    -0.082 OA 
HETATM   15  O   UNL     1      -9.270   9.827  64.267  1.00  0.00    -0.249 OA 
ENDBRANCH   4   5
TORSDOF 1
ENDMDL
MODEL      164
REMARK 921   NORMALIZED FREE ENERGY PREDICTED BY IDOCK:   -2.47 KCAL/MOL
REMARK 922        TOTAL FREE ENERGY PREDICTED BY IDOCK:   -2.96 KCAL/MOL
REMARK 923 INTER-LIGAND FREE ENERGY PREDICTED BY IDOCK:   -2.74 KCAL/MOL
REMARK 924 INTRA-LIGAND FREE ENERGY PREDICTED BY IDOCK:   -0.22 KCAL/MOL
REMARK 927      BINDING AFFINITY PREDICTED BY RF-SCORE:    0.00 PKD
ROOT
HETATM    1  C   UNL     1      -7.725  13.101  68.517  1.00  0.00    -0.117 C  
HETATM    2  C   UNL     1      -9.131  13.483  68.048  1.00  0.00    -0.201 C  
HETATM    3  C   UNL     1      -9.305  15.002  68.127  1.00  0.00    -0.187 C  
HETATM    4  C   UNL     1      -9.422  12.988  66.615  1.00  0.00    -0.256 C  
ENDROOT
BRANCH   4   5
HETATM    5  C   UNL     1      -9.342  11.486  66.464  1.00  0.00    -0.210 A  
HETATM    6  C   UNL     1     -10.416  10.669  66.831  1.00  0.00    -0.304 A  
HETATM    7  C   UNL     1     -10.312   9.278  66.749  1.00  0.00    -0.296 A  
HETATM    8  C   UNL     1      -9.134   8.670  66.286  1.00  0.00    -0.233 A  
HETATM    9  C   UNL     1      -9.039   7.145  66.294  1.00  0.00    -0.182 C  
HETATM   10  C   UNL     1      -8.072   9.493  65.890  1.00  0.00    -0.115 A  
HETATM   11  C   UNL     1      -8.625   6.527  67.632  1.00  0.00    -0.116 C  
HETATM   12  C   UNL     1      -8.179  10.885  65.972  1.00  0.00    -0.155 A  
HETATM   13  C   UNL     1      -8.138   6.579  65.191  1.00  0.00    -0.133 C  
HETATM   14  O   UNL     1      -8.324   7.378  68.635  1.00  0.00    -0.127 OA 
HETATM   15  O   UNL     1      -8.562   5.313  67.804  1.00  0.00    -0.105 OA 
ENDBRANCH   4   5
TORSDOF 1
ENDMDL
MODEL      165
REMARK 921   NORMALIZED FREE ENERGY PREDICTED BY IDOCK:   -2.46 KCAL/MOL
REMARK 922        TOTAL FREE ENERGY PREDICTED BY IDOCK:   -2.95 KCAL/MOL
REMARK 923 INTER-LIGAND FREE ENERGY PREDICTED BY IDOCK:   -2.70 KCAL/MOL
REMARK 924 INTRA-LIGAND FREE ENERGY PREDICTED BY IDOCK:   -0.25 KCAL/MOL
REMARK 927      BINDING AFFINITY PREDICTED BY RF-SCORE:    0.00 PKD
ROOT
HETATM    1  C   UNL     1      -8.591   8.340  65.555  1.00  0.00    -0.183 C  
HETATM    2  C   UNL     1      -7.356   7.468  65.796  1.00  0.00    -0.070 C  
HETATM    3  C   UNL     1      -6.384   7.617  64.623  1.00  0.00    -0.044 C  
HETATM    4  C   UNL     1      -6.648   7.815  67.122  1.00  0.00    -0.063 C  
ENDROOT
BRANCH   4   5
HETATM    5  C   UNL     1      -7.519   7.624  68.343  1.00  0.00    -0.104 A  
HETATM    6  C   UNL     1      -7.740   6.350  68.876  1.00  0.00    -0.108 A  
HETATM    7  C   UNL     1      -8.597   6.174  69.966  1.00  0.00    -0.136 A  
HETATM    8  C   UNL     1      -9.245   7.271  70.557  1.00  0.00    -0.158 A  
HETATM    9  C   UNL     1     -10.237   7.018  71.691  1.00  0.00    -0.208 C  
HETATM   10  C   UNL     1      -8.996   8.548  70.040  1.00  0.00    -0.142 A  
HETATM   11  C   UNL     1     -11.652   6.644  71.245  1.00  0.00    -0.323 C  
HETATM   12  C   UNL     1      -8.137   8.722  68.950  1.00  0.00    -0.114 A  
HETATM   13  C   UNL     1     -10.325   8.168  72.699  1.00  0.00    -0.398 C  
HETATM   14  O   UNL     1     -11.898   6.643  69.918  1.00  0.00    -0.340 OA 
HETATM   15  O   UNL     1     -12.539   6.358  72.044  1.00  0.00    -0.310 OA 
ENDBRANCH   4   5
TORSDOF 1
ENDMDL
MODEL      166
REMARK 921   NORMALIZED FREE ENERGY PREDICTED BY IDOCK:   -2.46 KCAL/MOL
REMARK 922        TOTAL FREE ENERGY PREDICTED BY IDOCK:   -2.94 KCAL/MOL
REMARK 923 INTER-LIGAND FREE ENERGY PREDICTED BY IDOCK:   -2.95 KCAL/MOL
REMARK 924 INTRA-LIGAND FREE ENERGY PREDICTED BY IDOCK:    0.01 KCAL/MOL
REMARK 927      BINDING AFFINITY PREDICTED BY RF-SCORE:    0.00 PKD
ROOT
HETATM    1  C   UNL     1      -9.085   5.103  73.668  1.00  0.00    -0.123 C  
HETATM    2  C   UNL     1      -7.803   5.278  72.849  1.00  0.00    -0.098 C  
HETATM    3  C   UNL     1      -6.847   4.118  73.135  1.00  0.00    -0.057 C  
HETATM    4  C   UNL     1      -8.087   5.373  71.335  1.00  0.00    -0.116 C  
ENDROOT
BRANCH   4   5
HETATM    5  C   UNL     1      -8.969   6.541  70.955  1.00  0.00    -0.147 A  
HETATM    6  C   UNL     1      -9.685   6.540  69.754  1.00  0.00    -0.170 A  
HETATM    7  C   UNL     1     -10.447   7.650  69.379  1.00  0.00    -0.220 A  
HETATM    8  C   UNL     1     -10.521   8.785  70.204  1.00  0.00    -0.230 A  
HETATM    9  C   UNL     1     -11.298  10.004  69.713  1.00  0.00    -0.281 C  
HETATM   10  C   UNL     1      -9.827   8.769  71.421  1.00  0.00    -0.353 A  
HETATM   11  C   UNL     1     -10.519  10.942  68.788  1.00  0.00    -0.200 C  
HETATM   12  C   UNL     1      -9.066   7.657  71.794  1.00  0.00    -0.161 A  
HETATM   13  C   UNL     1     -11.922  10.832  70.841  1.00  0.00    -0.438 C  
HETATM   14  O   UNL     1      -9.224  10.642  68.557  1.00  0.00    -0.154 OA 
HETATM   15  O   UNL     1     -11.031  11.931  68.271  1.00  0.00    -0.204 OA 
ENDBRANCH   4   5
TORSDOF 1
ENDMDL
MODEL      167
REMARK 921   NORMALIZED FREE ENERGY PREDICTED BY IDOCK:   -2.43 KCAL/MOL
REMARK 922        TOTAL FREE ENERGY PREDICTED BY IDOCK:   -2.92 KCAL/MOL
REMARK 923 INTER-LIGAND FREE ENERGY PREDICTED BY IDOCK:   -2.58 KCAL/MOL
REMARK 924 INTRA-LIGAND FREE ENERGY PREDICTED BY IDOCK:   -0.34 KCAL/MOL
REMARK 927      BINDING AFFINITY PREDICTED BY RF-SCORE:    0.00 PKD
ROOT
HETATM    1  C   UNL     1      -7.721   7.591  71.643  1.00  0.00    -0.085 C  
HETATM    2  C   UNL     1      -8.451   6.534  72.476  1.00  0.00    -0.121 C  
HETATM    3  C   UNL     1      -8.547   7.002  73.930  1.00  0.00    -0.181 C  
HETATM    4  C   UNL     1      -9.858   6.226  71.921  1.00  0.00    -0.172 C  
ENDROOT
BRANCH   4   5
HETATM    5  C   UNL     1      -9.849   5.687  70.509  1.00  0.00    -0.249 A  
HETATM    6  C   UNL     1      -9.055   4.589  70.163  1.00  0.00    -0.160 A  
HETATM    7  C   UNL     1      -9.003   4.137  68.842  1.00  0.00    -0.162 A  
HETATM    8  C   UNL     1      -9.754   4.766  67.835  1.00  0.00    -0.200 A  
HETATM    9  C   UNL     1      -9.599   4.288  66.393  1.00  0.00    -0.209 C  
HETATM   10  C   UNL     1     -10.572   5.845  68.192  1.00  0.00    -0.312 A  
HETATM   11  C   UNL     1      -8.410   4.884  65.635  1.00  0.00    -0.121 C  
HETATM   12  C   UNL     1     -10.623   6.295  69.515  1.00  0.00    -0.331 A  
HETATM   13  C   UNL     1     -10.862   4.468  65.546  1.00  0.00    -0.085 C  
HETATM   14  O   UNL     1      -7.670   5.808  66.283  1.00  0.00    -0.096 OA 
HETATM   15  O   UNL     1      -8.127   4.551  64.488  1.00  0.00    -0.095 OA 
ENDBRANCH   4   5
TORSDOF 1
ENDMDL
MODEL      168
REMARK 921   NORMALIZED FREE ENERGY PREDICTED BY IDOCK:   -2.42 KCAL/MOL
REMARK 922        TOTAL FREE ENERGY PREDICTED BY IDOCK:   -2.91 KCAL/MOL
REMARK 923 INTER-LIGAND FREE ENERGY PREDICTED BY IDOCK:   -2.88 KCAL/MOL
REMARK 924 INTRA-LIGAND FREE ENERGY PREDICTED BY IDOCK:   -0.03 KCAL/MOL
REMARK 927      BINDING AFFINITY PREDICTED BY RF-SCORE:    0.00 PKD
ROOT
HETATM    1  C   UNL     1     -11.844  11.379  69.107  1.00  0.00    -0.413 C  
HETATM    2  C   UNL     1     -11.558  10.545  70.359  1.00  0.00    -0.430 C  
HETATM    3  C   UNL     1     -12.616  10.838  71.425  1.00  0.00    -0.516 C  
HETATM    4  C   UNL     1     -11.514   9.033  70.054  1.00  0.00    -0.005 C  
ENDROOT
BRANCH   4   5
HETATM    5  C   UNL     1     -10.442   8.645  69.060  1.00  0.00    -0.216 A  
HETATM    6  C   UNL     1     -10.673   8.733  67.684  1.00  0.00    -0.206 A  
HETATM    7  C   UNL     1      -9.702   8.313  66.772  1.00  0.00    -0.307 A  
HETATM    8  C   UNL     1      -8.470   7.804  67.215  1.00  0.00    -0.118 A  
HETATM    9  C   UNL     1      -7.474   7.280  66.182  1.00  0.00    -0.083 C  
HETATM   10  C   UNL     1      -8.231   7.747  68.594  1.00  0.00    -0.128 A  
HETATM   11  C   UNL     1      -7.709   5.838  65.728  1.00  0.00    -0.095 C  
HETATM   12  C   UNL     1      -9.204   8.169  69.505  1.00  0.00    -0.158 A  
HETATM   13  C   UNL     1      -6.010   7.430  66.606  1.00  0.00    -0.036 C  
HETATM   14  O   UNL     1      -8.712   5.160  66.324  1.00  0.00    -0.116 OA 
HETATM   15  O   UNL     1      -7.023   5.301  64.861  1.00  0.00    -0.051 OA 
ENDBRANCH   4   5
TORSDOF 1
ENDMDL
MODEL      169
REMARK 921   NORMALIZED FREE ENERGY PREDICTED BY IDOCK:   -2.39 KCAL/MOL
REMARK 922        TOTAL FREE ENERGY PREDICTED BY IDOCK:   -2.88 KCAL/MOL
REMARK 923 INTER-LIGAND FREE ENERGY PREDICTED BY IDOCK:   -3.23 KCAL/MOL
REMARK 924 INTRA-LIGAND FREE ENERGY PREDICTED BY IDOCK:    0.35 KCAL/MOL
REMARK 927      BINDING AFFINITY PREDICTED BY RF-SCORE:    0.00 PKD
ROOT
HETATM    1  C   UNL     1      -8.931   5.351  68.779  1.00  0.00    -0.127 C  
HETATM    2  C   UNL     1      -9.650   4.871  70.042  1.00  0.00    -0.261 C  
HETATM    3  C   UNL     1      -9.062   3.531  70.492  1.00  0.00    -0.192 C  
HETATM    4  C   UNL     1      -9.566   5.901  71.189  1.00  0.00    -0.198 C  
ENDROOT
BRANCH   4   5
HETATM    5  C   UNL     1     -10.192   7.235  70.853  1.00  0.00    -0.203 A  
HETATM    6  C   UNL     1     -10.737   7.475  69.587  1.00  0.00    -0.236 A  
HETATM    7  C   UNL     1     -11.256   8.731  69.263  1.00  0.00     0.220 A  
HETATM    8  C   UNL     1     -11.254   9.776  70.202  1.00  0.00    -0.324 A  
HETATM    9  C   UNL     1     -11.756  11.153  69.774  1.00  0.00    -0.419 C  
HETATM   10  C   UNL     1     -10.737   9.522  71.479  1.00  0.00    -0.269 A  
HETATM   11  C   UNL     1     -10.723  12.027  69.060  1.00  0.00    -0.136 C  
HETATM   12  C   UNL     1     -10.218   8.263  71.801  1.00  0.00    -0.297 A  
HETATM   13  C   UNL     1     -12.381  11.963  70.915  1.00  0.00    -0.400 C  
HETATM   14  O   UNL     1      -9.474  11.531  68.941  1.00  0.00    -0.136 OA 
HETATM   15  O   UNL     1     -10.999  13.136  68.608  1.00  0.00    -0.248 OA 
ENDBRANCH   4   5
TORSDOF 1
ENDMDL
MODEL      170
REMARK 921   NORMALIZED FREE ENERGY PREDICTED BY IDOCK:   -2.39 KCAL/MOL
REMARK 922        TOTAL FREE ENERGY PREDICTED BY IDOCK:   -2.87 KCAL/MOL
REMARK 923 INTER-LIGAND FREE ENERGY PREDICTED BY IDOCK:   -2.54 KCAL/MOL
REMARK 924 INTRA-LIGAND FREE ENERGY PREDICTED BY IDOCK:   -0.34 KCAL/MOL
REMARK 927      BINDING AFFINITY PREDICTED BY RF-SCORE:    0.00 PKD
ROOT
HETATM    1  C   UNL     1      -9.275   3.054  67.260  1.00  0.00    -0.214 C  
HETATM    2  C   UNL     1      -9.393   3.134  68.784  1.00  0.00    -0.231 C  
HETATM    3  C   UNL     1      -9.084   1.766  69.397  1.00  0.00    -0.158 C  
HETATM    4  C   UNL     1      -8.463   4.209  69.385  1.00  0.00    -0.096 C  
ENDROOT
BRANCH   4   5
HETATM    5  C   UNL     1      -8.750   5.607  68.886  1.00  0.00    -0.107 A  
HETATM    6  C   UNL     1      -7.791   6.323  68.163  1.00  0.00    -0.104 A  
HETATM    7  C   UNL     1      -8.040   7.638  67.759  1.00  0.00    -0.118 A  
HETATM    8  C   UNL     1      -9.259   8.266  68.061  1.00  0.00    -0.142 A  
HETATM    9  C   UNL     1      -9.451   9.730  67.673  1.00  0.00    -0.164 C  
HETATM   10  C   UNL     1     -10.229   7.534  68.759  1.00  0.00    -0.206 A  
HETATM   11  C   UNL     1      -8.883  10.745  68.667  1.00  0.00    -0.152 C  
HETATM   12  C   UNL     1      -9.979   6.218  69.160  1.00  0.00    -0.181 A  
HETATM   13  C   UNL     1     -10.906  10.101  67.368  1.00  0.00    -0.323 C  
HETATM   14  O   UNL     1      -8.340  10.257  69.802  1.00  0.00    -0.165 OA 
HETATM   15  O   UNL     1      -8.912  11.956  68.461  1.00  0.00    -0.176 OA 
ENDBRANCH   4   5
TORSDOF 1
ENDMDL
MODEL      171
REMARK 921   NORMALIZED FREE ENERGY PREDICTED BY IDOCK:   -2.35 KCAL/MOL
REMARK 922        TOTAL FREE ENERGY PREDICTED BY IDOCK:   -2.83 KCAL/MOL
REMARK 923 INTER-LIGAND FREE ENERGY PREDICTED BY IDOCK:   -2.67 KCAL/MOL
REMARK 924 INTRA-LIGAND FREE ENERGY PREDICTED BY IDOCK:   -0.17 KCAL/MOL
REMARK 927      BINDING AFFINITY PREDICTED BY RF-SCORE:    0.00 PKD
ROOT
HETATM    1  C   UNL     1      -8.170   3.529  66.584  1.00  0.00    -0.099 C  
HETATM    2  C   UNL     1      -6.975   3.817  67.495  1.00  0.00    -0.055 C  
HETATM    3  C   UNL     1      -5.673   3.631  66.712  1.00  0.00    -0.022 C  
HETATM    4  C   UNL     1      -7.032   5.236  68.101  1.00  0.00    -0.061 C  
ENDROOT
BRANCH   4   5
HETATM    5  C   UNL     1      -8.256   5.482  68.954  1.00  0.00    -0.099 A  
HETATM    6  C   UNL     1      -9.398   6.082  68.416  1.00  0.00    -0.120 A  
HETATM    7  C   UNL     1     -10.502   6.365  69.225  1.00  0.00    -0.277 A  
HETATM    8  C   UNL     1     -10.494   6.043  70.593  1.00  0.00    -0.305 A  
HETATM    9  C   UNL     1     -11.689   6.448  71.453  1.00  0.00    -0.364 C  
HETATM   10  C   UNL     1      -9.360   5.413  71.121  1.00  0.00    -0.186 A  
HETATM   11  C   UNL     1     -11.660   7.887  71.970  1.00  0.00    -0.308 C  
HETATM   12  C   UNL     1      -8.257   5.131  70.308  1.00  0.00    -0.090 A  
HETATM   13  C   UNL     1     -11.945   5.505  72.633  1.00  0.00    -0.106 C  
HETATM   14  O   UNL     1     -10.567   8.623  71.678  1.00  0.00    -0.252 OA 
HETATM   15  O   UNL     1     -12.579   8.370  72.626  1.00  0.00    -0.323 OA 
ENDBRANCH   4   5
TORSDOF 1
ENDMDL
MODEL      172
REMARK 921   NORMALIZED FREE ENERGY PREDICTED BY IDOCK:   -2.34 KCAL/MOL
REMARK 922        TOTAL FREE ENERGY PREDICTED BY IDOCK:   -2.82 KCAL/MOL
REMARK 923 INTER-LIGAND FREE ENERGY PREDICTED BY IDOCK:   -2.98 KCAL/MOL
REMARK 924 INTRA-LIGAND FREE ENERGY PREDICTED BY IDOCK:    0.16 KCAL/MOL
REMARK 927      BINDING AFFINITY PREDICTED BY RF-SCORE:    0.00 PKD
ROOT
HETATM    1  C   UNL     1     -10.563   8.742  69.566  1.00  0.00    -0.224 C  
HETATM    2  C   UNL     1     -10.793   9.462  70.898  1.00  0.00    -0.392 C  
HETATM    3  C   UNL     1     -11.828  10.574  70.710  1.00  0.00    -0.465 C  
HETATM    4  C   UNL     1     -11.246   8.495  72.012  1.00  0.00    -0.418 C  
ENDROOT
BRANCH   4   5
HETATM    5  C   UNL     1     -10.243   7.404  72.314  1.00  0.00    -0.237 A  
HETATM    6  C   UNL     1     -10.017   6.366  71.405  1.00  0.00    -0.206 A  
HETATM    7  C   UNL     1      -9.136   5.327  71.717  1.00  0.00    -0.154 A  
HETATM    8  C   UNL     1      -8.451   5.307  72.944  1.00  0.00    -0.116 A  
HETATM    9  C   UNL     1      -7.565   4.108  73.274  1.00  0.00    -0.080 C  
HETATM   10  C   UNL     1      -8.657   6.366  73.838  1.00  0.00    -0.131 A  
HETATM   11  C   UNL     1      -8.298   2.901  73.863  1.00  0.00    -0.073 C  
HETATM   12  C   UNL     1      -9.539   7.405  73.522  1.00  0.00    -0.317 A  
HETATM   13  C   UNL     1      -6.377   4.452  74.178  1.00  0.00    -0.047 C  
HETATM   14  O   UNL     1      -9.621   3.037  74.093  1.00  0.00    -0.087 OA 
HETATM   15  O   UNL     1      -7.725   1.847  74.125  1.00  0.00    -0.036 OA 
ENDBRANCH   4   5
TORSDOF 1
ENDMDL
MODEL      173
REMARK 921   NORMALIZED FREE ENERGY PREDICTED BY IDOCK:   -2.32 KCAL/MOL
REMARK 922        TOTAL FREE ENERGY PREDICTED BY IDOCK:   -2.80 KCAL/MOL
REMARK 923 INTER-LIGAND FREE ENERGY PREDICTED BY IDOCK:   -2.54 KCAL/MOL
REMARK 924 INTRA-LIGAND FREE ENERGY PREDICTED BY IDOCK:   -0.26 KCAL/MOL
REMARK 927      BINDING AFFINITY PREDICTED BY RF-SCORE:    0.00 PKD
ROOT
HETATM    1  C   UNL     1      -9.774  13.562  68.172  1.00  0.00    -0.233 C  
HETATM    2  C   UNL     1     -10.995  13.081  67.385  1.00  0.00    -0.284 C  
HETATM    3  C   UNL     1     -11.986  14.236  67.217  1.00  0.00    -0.439 C  
HETATM    4  C   UNL     1     -10.610  12.506  66.005  1.00  0.00    -0.289 C  
ENDROOT
BRANCH   4   5
HETATM    5  C   UNL     1      -9.688  11.310  66.083  1.00  0.00    -0.251 A  
HETATM    6  C   UNL     1      -8.327  11.432  65.783  1.00  0.00     0.100 A  
HETATM    7  C   UNL     1      -7.493  10.311  65.795  1.00  0.00    -0.144 A  
HETATM    8  C   UNL     1      -7.999   9.041  66.118  1.00  0.00    -0.103 A  
HETATM    9  C   UNL     1      -7.067   7.833  66.035  1.00  0.00    -0.065 C  
HETATM   10  C   UNL     1      -9.356   8.929  66.448  1.00  0.00    -0.262 A  
HETATM   11  C   UNL     1      -6.914   7.225  64.639  1.00  0.00    -0.051 C  
HETATM   12  C   UNL     1     -10.188  10.053  66.436  1.00  0.00    -0.290 A  
HETATM   13  C   UNL     1      -7.418   6.716  67.023  1.00  0.00    -0.087 C  
HETATM   14  O   UNL     1      -7.658   7.763  63.650  1.00  0.00    -0.110 OA 
HETATM   15  O   UNL     1      -6.155   6.287  64.409  1.00  0.00    -0.028 OA 
ENDBRANCH   4   5
TORSDOF 1
ENDMDL
MODEL      174
REMARK 921   NORMALIZED FREE ENERGY PREDICTED BY IDOCK:   -2.31 KCAL/MOL
REMARK 922        TOTAL FREE ENERGY PREDICTED BY IDOCK:   -2.79 KCAL/MOL
REMARK 923 INTER-LIGAND FREE ENERGY PREDICTED BY IDOCK:   -2.57 KCAL/MOL
REMARK 924 INTRA-LIGAND FREE ENERGY PREDICTED BY IDOCK:   -0.22 KCAL/MOL
REMARK 927      BINDING AFFINITY PREDICTED BY RF-SCORE:    0.00 PKD
ROOT
HETATM    1  C   UNL     1     -11.606   7.204  70.742  1.00  0.00    -0.358 C  
HETATM    2  C   UNL     1     -10.785   8.015  71.747  1.00  0.00    -0.296 C  
HETATM    3  C   UNL     1     -11.114   7.557  73.169  1.00  0.00    -0.378 C  
HETATM    4  C   UNL     1      -9.267   7.898  71.488  1.00  0.00    -0.171 C  
ENDROOT
BRANCH   4   5
HETATM    5  C   UNL     1      -8.844   8.400  70.125  1.00  0.00    -0.141 A  
HETATM    6  C   UNL     1      -7.875   7.722  69.379  1.00  0.00    -0.115 A  
HETATM    7  C   UNL     1      -7.443   8.226  68.150  1.00  0.00    -0.097 A  
HETATM    8  C   UNL     1      -7.978   9.416  67.631  1.00  0.00    -0.099 A  
HETATM    9  C   UNL     1      -7.414   9.970  66.324  1.00  0.00    -0.106 C  
HETATM   10  C   UNL     1      -8.971  10.075  68.367  1.00  0.00    -0.121 A  
HETATM   11  C   UNL     1      -6.144  10.811  66.471  1.00  0.00    -0.103 C  
HETATM   12  C   UNL     1      -9.403   9.568  69.597  1.00  0.00    -0.213 A  
HETATM   13  C   UNL     1      -8.435  10.761  65.499  1.00  0.00    -0.153 C  
HETATM   14  O   UNL     1      -5.694  11.033  67.723  1.00  0.00    -0.042 OA 
HETATM   15  O   UNL     1      -5.546  11.274  65.503  1.00  0.00    -0.171 OA 
ENDBRANCH   4   5
TORSDOF 1
ENDMDL
MODEL      175
REMARK 921   NORMALIZED FREE ENERGY PREDICTED BY IDOCK:   -2.28 KCAL/MOL
REMARK 922        TOTAL FREE ENERGY PREDICTED BY IDOCK:   -2.76 KCAL/MOL
REMARK 923 INTER-LIGAND FREE ENERGY PREDICTED BY IDOCK:   -2.80 KCAL/MOL
REMARK 924 INTRA-LIGAND FREE ENERGY PREDICTED BY IDOCK:    0.04 KCAL/MOL
REMARK 927      BINDING AFFINITY PREDICTED BY RF-SCORE:    0.00 PKD
ROOT
HETATM    1  C   UNL     1     -11.768   7.320  71.376  1.00  0.00    -0.317 C  
HETATM    2  C   UNL     1     -12.627   8.526  70.986  1.00  0.00    -0.060 C  
HETATM    3  C   UNL     1     -13.998   8.420  71.658  1.00  0.00    -0.460 C  
HETATM    4  C   UNL     1     -11.955   9.865  71.358  1.00  0.00    -0.489 C  
ENDROOT
BRANCH   4   5
HETATM    5  C   UNL     1     -10.623  10.084  70.677  1.00  0.00    -0.272 A  
HETATM    6  C   UNL     1     -10.517  10.911  69.554  1.00  0.00    -0.176 A  
HETATM    7  C   UNL     1      -9.295  11.059  68.892  1.00  0.00    -0.155 A  
HETATM    8  C   UNL     1      -8.146  10.390  69.344  1.00  0.00    -0.161 A  
HETATM    9  C   UNL     1      -6.855  10.516  68.538  1.00  0.00    -0.064 C  
HETATM   10  C   UNL     1      -8.249   9.588  70.487  1.00  0.00    -0.203 A  
HETATM   11  C   UNL     1      -6.733   9.558  67.352  1.00  0.00    -0.071 C  
HETATM   12  C   UNL     1      -9.473   9.442  71.149  1.00  0.00    -0.186 A  
HETATM   13  C   UNL     1      -5.585  10.410  69.389  1.00  0.00    -0.037 C  
HETATM   14  O   UNL     1      -7.729   8.664  67.178  1.00  0.00    -0.095 OA 
HETATM   15  O   UNL     1      -5.777   9.583  66.581  1.00  0.00    -0.052 OA 
ENDBRANCH   4   5
TORSDOF 1
ENDMDL
MODEL      176
REMARK 921   NORMALIZED FREE ENERGY PREDICTED BY IDOCK:   -2.28 KCAL/MOL
REMARK 922        TOTAL FREE ENERGY PREDICTED BY IDOCK:   -2.76 KCAL/MOL
REMARK 923 INTER-LIGAND FREE ENERGY PREDICTED BY IDOCK:   -2.42 KCAL/MOL
REMARK 924 INTRA-LIGAND FREE ENERGY PREDICTED BY IDOCK:   -0.33 KCAL/MOL
REMARK 927      BINDING AFFINITY PREDICTED BY RF-SCORE:    0.00 PKD
ROOT
HETATM    1  C   UNL     1     -11.611   7.582  70.917  1.00  0.00    -0.309 C  
HETATM    2  C   UNL     1     -10.359   6.846  71.399  1.00  0.00    -0.219 C  
HETATM    3  C   UNL     1     -10.753   5.486  71.980  1.00  0.00    -0.293 C  
HETATM    4  C   UNL     1      -9.320   6.663  70.272  1.00  0.00    -0.160 C  
ENDROOT
BRANCH   4   5
HETATM    5  C   UNL     1      -8.821   7.965  69.690  1.00  0.00    -0.138 A  
HETATM    6  C   UNL     1      -9.064   8.295  68.353  1.00  0.00    -0.136 A  
HETATM    7  C   UNL     1      -8.545   9.471  67.805  1.00  0.00    -0.115 A  
HETATM    8  C   UNL     1      -7.778  10.352  68.585  1.00  0.00    -0.101 A  
HETATM    9  C   UNL     1      -7.162  11.581  67.919  1.00  0.00    -0.085 C  
HETATM   10  C   UNL     1      -7.563  10.033  69.932  1.00  0.00    -0.177 A  
HETATM   11  C   UNL     1      -5.832  11.334  67.203  1.00  0.00    -0.082 C  
HETATM   12  C   UNL     1      -8.084   8.856  70.478  1.00  0.00    -0.145 A  
HETATM   13  C   UNL     1      -6.998  12.776  68.863  1.00  0.00    -0.084 C  
HETATM   14  O   UNL     1      -5.309  10.093  67.288  1.00  0.00    -0.041 OA 
HETATM   15  O   UNL     1      -5.249  12.214  66.576  1.00  0.00    -0.335 OA 
ENDBRANCH   4   5
TORSDOF 1
ENDMDL
MODEL      177
REMARK 921   NORMALIZED FREE ENERGY PREDICTED BY IDOCK:   -2.26 KCAL/MOL
REMARK 922        TOTAL FREE ENERGY PREDICTED BY IDOCK:   -2.73 KCAL/MOL
REMARK 923 INTER-LIGAND FREE ENERGY PREDICTED BY IDOCK:   -2.42 KCAL/MOL
REMARK 924 INTRA-LIGAND FREE ENERGY PREDICTED BY IDOCK:   -0.31 KCAL/MOL
REMARK 927      BINDING AFFINITY PREDICTED BY RF-SCORE:    0.00 PKD
ROOT
HETATM    1  C   UNL     1      -7.225   5.063  65.501  1.00  0.00    -0.068 C  
HETATM    2  C   UNL     1      -8.108   3.835  65.737  1.00  0.00    -0.093 C  
HETATM    3  C   UNL     1      -7.691   2.711  64.785  1.00  0.00    -0.077 C  
HETATM    4  C   UNL     1      -8.045   3.344  67.199  1.00  0.00    -0.083 C  
ENDROOT
BRANCH   4   5
HETATM    5  C   UNL     1      -8.511   4.372  68.205  1.00  0.00    -0.101 A  
HETATM    6  C   UNL     1      -7.610   4.969  69.092  1.00  0.00    -0.072 A  
HETATM    7  C   UNL     1      -8.058   5.871  70.061  1.00  0.00    -0.109 A  
HETATM    8  C   UNL     1      -9.418   6.206  70.159  1.00  0.00    -0.177 A  
HETATM    9  C   UNL     1      -9.870   7.131  71.287  1.00  0.00    -0.178 C  
HETATM   10  C   UNL     1     -10.313   5.630  69.248  1.00  0.00    -0.340 A  
HETATM   11  C   UNL     1     -10.123   6.442  72.630  1.00  0.00    -0.178 C  
HETATM   12  C   UNL     1      -9.862   4.728  68.279  1.00  0.00    -0.181 A  
HETATM   13  C   UNL     1     -11.094   7.982  70.933  1.00  0.00    -0.271 C  
HETATM   14  O   UNL     1      -9.991   5.099  72.667  1.00  0.00    -0.158 OA 
HETATM   15  O   UNL     1     -10.436   7.065  73.641  1.00  0.00    -0.337 OA 
ENDBRANCH   4   5
TORSDOF 1
ENDMDL
MODEL      178
REMARK 921   NORMALIZED FREE ENERGY PREDICTED BY IDOCK:   -2.26 KCAL/MOL
REMARK 922        TOTAL FREE ENERGY PREDICTED BY IDOCK:   -2.73 KCAL/MOL
REMARK 923 INTER-LIGAND FREE ENERGY PREDICTED BY IDOCK:   -2.38 KCAL/MOL
REMARK 924 INTRA-LIGAND FREE ENERGY PREDICTED BY IDOCK:   -0.36 KCAL/MOL
REMARK 927      BINDING AFFINITY PREDICTED BY RF-SCORE:    0.00 PKD
ROOT
HETATM    1  C   UNL     1     -10.708  11.275  68.157  1.00  0.00    -0.244 C  
HETATM    2  C   UNL     1      -9.350  11.571  67.516  1.00  0.00    -0.166 C  
HETATM    3  C   UNL     1      -9.313  13.023  67.035  1.00  0.00    -0.236 C  
HETATM    4  C   UNL     1      -8.178  11.301  68.484  1.00  0.00    -0.150 C  
ENDROOT
BRANCH   4   5
HETATM    5  C   UNL     1      -8.097   9.865  68.953  1.00  0.00    -0.105 A  
HETATM    6  C   UNL     1      -7.872   8.825  68.047  1.00  0.00    -0.102 A  
HETATM    7  C   UNL     1      -7.862   7.496  68.478  1.00  0.00    -0.122 A  
HETATM    8  C   UNL     1      -8.066   7.176  69.831  1.00  0.00    -0.125 A  
HETATM    9  C   UNL     1      -8.130   5.706  70.239  1.00  0.00    -0.104 C  
HETATM   10  C   UNL     1      -8.259   8.223  70.740  1.00  0.00    -0.115 A  
HETATM   11  C   UNL     1      -9.495   5.040  70.057  1.00  0.00    -0.166 C  
HETATM   12  C   UNL     1      -8.268   9.553  70.306  1.00  0.00    -0.209 A  
HETATM   13  C   UNL     1      -7.640   5.441  71.667  1.00  0.00    -0.104 C  
HETATM   14  O   UNL     1     -10.508   5.821  69.626  1.00  0.00    -0.236 OA 
HETATM   15  O   UNL     1      -9.682   3.848  70.289  1.00  0.00    -0.193 OA 
ENDBRANCH   4   5
TORSDOF 1
ENDMDL
MODEL      179
REMARK 921   NORMALIZED FREE ENERGY PREDICTED BY IDOCK:   -2.21 KCAL/MOL
REMARK 922        TOTAL FREE ENERGY PREDICTED BY IDOCK:   -2.69 KCAL/MOL
REMARK 923 INTER-LIGAND FREE ENERGY PREDICTED BY IDOCK:   -2.41 KCAL/MOL
REMARK 924 INTRA-LIGAND FREE ENERGY PREDICTED BY IDOCK:   -0.27 KCAL/MOL
REMARK 927      BINDING AFFINITY PREDICTED BY RF-SCORE:    0.00 PKD
ROOT
HETATM    1  C   UNL     1      -6.484  12.985  68.746  1.00  0.00    -0.085 C  
HETATM    2  C   UNL     1      -7.846  13.352  68.153  1.00  0.00    -0.145 C  
HETATM    3  C   UNL     1      -7.709  14.608  67.288  1.00  0.00    -0.198 C  
HETATM    4  C   UNL     1      -8.452  12.199  67.325  1.00  0.00    -0.178 C  
ENDROOT
BRANCH   4   5
HETATM    5  C   UNL     1      -8.690  10.938  68.125  1.00  0.00    -0.133 A  
HETATM    6  C   UNL     1      -9.768  10.840  69.010  1.00  0.00    -0.201 A  
HETATM    7  C   UNL     1      -9.944   9.696  69.793  1.00  0.00    -0.252 A  
HETATM    8  C   UNL     1      -9.051   8.616  69.701  1.00  0.00    -0.149 A  
HETATM    9  C   UNL     1      -9.238   7.424  70.637  1.00  0.00    -0.157 C  
HETATM   10  C   UNL     1      -7.991   8.705  68.790  1.00  0.00    -0.114 A  
HETATM   11  C   UNL     1      -8.623   7.588  72.028  1.00  0.00    -0.107 C  
HETATM   12  C   UNL     1      -7.817   9.851  68.008  1.00  0.00    -0.086 A  
HETATM   13  C   UNL     1      -8.762   6.094  70.043  1.00  0.00    -0.137 C  
HETATM   14  O   UNL     1      -7.929   8.721  72.264  1.00  0.00    -0.350 OA 
HETATM   15  O   UNL     1      -8.741   6.736  72.905  1.00  0.00    -0.121 OA 
ENDBRANCH   4   5
TORSDOF 1
ENDMDL
MODEL      180
REMARK 921   NORMALIZED FREE ENERGY PREDICTED BY IDOCK:   -2.20 KCAL/MOL
REMARK 922        TOTAL FREE ENERGY PREDICTED BY IDOCK:   -2.68 KCAL/MOL
REMARK 923 INTER-LIGAND FREE ENERGY PREDICTED BY IDOCK:   -2.81 KCAL/MOL
REMARK 924 INTRA-LIGAND FREE ENERGY PREDICTED BY IDOCK:    0.14 KCAL/MOL
REMARK 927      BINDING AFFINITY PREDICTED BY RF-SCORE:    0.00 PKD
ROOT
HETATM    1  C   UNL     1      -8.794   8.980  65.047  1.00  0.00    -0.213 C  
HETATM    2  C   UNL     1      -9.424   9.827  66.156  1.00  0.00    -0.261 C  
HETATM    3  C   UNL     1      -9.816  11.197  65.596  1.00  0.00    -0.280 C  
HETATM    4  C   UNL     1     -10.652   9.139  66.789  1.00  0.00    -0.207 C  
ENDROOT
BRANCH   4   5
HETATM    5  C   UNL     1     -10.337   7.807  67.432  1.00  0.00    -0.354 A  
HETATM    6  C   UNL     1     -10.311   7.670  68.823  1.00  0.00    -0.218 A  
HETATM    7  C   UNL     1      -9.956   6.452  69.411  1.00  0.00    -0.184 A  
HETATM    8  C   UNL     1      -9.629   5.339  68.620  1.00  0.00    -0.183 A  
HETATM    9  C   UNL     1      -9.167   4.056  69.308  1.00  0.00    -0.219 C  
HETATM   10  C   UNL     1      -9.687   5.472  67.227  1.00  0.00    -0.152 A  
HETATM   11  C   UNL     1      -7.681   4.013  69.672  1.00  0.00    -0.052 C  
HETATM   12  C   UNL     1     -10.043   6.692  66.641  1.00  0.00    -0.202 A  
HETATM   13  C   UNL     1      -9.521   2.781  68.534  1.00  0.00    -0.200 C  
HETATM   14  O   UNL     1      -6.925   5.066  69.295  1.00  0.00    -0.052 OA 
HETATM   15  O   UNL     1      -7.179   3.071  70.279  1.00  0.00    -0.037 OA 
ENDBRANCH   4   5
TORSDOF 1
ENDMDL
MODEL      181
REMARK 921   NORMALIZED FREE ENERGY PREDICTED BY IDOCK:   -2.12 KCAL/MOL
REMARK 922        TOTAL FREE ENERGY PREDICTED BY IDOCK:   -2.59 KCAL/MOL
REMARK 923 INTER-LIGAND FREE ENERGY PREDICTED BY IDOCK:   -2.89 KCAL/MOL
REMARK 924 INTRA-LIGAND FREE ENERGY PREDICTED BY IDOCK:    0.30 KCAL/MOL
REMARK 927      BINDING AFFINITY PREDICTED BY RF-SCORE:    0.00 PKD
ROOT
HETATM    1  C   UNL     1      -6.796  21.016  64.826  1.00  0.00     0.087 C  
HETATM    2  C   UNL     1      -6.224  19.852  64.013  1.00  0.00    -0.124 C  
HETATM    3  C   UNL     1      -5.136  20.370  63.068  1.00  0.00    -0.218 C  
HETATM    4  C   UNL     1      -5.659  18.734  64.914  1.00  0.00    -0.279 C  
ENDROOT
BRANCH   4   5
HETATM    5  C   UNL     1      -6.690  18.115  65.831  1.00  0.00    -0.327 A  
HETATM    6  C   UNL     1      -6.335  17.111  66.737  1.00  0.00    -0.248 A  
HETATM    7  C   UNL     1      -7.304  16.499  67.536  1.00  0.00    -0.167 A  
HETATM    8  C   UNL     1      -8.652  16.884  67.456  1.00  0.00    -0.211 A  
HETATM    9  C   UNL     1      -9.686  16.129  68.288  1.00  0.00    -0.220 C  
HETATM   10  C   UNL     1      -8.999  17.912  66.569  1.00  0.00    -0.278 A  
HETATM   11  C   UNL     1     -10.201  14.831  67.661  1.00  0.00    -0.232 C  
HETATM   12  C   UNL     1      -8.026  18.524  65.771  1.00  0.00     0.124 A  
HETATM   13  C   UNL     1     -10.887  16.985  68.703  1.00  0.00    -0.284 C  
HETATM   14  O   UNL     1      -9.751  14.523  66.427  1.00  0.00    -0.269 OA 
HETATM   15  O   UNL     1     -10.992  14.090  68.239  1.00  0.00    -0.242 OA 
ENDBRANCH   4   5
TORSDOF 1
ENDMDL
MODEL      182
REMARK 921   NORMALIZED FREE ENERGY PREDICTED BY IDOCK:   -2.00 KCAL/MOL
REMARK 922        TOTAL FREE ENERGY PREDICTED BY IDOCK:   -2.47 KCAL/MOL
REMARK 923 INTER-LIGAND FREE ENERGY PREDICTED BY IDOCK:   -2.96 KCAL/MOL
REMARK 924 INTRA-LIGAND FREE ENERGY PREDICTED BY IDOCK:    0.49 KCAL/MOL
REMARK 927      BINDING AFFINITY PREDICTED BY RF-SCORE:    0.00 PKD
ROOT
HETATM    1  C   UNL     1      -8.411   6.625  71.882  1.00  0.00    -0.114 C  
HETATM    2  C   UNL     1      -7.482   6.314  70.705  1.00  0.00    -0.087 C  
HETATM    3  C   UNL     1      -7.033   4.852  70.776  1.00  0.00    -0.041 C  
HETATM    4  C   UNL     1      -8.151   6.600  69.343  1.00  0.00    -0.119 C  
ENDROOT
BRANCH   4   5
HETATM    5  C   UNL     1      -8.562   8.044  69.160  1.00  0.00    -0.137 A  
HETATM    6  C   UNL     1      -9.188   8.749  70.192  1.00  0.00    -0.179 A  
HETATM    7  C   UNL     1      -9.622  10.063  69.995  1.00  0.00    -0.205 A  
HETATM    8  C   UNL     1      -9.429  10.707  68.762  1.00  0.00    -0.186 A  
HETATM    9  C   UNL     1      -9.995  12.112  68.568  1.00  0.00    -0.180 C  
HETATM   10  C   UNL     1      -8.773  10.008  67.741  1.00  0.00    -0.125 A  
HETATM   11  C   UNL     1     -11.471  12.168  68.168  1.00  0.00    -0.317 C  
HETATM   12  C   UNL     1      -8.339   8.693  67.942  1.00  0.00    -0.123 A  
HETATM   13  C   UNL     1      -9.188  12.972  67.590  1.00  0.00    -0.200 C  
HETATM   14  O   UNL     1     -12.098  10.991  67.963  1.00  0.00    -0.615 OA 
HETATM   15  O   UNL     1     -12.077  13.228  68.033  1.00  0.00    -0.332 OA 
ENDBRANCH   4   5
TORSDOF 1
ENDMDL
MODEL      183
REMARK 921   NORMALIZED FREE ENERGY PREDICTED BY IDOCK:   -1.98 KCAL/MOL
REMARK 922        TOTAL FREE ENERGY PREDICTED BY IDOCK:   -2.44 KCAL/MOL
REMARK 923 INTER-LIGAND FREE ENERGY PREDICTED BY IDOCK:   -2.75 KCAL/MOL
REMARK 924 INTRA-LIGAND FREE ENERGY PREDICTED BY IDOCK:    0.31 KCAL/MOL
REMARK 927      BINDING AFFINITY PREDICTED BY RF-SCORE:    0.00 PKD
ROOT
HETATM    1  C   UNL     1     -10.218   5.081  70.638  1.00  0.00    -0.306 C  
HETATM    2  C   UNL     1      -9.261   4.311  69.724  1.00  0.00    -0.207 C  
HETATM    3  C   UNL     1      -9.458   2.807  69.922  1.00  0.00    -0.161 C  
HETATM    4  C   UNL     1      -9.451   4.682  68.237  1.00  0.00    -0.200 C  
ENDROOT
BRANCH   4   5
HETATM    5  C   UNL     1      -9.203   6.143  67.940  1.00  0.00    -0.115 A  
HETATM    6  C   UNL     1      -8.825   7.029  68.953  1.00  0.00    -0.130 A  
HETATM    7  C   UNL     1      -8.659   8.390  68.684  1.00  0.00    -0.132 A  
HETATM    8  C   UNL     1      -8.857   8.897  67.389  1.00  0.00    -0.136 A  
HETATM    9  C   UNL     1      -8.746  10.403  67.162  1.00  0.00    -0.130 C  
HETATM   10  C   UNL     1      -9.205   8.001  66.369  1.00  0.00    -0.245 A  
HETATM   11  C   UNL     1     -10.012  11.203  67.479  1.00  0.00    -0.181 C  
HETATM   12  C   UNL     1      -9.369   6.639  66.642  1.00  0.00    -0.192 A  
HETATM   13  C   UNL     1      -8.265  10.780  65.757  1.00  0.00    -0.146 C  
HETATM   14  O   UNL     1     -11.103  10.503  67.856  1.00  0.00    -0.273 OA 
HETATM   15  O   UNL     1     -10.054  12.427  67.398  1.00  0.00    -0.200 OA 
ENDBRANCH   4   5
TORSDOF 1
ENDMDL
MODEL      184
REMARK 921   NORMALIZED FREE ENERGY PREDICTED BY IDOCK:   -1.87 KCAL/MOL
REMARK 922        TOTAL FREE ENERGY PREDICTED BY IDOCK:   -2.32 KCAL/MOL
REMARK 923 INTER-LIGAND FREE ENERGY PREDICTED BY IDOCK:   -1.99 KCAL/MOL
REMARK 924 INTRA-LIGAND FREE ENERGY PREDICTED BY IDOCK:   -0.33 KCAL/MOL
REMARK 927      BINDING AFFINITY PREDICTED BY RF-SCORE:    0.00 PKD
ROOT
HETATM    1  C   UNL     1      -6.111  10.016  68.254  1.00  0.00    -0.045 C  
HETATM    2  C   UNL     1      -7.368  10.134  67.388  1.00  0.00    -0.089 C  
HETATM    3  C   UNL     1      -7.012  10.794  66.053  1.00  0.00    -0.104 C  
HETATM    4  C   UNL     1      -8.038   8.765  67.143  1.00  0.00    -0.100 C  
ENDROOT
BRANCH   4   5
HETATM    5  C   UNL     1      -8.488   8.075  68.411  1.00  0.00    -0.127 A  
HETATM    6  C   UNL     1      -9.538   8.591  69.176  1.00  0.00    -0.167 A  
HETATM    7  C   UNL     1      -9.907   7.983  70.379  1.00  0.00    -0.183 A  
HETATM    8  C   UNL     1      -9.239   6.837  70.842  1.00  0.00    -0.157 A  
HETATM    9  C   UNL     1      -9.622   6.260  72.203  1.00  0.00    -0.158 C  
HETATM   10  C   UNL     1      -8.208   6.306  70.056  1.00  0.00    -0.125 A  
HETATM   11  C   UNL     1      -8.946   6.925  73.404  1.00  0.00    -0.133 C  
HETATM   12  C   UNL     1      -7.842   6.915  68.852  1.00  0.00    -0.111 A  
HETATM   13  C   UNL     1      -9.426   4.744  72.305  1.00  0.00    -0.174 C  
HETATM   14  O   UNL     1      -8.042   7.893  73.143  1.00  0.00    -0.133 OA 
HETATM   15  O   UNL     1      -9.199   6.604  74.562  1.00  0.00    -0.183 OA 
ENDBRANCH   4   5
TORSDOF 1
ENDMDL
MODEL      185
REMARK 921   NORMALIZED FREE ENERGY PREDICTED BY IDOCK:   -1.83 KCAL/MOL
REMARK 922        TOTAL FREE ENERGY PREDICTED BY IDOCK:   -2.28 KCAL/MOL
REMARK 923 INTER-LIGAND FREE ENERGY PREDICTED BY IDOCK:   -2.00 KCAL/MOL
REMARK 924 INTRA-LIGAND FREE ENERGY PREDICTED BY IDOCK:   -0.28 KCAL/MOL
REMARK 927      BINDING AFFINITY PREDICTED BY RF-SCORE:    0.00 PKD
ROOT
HETATM    1  C   UNL     1      -6.705   8.836  72.174  1.00  0.00    -0.036 C  
HETATM    2  C   UNL     1      -6.878   7.583  73.036  1.00  0.00    -0.070 C  
HETATM    3  C   UNL     1      -6.552   7.912  74.494  1.00  0.00    -0.122 C  
HETATM    4  C   UNL     1      -8.301   6.994  72.928  1.00  0.00    -0.121 C  
ENDROOT
BRANCH   4   5
HETATM    5  C   UNL     1      -8.679   6.573  71.526  1.00  0.00    -0.132 A  
HETATM    6  C   UNL     1      -8.166   5.398  70.966  1.00  0.00    -0.118 A  
HETATM    7  C   UNL     1      -8.469   5.048  69.647  1.00  0.00    -0.092 A  
HETATM    8  C   UNL     1      -9.302   5.860  68.859  1.00  0.00    -0.139 A  
HETATM    9  C   UNL     1      -9.535   5.480  67.399  1.00  0.00    -0.121 C  
HETATM   10  C   UNL     1      -9.838   7.019  69.435  1.00  0.00    -0.160 A  
HETATM   11  C   UNL     1      -8.451   5.947  66.425  1.00  0.00    -0.120 C  
HETATM   12  C   UNL     1      -9.534   7.367  70.755  1.00  0.00    -0.167 A  
HETATM   13  C   UNL     1     -10.902   5.914  66.860  1.00  0.00    -0.376 C  
HETATM   14  O   UNL     1      -7.450   6.696  66.932  1.00  0.00    -0.083 OA 
HETATM   15  O   UNL     1      -8.475   5.666  65.229  1.00  0.00    -0.141 OA 
ENDBRANCH   4   5
TORSDOF 1
ENDMDL
MODEL      186
REMARK 921   NORMALIZED FREE ENERGY PREDICTED BY IDOCK:   -1.75 KCAL/MOL
REMARK 922        TOTAL FREE ENERGY PREDICTED BY IDOCK:   -2.20 KCAL/MOL
REMARK 923 INTER-LIGAND FREE ENERGY PREDICTED BY IDOCK:   -1.87 KCAL/MOL
REMARK 924 INTRA-LIGAND FREE ENERGY PREDICTED BY IDOCK:   -0.33 KCAL/MOL
REMARK 927      BINDING AFFINITY PREDICTED BY RF-SCORE:    0.00 PKD
ROOT
HETATM    1  C   UNL     1     -10.198   5.940  71.755  1.00  0.00    -0.248 C  
HETATM    2  C   UNL     1     -10.462   7.267  71.039  1.00  0.00    -0.226 C  
HETATM    3  C   UNL     1     -11.047   8.278  72.029  1.00  0.00    -0.379 C  
HETATM    4  C   UNL     1      -9.186   7.840  70.385  1.00  0.00    -0.156 C  
ENDROOT
BRANCH   4   5
HETATM    5  C   UNL     1      -8.582   6.932  69.337  1.00  0.00    -0.133 A  
HETATM    6  C   UNL     1      -9.242   6.691  68.129  1.00  0.00    -0.117 A  
HETATM    7  C   UNL     1      -8.708   5.801  67.192  1.00  0.00    -0.108 A  
HETATM    8  C   UNL     1      -7.494   5.139  67.438  1.00  0.00    -0.083 A  
HETATM    9  C   UNL     1      -6.995   4.114  66.423  1.00  0.00    -0.059 C  
HETATM   10  C   UNL     1      -6.821   5.408  68.637  1.00  0.00    -0.059 A  
HETATM   11  C   UNL     1      -7.588   2.711  66.570  1.00  0.00    -0.071 C  
HETATM   12  C   UNL     1      -7.357   6.299  69.572  1.00  0.00    -0.084 A  
HETATM   13  C   UNL     1      -5.468   3.998  66.364  1.00  0.00    -0.013 C  
HETATM   14  O   UNL     1      -8.427   2.504  67.607  1.00  0.00    -0.079 OA 
HETATM   15  O   UNL     1      -7.324   1.799  65.791  1.00  0.00    -0.055 OA 
ENDBRANCH   4   5
TORSDOF 1
ENDMDL
MODEL      187
REMARK 921   NORMALIZED FREE ENERGY PREDICTED BY IDOCK:   -1.73 KCAL/MOL
REMARK 922        TOTAL FREE ENERGY PREDICTED BY IDOCK:   -2.18 KCAL/MOL
REMARK 923 INTER-LIGAND FREE ENERGY PREDICTED BY IDOCK:   -1.85 KCAL/MOL
REMARK 924 INTRA-LIGAND FREE ENERGY PREDICTED BY IDOCK:   -0.33 KCAL/MOL
REMARK 927      BINDING AFFINITY PREDICTED BY RF-SCORE:    0.00 PKD
ROOT
HETATM    1  C   UNL     1      -7.881   1.751  70.563  1.00  0.00    -0.042 C  
HETATM    2  C   UNL     1      -9.087   2.562  71.042  1.00  0.00    -0.179 C  
HETATM    3  C   UNL     1      -9.427   2.177  72.484  1.00  0.00    -0.143 C  
HETATM    4  C   UNL     1      -8.845   4.083  70.941  1.00  0.00    -0.136 C  
ENDROOT
BRANCH   4   5
HETATM    5  C   UNL     1      -8.573   4.562  69.532  1.00  0.00    -0.105 A  
HETATM    6  C   UNL     1      -7.407   5.271  69.227  1.00  0.00    -0.058 A  
HETATM    7  C   UNL     1      -7.193   5.765  67.937  1.00  0.00    -0.072 A  
HETATM    8  C   UNL     1      -8.136   5.552  66.918  1.00  0.00    -0.101 A  
HETATM    9  C   UNL     1      -7.896   6.183  65.548  1.00  0.00    -0.103 C  
HETATM   10  C   UNL     1      -9.287   4.813  67.221  1.00  0.00    -0.150 A  
HETATM   11  C   UNL     1      -8.344   7.640  65.417  1.00  0.00    -0.128 C  
HETATM   12  C   UNL     1      -9.499   4.319  68.512  1.00  0.00    -0.216 A  
HETATM   13  C   UNL     1      -8.491   5.379  64.388  1.00  0.00    -0.106 C  
HETATM   14  O   UNL     1      -8.958   8.193  66.484  1.00  0.00    -0.141 OA 
HETATM   15  O   UNL     1      -8.164   8.294  64.394  1.00  0.00    -0.165 OA 
ENDBRANCH   4   5
TORSDOF 1
ENDMDL
MODEL      188
REMARK 921   NORMALIZED FREE ENERGY PREDICTED BY IDOCK:   -1.72 KCAL/MOL
REMARK 922        TOTAL FREE ENERGY PREDICTED BY IDOCK:   -2.17 KCAL/MOL
REMARK 923 INTER-LIGAND FREE ENERGY PREDICTED BY IDOCK:   -1.81 KCAL/MOL
REMARK 924 INTRA-LIGAND FREE ENERGY PREDICTED BY IDOCK:   -0.36 KCAL/MOL
REMARK 927      BINDING AFFINITY PREDICTED BY RF-SCORE:    0.00 PKD
ROOT
HETATM    1  C   UNL     1      -7.310   2.639  70.892  1.00  0.00    -0.033 C  
HETATM    2  C   UNL     1      -8.506   3.262  71.616  1.00  0.00    -0.087 C  
HETATM    3  C   UNL     1      -8.436   2.927  73.108  1.00  0.00    -0.079 C  
HETATM    4  C   UNL     1      -8.577   4.791  71.416  1.00  0.00    -0.125 C  
ENDROOT
BRANCH   4   5
HETATM    5  C   UNL     1      -8.722   5.207  69.970  1.00  0.00    -0.123 A  
HETATM    6  C   UNL     1      -9.819   4.792  69.209  1.00  0.00    -0.269 A  
HETATM    7  C   UNL     1      -9.914   5.128  67.855  1.00  0.00    -0.202 A  
HETATM    8  C   UNL     1      -8.917   5.898  67.233  1.00  0.00    -0.108 A  
HETATM    9  C   UNL     1      -9.023   6.167  65.733  1.00  0.00    -0.099 C  
HETATM   10  C   UNL     1      -7.836   6.338  68.007  1.00  0.00    -0.104 A  
HETATM   11  C   UNL     1      -8.481   5.055  64.833  1.00  0.00    -0.147 C  
HETATM   12  C   UNL     1      -7.744   6.001  69.361  1.00  0.00    -0.098 A  
HETATM   13  C   UNL     1      -8.399   7.498  65.302  1.00  0.00    -0.112 C  
HETATM   14  O   UNL     1      -7.910   3.995  65.442  1.00  0.00    -0.088 OA 
HETATM   15  O   UNL     1      -8.550   5.107  63.608  1.00  0.00    -0.135 OA 
ENDBRANCH   4   5
TORSDOF 1
ENDMDL
MODEL      189
REMARK 921   NORMALIZED FREE ENERGY PREDICTED BY IDOCK:   -1.72 KCAL/MOL
REMARK 922        TOTAL FREE ENERGY PREDICTED BY IDOCK:   -2.16 KCAL/MOL
REMARK 923 INTER-LIGAND FREE ENERGY PREDICTED BY IDOCK:   -1.90 KCAL/MOL
REMARK 924 INTRA-LIGAND FREE ENERGY PREDICTED BY IDOCK:   -0.27 KCAL/MOL
REMARK 927      BINDING AFFINITY PREDICTED BY RF-SCORE:    0.00 PKD
ROOT
HETATM    1  C   UNL     1      -7.123  12.489  68.979  1.00  0.00    -0.037 C  
HETATM    2  C   UNL     1      -5.945  11.925  69.778  1.00  0.00    -0.132 C  
HETATM    3  C   UNL     1      -5.152  13.073  70.406  1.00  0.00    -0.103 C  
HETATM    4  C   UNL     1      -6.403  10.934  70.869  1.00  0.00     0.347 C  
ENDROOT
BRANCH   4   5
HETATM    5  C   UNL     1      -7.135   9.727  70.325  1.00  0.00    -0.145 A  
HETATM    6  C   UNL     1      -6.676   9.064  69.183  1.00  0.00    -0.050 A  
HETATM    7  C   UNL     1      -7.392   7.989  68.649  1.00  0.00    -0.089 A  
HETATM    8  C   UNL     1      -8.580   7.545  69.252  1.00  0.00    -0.136 A  
HETATM    9  C   UNL     1      -9.371   6.422  68.584  1.00  0.00    -0.124 C  
HETATM   10  C   UNL     1      -9.019   8.192  70.414  1.00  0.00    -0.146 A  
HETATM   11  C   UNL     1     -10.313   6.869  67.464  1.00  0.00    -0.217 C  
HETATM   12  C   UNL     1      -8.300   9.267  70.947  1.00  0.00    -0.196 A  
HETATM   13  C   UNL     1     -10.157   5.552  69.570  1.00  0.00    -0.305 C  
HETATM   14  O   UNL     1     -10.402   8.194  67.227  1.00  0.00    -0.249 OA 
HETATM   15  O   UNL     1     -10.970   6.071  66.799  1.00  0.00    -0.316 OA 
ENDBRANCH   4   5
TORSDOF 1
ENDMDL
MODEL      190
REMARK 921   NORMALIZED FREE ENERGY PREDICTED BY IDOCK:   -1.70 KCAL/MOL
REMARK 922        TOTAL FREE ENERGY PREDICTED BY IDOCK:   -2.14 KCAL/MOL
REMARK 923 INTER-LIGAND FREE ENERGY PREDICTED BY IDOCK:   -1.79 KCAL/MOL
REMARK 924 INTRA-LIGAND FREE ENERGY PREDICTED BY IDOCK:   -0.35 KCAL/MOL
REMARK 927      BINDING AFFINITY PREDICTED BY RF-SCORE:    0.00 PKD
ROOT
HETATM    1  C   UNL     1      -6.119   8.508  67.828  1.00  0.00    -0.048 C  
HETATM    2  C   UNL     1      -7.213   8.927  66.842  1.00  0.00    -0.082 C  
HETATM    3  C   UNL     1      -6.736  10.130  66.025  1.00  0.00    -0.106 C  
HETATM    4  C   UNL     1      -7.623   7.774  65.902  1.00  0.00    -0.090 C  
ENDROOT
BRANCH   4   5
HETATM    5  C   UNL     1      -8.176   6.568  66.626  1.00  0.00    -0.112 A  
HETATM    6  C   UNL     1      -9.377   6.645  67.337  1.00  0.00    -0.136 A  
HETATM    7  C   UNL     1      -9.850   5.544  68.057  1.00  0.00    -0.173 A  
HETATM    8  C   UNL     1      -9.136   4.334  68.074  1.00  0.00    -0.165 A  
HETATM    9  C   UNL     1      -9.650   3.188  68.943  1.00  0.00    -0.090 C  
HETATM   10  C   UNL     1      -7.950   4.251  67.334  1.00  0.00    -0.096 A  
HETATM   11  C   UNL     1      -9.234   3.251  70.414  1.00  0.00    -0.148 C  
HETATM   12  C   UNL     1      -7.479   5.354  66.614  1.00  0.00    -0.087 A  
HETATM   13  C   UNL     1      -9.308   1.799  68.394  1.00  0.00    -0.245 C  
HETATM   14  O   UNL     1      -8.412   4.258  70.778  1.00  0.00    -0.076 OA 
HETATM   15  O   UNL     1      -9.618   2.430  71.242  1.00  0.00    -0.140 OA 
ENDBRANCH   4   5
TORSDOF 1
ENDMDL
MODEL      191
REMARK 921   NORMALIZED FREE ENERGY PREDICTED BY IDOCK:   -1.67 KCAL/MOL
REMARK 922        TOTAL FREE ENERGY PREDICTED BY IDOCK:   -2.12 KCAL/MOL
REMARK 923 INTER-LIGAND FREE ENERGY PREDICTED BY IDOCK:   -1.91 KCAL/MOL
REMARK 924 INTRA-LIGAND FREE ENERGY PREDICTED BY IDOCK:   -0.21 KCAL/MOL
REMARK 927      BINDING AFFINITY PREDICTED BY RF-SCORE:    0.00 PKD
ROOT
HETATM    1  C   UNL     1      -5.923   9.099  71.979  1.00  0.00    -0.040 C  
HETATM    2  C   UNL     1      -5.844   7.639  72.433  1.00  0.00    -0.039 C  
HETATM    3  C   UNL     1      -5.284   7.572  73.856  1.00  0.00    -0.045 C  
HETATM    4  C   UNL     1      -7.215   6.933  72.367  1.00  0.00    -0.078 C  
ENDROOT
BRANCH   4   5
HETATM    5  C   UNL     1      -7.808   6.889  70.977  1.00  0.00    -0.097 A  
HETATM    6  C   UNL     1      -9.181   7.063  70.776  1.00  0.00    -0.157 A  
HETATM    7  C   UNL     1      -9.732   6.959  69.496  1.00  0.00    -0.159 A  
HETATM    8  C   UNL     1      -8.919   6.687  68.382  1.00  0.00    -0.123 A  
HETATM    9  C   UNL     1      -9.578   6.499  67.017  1.00  0.00    -0.174 C  
HETATM   10  C   UNL     1      -7.540   6.545  68.584  1.00  0.00    -0.097 A  
HETATM   11  C   UNL     1     -10.118   5.093  66.746  1.00  0.00    -0.232 C  
HETATM   12  C   UNL     1      -6.992   6.651  69.866  1.00  0.00    -0.063 A  
HETATM   13  C   UNL     1      -8.690   6.921  65.842  1.00  0.00    -0.146 C  
HETATM   14  O   UNL     1      -9.902   4.158  67.694  1.00  0.00    -0.154 OA 
HETATM   15  O   UNL     1     -10.722   4.809  65.715  1.00  0.00    -0.305 OA 
ENDBRANCH   4   5
TORSDOF 1
ENDMDL
MODEL      192
REMARK 921   NORMALIZED FREE ENERGY PREDICTED BY IDOCK:   -1.52 KCAL/MOL
REMARK 922        TOTAL FREE ENERGY PREDICTED BY IDOCK:   -1.96 KCAL/MOL
REMARK 923 INTER-LIGAND FREE ENERGY PREDICTED BY IDOCK:   -1.64 KCAL/MOL
REMARK 924 INTRA-LIGAND FREE ENERGY PREDICTED BY IDOCK:   -0.32 KCAL/MOL
REMARK 927      BINDING AFFINITY PREDICTED BY RF-SCORE:    0.00 PKD
ROOT
HETATM    1  C   UNL     1      -7.092  12.493  68.951  1.00  0.00    -0.073 C  
HETATM    2  C   UNL     1      -6.015  11.699  69.694  1.00  0.00    -0.106 C  
HETATM    3  C   UNL     1      -5.273  12.620  70.665  1.00  0.00    -0.137 C  
HETATM    4  C   UNL     1      -6.602  10.489  70.452  1.00  0.00    -0.103 C  
ENDROOT
BRANCH   4   5
HETATM    5  C   UNL     1      -7.292   9.487  69.554  1.00  0.00    -0.077 A  
HETATM    6  C   UNL     1      -8.599   9.065  69.818  1.00  0.00    -0.138 A  
HETATM    7  C   UNL     1      -9.207   8.092  69.021  1.00  0.00    -0.148 A  
HETATM    8  C   UNL     1      -8.526   7.524  67.932  1.00  0.00    -0.122 A  
HETATM    9  C   UNL     1      -9.201   6.404  67.143  1.00  0.00    -0.128 C  
HETATM   10  C   UNL     1      -7.229   7.972  67.651  1.00  0.00    -0.091 A  
HETATM   11  C   UNL     1      -9.050   5.005  67.742  1.00  0.00    -0.114 C  
HETATM   12  C   UNL     1      -6.623   8.947  68.450  1.00  0.00    -0.060 A  
HETATM   13  C   UNL     1      -8.788   6.355  65.668  1.00  0.00    -0.071 C  
HETATM   14  O   UNL     1      -8.291   4.890  68.852  1.00  0.00    -0.083 OA 
HETATM   15  O   UNL     1      -9.586   4.016  67.249  1.00  0.00    -0.188 OA 
ENDBRANCH   4   5
TORSDOF 1
ENDMDL
MODEL      193
REMARK 921   NORMALIZED FREE ENERGY PREDICTED BY IDOCK:   -1.40 KCAL/MOL
REMARK 922        TOTAL FREE ENERGY PREDICTED BY IDOCK:   -1.83 KCAL/MOL
REMARK 923 INTER-LIGAND FREE ENERGY PREDICTED BY IDOCK:   -1.96 KCAL/MOL
REMARK 924 INTRA-LIGAND FREE ENERGY PREDICTED BY IDOCK:    0.13 KCAL/MOL
REMARK 927      BINDING AFFINITY PREDICTED BY RF-SCORE:    0.00 PKD
ROOT
HETATM    1  C   UNL     1      -5.788  14.045  71.837  1.00  0.00    -0.061 C  
HETATM    2  C   UNL     1      -5.876  14.755  70.484  1.00  0.00    -0.157 C  
HETATM    3  C   UNL     1      -5.135  16.093  70.557  1.00  0.00    -0.185 C  
HETATM    4  C   UNL     1      -5.309  13.894  69.336  1.00  0.00    -0.083 C  
ENDROOT
BRANCH   4   5
HETATM    5  C   UNL     1      -6.035  12.581  69.147  1.00  0.00    -0.085 A  
HETATM    6  C   UNL     1      -6.890  12.383  68.059  1.00  0.00    -0.089 A  
HETATM    7  C   UNL     1      -7.606  11.190  67.925  1.00  0.00    -0.099 A  
HETATM    8  C   UNL     1      -7.476  10.162  68.873  1.00  0.00    -0.086 A  
HETATM    9  C   UNL     1      -8.342   8.912  68.729  1.00  0.00    -0.123 C  
HETATM   10  C   UNL     1      -6.594  10.352  69.944  1.00  0.00    -0.124 A  
HETATM   11  C   UNL     1      -9.753   9.030  69.309  1.00  0.00    -0.168 C  
HETATM   12  C   UNL     1      -5.877  11.546  70.075  1.00  0.00    -0.134 A  
HETATM   13  C   UNL     1      -7.687   7.642  69.281  1.00  0.00    -0.104 C  
HETATM   14  O   UNL     1     -10.064  10.181  69.941  1.00  0.00    -0.244 OA 
HETATM   15  O   UNL     1     -10.580   8.127  69.217  1.00  0.00    -0.222 OA 
ENDBRANCH   4   5
TORSDOF 1
ENDMDL
MODEL      194
REMARK 921   NORMALIZED FREE ENERGY PREDICTED BY IDOCK:   -1.31 KCAL/MOL
REMARK 922        TOTAL FREE ENERGY PREDICTED BY IDOCK:   -1.73 KCAL/MOL
REMARK 923 INTER-LIGAND FREE ENERGY PREDICTED BY IDOCK:   -1.56 KCAL/MOL
REMARK 924 INTRA-LIGAND FREE ENERGY PREDICTED BY IDOCK:   -0.17 KCAL/MOL
REMARK 927      BINDING AFFINITY PREDICTED BY RF-SCORE:    0.00 PKD
ROOT
HETATM    1  C   UNL     1      -6.005  13.995  72.051  1.00  0.00     0.180 C  
HETATM    2  C   UNL     1      -6.250  14.134  70.547  1.00  0.00    -0.138 C  
HETATM    3  C   UNL     1      -5.828  15.531  70.084  1.00  0.00    -0.148 C  
HETATM    4  C   UNL     1      -5.504  13.055  69.733  1.00  0.00    -0.094 C  
ENDROOT
BRANCH   4   5
HETATM    5  C   UNL     1      -5.916  11.642  70.078  1.00  0.00    -0.152 A  
HETATM    6  C   UNL     1      -7.023  11.046  69.465  1.00  0.00    -0.126 A  
HETATM    7  C   UNL     1      -7.436   9.764  69.835  1.00  0.00    -0.142 A  
HETATM    8  C   UNL     1      -6.744   9.041  70.821  1.00  0.00    -0.067 A  
HETATM    9  C   UNL     1      -7.284   7.678  71.250  1.00  0.00    -0.062 C  
HETATM   10  C   UNL     1      -5.617   9.629  71.410  1.00  0.00    -0.074 A  
HETATM   11  C   UNL     1      -8.390   7.721  72.306  1.00  0.00    -0.119 C  
HETATM   12  C   UNL     1      -5.206  10.912  71.037  1.00  0.00    -0.109 A  
HETATM   13  C   UNL     1      -6.196   6.704  71.716  1.00  0.00    -0.042 C  
HETATM   14  O   UNL     1      -8.726   8.933  72.796  1.00  0.00    -0.347 OA 
HETATM   15  O   UNL     1      -8.958   6.708  72.706  1.00  0.00    -0.124 OA 
ENDBRANCH   4   5
TORSDOF 1
ENDMDL
MODEL      195
REMARK 921   NORMALIZED FREE ENERGY PREDICTED BY IDOCK:   -1.29 KCAL/MOL
REMARK 922        TOTAL FREE ENERGY PREDICTED BY IDOCK:   -1.71 KCAL/MOL
REMARK 923 INTER-LIGAND FREE ENERGY PREDICTED BY IDOCK:   -1.49 KCAL/MOL
REMARK 924 INTRA-LIGAND FREE ENERGY PREDICTED BY IDOCK:   -0.22 KCAL/MOL
REMARK 927      BINDING AFFINITY PREDICTED BY RF-SCORE:    0.00 PKD
ROOT
HETATM    1  C   UNL     1      -5.788  14.045  71.837  1.00  0.00    -0.061 C  
HETATM    2  C   UNL     1      -5.876  14.755  70.484  1.00  0.00    -0.157 C  
HETATM    3  C   UNL     1      -5.135  16.093  70.557  1.00  0.00    -0.185 C  
HETATM    4  C   UNL     1      -5.309  13.894  69.336  1.00  0.00    -0.083 C  
ENDROOT
BRANCH   4   5
HETATM    5  C   UNL     1      -6.035  12.581  69.147  1.00  0.00    -0.085 A  
HETATM    6  C   UNL     1      -5.516  11.392  69.668  1.00  0.00    -0.059 A  
HETATM    7  C   UNL     1      -6.159  10.173  69.435  1.00  0.00    -0.041 A  
HETATM    8  C   UNL     1      -7.344  10.116  68.683  1.00  0.00    -0.082 A  
HETATM    9  C   UNL     1      -7.963   8.752  68.385  1.00  0.00    -0.109 C  
HETATM   10  C   UNL     1      -7.877  11.314  68.190  1.00  0.00    -0.127 A  
HETATM   11  C   UNL     1      -7.369   8.019  67.180  1.00  0.00    -0.091 C  
HETATM   12  C   UNL     1      -7.232  12.532  68.425  1.00  0.00    -0.111 A  
HETATM   13  C   UNL     1      -9.487   8.787  68.238  1.00  0.00    -0.150 C  
HETATM   14  O   UNL     1      -6.422   8.667  66.471  1.00  0.00    -0.057 OA 
HETATM   15  O   UNL     1      -7.728   6.890  66.855  1.00  0.00    -0.096 OA 
ENDBRANCH   4   5
TORSDOF 1
ENDMDL
MODEL      196
REMARK 921   NORMALIZED FREE ENERGY PREDICTED BY IDOCK:   -1.28 KCAL/MOL
REMARK 922        TOTAL FREE ENERGY PREDICTED BY IDOCK:   -1.70 KCAL/MOL
REMARK 923 INTER-LIGAND FREE ENERGY PREDICTED BY IDOCK:   -1.37 KCAL/MOL
REMARK 924 INTRA-LIGAND FREE ENERGY PREDICTED BY IDOCK:   -0.33 KCAL/MOL
REMARK 927      BINDING AFFINITY PREDICTED BY RF-SCORE:    0.00 PKD
ROOT
HETATM    1  C   UNL     1      -5.647   8.912  69.472  1.00  0.00    -0.034 C  
HETATM    2  C   UNL     1      -5.628   7.568  70.204  1.00  0.00    -0.023 C  
HETATM    3  C   UNL     1      -5.302   7.792  71.683  1.00  0.00    -0.035 C  
HETATM    4  C   UNL     1      -6.964   6.808  70.063  1.00  0.00    -0.062 C  
ENDROOT
BRANCH   4   5
HETATM    5  C   UNL     1      -7.328   6.480  68.632  1.00  0.00    -0.087 A  
HETATM    6  C   UNL     1      -8.559   6.869  68.097  1.00  0.00    -0.123 A  
HETATM    7  C   UNL     1      -8.914   6.507  66.794  1.00  0.00    -0.136 A  
HETATM    8  C   UNL     1      -8.040   5.756  65.991  1.00  0.00    -0.110 A  
HETATM    9  C   UNL     1      -8.507   5.314  64.606  1.00  0.00    -0.142 C  
HETATM   10  C   UNL     1      -6.794   5.396  66.521  1.00  0.00    -0.063 A  
HETATM   11  C   UNL     1      -9.347   4.036  64.581  1.00  0.00    -0.161 C  
HETATM   12  C   UNL     1      -6.441   5.760  67.825  1.00  0.00    -0.047 A  
HETATM   13  C   UNL     1      -7.370   5.176  63.588  1.00  0.00    -0.051 C  
HETATM   14  O   UNL     1      -9.532   3.398  65.756  1.00  0.00    -0.164 OA 
HETATM   15  O   UNL     1      -9.839   3.591  63.547  1.00  0.00    -0.132 OA 
ENDBRANCH   4   5
TORSDOF 1
ENDMDL
MODEL      197
REMARK 921   NORMALIZED FREE ENERGY PREDICTED BY IDOCK:   -1.08 KCAL/MOL
REMARK 922        TOTAL FREE ENERGY PREDICTED BY IDOCK:   -1.49 KCAL/MOL
REMARK 923 INTER-LIGAND FREE ENERGY PREDICTED BY IDOCK:   -1.77 KCAL/MOL
REMARK 924 INTRA-LIGAND FREE ENERGY PREDICTED BY IDOCK:    0.29 KCAL/MOL
REMARK 927      BINDING AFFINITY PREDICTED BY RF-SCORE:    0.00 PKD
ROOT
HETATM    1  C   UNL     1     -11.151   6.196  72.428  1.00  0.00    -0.316 C  
HETATM    2  C   UNL     1     -11.409   7.568  71.799  1.00  0.00    -0.289 C  
HETATM    3  C   UNL     1     -12.012   8.508  72.844  1.00  0.00     0.073 C  
HETATM    4  C   UNL     1     -10.126   8.186  71.204  1.00  0.00    -0.222 C  
ENDROOT
BRANCH   4   5
HETATM    5  C   UNL     1      -9.502   7.352  70.107  1.00  0.00    -0.165 A  
HETATM    6  C   UNL     1      -9.031   6.062  70.366  1.00  0.00    -0.153 A  
HETATM    7  C   UNL     1      -8.398   5.321  69.364  1.00  0.00    -0.095 A  
HETATM    8  C   UNL     1      -8.231   5.850  68.074  1.00  0.00    -0.105 A  
HETATM    9  C   UNL     1      -7.460   5.037  67.037  1.00  0.00    -0.087 C  
HETATM   10  C   UNL     1      -8.733   7.131  67.810  1.00  0.00    -0.125 A  
HETATM   11  C   UNL     1      -5.938   5.178  67.102  1.00  0.00    -0.026 C  
HETATM   12  C   UNL     1      -9.367   7.870  68.815  1.00  0.00    -0.146 A  
HETATM   13  C   UNL     1      -7.916   5.285  65.596  1.00  0.00    -0.106 C  
HETATM   14  O   UNL     1      -5.439   6.046  68.008  1.00  0.00    -0.004 OA 
HETATM   15  O   UNL     1      -5.185   4.541  66.369  1.00  0.00    -0.008 OA 
ENDBRANCH   4   5
TORSDOF 1
ENDMDL
MODEL      198
REMARK 921   NORMALIZED FREE ENERGY PREDICTED BY IDOCK:   -0.24 KCAL/MOL
REMARK 922        TOTAL FREE ENERGY PREDICTED BY IDOCK:   -0.60 KCAL/MOL
REMARK 923 INTER-LIGAND FREE ENERGY PREDICTED BY IDOCK:   -1.06 KCAL/MOL
REMARK 924 INTRA-LIGAND FREE ENERGY PREDICTED BY IDOCK:    0.46 KCAL/MOL
REMARK 927      BINDING AFFINITY PREDICTED BY RF-SCORE:    0.00 PKD
ROOT
HETATM    1  C   UNL     1      -9.966  16.819  68.537  1.00  0.00    -0.271 C  
HETATM    2  C   UNL     1     -10.836  16.070  69.550  1.00  0.00    -0.317 C  
HETATM    3  C   UNL     1     -11.885  17.021  70.131  1.00  0.00     1.857 C  
HETATM    4  C   UNL     1     -11.523  14.836  68.927  1.00  0.00    -0.321 C  
ENDROOT
BRANCH   4   5
HETATM    5  C   UNL     1     -10.553  13.807  68.392  1.00  0.00    -0.261 A  
HETATM    6  C   UNL     1      -9.485  14.184  67.573  1.00  0.00    -0.210 A  
HETATM    7  C   UNL     1      -8.630  13.221  67.030  1.00  0.00    -0.169 A  
HETATM    8  C   UNL     1      -8.817  11.856  67.302  1.00  0.00    -0.179 A  
HETATM    9  C   UNL     1      -7.909  10.836  66.618  1.00  0.00    -0.140 C  
HETATM   10  C   UNL     1      -9.870  11.485  68.149  1.00  0.00    -0.197 A  
HETATM   11  C   UNL     1      -8.334  10.433  65.205  1.00  0.00    -0.165 C  
HETATM   12  C   UNL     1     -10.724  12.451  68.691  1.00  0.00    -0.260 A  
HETATM   13  C   UNL     1      -7.679   9.566  67.444  1.00  0.00    -0.095 C  
HETATM   14  O   UNL     1      -9.486  10.957  64.736  1.00  0.00    -0.213 OA 
HETATM   15  O   UNL     1      -7.670   9.666  64.512  1.00  0.00    -0.119 OA 
ENDBRANCH   4   5
TORSDOF 1
ENDMDL
MODEL      199
REMARK 921   NORMALIZED FREE ENERGY PREDICTED BY IDOCK:    0.08 KCAL/MOL
REMARK 922        TOTAL FREE ENERGY PREDICTED BY IDOCK:   -0.26 KCAL/MOL
REMARK 923 INTER-LIGAND FREE ENERGY PREDICTED BY IDOCK:   -0.65 KCAL/MOL
REMARK 924 INTRA-LIGAND FREE ENERGY PREDICTED BY IDOCK:    0.40 KCAL/MOL
REMARK 927      BINDING AFFINITY PREDICTED BY RF-SCORE:    0.00 PKD
ROOT
HETATM    1  C   UNL     1      -6.105   7.468  69.134  1.00  0.00    -0.034 C  
HETATM    2  C   UNL     1      -5.714   6.324  70.072  1.00  0.00    -0.014 C  
HETATM    3  C   UNL     1      -5.796   6.799  71.525  1.00  0.00    -0.036 C  
HETATM    4  C   UNL     1      -6.599   5.076  69.870  1.00  0.00    -0.036 C  
ENDROOT
BRANCH   4   5
HETATM    5  C   UNL     1      -6.521   4.496  68.476  1.00  0.00    -0.037 A  
HETATM    6  C   UNL     1      -6.754   5.294  67.352  1.00  0.00    -0.055 A  
HETATM    7  C   UNL     1      -6.742   4.737  66.070  1.00  0.00    -0.050 A  
HETATM    8  C   UNL     1      -6.486   3.369  65.881  1.00  0.00    -0.033 A  
HETATM    9  C   UNL     1      -6.567   2.792  64.469  1.00  0.00    -0.035 C  
HETATM   10  C   UNL     1      -6.222   2.580  67.008  1.00  0.00    -0.024 A  
HETATM   11  C   UNL     1      -7.975   2.414  64.002  1.00  0.00    -0.077 C  
HETATM   12  C   UNL     1      -6.233   3.139  68.289  1.00  0.00    -0.032 A  
HETATM   13  C   UNL     1      -5.635   1.598  64.238  1.00  0.00    -0.008 C  
HETATM   14  O   UNL     1      -8.978   2.561  64.892  1.00  0.00    -0.117 OA 
HETATM   15  O   UNL     1      -8.201   1.991  62.872  1.00  0.00    -0.066 OA 
ENDBRANCH   4   5
TORSDOF 1
ENDMDL
MODEL      200
REMARK 921   NORMALIZED FREE ENERGY PREDICTED BY IDOCK:    4.81 KCAL/MOL
REMARK 922        TOTAL FREE ENERGY PREDICTED BY IDOCK:    4.75 KCAL/MOL
REMARK 923 INTER-LIGAND FREE ENERGY PREDICTED BY IDOCK:    4.80 KCAL/MOL
REMARK 924 INTRA-LIGAND FREE ENERGY PREDICTED BY IDOCK:   -0.05 KCAL/MOL
REMARK 927      BINDING AFFINITY PREDICTED BY RF-SCORE:    0.00 PKD
ROOT
HETATM    1  C   UNL     1      -6.273   7.493  69.142  1.00  0.00    -0.035 C  
HETATM    2  C   UNL     1      -6.078   6.090  69.722  1.00  0.00    -0.026 C  
HETATM    3  C   UNL     1      -5.157   6.161  70.942  1.00  0.00    -0.013 C  
HETATM    4  C   UNL     1      -7.417   5.425  70.104  1.00  0.00    -0.069 C  
ENDROOT
BRANCH   4   5
HETATM    5  C   UNL     1      -8.362   5.249  68.937  1.00  0.00    -0.092 A  
HETATM    6  C   UNL     1      -8.402   4.050  68.220  1.00  0.00    -0.100 A  
HETATM    7  C   UNL     1      -9.231   3.916  67.103  1.00  0.00    -0.197 A  
HETATM    8  C   UNL     1     -10.050   4.977  66.683  1.00  0.00    -0.276 A  
HETATM    9  C   UNL     1     -10.875   4.812  65.408  1.00  0.00    -0.043 C  
HETATM   10  C   UNL     1     -10.031   6.166  67.423  1.00  0.00    -0.166 A  
HETATM   11  C   UNL     1     -10.126   5.105  64.107  1.00  0.00     1.092 C  
HETATM   12  C   UNL     1      -9.200   6.297  68.541  1.00  0.00    -0.123 A  
HETATM   13  C   UNL     1     -12.183   5.610  65.414  1.00  0.00     4.250 C  
HETATM   14  O   UNL     1      -8.853   5.540  64.215  1.00  0.00    -0.008 OA 
HETATM   15  O   UNL     1     -10.644   4.960  63.002  1.00  0.00     0.610 OA 
ENDBRANCH   4   5
TORSDOF 1
ENDMDL
MODEL      201
REMARK 921   NORMALIZED FREE ENERGY PREDICTED BY IDOCK:   13.11 KCAL/MOL
REMARK 922        TOTAL FREE ENERGY PREDICTED BY IDOCK:   13.53 KCAL/MOL
REMARK 923 INTER-LIGAND FREE ENERGY PREDICTED BY IDOCK:   13.59 KCAL/MOL
REMARK 924 INTRA-LIGAND FREE ENERGY PREDICTED BY IDOCK:   -0.06 KCAL/MOL
REMARK 927      BINDING AFFINITY PREDICTED BY RF-SCORE:    0.00 PKD
ROOT
HETATM    1  C   UNL     1     -12.317  11.705  71.597  1.00  0.00     0.023 C  
HETATM    2  C   UNL     1     -13.654  12.444  71.691  1.00  0.00     0.051 C  
HETATM    3  C   UNL     1     -14.200  12.340  73.117  1.00  0.00     2.843 C  
HETATM    4  C   UNL     1     -13.533  13.925  71.274  1.00  0.00    -0.268 C  
ENDROOT
BRANCH   4   5
HETATM    5  C   UNL     1     -13.067  14.117  69.848  1.00  0.00     0.496 A  
HETATM    6  C   UNL     1     -13.987  14.285  68.809  1.00  0.00     7.567 A  
HETATM    7  C   UNL     1     -13.552  14.398  67.486  1.00  0.00     5.866 A  
HETATM    8  C   UNL     1     -12.183  14.358  67.171  1.00  0.00    -0.257 A  
HETATM    9  C   UNL     1     -11.762  14.401  65.704  1.00  0.00    -0.356 C  
HETATM   10  C   UNL     1     -11.264  14.222  68.219  1.00  0.00    -0.298 A  
HETATM   11  C   UNL     1     -11.789  13.054  64.980  1.00  0.00    -0.362 C  
HETATM   12  C   UNL     1     -11.702  14.109  69.543  1.00  0.00    -0.364 A  
HETATM   13  C   UNL     1     -10.395  15.055  65.475  1.00  0.00    -0.397 C  
HETATM   14  O   UNL     1     -12.111  11.968  65.715  1.00  0.00    -0.536 OA 
HETATM   15  O   UNL     1     -11.531  12.943  63.785  1.00  0.00    -0.416 OA 
ENDBRANCH   4   5
TORSDOF 1
ENDMDL
MODEL      202
REMARK 921   NORMALIZED FREE ENERGY PREDICTED BY IDOCK:   50.32 KCAL/MOL
REMARK 922        TOTAL FREE ENERGY PREDICTED BY IDOCK:   52.92 KCAL/MOL
REMARK 923 INTER-LIGAND FREE ENERGY PREDICTED BY IDOCK:   52.50 KCAL/MOL
REMARK 924 INTRA-LIGAND FREE ENERGY PREDICTED BY IDOCK:    0.42 KCAL/MOL
REMARK 927      BINDING AFFINITY PREDICTED BY RF-SCORE:    0.00 PKD
ROOT
HETATM    1  C   UNL     1     -10.562  20.346  72.469  1.00  0.00     5.969 C  
HETATM    2  C   UNL     1     -11.865  20.012  71.737  1.00  0.00    13.060 C  
HETATM    3  C   UNL     1     -13.055  20.552  72.533  1.00  0.00    26.571 C  
HETATM    4  C   UNL     1     -11.886  20.575  70.300  1.00  0.00     6.662 C  
ENDROOT
BRANCH   4   5
HETATM    5  C   UNL     1     -10.782  20.034  69.420  1.00  0.00     0.605 A  
HETATM    6  C   UNL     1      -9.447  20.077  69.835  1.00  0.00     0.592 A  
HETATM    7  C   UNL     1      -8.426  19.634  68.990  1.00  0.00    -0.160 A  
HETATM    8  C   UNL     1      -8.716  19.127  67.713  1.00  0.00    -0.336 A  
HETATM    9  C   UNL     1      -7.561  18.734  66.795  1.00  0.00    -0.243 C  
HETATM   10  C   UNL     1     -10.057  19.057  67.314  1.00  0.00    -0.436 A  
HETATM   11  C   UNL     1      -6.938  19.887  66.004  1.00  0.00    -0.272 C  
HETATM   12  C   UNL     1     -11.078  19.500  68.161  1.00  0.00     0.353 A  
HETATM   13  C   UNL     1      -7.904  17.600  65.823  1.00  0.00     0.068 C  
HETATM   14  O   UNL     1      -7.506  21.103  66.141  1.00  0.00     0.258 OA 
HETATM   15  O   UNL     1      -5.966  19.732  65.270  1.00  0.00    -0.189 OA 
ENDBRANCH   4   5
TORSDOF 1
ENDMDL
