MODEL        1
REMARK 921   NORMALIZED FREE ENERGY PREDICTED BY IDOCK:   -5.39 KCAL/MOL
REMARK 922        TOTAL FREE ENERGY PREDICTED BY IDOCK:  -11.65 KCAL/MOL
REMARK 923 INTER-LIGAND FREE ENERGY PREDICTED BY IDOCK:   -9.80 KCAL/MOL
REMARK 924 INTRA-LIGAND FREE ENERGY PREDICTED BY IDOCK:   -1.85 KCAL/MOL
REMARK 927      BINDING AFFINITY PREDICTED BY RF-SCORE:    0.00 PKD
ROOT
HETATM    1  C   UNL     1     -12.394  12.216  63.386  1.00  0.00    -0.648 C  
HETATM    2  C   UNL     1     -11.340  11.893  64.428  1.00  0.00    -0.395 C  
ENDROOT
BRANCH   2   3
HETATM    3  C   UNL     1     -11.823  12.241  65.835  1.00  0.00    -0.420 C  
BRANCH   3   4
HETATM    4  C   UNL     1     -11.920  13.753  65.999  1.00  0.00    -0.443 C  
BRANCH   4   5
HETATM    5  C   UNL     1     -10.572  14.438  65.791  1.00  0.00    -0.326 C  
BRANCH   5   6
HETATM    6  C   UNL     1     -10.777  15.727  64.999  1.00  0.00    -0.443 C  
BRANCH   6   7
HETATM    7  C   UNL     1     -10.495  16.967  65.850  1.00  0.00    -0.274 C  
BRANCH   7   8
HETATM    8  N   UNL     1      -9.913  16.651  67.167  1.00  0.00    -0.262 NA 
BRANCH   8   9
HETATM    9  C   UNL     1      -8.499  17.041  67.310  1.00  0.00    -0.194 C  
HETATM   10  C   UNL     1      -7.826  16.677  68.631  1.00  0.00    -0.234 C  
ENDBRANCH   8   9
BRANCH   8  11
HETATM   11  C   UNL     1     -10.730  17.176  68.275  1.00  0.00    -0.363 C  
BRANCH  11  12
HETATM   12  C   UNL     1     -11.708  16.159  68.885  1.00  0.00    -0.250 C  
BRANCH  12  13
HETATM   13  C   UNL     1     -11.172  15.531  70.176  1.00  0.00    -0.331 C  
BRANCH  13  14
HETATM   14  C   UNL     1     -12.293  14.949  71.049  1.00  0.00    -0.324 C  
HETATM   15  H   UNL     1     -14.224  15.235  71.304  1.00  0.00     0.000 HD 
HETATM   16  O   UNL     1     -13.530  15.595  70.764  1.00  0.00    -0.536 OA 
BRANCH  14  17
HETATM   17  C   UNL     1     -12.432  13.451  70.855  1.00  0.00    -0.439 A  
HETATM   18  C   UNL     1     -13.077  12.680  71.834  1.00  0.00    -0.470 A  
HETATM   19  C   UNL     1     -13.153  11.291  71.715  1.00  0.00    -0.527 A  
HETATM   20  C   UNL     1     -12.579  10.655  70.616  1.00  0.00    -0.365 A  
HETATM   21  C   UNL     1     -11.903  12.796  69.728  1.00  0.00    -0.380 A  
HETATM   22  C   UNL     1     -11.979  11.406  69.608  1.00  0.00    -0.416 A  
BRANCH  20  23
HETATM   23  N   UNL     1     -12.623   9.235  70.534  1.00  0.00    -0.466 N  
HETATM   24  H   UNL     1     -13.340   8.761  69.983  1.00  0.00     0.000 HD 
BRANCH  23  25
HETATM   25  S   UNL     1     -11.450   8.360  71.375  1.00  0.00    -0.292 S  
HETATM   26  C   UNL     1     -11.455   6.820  70.481  1.00  0.00    -0.360 C  
HETATM   27  O   UNL     1     -12.021   8.107  72.680  1.00  0.00    -0.381 OA 
HETATM   28  O   UNL     1     -10.157   8.992  71.234  1.00  0.00    -0.259 OA 
ENDBRANCH  23  25
ENDBRANCH  20  23
ENDBRANCH  14  17
ENDBRANCH  13  14
ENDBRANCH  12  13
ENDBRANCH  11  12
ENDBRANCH   8  11
ENDBRANCH   7   8
ENDBRANCH   6   7
ENDBRANCH   5   6
ENDBRANCH   4   5
ENDBRANCH   3   4
ENDBRANCH   2   3
TORSDOF 14
ENDMDL
MODEL        2
REMARK 921   NORMALIZED FREE ENERGY PREDICTED BY IDOCK:   -5.37 KCAL/MOL
REMARK 922        TOTAL FREE ENERGY PREDICTED BY IDOCK:  -11.62 KCAL/MOL
REMARK 923 INTER-LIGAND FREE ENERGY PREDICTED BY IDOCK:  -10.08 KCAL/MOL
REMARK 924 INTRA-LIGAND FREE ENERGY PREDICTED BY IDOCK:   -1.53 KCAL/MOL
REMARK 927      BINDING AFFINITY PREDICTED BY RF-SCORE:    0.00 PKD
ROOT
HETATM    1  C   UNL     1     -12.470  15.789  73.876  1.00  0.00    -0.751 C  
HETATM    2  C   UNL     1     -12.208  15.984  72.394  1.00  0.00    -0.603 C  
ENDROOT
BRANCH   2   3
HETATM    3  C   UNL     1     -13.386  15.498  71.551  1.00  0.00    -0.593 C  
BRANCH   3   4
HETATM    4  C   UNL     1     -13.795  14.094  71.978  1.00  0.00    -0.577 C  
BRANCH   4   5
HETATM    5  C   UNL     1     -12.866  13.028  71.403  1.00  0.00    -0.385 C  
BRANCH   5   6
HETATM    6  C   UNL     1     -13.279  11.657  71.935  1.00  0.00    -0.475 C  
BRANCH   6   7
HETATM    7  C   UNL     1     -12.938  10.540  70.947  1.00  0.00    -0.367 C  
BRANCH   7   8
HETATM    8  N   UNL     1     -11.643   9.892  71.223  1.00  0.00    -0.380 NA 
BRANCH   8   9
HETATM    9  C   UNL     1     -11.754   8.503  71.703  1.00  0.00    -0.306 C  
HETATM   10  C   UNL     1     -13.160   7.908  71.739  1.00  0.00    -0.352 C  
ENDBRANCH   8   9
BRANCH   8  11
HETATM   11  C   UNL     1     -10.718   9.993  70.081  1.00  0.00    -0.307 C  
BRANCH  11  12
HETATM   12  C   UNL     1     -11.282  10.748  68.868  1.00  0.00    -0.328 C  
BRANCH  12  13
HETATM   13  C   UNL     1     -10.335  11.843  68.365  1.00  0.00    -0.216 C  
BRANCH  13  14
HETATM   14  C   UNL     1     -10.756  12.394  66.995  1.00  0.00    -0.239 C  
HETATM   15  H   UNL     1     -12.349  12.333  65.839  1.00  0.00     0.000 HD 
HETATM   16  O   UNL     1     -12.088  11.993  66.687  1.00  0.00    -0.615 OA 
BRANCH  14  17
HETATM   17  C   UNL     1     -10.643  13.905  66.940  1.00  0.00    -0.280 A  
HETATM   18  C   UNL     1     -10.081  14.521  65.812  1.00  0.00    -0.365 A  
HETATM   19  C   UNL     1      -9.898  15.905  65.769  1.00  0.00    -0.380 A  
HETATM   20  C   UNL     1     -10.271  16.689  66.857  1.00  0.00    -0.291 A  
HETATM   21  C   UNL     1     -11.060  14.720  68.009  1.00  0.00    -0.294 A  
HETATM   22  C   UNL     1     -10.878  16.105  67.966  1.00  0.00    -0.333 A  
BRANCH  20  23
HETATM   23  N   UNL     1     -10.034  18.092  66.817  1.00  0.00    -0.332 N  
HETATM   24  H   UNL     1     -10.358  18.659  66.033  1.00  0.00     0.000 HD 
BRANCH  23  25
HETATM   25  S   UNL     1      -9.199  18.788  68.108  1.00  0.00    -0.326 S  
HETATM   26  C   UNL     1      -8.640  20.314  67.380  1.00  0.00    -0.343 C  
HETATM   27  O   UNL     1      -8.037  17.951  68.310  1.00  0.00    -0.273 OA 
HETATM   28  O   UNL     1     -10.109  19.080  69.193  1.00  0.00    -0.374 OA 
ENDBRANCH  23  25
ENDBRANCH  20  23
ENDBRANCH  14  17
ENDBRANCH  13  14
ENDBRANCH  12  13
ENDBRANCH  11  12
ENDBRANCH   8  11
ENDBRANCH   7   8
ENDBRANCH   6   7
ENDBRANCH   5   6
ENDBRANCH   4   5
ENDBRANCH   3   4
ENDBRANCH   2   3
TORSDOF 14
ENDMDL
MODEL        3
REMARK 921   NORMALIZED FREE ENERGY PREDICTED BY IDOCK:   -5.35 KCAL/MOL
REMARK 922        TOTAL FREE ENERGY PREDICTED BY IDOCK:  -11.59 KCAL/MOL
REMARK 923 INTER-LIGAND FREE ENERGY PREDICTED BY IDOCK:  -10.04 KCAL/MOL
REMARK 924 INTRA-LIGAND FREE ENERGY PREDICTED BY IDOCK:   -1.54 KCAL/MOL
REMARK 927      BINDING AFFINITY PREDICTED BY RF-SCORE:    0.00 PKD
ROOT
HETATM    1  C   UNL     1     -12.640  15.404  73.820  1.00  0.00    -0.747 C  
HETATM    2  C   UNL     1     -13.478  15.840  72.633  1.00  0.00    -0.624 C  
ENDROOT
BRANCH   2   3
HETATM    3  C   UNL     1     -13.839  14.654  71.740  1.00  0.00    -0.530 C  
BRANCH   3   4
HETATM    4  C   UNL     1     -13.413  13.349  72.401  1.00  0.00    -0.685 C  
BRANCH   4   5
HETATM    5  C   UNL     1     -12.969  12.308  71.377  1.00  0.00    -0.354 C  
BRANCH   5   6
HETATM    6  C   UNL     1     -13.155  10.911  71.964  1.00  0.00    -0.462 C  
BRANCH   6   7
HETATM    7  C   UNL     1     -12.649   9.824  71.013  1.00  0.00    -0.314 C  
BRANCH   7   8
HETATM    8  N   UNL     1     -11.186   9.840  70.834  1.00  0.00    -0.332 NA 
BRANCH   8   9
HETATM    9  C   UNL     1     -10.459   8.924  71.731  1.00  0.00    -0.360 C  
HETATM   10  C   UNL     1     -11.274   7.789  72.345  1.00  0.00    -0.392 C  
ENDBRANCH   8   9
BRANCH   8  11
HETATM   11  C   UNL     1     -10.797   9.635  69.427  1.00  0.00    -0.217 C  
BRANCH  11  12
HETATM   12  C   UNL     1     -10.560  10.931  68.635  1.00  0.00    -0.224 C  
BRANCH  12  13
HETATM   13  C   UNL     1     -11.726  11.267  67.697  1.00  0.00    -0.215 C  
BRANCH  13  14
HETATM   14  C   UNL     1     -11.286  12.138  66.512  1.00  0.00    -0.328 C  
HETATM   15  H   UNL     1     -12.088  12.839  64.856  1.00  0.00     0.000 HD 
HETATM   16  O   UNL     1     -12.360  12.300  65.590  1.00  0.00    -0.619 OA 
BRANCH  14  17
HETATM   17  C   UNL     1     -10.786  13.495  66.969  1.00  0.00    -0.278 A  
HETATM   18  C   UNL     1     -11.651  14.360  67.656  1.00  0.00    -0.396 A  
HETATM   19  C   UNL     1     -11.236  15.643  68.021  1.00  0.00    -0.339 A  
HETATM   20  C   UNL     1      -9.953  16.077  67.699  1.00  0.00    -0.239 A  
HETATM   21  C   UNL     1      -9.476  13.934  66.697  1.00  0.00    -0.296 A  
HETATM   22  C   UNL     1      -9.061  15.217  67.063  1.00  0.00    -0.249 A  
BRANCH  20  23
HETATM   23  N   UNL     1      -9.563  17.404  68.036  1.00  0.00    -0.268 N  
HETATM   24  H   UNL     1      -9.231  17.634  68.973  1.00  0.00     0.000 HD 
BRANCH  23  25
HETATM   25  S   UNL     1      -9.667  18.586  66.835  1.00  0.00    -0.339 S  
HETATM   26  C   UNL     1      -7.961  18.743  66.350  1.00  0.00    -0.282 C  
HETATM   27  O   UNL     1     -10.038  19.803  67.523  1.00  0.00    -0.367 OA 
HETATM   28  O   UNL     1     -10.439  18.094  65.715  1.00  0.00    -0.584 OA 
ENDBRANCH  23  25
ENDBRANCH  20  23
ENDBRANCH  14  17
ENDBRANCH  13  14
ENDBRANCH  12  13
ENDBRANCH  11  12
ENDBRANCH   8  11
ENDBRANCH   7   8
ENDBRANCH   6   7
ENDBRANCH   5   6
ENDBRANCH   4   5
ENDBRANCH   3   4
ENDBRANCH   2   3
TORSDOF 14
ENDMDL
MODEL        4
REMARK 921   NORMALIZED FREE ENERGY PREDICTED BY IDOCK:   -5.21 KCAL/MOL
REMARK 922        TOTAL FREE ENERGY PREDICTED BY IDOCK:  -11.32 KCAL/MOL
REMARK 923 INTER-LIGAND FREE ENERGY PREDICTED BY IDOCK:   -9.32 KCAL/MOL
REMARK 924 INTRA-LIGAND FREE ENERGY PREDICTED BY IDOCK:   -2.01 KCAL/MOL
REMARK 927      BINDING AFFINITY PREDICTED BY RF-SCORE:    0.00 PKD
ROOT
HETATM    1  C   UNL     1     -13.866  14.184  72.183  1.00  0.00    -0.613 C  
HETATM    2  C   UNL     1     -13.175  15.203  73.069  1.00  0.00    -0.604 C  
ENDROOT
BRANCH   2   3
HETATM    3  C   UNL     1     -11.992  15.852  72.353  1.00  0.00    -0.620 C  
BRANCH   3   4
HETATM    4  C   UNL     1     -12.101  15.633  70.849  1.00  0.00    -0.452 C  
BRANCH   4   5
HETATM    5  C   UNL     1     -10.763  15.833  70.143  1.00  0.00    -0.354 C  
BRANCH   5   6
HETATM    6  C   UNL     1     -11.006  16.442  68.764  1.00  0.00    -0.344 C  
BRANCH   6   7
HETATM    7  C   UNL     1      -9.769  17.178  68.243  1.00  0.00    -0.280 C  
BRANCH   7   8
HETATM    8  N   UNL     1      -9.612  17.091  66.780  1.00  0.00    -0.254 NA 
BRANCH   8   9
HETATM    9  C   UNL     1      -8.295  16.595  66.344  1.00  0.00    -0.318 C  
HETATM   10  C   UNL     1      -7.564  15.670  67.313  1.00  0.00    -0.247 C  
ENDBRANCH   8   9
BRANCH   8  11
HETATM   11  C   UNL     1     -10.708  16.334  66.149  1.00  0.00    -0.197 C  
BRANCH  11  12
HETATM   12  C   UNL     1     -10.278  15.466  64.955  1.00  0.00    -0.295 C  
BRANCH  12  13
HETATM   13  C   UNL     1     -10.750  14.014  65.085  1.00  0.00    -0.393 C  
BRANCH  13  14
HETATM   14  C   UNL     1     -11.937  13.871  66.049  1.00  0.00    -0.412 C  
HETATM   15  H   UNL     1     -13.874  13.543  65.920  1.00  0.00     0.000 HD 
HETATM   16  O   UNL     1     -13.139  13.632  65.324  1.00  0.00    -0.735 OA 
BRANCH  14  17
HETATM   17  C   UNL     1     -11.709  12.760  67.056  1.00  0.00    -0.440 A  
HETATM   18  C   UNL     1     -11.227  11.516  66.623  1.00  0.00    -0.336 A  
HETATM   19  C   UNL     1     -11.081  10.455  67.519  1.00  0.00    -0.336 A  
HETATM   20  C   UNL     1     -11.419  10.625  68.859  1.00  0.00    -0.265 A  
HETATM   21  C   UNL     1     -11.998  12.927  68.423  1.00  0.00    -0.289 A  
HETATM   22  C   UNL     1     -11.850  11.866  69.321  1.00  0.00    -0.379 A  
BRANCH  20  23
HETATM   23  N   UNL     1     -11.309   9.520  69.750  1.00  0.00    -0.418 N  
HETATM   24  H   UNL     1     -12.133   9.124  70.202  1.00  0.00     0.000 HD 
BRANCH  23  25
HETATM   25  S   UNL     1      -9.770   8.886  70.034  1.00  0.00    -0.183 S  
HETATM   26  C   UNL     1      -9.946   8.278  71.699  1.00  0.00    -0.212 C  
HETATM   27  O   UNL     1      -8.885  10.029  70.079  1.00  0.00    -0.192 OA 
HETATM   28  O   UNL     1      -9.514   7.776  69.144  1.00  0.00    -0.151 OA 
ENDBRANCH  23  25
ENDBRANCH  20  23
ENDBRANCH  14  17
ENDBRANCH  13  14
ENDBRANCH  12  13
ENDBRANCH  11  12
ENDBRANCH   8  11
ENDBRANCH   7   8
ENDBRANCH   6   7
ENDBRANCH   5   6
ENDBRANCH   4   5
ENDBRANCH   3   4
ENDBRANCH   2   3
TORSDOF 14
ENDMDL
MODEL        5
REMARK 921   NORMALIZED FREE ENERGY PREDICTED BY IDOCK:   -5.09 KCAL/MOL
REMARK 922        TOTAL FREE ENERGY PREDICTED BY IDOCK:  -11.11 KCAL/MOL
REMARK 923 INTER-LIGAND FREE ENERGY PREDICTED BY IDOCK:   -8.82 KCAL/MOL
REMARK 924 INTRA-LIGAND FREE ENERGY PREDICTED BY IDOCK:   -2.29 KCAL/MOL
REMARK 927      BINDING AFFINITY PREDICTED BY RF-SCORE:    0.00 PKD
ROOT
HETATM    1  C   UNL     1      -8.804   9.912  67.181  1.00  0.00    -0.146 C  
HETATM    2  C   UNL     1      -9.986   9.719  66.249  1.00  0.00    -0.331 C  
ENDROOT
BRANCH   2   3
HETATM    3  C   UNL     1     -10.820  10.994  66.135  1.00  0.00    -0.212 C  
BRANCH   3   4
HETATM    4  C   UNL     1     -10.833  11.487  64.693  1.00  0.00    -0.372 C  
BRANCH   4   5
HETATM    5  C   UNL     1     -11.662  12.758  64.531  1.00  0.00    -0.420 C  
BRANCH   5   6
HETATM    6  C   UNL     1     -12.013  13.312  65.910  1.00  0.00    -0.466 C  
BRANCH   6   7
HETATM    7  C   UNL     1     -11.476  14.732  66.104  1.00  0.00    -0.311 C  
BRANCH   7   8
HETATM    8  N   UNL     1     -10.511  14.843  67.213  1.00  0.00    -0.259 NA 
BRANCH   8   9
HETATM    9  C   UNL     1      -9.137  14.443  66.859  1.00  0.00    -0.251 C  
HETATM   10  C   UNL     1      -8.455  13.455  67.801  1.00  0.00    -0.181 C  
ENDBRANCH   8   9
BRANCH   8  11
HETATM   11  C   UNL     1     -10.537  16.178  67.839  1.00  0.00    -0.309 C  
BRANCH  11  12
HETATM   12  C   UNL     1     -10.913  16.176  69.329  1.00  0.00    -0.315 C  
BRANCH  12  13
HETATM   13  C   UNL     1     -12.284  15.541  69.588  1.00  0.00    -0.297 C  
BRANCH  13  14
HETATM   14  C   UNL     1     -12.378  14.907  70.982  1.00  0.00    -0.324 C  
HETATM   15  H   UNL     1     -13.550  15.044  72.559  1.00  0.00     0.000 HD 
HETATM   16  O   UNL     1     -13.492  15.437  71.695  1.00  0.00    -0.437 OA 
BRANCH  14  17
HETATM   17  C   UNL     1     -12.484  13.395  70.904  1.00  0.00    -0.439 A  
HETATM   18  C   UNL     1     -13.121  12.688  71.934  1.00  0.00    -0.470 A  
HETATM   19  C   UNL     1     -13.166  11.293  71.922  1.00  0.00    -0.491 A  
HETATM   20  C   UNL     1     -12.569  10.587  70.880  1.00  0.00    -0.398 A  
HETATM   21  C   UNL     1     -11.931  12.667  69.835  1.00  0.00    -0.365 A  
HETATM   22  C   UNL     1     -11.976  11.270  69.821  1.00  0.00    -0.431 A  
BRANCH  20  23
HETATM   23  N   UNL     1     -12.582   9.164  70.907  1.00  0.00    -0.498 N  
HETATM   24  H   UNL     1     -13.455   8.643  70.823  1.00  0.00     0.000 HD 
BRANCH  23  25
HETATM   25  S   UNL     1     -11.105   8.365  71.082  1.00  0.00    -0.266 S  
HETATM   26  C   UNL     1     -11.629   6.808  71.768  1.00  0.00    -0.297 C  
HETATM   27  O   UNL     1     -10.400   9.084  72.121  1.00  0.00    -0.316 OA 
HETATM   28  O   UNL     1     -10.502   8.139  69.787  1.00  0.00    -0.220 OA 
ENDBRANCH  23  25
ENDBRANCH  20  23
ENDBRANCH  14  17
ENDBRANCH  13  14
ENDBRANCH  12  13
ENDBRANCH  11  12
ENDBRANCH   8  11
ENDBRANCH   7   8
ENDBRANCH   6   7
ENDBRANCH   5   6
ENDBRANCH   4   5
ENDBRANCH   3   4
ENDBRANCH   2   3
TORSDOF 14
ENDMDL
MODEL        6
REMARK 921   NORMALIZED FREE ENERGY PREDICTED BY IDOCK:   -5.05 KCAL/MOL
REMARK 922        TOTAL FREE ENERGY PREDICTED BY IDOCK:  -11.04 KCAL/MOL
REMARK 923 INTER-LIGAND FREE ENERGY PREDICTED BY IDOCK:   -9.64 KCAL/MOL
REMARK 924 INTRA-LIGAND FREE ENERGY PREDICTED BY IDOCK:   -1.40 KCAL/MOL
REMARK 927      BINDING AFFINITY PREDICTED BY RF-SCORE:    0.00 PKD
ROOT
HETATM    1  C   UNL     1     -12.590  15.697  73.746  1.00  0.00    -0.743 C  
HETATM    2  C   UNL     1     -13.283  14.575  72.995  1.00  0.00    -0.575 C  
ENDROOT
BRANCH   2   3
HETATM    3  C   UNL     1     -13.968  15.090  71.731  1.00  0.00    -0.598 C  
BRANCH   3   4
HETATM    4  C   UNL     1     -12.929  15.586  70.733  1.00  0.00    -0.490 C  
BRANCH   4   5
HETATM    5  C   UNL     1     -12.000  14.467  70.270  1.00  0.00    -0.388 C  
BRANCH   5   6
HETATM    6  C   UNL     1     -11.948  14.453  68.744  1.00  0.00    -0.331 C  
BRANCH   6   7
HETATM    7  C   UNL     1     -10.673  15.114  68.215  1.00  0.00    -0.251 C  
BRANCH   7   8
HETATM    8  N   UNL     1     -10.933  16.309  67.393  1.00  0.00    -0.236 NA 
BRANCH   8   9
HETATM    9  C   UNL     1     -10.259  17.529  67.872  1.00  0.00    -0.350 C  
HETATM   10  C   UNL     1     -10.045  18.635  66.842  1.00  0.00    -0.399 C  
ENDBRANCH   8   9
BRANCH   8  11
HETATM   11  C   UNL     1     -10.660  16.071  65.964  1.00  0.00    -0.316 C  
BRANCH  11  12
HETATM   12  C   UNL     1     -10.089  14.680  65.648  1.00  0.00    -0.389 C  
BRANCH  12  13
HETATM   13  C   UNL     1     -10.993  13.874  64.708  1.00  0.00    -0.407 C  
BRANCH  13  14
HETATM   14  C   UNL     1     -12.014  13.020  65.473  1.00  0.00    -0.424 C  
HETATM   15  H   UNL     1     -13.745  12.157  65.102  1.00  0.00     0.000 HD 
HETATM   16  O   UNL     1     -13.112  12.685  64.629  1.00  0.00    -0.821 OA 
BRANCH  14  17
HETATM   17  C   UNL     1     -11.384  11.757  66.029  1.00  0.00    -0.335 A  
HETATM   18  C   UNL     1     -11.641  11.378  67.355  1.00  0.00    -0.266 A  
HETATM   19  C   UNL     1     -11.014  10.261  67.913  1.00  0.00    -0.350 A  
HETATM   20  C   UNL     1     -10.118   9.514  67.152  1.00  0.00    -0.229 A  
HETATM   21  C   UNL     1     -10.514  10.961  65.261  1.00  0.00    -0.299 A  
HETATM   22  C   UNL     1      -9.888   9.844  65.819  1.00  0.00    -0.356 A  
BRANCH  20  23
HETATM   23  N   UNL     1      -9.451   8.408  67.750  1.00  0.00    -0.147 N  
HETATM   24  H   UNL     1      -8.448   8.435  67.936  1.00  0.00     0.000 HD 
BRANCH  23  25
HETATM   25  S   UNL     1     -10.373   7.050  68.144  1.00  0.00    -0.202 S  
HETATM   26  C   UNL     1      -9.138   5.768  68.112  1.00  0.00    -0.110 C  
HETATM   27  O   UNL     1     -11.249   6.839  67.012  1.00  0.00    -0.393 OA 
HETATM   28  O   UNL     1     -10.900   7.174  69.485  1.00  0.00    -0.239 OA 
ENDBRANCH  23  25
ENDBRANCH  20  23
ENDBRANCH  14  17
ENDBRANCH  13  14
ENDBRANCH  12  13
ENDBRANCH  11  12
ENDBRANCH   8  11
ENDBRANCH   7   8
ENDBRANCH   6   7
ENDBRANCH   5   6
ENDBRANCH   4   5
ENDBRANCH   3   4
ENDBRANCH   2   3
TORSDOF 14
ENDMDL
MODEL        7
REMARK 921   NORMALIZED FREE ENERGY PREDICTED BY IDOCK:   -5.04 KCAL/MOL
REMARK 922        TOTAL FREE ENERGY PREDICTED BY IDOCK:  -11.02 KCAL/MOL
REMARK 923 INTER-LIGAND FREE ENERGY PREDICTED BY IDOCK:   -9.44 KCAL/MOL
REMARK 924 INTRA-LIGAND FREE ENERGY PREDICTED BY IDOCK:   -1.59 KCAL/MOL
REMARK 927      BINDING AFFINITY PREDICTED BY RF-SCORE:    0.00 PKD
ROOT
HETATM    1  C   UNL     1     -12.106  12.757  63.393  1.00  0.00    -0.619 C  
HETATM    2  C   UNL     1     -11.237  13.076  64.595  1.00  0.00    -0.355 C  
ENDROOT
BRANCH   2   3
HETATM    3  C   UNL     1     -11.055  11.852  65.491  1.00  0.00    -0.356 C  
BRANCH   3   4
HETATM    4  C   UNL     1     -11.397  12.201  66.935  1.00  0.00    -0.402 C  
BRANCH   4   5
HETATM    5  C   UNL     1     -11.808  13.662  67.088  1.00  0.00    -0.435 C  
BRANCH   5   6
HETATM    6  C   UNL     1     -11.809  14.034  68.569  1.00  0.00    -0.399 C  
BRANCH   6   7
HETATM    7  C   UNL     1     -11.854  12.794  69.465  1.00  0.00    -0.316 C  
BRANCH   7   8
HETATM    8  N   UNL     1     -12.219  13.096  70.861  1.00  0.00    -0.320 NA 
BRANCH   8   9
HETATM    9  C   UNL     1     -13.029  14.317  71.021  1.00  0.00    -0.342 C  
HETATM   10  C   UNL     1     -14.182  14.240  72.018  1.00  0.00    -0.631 C  
ENDBRANCH   8   9
BRANCH   8  11
HETATM   11  C   UNL     1     -12.847  11.944  71.532  1.00  0.00    -0.316 C  
BRANCH  11  12
HETATM   12  C   UNL     1     -12.684  10.608  70.790  1.00  0.00    -0.468 C  
BRANCH  12  13
HETATM   13  C   UNL     1     -11.648   9.692  71.452  1.00  0.00    -0.472 C  
BRANCH  13  14
HETATM   14  C   UNL     1     -10.352   9.593  70.634  1.00  0.00    -0.297 C  
HETATM   15  H   UNL     1      -8.446   9.238  70.980  1.00  0.00     0.000 HD 
HETATM   16  O   UNL     1      -9.249   9.299  71.486  1.00  0.00    -0.305 OA 
BRANCH  14  17
HETATM   17  C   UNL     1     -10.458   8.546  69.542  1.00  0.00    -0.222 A  
HETATM   18  C   UNL     1     -10.275   8.918  68.201  1.00  0.00    -0.245 A  
HETATM   19  C   UNL     1     -10.441   7.988  67.172  1.00  0.00    -0.408 A  
HETATM   20  C   UNL     1     -10.796   6.676  67.472  1.00  0.00    -0.342 A  
HETATM   21  C   UNL     1     -10.767   7.204  69.828  1.00  0.00    -0.257 A  
HETATM   22  C   UNL     1     -10.932   6.273  68.799  1.00  0.00    -0.424 A  
BRANCH  20  23
HETATM   23  N   UNL     1     -11.008   5.753  66.410  1.00  0.00    -0.740 N  
HETATM   24  H   UNL     1     -11.917   5.676  65.952  1.00  0.00     0.000 HD 
BRANCH  23  25
HETATM   25  S   UNL     1      -9.708   4.788  65.931  1.00  0.00    -0.206 S  
HETATM   26  C   UNL     1     -10.379   3.987  64.490  1.00  0.00    -0.206 C  
HETATM   27  O   UNL     1      -9.572   3.785  66.964  1.00  0.00    -0.206 OA 
HETATM   28  O   UNL     1      -8.588   5.617  65.541  1.00  0.00    -0.144 OA 
ENDBRANCH  23  25
ENDBRANCH  20  23
ENDBRANCH  14  17
ENDBRANCH  13  14
ENDBRANCH  12  13
ENDBRANCH  11  12
ENDBRANCH   8  11
ENDBRANCH   7   8
ENDBRANCH   6   7
ENDBRANCH   5   6
ENDBRANCH   4   5
ENDBRANCH   3   4
ENDBRANCH   2   3
TORSDOF 14
ENDMDL
MODEL        8
REMARK 921   NORMALIZED FREE ENERGY PREDICTED BY IDOCK:   -5.02 KCAL/MOL
REMARK 922        TOTAL FREE ENERGY PREDICTED BY IDOCK:  -10.98 KCAL/MOL
REMARK 923 INTER-LIGAND FREE ENERGY PREDICTED BY IDOCK:   -9.01 KCAL/MOL
REMARK 924 INTRA-LIGAND FREE ENERGY PREDICTED BY IDOCK:   -1.97 KCAL/MOL
REMARK 927      BINDING AFFINITY PREDICTED BY RF-SCORE:    0.00 PKD
ROOT
HETATM    1  C   UNL     1     -12.367  14.301  64.991  1.00  0.00    -0.434 C  
HETATM    2  C   UNL     1     -12.082  13.079  65.843  1.00  0.00    -0.503 C  
ENDROOT
BRANCH   2   3
HETATM    3  C   UNL     1     -11.047  12.169  65.184  1.00  0.00    -0.369 C  
BRANCH   3   4
HETATM    4  C   UNL     1      -9.695  12.325  65.870  1.00  0.00    -0.247 C  
BRANCH   4   5
HETATM    5  C   UNL     1      -9.811  13.063  67.201  1.00  0.00    -0.230 C  
BRANCH   5   6
HETATM    6  C   UNL     1      -8.741  14.149  67.272  1.00  0.00    -0.229 C  
BRANCH   6   7
HETATM    7  C   UNL     1      -9.324  15.538  67.002  1.00  0.00    -0.224 C  
BRANCH   7   8
HETATM    8  N   UNL     1      -9.063  16.501  68.088  1.00  0.00    -0.203 NA 
BRANCH   8   9
HETATM    9  C   UNL     1      -9.409  17.894  67.754  1.00  0.00    -0.262 C  
HETATM   10  C   UNL     1     -10.036  18.126  66.382  1.00  0.00    -0.392 C  
ENDBRANCH   8   9
BRANCH   8  11
HETATM   11  C   UNL     1      -9.682  16.084  69.359  1.00  0.00    -0.248 C  
BRANCH  11  12
HETATM   12  C   UNL     1     -11.135  16.546  69.543  1.00  0.00    -0.245 C  
BRANCH  12  13
HETATM   13  C   UNL     1     -12.128  15.378  69.545  1.00  0.00    -0.332 C  
BRANCH  13  14
HETATM   14  C   UNL     1     -12.378  14.829  70.957  1.00  0.00    -0.330 C  
HETATM   15  H   UNL     1     -13.736  15.030  72.368  1.00  0.00     0.000 HD 
HETATM   16  O   UNL     1     -13.581  15.370  71.494  1.00  0.00    -0.464 OA 
BRANCH  14  17
HETATM   17  C   UNL     1     -12.442  13.314  70.965  1.00  0.00    -0.422 A  
HETATM   18  C   UNL     1     -11.886  12.588  69.900  1.00  0.00    -0.373 A  
HETATM   19  C   UNL     1     -11.998  11.197  69.848  1.00  0.00    -0.439 A  
HETATM   20  C   UNL     1     -12.672  10.515  70.858  1.00  0.00    -0.402 A  
HETATM   21  C   UNL     1     -13.075  12.603  72.001  1.00  0.00    -0.471 A  
HETATM   22  C   UNL     1     -13.187  11.211  71.949  1.00  0.00    -0.488 A  
BRANCH  20  23
HETATM   23  N   UNL     1     -12.819   9.102  70.765  1.00  0.00    -0.498 N  
HETATM   24  H   UNL     1     -13.726   8.679  70.570  1.00  0.00     0.000 HD 
BRANCH  23  25
HETATM   25  S   UNL     1     -11.443   8.150  70.987  1.00  0.00    -0.276 S  
HETATM   26  C   UNL     1     -12.151   6.670  71.678  1.00  0.00    -0.355 C  
HETATM   27  O   UNL     1     -10.689   8.802  72.035  1.00  0.00    -0.325 OA 
HETATM   28  O   UNL     1     -10.837   7.841  69.711  1.00  0.00    -0.249 OA 
ENDBRANCH  23  25
ENDBRANCH  20  23
ENDBRANCH  14  17
ENDBRANCH  13  14
ENDBRANCH  12  13
ENDBRANCH  11  12
ENDBRANCH   8  11
ENDBRANCH   7   8
ENDBRANCH   6   7
ENDBRANCH   5   6
ENDBRANCH   4   5
ENDBRANCH   3   4
ENDBRANCH   2   3
TORSDOF 14
ENDMDL
MODEL        9
REMARK 921   NORMALIZED FREE ENERGY PREDICTED BY IDOCK:   -5.01 KCAL/MOL
REMARK 922        TOTAL FREE ENERGY PREDICTED BY IDOCK:  -10.96 KCAL/MOL
REMARK 923 INTER-LIGAND FREE ENERGY PREDICTED BY IDOCK:  -10.07 KCAL/MOL
REMARK 924 INTRA-LIGAND FREE ENERGY PREDICTED BY IDOCK:   -0.89 KCAL/MOL
REMARK 927      BINDING AFFINITY PREDICTED BY RF-SCORE:    0.00 PKD
ROOT
HETATM    1  C   UNL     1      -9.056   8.309  71.536  1.00  0.00    -0.229 C  
HETATM    2  C   UNL     1     -10.298   8.834  70.839  1.00  0.00    -0.281 C  
ENDROOT
BRANCH   2   3
HETATM    3  C   UNL     1     -11.408   9.148  71.841  1.00  0.00    -0.416 C  
BRANCH   3   4
HETATM    4  C   UNL     1     -12.627   9.706  71.118  1.00  0.00    -0.411 C  
BRANCH   4   5
HETATM    5  C   UNL     1     -13.369  10.740  71.960  1.00  0.00    -0.403 C  
BRANCH   5   6
HETATM    6  C   UNL     1     -12.959  12.142  71.517  1.00  0.00    -0.398 C  
BRANCH   6   7
HETATM    7  C   UNL     1     -13.716  13.225  72.288  1.00  0.00    -0.589 C  
BRANCH   7   8
HETATM    8  N   UNL     1     -13.406  14.592  71.830  1.00  0.00    -0.339 NA 
BRANCH   8   9
HETATM    9  C   UNL     1     -13.708  15.642  72.819  1.00  0.00    -0.578 C  
HETATM   10  C   UNL     1     -12.633  15.916  73.867  1.00  0.00    -0.746 C  
ENDBRANCH   8   9
BRANCH   8  11
HETATM   11  C   UNL     1     -12.025  14.708  71.329  1.00  0.00    -0.343 C  
BRANCH  11  12
HETATM   12  C   UNL     1     -11.854  15.679  70.149  1.00  0.00    -0.381 C  
BRANCH  12  13
HETATM   13  C   UNL     1     -10.394  16.093  69.937  1.00  0.00    -0.209 C  
BRANCH  13  14
HETATM   14  C   UNL     1     -10.195  16.877  68.632  1.00  0.00    -0.301 C  
HETATM   15  H   UNL     1      -8.894  18.160  67.898  1.00  0.00     0.000 HD 
HETATM   16  O   UNL     1      -9.017  17.675  68.706  1.00  0.00    -0.276 OA 
BRANCH  14  17
HETATM   17  C   UNL     1     -10.121  15.953  67.430  1.00  0.00    -0.252 A  
HETATM   18  C   UNL     1     -10.612  16.385  66.189  1.00  0.00    -0.259 A  
HETATM   19  C   UNL     1     -10.623  15.527  65.087  1.00  0.00    -0.455 A  
HETATM   20  C   UNL     1     -10.147  14.225  65.215  1.00  0.00    -0.349 A  
HETATM   21  C   UNL     1      -9.598  14.650  67.527  1.00  0.00    -0.206 A  
HETATM   22  C   UNL     1      -9.608  13.792  66.424  1.00  0.00    -0.285 A  
BRANCH  20  23
HETATM   23  N   UNL     1     -10.209  13.349  64.095  1.00  0.00    -0.644 N  
HETATM   24  H   UNL     1      -9.369  13.100  63.573  1.00  0.00     0.000 HD 
BRANCH  23  25
HETATM   25  S   UNL     1     -11.719  12.733  63.659  1.00  0.00    -0.533 S  
HETATM   26  C   UNL     1     -12.518  12.612  65.245  1.00  0.00    -0.416 C  
HETATM   27  O   UNL     1     -11.466  11.387  63.195  1.00  0.00    -0.156 OA 
HETATM   28  O   UNL     1     -12.430  13.687  62.836  1.00  0.00    -0.610 OA 
ENDBRANCH  23  25
ENDBRANCH  20  23
ENDBRANCH  14  17
ENDBRANCH  13  14
ENDBRANCH  12  13
ENDBRANCH  11  12
ENDBRANCH   8  11
ENDBRANCH   7   8
ENDBRANCH   6   7
ENDBRANCH   5   6
ENDBRANCH   4   5
ENDBRANCH   3   4
ENDBRANCH   2   3
TORSDOF 14
ENDMDL
MODEL       10
REMARK 921   NORMALIZED FREE ENERGY PREDICTED BY IDOCK:   -4.98 KCAL/MOL
REMARK 922        TOTAL FREE ENERGY PREDICTED BY IDOCK:  -10.91 KCAL/MOL
REMARK 923 INTER-LIGAND FREE ENERGY PREDICTED BY IDOCK:   -9.60 KCAL/MOL
REMARK 924 INTRA-LIGAND FREE ENERGY PREDICTED BY IDOCK:   -1.31 KCAL/MOL
REMARK 927      BINDING AFFINITY PREDICTED BY RF-SCORE:    0.00 PKD
ROOT
HETATM    1  C   UNL     1     -10.783  19.372  67.048  1.00  0.00    -0.582 C  
HETATM    2  C   UNL     1      -9.738  19.730  68.089  1.00  0.00    -0.506 C  
ENDROOT
BRANCH   2   3
HETATM    3  C   UNL     1      -8.397  19.066  67.781  1.00  0.00    -0.318 C  
BRANCH   3   4
HETATM    4  C   UNL     1      -8.399  18.504  66.365  1.00  0.00    -0.278 C  
BRANCH   4   5
HETATM    5  C   UNL     1      -7.490  17.285  66.232  1.00  0.00    -0.354 C  
BRANCH   5   6
HETATM    6  C   UNL     1      -8.295  16.020  66.523  1.00  0.00    -0.348 C  
BRANCH   6   7
HETATM    7  C   UNL     1      -9.640  16.023  65.793  1.00  0.00    -0.276 C  
BRANCH   7   8
HETATM    8  N   UNL     1     -10.768  15.609  66.646  1.00  0.00    -0.308 NA 
BRANCH   8   9
HETATM    9  C   UNL     1     -11.299  14.270  66.335  1.00  0.00    -0.343 C  
HETATM   10  C   UNL     1     -11.156  13.804  64.888  1.00  0.00    -0.364 C  
ENDBRANCH   8   9
BRANCH   8  11
HETATM   11  C   UNL     1     -10.456  15.742  68.081  1.00  0.00    -0.263 C  
BRANCH  11  12
HETATM   12  C   UNL     1     -11.687  15.774  69.001  1.00  0.00    -0.405 C  
BRANCH  12  13
HETATM   13  C   UNL     1     -11.331  15.497  70.466  1.00  0.00    -0.372 C  
BRANCH  13  14
HETATM   14  C   UNL     1     -12.524  14.946  71.260  1.00  0.00    -0.329 C  
HETATM   15  H   UNL     1     -14.482  15.157  71.262  1.00  0.00     0.000 HD 
HETATM   16  O   UNL     1     -13.743  15.498  70.771  1.00  0.00    -0.475 OA 
BRANCH  14  17
HETATM   17  C   UNL     1     -12.581  13.431  71.205  1.00  0.00    -0.411 A  
HETATM   18  C   UNL     1     -11.920  12.747  70.175  1.00  0.00    -0.371 A  
HETATM   19  C   UNL     1     -12.020  11.358  70.060  1.00  0.00    -0.442 A  
HETATM   20  C   UNL     1     -12.787  10.639  70.972  1.00  0.00    -0.402 A  
HETATM   21  C   UNL     1     -13.311  12.681  72.146  1.00  0.00    -0.570 A  
HETATM   22  C   UNL     1     -13.410  11.292  72.032  1.00  0.00    -0.386 A  
BRANCH  20  23
HETATM   23  N   UNL     1     -12.917   9.230  70.812  1.00  0.00    -0.519 N  
HETATM   24  H   UNL     1     -13.680   8.830  70.265  1.00  0.00     0.000 HD 
BRANCH  23  25
HETATM   25  S   UNL     1     -11.770   8.242  71.558  1.00  0.00    -0.307 S  
HETATM   26  C   UNL     1     -11.256   7.215  70.197  1.00  0.00    -0.262 C  
HETATM   27  O   UNL     1     -12.516   7.409  72.475  1.00  0.00    -0.063 OA 
HETATM   28  O   UNL     1     -10.647   9.034  72.011  1.00  0.00    -0.345 OA 
ENDBRANCH  23  25
ENDBRANCH  20  23
ENDBRANCH  14  17
ENDBRANCH  13  14
ENDBRANCH  12  13
ENDBRANCH  11  12
ENDBRANCH   8  11
ENDBRANCH   7   8
ENDBRANCH   6   7
ENDBRANCH   5   6
ENDBRANCH   4   5
ENDBRANCH   3   4
ENDBRANCH   2   3
TORSDOF 14
ENDMDL
MODEL       11
REMARK 921   NORMALIZED FREE ENERGY PREDICTED BY IDOCK:   -4.97 KCAL/MOL
REMARK 922        TOTAL FREE ENERGY PREDICTED BY IDOCK:  -10.89 KCAL/MOL
REMARK 923 INTER-LIGAND FREE ENERGY PREDICTED BY IDOCK:   -8.82 KCAL/MOL
REMARK 924 INTRA-LIGAND FREE ENERGY PREDICTED BY IDOCK:   -2.07 KCAL/MOL
REMARK 927      BINDING AFFINITY PREDICTED BY RF-SCORE:    0.00 PKD
ROOT
HETATM    1  C   UNL     1     -12.536  15.724  73.794  1.00  0.00    -0.733 C  
HETATM    2  C   UNL     1     -12.144  16.004  72.355  1.00  0.00    -0.629 C  
ENDROOT
BRANCH   2   3
HETATM    3  C   UNL     1     -13.178  15.448  71.378  1.00  0.00    -0.578 C  
BRANCH   3   4
HETATM    4  C   UNL     1     -12.642  14.192  70.702  1.00  0.00    -0.421 C  
BRANCH   4   5
HETATM    5  C   UNL     1     -11.563  14.514  69.671  1.00  0.00    -0.346 C  
BRANCH   5   6
HETATM    6  C   UNL     1     -12.001  13.995  68.303  1.00  0.00    -0.384 C  
BRANCH   6   7
HETATM    7  C   UNL     1     -11.694  12.505  68.137  1.00  0.00    -0.348 C  
BRANCH   7   8
HETATM    8  N   UNL     1     -11.823  12.035  66.746  1.00  0.00    -0.614 NA 
BRANCH   8   9
HETATM    9  C   UNL     1     -12.115  13.103  65.773  1.00  0.00    -0.447 C  
HETATM   10  C   UNL     1     -12.270  12.670  64.317  1.00  0.00    -0.524 C  
ENDBRANCH   8   9
BRANCH   8  11
HETATM   11  C   UNL     1     -10.664  11.228  66.324  1.00  0.00    -0.257 C  
BRANCH  11  12
HETATM   12  C   UNL     1      -9.594  11.031  67.410  1.00  0.00    -0.180 C  
BRANCH  12  13
HETATM   13  C   UNL     1      -8.329  11.855  67.145  1.00  0.00    -0.174 C  
BRANCH  13  14
HETATM   14  C   UNL     1      -8.006  12.813  68.299  1.00  0.00    -0.151 C  
HETATM   15  H   UNL     1      -6.446  13.260  69.416  1.00  0.00     0.000 HD 
HETATM   16  O   UNL     1      -6.647  12.666  68.701  1.00  0.00    -0.072 OA 
BRANCH  14  17
HETATM   17  C   UNL     1      -8.282  14.257  67.923  1.00  0.00    -0.156 A  
HETATM   18  C   UNL     1      -8.833  14.555  66.668  1.00  0.00    -0.214 A  
HETATM   19  C   UNL     1      -9.027  15.880  66.269  1.00  0.00    -0.381 A  
HETATM   20  C   UNL     1      -8.668  16.922  67.121  1.00  0.00    -0.201 A  
HETATM   21  C   UNL     1      -7.972  15.322  68.789  1.00  0.00    -0.158 A  
HETATM   22  C   UNL     1      -8.167  16.647  68.391  1.00  0.00    -0.206 A  
BRANCH  20  23
HETATM   23  N   UNL     1      -8.827  18.266  66.680  1.00  0.00    -0.277 N  
HETATM   24  H   UNL     1      -8.072  18.756  66.200  1.00  0.00     0.000 HD 
BRANCH  23  25
HETATM   25  S   UNL     1     -10.306  19.023  66.978  1.00  0.00    -0.436 S  
HETATM   26  C   UNL     1      -9.940  19.931  68.465  1.00  0.00    -0.395 C  
HETATM   27  O   UNL     1     -11.220  17.958  67.331  1.00  0.00    -0.036 OA 
HETATM   28  O   UNL     1     -10.616  19.952  65.914  1.00  0.00    -0.496 OA 
ENDBRANCH  23  25
ENDBRANCH  20  23
ENDBRANCH  14  17
ENDBRANCH  13  14
ENDBRANCH  12  13
ENDBRANCH  11  12
ENDBRANCH   8  11
ENDBRANCH   7   8
ENDBRANCH   6   7
ENDBRANCH   5   6
ENDBRANCH   4   5
ENDBRANCH   3   4
ENDBRANCH   2   3
TORSDOF 14
ENDMDL
MODEL       12
REMARK 921   NORMALIZED FREE ENERGY PREDICTED BY IDOCK:   -4.93 KCAL/MOL
REMARK 922        TOTAL FREE ENERGY PREDICTED BY IDOCK:  -10.82 KCAL/MOL
REMARK 923 INTER-LIGAND FREE ENERGY PREDICTED BY IDOCK:   -9.24 KCAL/MOL
REMARK 924 INTRA-LIGAND FREE ENERGY PREDICTED BY IDOCK:   -1.58 KCAL/MOL
REMARK 927      BINDING AFFINITY PREDICTED BY RF-SCORE:    0.00 PKD
ROOT
HETATM    1  C   UNL     1      -9.584   8.550  72.110  1.00  0.00    -0.382 C  
HETATM    2  C   UNL     1     -11.048   8.650  71.727  1.00  0.00    -0.396 C  
ENDROOT
BRANCH   2   3
HETATM    3  C   UNL     1     -11.322   9.904  70.898  1.00  0.00    -0.446 C  
BRANCH   3   4
HETATM    4  C   UNL     1     -12.822  10.099  70.719  1.00  0.00    -0.388 C  
BRANCH   4   5
HETATM    5  C   UNL     1     -13.398  11.078  71.739  1.00  0.00    -0.400 C  
BRANCH   5   6
HETATM    6  C   UNL     1     -13.001  12.501  71.354  1.00  0.00    -0.347 C  
BRANCH   6   7
HETATM    7  C   UNL     1     -13.638  13.538  72.282  1.00  0.00    -0.592 C  
BRANCH   7   8
HETATM    8  N   UNL     1     -13.123  14.903  72.071  1.00  0.00    -0.317 NA 
BRANCH   8   9
HETATM    9  C   UNL     1     -13.396  15.829  73.185  1.00  0.00    -0.587 C  
HETATM   10  C   UNL     1     -12.475  15.723  74.397  1.00  0.00    -0.790 C  
ENDBRANCH   8   9
BRANCH   8  11
HETATM   11  C   UNL     1     -11.694  14.907  71.709  1.00  0.00    -0.330 C  
BRANCH  11  12
HETATM   12  C   UNL     1     -11.282  16.035  70.749  1.00  0.00    -0.381 C  
BRANCH  12  13
HETATM   13  C   UNL     1     -12.069  16.004  69.434  1.00  0.00    -0.090 C  
BRANCH  13  14
HETATM   14  C   UNL     1     -11.165  16.204  68.210  1.00  0.00    -0.343 C  
HETATM   15  H   UNL     1      -9.319  16.791  67.855  1.00  0.00     0.000 HD 
HETATM   16  O   UNL     1      -9.879  16.667  68.613  1.00  0.00    -0.231 OA 
BRANCH  14  17
HETATM   17  C   UNL     1     -11.027  14.928  67.401  1.00  0.00    -0.314 A  
HETATM   18  C   UNL     1     -10.642  14.997  66.054  1.00  0.00    -0.329 A  
HETATM   19  C   UNL     1     -10.580  13.844  65.268  1.00  0.00    -0.372 A  
HETATM   20  C   UNL     1     -10.908  12.608  65.820  1.00  0.00    -0.274 A  
HETATM   21  C   UNL     1     -11.305  13.665  67.954  1.00  0.00    -0.325 A  
HETATM   22  C   UNL     1     -11.243  12.511  67.169  1.00  0.00    -0.352 A  
BRANCH  20  23
HETATM   23  N   UNL     1     -10.886  11.450  64.994  1.00  0.00    -0.275 N  
HETATM   24  H   UNL     1     -11.625  11.274  64.313  1.00  0.00     0.000 HD 
BRANCH  23  25
HETATM   25  S   UNL     1      -9.598  10.374  65.177  1.00  0.00    -0.298 S  
HETATM   26  C   UNL     1      -9.275   9.925  63.485  1.00  0.00    -0.238 C  
HETATM   27  O   UNL     1     -10.156   9.214  65.837  1.00  0.00    -0.273 OA 
HETATM   28  O   UNL     1      -8.446  11.061  65.718  1.00  0.00    -0.169 OA 
ENDBRANCH  23  25
ENDBRANCH  20  23
ENDBRANCH  14  17
ENDBRANCH  13  14
ENDBRANCH  12  13
ENDBRANCH  11  12
ENDBRANCH   8  11
ENDBRANCH   7   8
ENDBRANCH   6   7
ENDBRANCH   5   6
ENDBRANCH   4   5
ENDBRANCH   3   4
ENDBRANCH   2   3
TORSDOF 14
ENDMDL
MODEL       13
REMARK 921   NORMALIZED FREE ENERGY PREDICTED BY IDOCK:   -4.92 KCAL/MOL
REMARK 922        TOTAL FREE ENERGY PREDICTED BY IDOCK:  -10.80 KCAL/MOL
REMARK 923 INTER-LIGAND FREE ENERGY PREDICTED BY IDOCK:   -9.52 KCAL/MOL
REMARK 924 INTRA-LIGAND FREE ENERGY PREDICTED BY IDOCK:   -1.28 KCAL/MOL
REMARK 927      BINDING AFFINITY PREDICTED BY RF-SCORE:    0.00 PKD
ROOT
HETATM    1  C   UNL     1     -12.222   8.079  72.010  1.00  0.00    -0.374 C  
HETATM    2  C   UNL     1     -13.341   9.102  72.084  1.00  0.00    -0.525 C  
ENDROOT
BRANCH   2   3
HETATM    3  C   UNL     1     -12.890  10.460  71.551  1.00  0.00    -0.569 C  
BRANCH   3   4
HETATM    4  C   UNL     1     -11.614  10.308  70.732  1.00  0.00    -0.446 C  
BRANCH   4   5
HETATM    5  C   UNL     1     -11.507  11.365  69.636  1.00  0.00    -0.380 C  
BRANCH   5   6
HETATM    6  C   UNL     1     -11.604  10.689  68.271  1.00  0.00    -0.245 C  
BRANCH   6   7
HETATM    7  C   UNL     1     -10.246  10.633  67.568  1.00  0.00    -0.199 C  
BRANCH   7   8
HETATM    8  N   UNL     1      -9.968  11.820  66.740  1.00  0.00    -0.199 NA 
BRANCH   8   9
HETATM    9  C   UNL     1      -8.635  12.408  66.958  1.00  0.00    -0.191 C  
HETATM   10  C   UNL     1      -7.746  11.711  67.985  1.00  0.00    -0.121 C  
ENDBRANCH   8   9
BRANCH   8  11
HETATM   11  C   UNL     1     -10.218  11.570  65.309  1.00  0.00    -0.267 C  
BRANCH  11  12
HETATM   12  C   UNL     1     -10.325  12.838  64.448  1.00  0.00    -0.388 C  
BRANCH  12  13
HETATM   13  C   UNL     1     -11.255  13.889  65.064  1.00  0.00    -0.342 C  
BRANCH  13  14
HETATM   14  C   UNL     1     -10.490  15.126  65.557  1.00  0.00    -0.379 C  
HETATM   15  H   UNL     1     -10.373  17.035  65.090  1.00  0.00     0.000 HD 
HETATM   16  O   UNL     1     -10.846  16.270  64.785  1.00  0.00    -0.671 OA 
BRANCH  14  17
HETATM   17  C   UNL     1     -10.745  15.393  67.028  1.00  0.00    -0.321 A  
HETATM   18  C   UNL     1     -11.779  14.714  67.689  1.00  0.00    -0.389 A  
HETATM   19  C   UNL     1     -12.082  14.997  69.023  1.00  0.00    -0.243 A  
HETATM   20  C   UNL     1     -11.356  15.966  69.710  1.00  0.00    -0.347 A  
HETATM   21  C   UNL     1      -9.990  16.333  67.753  1.00  0.00    -0.246 A  
HETATM   22  C   UNL     1     -10.292  16.616  69.088  1.00  0.00    -0.326 A  
BRANCH  20  23
HETATM   23  N   UNL     1     -11.708  16.277  71.054  1.00  0.00    -0.599 N  
HETATM   24  H   UNL     1     -11.290  17.072  71.538  1.00  0.00     0.000 HD 
BRANCH  23  25
HETATM   25  S   UNL     1     -12.841  15.288  71.821  1.00  0.00    -0.418 S  
HETATM   26  C   UNL     1     -12.716  15.855  73.504  1.00  0.00    -0.585 C  
HETATM   27  O   UNL     1     -12.286  13.954  71.768  1.00  0.00    -0.204 OA 
HETATM   28  O   UNL     1     -14.169  15.566  71.319  1.00  0.00    -0.544 OA 
ENDBRANCH  23  25
ENDBRANCH  20  23
ENDBRANCH  14  17
ENDBRANCH  13  14
ENDBRANCH  12  13
ENDBRANCH  11  12
ENDBRANCH   8  11
ENDBRANCH   7   8
ENDBRANCH   6   7
ENDBRANCH   5   6
ENDBRANCH   4   5
ENDBRANCH   3   4
ENDBRANCH   2   3
TORSDOF 14
ENDMDL
MODEL       14
REMARK 921   NORMALIZED FREE ENERGY PREDICTED BY IDOCK:   -4.90 KCAL/MOL
REMARK 922        TOTAL FREE ENERGY PREDICTED BY IDOCK:  -10.76 KCAL/MOL
REMARK 923 INTER-LIGAND FREE ENERGY PREDICTED BY IDOCK:   -9.47 KCAL/MOL
REMARK 924 INTRA-LIGAND FREE ENERGY PREDICTED BY IDOCK:   -1.29 KCAL/MOL
REMARK 927      BINDING AFFINITY PREDICTED BY RF-SCORE:    0.00 PKD
ROOT
HETATM    1  C   UNL     1     -14.243  14.303  71.920  1.00  0.00    -0.597 C  
HETATM    2  C   UNL     1     -13.856  15.554  72.687  1.00  0.00    -0.654 C  
ENDROOT
BRANCH   2   3
HETATM    3  C   UNL     1     -12.388  15.913  72.462  1.00  0.00    -0.575 C  
BRANCH   3   4
HETATM    4  C   UNL     1     -11.756  14.948  71.468  1.00  0.00    -0.394 C  
BRANCH   4   5
HETATM    5  C   UNL     1     -10.929  15.675  70.411  1.00  0.00    -0.366 C  
BRANCH   5   6
HETATM    6  C   UNL     1     -10.704  14.747  69.219  1.00  0.00    -0.263 C  
BRANCH   6   7
HETATM    7  C   UNL     1     -12.025  14.237  68.640  1.00  0.00    -0.313 C  
BRANCH   7   8
HETATM    8  N   UNL     1     -11.975  12.821  68.232  1.00  0.00    -0.293 NA 
BRANCH   8   9
HETATM    9  C   UNL     1     -11.496  12.607  66.855  1.00  0.00    -0.343 C  
HETATM   10  C   UNL     1     -12.395  13.129  65.736  1.00  0.00    -0.496 C  
ENDBRANCH   8   9
BRANCH   8  11
HETATM   11  C   UNL     1     -11.227  11.993  69.195  1.00  0.00    -0.246 C  
BRANCH  11  12
HETATM   12  C   UNL     1     -12.046  11.531  70.411  1.00  0.00    -0.471 C  
BRANCH  12  13
HETATM   13  C   UNL     1     -11.806  10.057  70.756  1.00  0.00    -0.435 C  
BRANCH  13  14
HETATM   14  C   UNL     1     -10.413   9.578  70.322  1.00  0.00    -0.268 C  
HETATM   15  H   UNL     1      -8.821   8.797  71.177  1.00  0.00     0.000 HD 
HETATM   16  O   UNL     1      -9.683   9.094  71.445  1.00  0.00    -0.295 OA 
BRANCH  14  17
HETATM   17  C   UNL     1     -10.498   8.502  69.256  1.00  0.00    -0.224 A  
HETATM   18  C   UNL     1     -10.241   8.829  67.916  1.00  0.00    -0.272 A  
HETATM   19  C   UNL     1     -10.386   7.873  66.907  1.00  0.00    -0.400 A  
HETATM   20  C   UNL     1     -10.794   6.581  67.227  1.00  0.00    -0.390 A  
HETATM   21  C   UNL     1     -10.862   7.178  69.565  1.00  0.00    -0.244 A  
HETATM   22  C   UNL     1     -11.006   6.222  68.556  1.00  0.00    -0.421 A  
BRANCH  20  23
HETATM   23  N   UNL     1     -10.983   5.633  66.182  1.00  0.00    -0.735 N  
HETATM   24  H   UNL     1     -11.893   5.516  65.735  1.00  0.00     0.000 HD 
BRANCH  23  25
HETATM   25  S   UNL     1      -9.654   4.708  65.706  1.00  0.00    -0.198 S  
HETATM   26  C   UNL     1     -10.327   3.818  64.319  1.00  0.00    -0.245 C  
HETATM   27  O   UNL     1      -9.445   3.756  66.775  1.00  0.00    -0.184 OA 
HETATM   28  O   UNL     1      -8.584   5.568  65.251  1.00  0.00    -0.147 OA 
ENDBRANCH  23  25
ENDBRANCH  20  23
ENDBRANCH  14  17
ENDBRANCH  13  14
ENDBRANCH  12  13
ENDBRANCH  11  12
ENDBRANCH   8  11
ENDBRANCH   7   8
ENDBRANCH   6   7
ENDBRANCH   5   6
ENDBRANCH   4   5
ENDBRANCH   3   4
ENDBRANCH   2   3
TORSDOF 14
ENDMDL
MODEL       15
REMARK 921   NORMALIZED FREE ENERGY PREDICTED BY IDOCK:   -4.90 KCAL/MOL
REMARK 922        TOTAL FREE ENERGY PREDICTED BY IDOCK:  -10.76 KCAL/MOL
REMARK 923 INTER-LIGAND FREE ENERGY PREDICTED BY IDOCK:   -9.29 KCAL/MOL
REMARK 924 INTRA-LIGAND FREE ENERGY PREDICTED BY IDOCK:   -1.47 KCAL/MOL
REMARK 927      BINDING AFFINITY PREDICTED BY RF-SCORE:    0.00 PKD
ROOT
HETATM    1  C   UNL     1      -9.389   9.033  65.960  1.00  0.00    -0.305 C  
HETATM    2  C   UNL     1     -10.492   8.351  66.747  1.00  0.00    -0.315 C  
ENDROOT
BRANCH   2   3
HETATM    3  C   UNL     1      -9.928   7.289  67.690  1.00  0.00    -0.207 C  
BRANCH   3   4
HETATM    4  C   UNL     1     -11.006   6.271  68.040  1.00  0.00    -0.418 C  
BRANCH   4   5
HETATM    5  C   UNL     1     -11.120   6.054  69.547  1.00  0.00    -0.468 C  
BRANCH   5   6
HETATM    6  C   UNL     1      -9.777   5.573  70.091  1.00  0.00    -0.242 C  
BRANCH   6   7
HETATM    7  C   UNL     1      -9.403   6.289  71.391  1.00  0.00    -0.152 C  
BRANCH   7   8
HETATM    8  N   UNL     1     -10.561   6.558  72.263  1.00  0.00    -0.207 NA 
BRANCH   8   9
HETATM    9  C   UNL     1     -10.627   5.700  73.460  1.00  0.00    -0.269 C  
HETATM   10  C   UNL     1     -11.037   4.247  73.231  1.00  0.00    -0.342 C  
ENDBRANCH   8   9
BRANCH   8  11
HETATM   11  C   UNL     1     -10.669   7.984  72.618  1.00  0.00    -0.358 C  
BRANCH  11  12
HETATM   12  C   UNL     1     -11.825   8.727  71.932  1.00  0.00    -0.437 C  
BRANCH  12  13
HETATM   13  C   UNL     1     -11.351   9.956  71.148  1.00  0.00    -0.443 C  
BRANCH  13  14
HETATM   14  C   UNL     1     -12.515  10.869  70.738  1.00  0.00    -0.394 C  
HETATM   15  H   UNL     1     -13.669  12.215  71.594  1.00  0.00     0.000 HD 
HETATM   16  O   UNL     1     -12.949  11.649  71.848  1.00  0.00    -0.427 OA 
BRANCH  14  17
HETATM   17  C   UNL     1     -12.133  11.777  69.584  1.00  0.00    -0.323 A  
HETATM   18  C   UNL     1     -11.741  11.218  68.358  1.00  0.00    -0.365 A  
HETATM   19  C   UNL     1     -11.314  12.031  67.306  1.00  0.00    -0.394 A  
HETATM   20  C   UNL     1     -11.271  13.413  67.468  1.00  0.00    -0.284 A  
HETATM   21  C   UNL     1     -12.130  13.179  69.712  1.00  0.00    -0.336 A  
HETATM   22  C   UNL     1     -11.704  13.992  68.658  1.00  0.00    -0.389 A  
BRANCH  20  23
HETATM   23  N   UNL     1     -10.788  14.223  66.402  1.00  0.00    -0.303 N  
HETATM   24  H   UNL     1      -9.922  14.754  66.495  1.00  0.00     0.000 HD 
BRANCH  23  25
HETATM   25  S   UNL     1     -11.695  14.278  64.979  1.00  0.00    -0.404 S  
HETATM   26  C   UNL     1     -10.897  13.016  64.009  1.00  0.00    -0.377 C  
HETATM   27  O   UNL     1     -11.385  15.554  64.374  1.00  0.00    -0.357 OA 
HETATM   28  O   UNL     1     -13.062  13.887  65.243  1.00  0.00    -0.777 OA 
ENDBRANCH  23  25
ENDBRANCH  20  23
ENDBRANCH  14  17
ENDBRANCH  13  14
ENDBRANCH  12  13
ENDBRANCH  11  12
ENDBRANCH   8  11
ENDBRANCH   7   8
ENDBRANCH   6   7
ENDBRANCH   5   6
ENDBRANCH   4   5
ENDBRANCH   3   4
ENDBRANCH   2   3
TORSDOF 14
ENDMDL
MODEL       16
REMARK 921   NORMALIZED FREE ENERGY PREDICTED BY IDOCK:   -4.90 KCAL/MOL
REMARK 922        TOTAL FREE ENERGY PREDICTED BY IDOCK:  -10.76 KCAL/MOL
REMARK 923 INTER-LIGAND FREE ENERGY PREDICTED BY IDOCK:   -9.22 KCAL/MOL
REMARK 924 INTRA-LIGAND FREE ENERGY PREDICTED BY IDOCK:   -1.54 KCAL/MOL
REMARK 927      BINDING AFFINITY PREDICTED BY RF-SCORE:    0.00 PKD
ROOT
HETATM    1  C   UNL     1     -12.721  15.928  73.959  1.00  0.00    -0.703 C  
HETATM    2  C   UNL     1     -12.930  14.650  73.168  1.00  0.00    -0.605 C  
ENDROOT
BRANCH   2   3
HETATM    3  C   UNL     1     -13.876  14.873  71.989  1.00  0.00    -0.563 C  
BRANCH   3   4
HETATM    4  C   UNL     1     -13.134  15.538  70.837  1.00  0.00    -0.508 C  
BRANCH   4   5
HETATM    5  C   UNL     1     -11.845  14.801  70.484  1.00  0.00    -0.362 C  
BRANCH   5   6
HETATM    6  C   UNL     1     -12.070  13.964  69.227  1.00  0.00    -0.383 C  
BRANCH   6   7
HETATM    7  C   UNL     1     -11.684  14.729  67.960  1.00  0.00    -0.333 C  
BRANCH   7   8
HETATM    8  N   UNL     1     -11.450  13.853  66.797  1.00  0.00    -0.336 NA 
BRANCH   8   9
HETATM    9  C   UNL     1     -12.437  14.012  65.714  1.00  0.00    -0.494 C  
HETATM   10  C   UNL     1     -12.602  12.826  64.768  1.00  0.00    -0.518 C  
ENDBRANCH   8   9
BRANCH   8  11
HETATM   11  C   UNL     1     -10.072  13.964  66.288  1.00  0.00    -0.300 C  
BRANCH  11  12
HETATM   12  C   UNL     1      -9.085  12.953  66.894  1.00  0.00    -0.224 C  
BRANCH  12  13
HETATM   13  C   UNL     1      -8.941  11.688  66.040  1.00  0.00    -0.149 C  
BRANCH  13  14
HETATM   14  C   UNL     1     -10.129  10.731  66.213  1.00  0.00    -0.232 C  
HETATM   15  H   UNL     1     -10.725   9.014  65.456  1.00  0.00     0.000 HD 
HETATM   16  O   UNL     1      -9.990   9.607  65.349  1.00  0.00    -0.316 OA 
BRANCH  14  17
HETATM   17  C   UNL     1     -10.268  10.266  67.650  1.00  0.00    -0.247 A  
HETATM   18  C   UNL     1     -11.372  10.681  68.411  1.00  0.00    -0.348 A  
HETATM   19  C   UNL     1     -11.484  10.328  69.758  1.00  0.00    -0.320 A  
HETATM   20  C   UNL     1     -10.491   9.560  70.360  1.00  0.00    -0.278 A  
HETATM   21  C   UNL     1      -9.301   9.449  68.263  1.00  0.00    -0.140 A  
HETATM   22  C   UNL     1      -9.414   9.095  69.611  1.00  0.00    -0.178 A  
BRANCH  20  23
HETATM   23  N   UNL     1     -10.597   9.249  71.745  1.00  0.00    -0.315 N  
HETATM   24  H   UNL     1     -10.062   9.766  72.444  1.00  0.00     0.000 HD 
BRANCH  23  25
HETATM   25  S   UNL     1     -11.637   7.998  72.196  1.00  0.00    -0.368 S  
HETATM   26  C   UNL     1     -13.162   8.882  72.441  1.00  0.00    -0.430 C  
HETATM   27  O   UNL     1     -11.173   7.561  73.494  1.00  0.00    -0.271 OA 
HETATM   28  O   UNL     1     -11.796   7.062  71.105  1.00  0.00    -0.301 OA 
ENDBRANCH  23  25
ENDBRANCH  20  23
ENDBRANCH  14  17
ENDBRANCH  13  14
ENDBRANCH  12  13
ENDBRANCH  11  12
ENDBRANCH   8  11
ENDBRANCH   7   8
ENDBRANCH   6   7
ENDBRANCH   5   6
ENDBRANCH   4   5
ENDBRANCH   3   4
ENDBRANCH   2   3
TORSDOF 14
ENDMDL
MODEL       17
REMARK 921   NORMALIZED FREE ENERGY PREDICTED BY IDOCK:   -4.90 KCAL/MOL
REMARK 922        TOTAL FREE ENERGY PREDICTED BY IDOCK:  -10.76 KCAL/MOL
REMARK 923 INTER-LIGAND FREE ENERGY PREDICTED BY IDOCK:   -9.13 KCAL/MOL
REMARK 924 INTRA-LIGAND FREE ENERGY PREDICTED BY IDOCK:   -1.62 KCAL/MOL
REMARK 927      BINDING AFFINITY PREDICTED BY RF-SCORE:    0.00 PKD
ROOT
HETATM    1  C   UNL     1     -10.463   6.865  70.948  1.00  0.00    -0.233 C  
HETATM    2  C   UNL     1     -11.926   7.261  71.019  1.00  0.00    -0.362 C  
ENDROOT
BRANCH   2   3
HETATM    3  C   UNL     1     -12.171   8.294  72.117  1.00  0.00    -0.418 C  
BRANCH   3   4
HETATM    4  C   UNL     1     -11.976   9.702  71.568  1.00  0.00    -0.485 C  
BRANCH   4   5
HETATM    5  C   UNL     1     -13.183  10.595  71.841  1.00  0.00    -0.528 C  
BRANCH   5   6
HETATM    6  C   UNL     1     -12.886  12.010  71.351  1.00  0.00    -0.391 C  
BRANCH   6   7
HETATM    7  C   UNL     1     -13.651  13.062  72.158  1.00  0.00    -0.526 C  
BRANCH   7   8
HETATM    8  N   UNL     1     -13.294  14.446  71.799  1.00  0.00    -0.342 NA 
BRANCH   8   9
HETATM    9  C   UNL     1     -13.396  15.404  72.914  1.00  0.00    -0.535 C  
HETATM   10  C   UNL     1     -12.455  15.174  74.094  1.00  0.00    -0.682 C  
ENDBRANCH   8   9
BRANCH   8  11
HETATM   11  C   UNL     1     -11.977  14.526  71.141  1.00  0.00    -0.339 C  
BRANCH  11  12
HETATM   12  C   UNL     1     -12.003  15.143  69.734  1.00  0.00    -0.367 C  
BRANCH  12  13
HETATM   13  C   UNL     1     -11.150  14.357  68.732  1.00  0.00    -0.275 C  
BRANCH  13  14
HETATM   14  C   UNL     1     -12.004  13.626  67.687  1.00  0.00    -0.351 C  
HETATM   15  H   UNL     1     -12.701  13.985  65.881  1.00  0.00     0.000 HD 
HETATM   16  O   UNL     1     -12.173  14.437  66.528  1.00  0.00    -0.424 OA 
BRANCH  14  17
HETATM   17  C   UNL     1     -11.396  12.291  67.301  1.00  0.00    -0.392 A  
HETATM   18  C   UNL     1     -10.913  12.097  65.998  1.00  0.00    -0.332 A  
HETATM   19  C   UNL     1     -10.418  10.854  65.598  1.00  0.00    -0.274 A  
HETATM   20  C   UNL     1     -10.404   9.789  66.494  1.00  0.00    -0.192 A  
HETATM   21  C   UNL     1     -11.328  11.216  68.208  1.00  0.00    -0.365 A  
HETATM   22  C   UNL     1     -10.832   9.973  67.807  1.00  0.00    -0.337 A  
BRANCH  20  23
HETATM   23  N   UNL     1      -9.941   8.516  66.056  1.00  0.00    -0.465 N  
HETATM   24  H   UNL     1     -10.574   7.718  65.993  1.00  0.00     0.000 HD 
BRANCH  23  25
HETATM   25  S   UNL     1      -8.311   8.370  65.643  1.00  0.00    -0.162 S  
HETATM   26  C   UNL     1      -8.048   6.624  65.873  1.00  0.00    -0.126 C  
HETATM   27  O   UNL     1      -7.586   9.061  66.686  1.00  0.00    -0.088 OA 
HETATM   28  O   UNL     1      -8.116   8.704  64.249  1.00  0.00    -0.144 OA 
ENDBRANCH  23  25
ENDBRANCH  20  23
ENDBRANCH  14  17
ENDBRANCH  13  14
ENDBRANCH  12  13
ENDBRANCH  11  12
ENDBRANCH   8  11
ENDBRANCH   7   8
ENDBRANCH   6   7
ENDBRANCH   5   6
ENDBRANCH   4   5
ENDBRANCH   3   4
ENDBRANCH   2   3
TORSDOF 14
ENDMDL
MODEL       18
REMARK 921   NORMALIZED FREE ENERGY PREDICTED BY IDOCK:   -4.88 KCAL/MOL
REMARK 922        TOTAL FREE ENERGY PREDICTED BY IDOCK:  -10.73 KCAL/MOL
REMARK 923 INTER-LIGAND FREE ENERGY PREDICTED BY IDOCK:   -9.68 KCAL/MOL
REMARK 924 INTRA-LIGAND FREE ENERGY PREDICTED BY IDOCK:   -1.04 KCAL/MOL
REMARK 927      BINDING AFFINITY PREDICTED BY RF-SCORE:    0.00 PKD
ROOT
HETATM    1  C   UNL     1     -12.035  14.321  66.902  1.00  0.00    -0.467 C  
HETATM    2  C   UNL     1     -12.752  13.814  65.665  1.00  0.00    -0.523 C  
ENDROOT
BRANCH   2   3
HETATM    3  C   UNL     1     -12.098  14.336  64.388  1.00  0.00    -0.490 C  
BRANCH   3   4
HETATM    4  C   UNL     1     -12.120  13.262  63.307  1.00  0.00    -0.407 C  
BRANCH   4   5
HETATM    5  C   UNL     1     -12.132  11.855  63.899  1.00  0.00    -0.505 C  
BRANCH   5   6
HETATM    6  C   UNL     1     -10.756  11.219  63.720  1.00  0.00    -0.448 C  
BRANCH   6   7
HETATM    7  C   UNL     1     -10.050  11.007  65.061  1.00  0.00    -0.296 C  
BRANCH   7   8
HETATM    8  N   UNL     1      -9.572   9.627  65.257  1.00  0.00    -0.288 NA 
BRANCH   8   9
HETATM    9  C   UNL     1      -8.129   9.449  65.020  1.00  0.00    -0.129 C  
HETATM   10  C   UNL     1      -7.643   9.684  63.592  1.00  0.00    -0.124 C  
ENDBRANCH   8   9
BRANCH   8  11
HETATM   11  C   UNL     1      -9.972   9.082  66.567  1.00  0.00    -0.285 C  
BRANCH  11  12
HETATM   12  C   UNL     1     -10.728  10.073  67.466  1.00  0.00    -0.339 C  
BRANCH  12  13
HETATM   13  C   UNL     1     -10.033  10.290  68.816  1.00  0.00    -0.187 C  
BRANCH  13  14
HETATM   14  C   UNL     1     -10.930   9.903  70.000  1.00  0.00    -0.291 C  
HETATM   15  H   UNL     1     -10.699   9.145  71.803  1.00  0.00     0.000 HD 
HETATM   16  O   UNL     1     -10.144   9.385  71.069  1.00  0.00    -0.288 OA 
BRANCH  14  17
HETATM   17  C   UNL     1     -11.754  11.081  70.486  1.00  0.00    -0.416 A  
HETATM   18  C   UNL     1     -11.536  12.355  69.940  1.00  0.00    -0.260 A  
HETATM   19  C   UNL     1     -12.229  13.467  70.423  1.00  0.00    -0.426 A  
HETATM   20  C   UNL     1     -13.144  13.319  71.462  1.00  0.00    -0.328 A  
HETATM   21  C   UNL     1     -12.719  10.943  71.501  1.00  0.00    -0.533 A  
HETATM   22  C   UNL     1     -13.413  12.056  71.984  1.00  0.00    -0.364 A  
BRANCH  20  23
HETATM   23  N   UNL     1     -13.807  14.470  71.975  1.00  0.00    -0.424 N  
HETATM   24  H   UNL     1     -14.752  14.711  71.675  1.00  0.00     0.000 HD 
BRANCH  23  25
HETATM   25  S   UNL     1     -12.978  15.422  73.095  1.00  0.00    -0.563 S  
HETATM   26  C   UNL     1     -11.763  16.207  72.056  1.00  0.00    -0.485 C  
HETATM   27  O   UNL     1     -12.281  14.490  73.953  1.00  0.00    -0.378 OA 
HETATM   28  O   UNL     1     -13.859  16.429  73.645  1.00  0.00    -0.438 OA 
ENDBRANCH  23  25
ENDBRANCH  20  23
ENDBRANCH  14  17
ENDBRANCH  13  14
ENDBRANCH  12  13
ENDBRANCH  11  12
ENDBRANCH   8  11
ENDBRANCH   7   8
ENDBRANCH   6   7
ENDBRANCH   5   6
ENDBRANCH   4   5
ENDBRANCH   3   4
ENDBRANCH   2   3
TORSDOF 14
ENDMDL
MODEL       19
REMARK 921   NORMALIZED FREE ENERGY PREDICTED BY IDOCK:   -4.88 KCAL/MOL
REMARK 922        TOTAL FREE ENERGY PREDICTED BY IDOCK:  -10.72 KCAL/MOL
REMARK 923 INTER-LIGAND FREE ENERGY PREDICTED BY IDOCK:   -9.16 KCAL/MOL
REMARK 924 INTRA-LIGAND FREE ENERGY PREDICTED BY IDOCK:   -1.56 KCAL/MOL
REMARK 927      BINDING AFFINITY PREDICTED BY RF-SCORE:    0.00 PKD
ROOT
HETATM    1  C   UNL     1     -12.614  15.912  73.481  1.00  0.00    -0.695 C  
HETATM    2  C   UNL     1     -12.929  14.694  72.634  1.00  0.00    -0.534 C  
ENDROOT
BRANCH   2   3
HETATM    3  C   UNL     1     -12.316  14.810  71.240  1.00  0.00    -0.390 C  
BRANCH   3   4
HETATM    4  C   UNL     1     -12.341  13.457  70.539  1.00  0.00    -0.401 C  
BRANCH   4   5
HETATM    5  C   UNL     1     -11.919  13.563  69.076  1.00  0.00    -0.376 C  
BRANCH   5   6
HETATM    6  C   UNL     1     -11.112  12.325  68.692  1.00  0.00    -0.291 C  
BRANCH   6   7
HETATM    7  C   UNL     1     -11.559  11.752  67.346  1.00  0.00    -0.280 C  
BRANCH   7   8
HETATM    8  N   UNL     1     -10.512  11.812  66.309  1.00  0.00    -0.236 NA 
BRANCH   8   9
HETATM    9  C   UNL     1      -9.762  10.555  66.137  1.00  0.00    -0.209 C  
HETATM   10  C   UNL     1      -9.312  10.224  64.717  1.00  0.00    -0.313 C  
ENDBRANCH   8   9
BRANCH   8  11
HETATM   11  C   UNL     1     -11.034  12.306  65.022  1.00  0.00    -0.302 C  
BRANCH  11  12
HETATM   12  C   UNL     1     -12.477  12.831  65.078  1.00  0.00    -0.572 C  
BRANCH  12  13
HETATM   13  C   UNL     1     -12.548  14.320  65.435  1.00  0.00    -0.422 C  
BRANCH  13  14
HETATM   14  C   UNL     1     -11.476  15.144  64.708  1.00  0.00    -0.383 C  
HETATM   15  H   UNL     1     -11.413  16.487  63.269  1.00  0.00     0.000 HD 
HETATM   16  O   UNL     1     -12.076  15.977  63.719  1.00  0.00    -0.882 OA 
BRANCH  14  17
HETATM   17  C   UNL     1     -10.667  15.987  65.675  1.00  0.00    -0.341 A  
HETATM   18  C   UNL     1      -9.960  15.366  66.716  1.00  0.00    -0.256 A  
HETATM   19  C   UNL     1      -9.269  16.126  67.663  1.00  0.00    -0.205 A  
HETATM   20  C   UNL     1      -9.281  17.516  67.582  1.00  0.00    -0.243 A  
HETATM   21  C   UNL     1     -10.626  17.391  65.581  1.00  0.00    -0.158 A  
HETATM   22  C   UNL     1      -9.934  18.151  66.528  1.00  0.00    -0.374 A  
BRANCH  20  23
HETATM   23  N   UNL     1      -8.612  18.276  68.582  1.00  0.00    -0.311 N  
HETATM   24  H   UNL     1      -9.124  18.680  69.368  1.00  0.00     0.000 HD 
BRANCH  23  25
HETATM   25  S   UNL     1      -6.945  18.490  68.427  1.00  0.00    -0.273 S  
HETATM   26  C   UNL     1      -6.329  17.264  69.562  1.00  0.00    -0.235 C  
HETATM   27  O   UNL     1      -6.669  19.790  68.998  1.00  0.00    -0.310 OA 
HETATM   28  O   UNL     1      -6.521  18.157  67.085  1.00  0.00    -0.169 OA 
ENDBRANCH  23  25
ENDBRANCH  20  23
ENDBRANCH  14  17
ENDBRANCH  13  14
ENDBRANCH  12  13
ENDBRANCH  11  12
ENDBRANCH   8  11
ENDBRANCH   7   8
ENDBRANCH   6   7
ENDBRANCH   5   6
ENDBRANCH   4   5
ENDBRANCH   3   4
ENDBRANCH   2   3
TORSDOF 14
ENDMDL
MODEL       20
REMARK 921   NORMALIZED FREE ENERGY PREDICTED BY IDOCK:   -4.85 KCAL/MOL
REMARK 922        TOTAL FREE ENERGY PREDICTED BY IDOCK:  -10.68 KCAL/MOL
REMARK 923 INTER-LIGAND FREE ENERGY PREDICTED BY IDOCK:   -8.69 KCAL/MOL
REMARK 924 INTRA-LIGAND FREE ENERGY PREDICTED BY IDOCK:   -1.99 KCAL/MOL
REMARK 927      BINDING AFFINITY PREDICTED BY RF-SCORE:    0.00 PKD
ROOT
HETATM    1  C   UNL     1      -7.352  18.742  65.989  1.00  0.00    -0.283 C  
HETATM    2  C   UNL     1      -8.163  19.882  66.577  1.00  0.00    -0.364 C  
ENDROOT
BRANCH   2   3
HETATM    3  C   UNL     1      -9.630  19.794  66.162  1.00  0.00    -0.484 C  
BRANCH   3   4
HETATM    4  C   UNL     1     -10.529  19.841  67.391  1.00  0.00    -0.577 C  
BRANCH   4   5
HETATM    5  C   UNL     1      -9.834  19.284  68.630  1.00  0.00    -0.500 C  
BRANCH   5   6
HETATM    6  C   UNL     1     -10.262  17.834  68.841  1.00  0.00    -0.345 C  
BRANCH   6   7
HETATM    7  C   UNL     1      -9.092  16.865  68.658  1.00  0.00    -0.265 C  
BRANCH   7   8
HETATM    8  N   UNL     1      -9.442  15.668  67.872  1.00  0.00    -0.204 NA 
BRANCH   8   9
HETATM    9  C   UNL     1      -9.561  14.436  68.671  1.00  0.00    -0.208 C  
HETATM   10  C   UNL     1     -10.929  14.158  69.289  1.00  0.00    -0.252 C  
ENDBRANCH   8   9
BRANCH   8  11
HETATM   11  C   UNL     1     -10.638  15.884  67.037  1.00  0.00    -0.306 C  
BRANCH  11  12
HETATM   12  C   UNL     1     -10.352  15.994  65.531  1.00  0.00    -0.415 C  
BRANCH  12  13
HETATM   13  C   UNL     1     -11.292  15.123  64.690  1.00  0.00    -0.362 C  
BRANCH  13  14
HETATM   14  C   UNL     1     -11.947  14.007  65.516  1.00  0.00    -0.384 C  
HETATM   15  H   UNL     1     -13.745  13.235  65.738  1.00  0.00     0.000 HD 
HETATM   16  O   UNL     1     -13.339  13.926  65.227  1.00  0.00    -0.732 OA 
BRANCH  14  17
HETATM   17  C   UNL     1     -11.286  12.664  65.266  1.00  0.00    -0.350 A  
HETATM   18  C   UNL     1     -10.909  11.861  66.353  1.00  0.00    -0.318 A  
HETATM   19  C   UNL     1     -10.232  10.657  66.150  1.00  0.00    -0.308 A  
HETATM   20  C   UNL     1      -9.921  10.243  64.858  1.00  0.00    -0.323 A  
HETATM   21  C   UNL     1     -11.007  12.205  63.966  1.00  0.00    -0.438 A  
HETATM   22  C   UNL     1     -10.331  10.999  63.762  1.00  0.00    -0.427 A  
BRANCH  20  23
HETATM   23  N   UNL     1      -9.189   9.036  64.671  1.00  0.00    -0.421 N  
HETATM   24  H   UNL     1      -9.576   8.136  64.955  1.00  0.00     0.000 HD 
BRANCH  23  25
HETATM   25  S   UNL     1      -7.660   9.143  63.964  1.00  0.00    -0.119 S  
HETATM   26  C   UNL     1      -6.881   7.672  64.595  1.00  0.00    -0.051 C  
HETATM   27  O   UNL     1      -7.023  10.278  64.594  1.00  0.00    -0.133 OA 
HETATM   28  O   UNL     1      -7.767   9.048  62.525  1.00  0.00    -0.114 OA 
ENDBRANCH  23  25
ENDBRANCH  20  23
ENDBRANCH  14  17
ENDBRANCH  13  14
ENDBRANCH  12  13
ENDBRANCH  11  12
ENDBRANCH   8  11
ENDBRANCH   7   8
ENDBRANCH   6   7
ENDBRANCH   5   6
ENDBRANCH   4   5
ENDBRANCH   3   4
ENDBRANCH   2   3
TORSDOF 14
ENDMDL
MODEL       21
REMARK 921   NORMALIZED FREE ENERGY PREDICTED BY IDOCK:   -4.84 KCAL/MOL
REMARK 922        TOTAL FREE ENERGY PREDICTED BY IDOCK:  -10.65 KCAL/MOL
REMARK 923 INTER-LIGAND FREE ENERGY PREDICTED BY IDOCK:   -9.56 KCAL/MOL
REMARK 924 INTRA-LIGAND FREE ENERGY PREDICTED BY IDOCK:   -1.09 KCAL/MOL
REMARK 927      BINDING AFFINITY PREDICTED BY RF-SCORE:    0.00 PKD
ROOT
HETATM    1  C   UNL     1     -12.070  12.960  63.947  1.00  0.00    -0.553 C  
HETATM    2  C   UNL     1     -12.500  13.487  65.303  1.00  0.00    -0.525 C  
ENDROOT
BRANCH   2   3
HETATM    3  C   UNL     1     -11.364  13.400  66.320  1.00  0.00    -0.329 C  
BRANCH   3   4
HETATM    4  C   UNL     1     -10.950  14.796  66.768  1.00  0.00    -0.327 C  
BRANCH   4   5
HETATM    5  C   UNL     1     -10.659  14.854  68.265  1.00  0.00    -0.240 C  
BRANCH   5   6
HETATM    6  C   UNL     1     -11.713  15.719  68.952  1.00  0.00    -0.404 C  
BRANCH   6   7
HETATM    7  C   UNL     1     -11.238  16.212  70.321  1.00  0.00    -0.381 C  
BRANCH   7   8
HETATM    8  N   UNL     1     -11.870  15.504  71.448  1.00  0.00    -0.357 NA 
BRANCH   8   9
HETATM    9  C   UNL     1     -11.931  16.287  72.695  1.00  0.00    -0.546 C  
HETATM   10  C   UNL     1     -13.009  15.883  73.697  1.00  0.00    -0.685 C  
ENDBRANCH   8   9
BRANCH   8  11
HETATM   11  C   UNL     1     -13.193  14.961  71.090  1.00  0.00    -0.414 C  
BRANCH  11  12
HETATM   12  C   UNL     1     -13.344  13.449  71.317  1.00  0.00    -0.183 C  
BRANCH  12  13
HETATM   13  C   UNL     1     -12.194  12.644  70.701  1.00  0.00    -0.373 C  
BRANCH  13  14
HETATM   14  C   UNL     1     -12.674  11.324  70.080  1.00  0.00    -0.041 C  
HETATM   15  H   UNL     1     -12.532  10.406  68.344  1.00  0.00     0.000 HD 
HETATM   16  O   UNL     1     -12.235  11.223  68.728  1.00  0.00    -0.532 OA 
BRANCH  14  17
HETATM   17  C   UNL     1     -12.191  10.125  70.873  1.00  0.00    -0.455 A  
HETATM   18  C   UNL     1     -13.105   9.378  71.631  1.00  0.00    -0.471 A  
HETATM   19  C   UNL     1     -12.673   8.315  72.428  1.00  0.00    -0.287 A  
HETATM   20  C   UNL     1     -11.320   7.991  72.480  1.00  0.00    -0.406 A  
HETATM   21  C   UNL     1     -10.835   9.750  70.900  1.00  0.00    -0.399 A  
HETATM   22  C   UNL     1     -10.402   8.686  71.697  1.00  0.00    -0.366 A  
BRANCH  20  23
HETATM   23  N   UNL     1     -10.891   6.936  73.334  1.00  0.00    -0.475 N  
HETATM   24  H   UNL     1     -10.924   7.033  74.349  1.00  0.00     0.000 HD 
BRANCH  23  25
HETATM   25  S   UNL     1     -10.324   5.518  72.614  1.00  0.00    -0.208 S  
HETATM   26  C   UNL     1     -11.092   4.277  73.633  1.00  0.00    -0.267 C  
HETATM   27  O   UNL     1      -8.904   5.489  72.887  1.00  0.00    -0.119 OA 
HETATM   28  O   UNL     1     -10.828   5.408  71.263  1.00  0.00    -0.218 OA 
ENDBRANCH  23  25
ENDBRANCH  20  23
ENDBRANCH  14  17
ENDBRANCH  13  14
ENDBRANCH  12  13
ENDBRANCH  11  12
ENDBRANCH   8  11
ENDBRANCH   7   8
ENDBRANCH   6   7
ENDBRANCH   5   6
ENDBRANCH   4   5
ENDBRANCH   3   4
ENDBRANCH   2   3
TORSDOF 14
ENDMDL
MODEL       22
REMARK 921   NORMALIZED FREE ENERGY PREDICTED BY IDOCK:   -4.83 KCAL/MOL
REMARK 922        TOTAL FREE ENERGY PREDICTED BY IDOCK:  -10.64 KCAL/MOL
REMARK 923 INTER-LIGAND FREE ENERGY PREDICTED BY IDOCK:   -9.12 KCAL/MOL
REMARK 924 INTRA-LIGAND FREE ENERGY PREDICTED BY IDOCK:   -1.52 KCAL/MOL
REMARK 927      BINDING AFFINITY PREDICTED BY RF-SCORE:    0.00 PKD
ROOT
HETATM    1  C   UNL     1     -13.561   9.340  72.316  1.00  0.00    -0.544 C  
HETATM    2  C   UNL     1     -12.761  10.065  71.249  1.00  0.00    -0.500 C  
ENDROOT
BRANCH   2   3
HETATM    3  C   UNL     1     -12.958  11.577  71.337  1.00  0.00    -0.450 C  
BRANCH   3   4
HETATM    4  C   UNL     1     -12.157  12.276  70.246  1.00  0.00    -0.376 C  
BRANCH   4   5
HETATM    5  C   UNL     1     -12.265  13.796  70.342  1.00  0.00    -0.433 C  
BRANCH   5   6
HETATM    6  C   UNL     1     -11.380  14.434  69.274  1.00  0.00    -0.319 C  
BRANCH   6   7
HETATM    7  C   UNL     1     -11.594  15.947  69.190  1.00  0.00    -0.379 C  
BRANCH   7   8
HETATM    8  N   UNL     1     -10.926  16.567  68.031  1.00  0.00    -0.346 NA 
BRANCH   8   9
HETATM    9  C   UNL     1      -9.874  17.535  68.388  1.00  0.00    -0.325 C  
HETATM   10  C   UNL     1     -10.175  19.002  68.093  1.00  0.00    -0.472 C  
ENDBRANCH   8   9
BRANCH   8  11
HETATM   11  C   UNL     1     -10.429  15.561  67.074  1.00  0.00    -0.304 C  
BRANCH  11  12
HETATM   12  C   UNL     1     -10.691  15.901  65.599  1.00  0.00    -0.350 C  
BRANCH  12  13
HETATM   13  C   UNL     1     -11.050  14.665  64.766  1.00  0.00    -0.394 C  
BRANCH  13  14
HETATM   14  C   UNL     1     -11.904  13.661  65.553  1.00  0.00    -0.362 C  
HETATM   15  H   UNL     1     -13.719  12.906  65.443  1.00  0.00     0.000 HD 
HETATM   16  O   UNL     1     -13.190  13.528  64.956  1.00  0.00    -0.721 OA 
BRANCH  14  17
HETATM   17  C   UNL     1     -11.231  12.304  65.644  1.00  0.00    -0.375 A  
HETATM   18  C   UNL     1     -10.707  11.708  64.487  1.00  0.00    -0.378 A  
HETATM   19  C   UNL     1     -10.150  10.428  64.532  1.00  0.00    -0.365 A  
HETATM   20  C   UNL     1     -10.117   9.727  65.734  1.00  0.00    -0.238 A  
HETATM   21  C   UNL     1     -11.143  11.600  66.859  1.00  0.00    -0.365 A  
HETATM   22  C   UNL     1     -10.585  10.319  66.905  1.00  0.00    -0.282 A  
BRANCH  20  23
HETATM   23  N   UNL     1      -9.590   8.404  65.753  1.00  0.00    -0.451 N  
HETATM   24  H   UNL     1     -10.195   7.594  65.614  1.00  0.00     0.000 HD 
BRANCH  23  25
HETATM   25  S   UNL     1      -7.932   8.219  66.013  1.00  0.00    -0.103 S  
HETATM   26  C   UNL     1      -7.386   7.675  64.409  1.00  0.00    -0.088 C  
HETATM   27  O   UNL     1      -7.808   7.099  66.920  1.00  0.00    -0.103 OA 
HETATM   28  O   UNL     1      -7.328   9.498  66.317  1.00  0.00    -0.092 OA 
ENDBRANCH  23  25
ENDBRANCH  20  23
ENDBRANCH  14  17
ENDBRANCH  13  14
ENDBRANCH  12  13
ENDBRANCH  11  12
ENDBRANCH   8  11
ENDBRANCH   7   8
ENDBRANCH   6   7
ENDBRANCH   5   6
ENDBRANCH   4   5
ENDBRANCH   3   4
ENDBRANCH   2   3
TORSDOF 14
ENDMDL
MODEL       23
REMARK 921   NORMALIZED FREE ENERGY PREDICTED BY IDOCK:   -4.83 KCAL/MOL
REMARK 922        TOTAL FREE ENERGY PREDICTED BY IDOCK:  -10.64 KCAL/MOL
REMARK 923 INTER-LIGAND FREE ENERGY PREDICTED BY IDOCK:   -9.05 KCAL/MOL
REMARK 924 INTRA-LIGAND FREE ENERGY PREDICTED BY IDOCK:   -1.59 KCAL/MOL
REMARK 927      BINDING AFFINITY PREDICTED BY RF-SCORE:    0.00 PKD
ROOT
HETATM    1  C   UNL     1      -9.540   9.111  66.160  1.00  0.00    -0.333 C  
HETATM    2  C   UNL     1      -9.565   9.852  64.836  1.00  0.00    -0.356 C  
ENDROOT
BRANCH   2   3
HETATM    3  C   UNL     1     -10.427  11.110  64.918  1.00  0.00    -0.372 C  
BRANCH   3   4
HETATM    4  C   UNL     1     -10.749  11.620  63.519  1.00  0.00    -0.495 C  
BRANCH   4   5
HETATM    5  C   UNL     1     -12.031  12.447  63.492  1.00  0.00    -0.627 C  
BRANCH   5   6
HETATM    6  C   UNL     1     -12.550  12.621  64.918  1.00  0.00    -0.525 C  
BRANCH   6   7
HETATM    7  C   UNL     1     -12.488  14.081  65.370  1.00  0.00    -0.498 C  
BRANCH   7   8
HETATM    8  N   UNL     1     -11.310  14.384  66.203  1.00  0.00    -0.343 NA 
BRANCH   8   9
HETATM    9  C   UNL     1     -10.324  15.267  65.555  1.00  0.00    -0.383 C  
HETATM   10  C   UNL     1     -10.379  16.743  65.941  1.00  0.00    -0.341 C  
ENDBRANCH   8   9
BRANCH   8  11
HETATM   11  C   UNL     1     -11.688  14.888  67.536  1.00  0.00    -0.308 C  
BRANCH  11  12
HETATM   12  C   UNL     1     -11.211  14.015  68.707  1.00  0.00    -0.298 C  
BRANCH  12  13
HETATM   13  C   UNL     1     -11.757  12.585  68.636  1.00  0.00    -0.368 C  
BRANCH  13  14
HETATM   14  C   UNL     1     -10.638  11.537  68.559  1.00  0.00    -0.210 C  
HETATM   15  H   UNL     1      -8.670  11.525  68.486  1.00  0.00     0.000 HD 
HETATM   16  O   UNL     1      -9.363  12.173  68.534  1.00  0.00    -0.183 OA 
BRANCH  14  17
HETATM   17  C   UNL     1     -10.707  10.559  69.716  1.00  0.00    -0.314 A  
HETATM   18  C   UNL     1      -9.571   9.811  70.063  1.00  0.00    -0.282 A  
HETATM   19  C   UNL     1      -9.630   8.851  71.075  1.00  0.00    -0.321 A  
HETATM   20  C   UNL     1     -10.827   8.624  71.750  1.00  0.00    -0.325 A  
HETATM   21  C   UNL     1     -11.894  10.351  70.443  1.00  0.00    -0.418 A  
HETATM   22  C   UNL     1     -11.953   9.391  71.456  1.00  0.00    -0.456 A  
BRANCH  20  23
HETATM   23  N   UNL     1     -10.883   7.608  72.746  1.00  0.00    -0.328 N  
HETATM   24  H   UNL     1     -10.830   7.840  73.738  1.00  0.00     0.000 HD 
BRANCH  23  25
HETATM   25  S   UNL     1     -11.040   6.008  72.232  1.00  0.00    -0.291 S  
HETATM   26  C   UNL     1      -9.352   5.448  72.314  1.00  0.00    -0.142 C  
HETATM   27  O   UNL     1     -11.406   6.086  70.835  1.00  0.00    -0.300 OA 
HETATM   28  O   UNL     1     -11.840   5.257  73.174  1.00  0.00    -0.229 OA 
ENDBRANCH  23  25
ENDBRANCH  20  23
ENDBRANCH  14  17
ENDBRANCH  13  14
ENDBRANCH  12  13
ENDBRANCH  11  12
ENDBRANCH   8  11
ENDBRANCH   7   8
ENDBRANCH   6   7
ENDBRANCH   5   6
ENDBRANCH   4   5
ENDBRANCH   3   4
ENDBRANCH   2   3
TORSDOF 14
ENDMDL
MODEL       24
REMARK 921   NORMALIZED FREE ENERGY PREDICTED BY IDOCK:   -4.83 KCAL/MOL
REMARK 922        TOTAL FREE ENERGY PREDICTED BY IDOCK:  -10.64 KCAL/MOL
REMARK 923 INTER-LIGAND FREE ENERGY PREDICTED BY IDOCK:   -9.01 KCAL/MOL
REMARK 924 INTRA-LIGAND FREE ENERGY PREDICTED BY IDOCK:   -1.63 KCAL/MOL
REMARK 927      BINDING AFFINITY PREDICTED BY RF-SCORE:    0.00 PKD
ROOT
HETATM    1  C   UNL     1     -13.812  13.794  72.223  1.00  0.00    -0.679 C  
HETATM    2  C   UNL     1     -12.839  13.838  71.059  1.00  0.00    -0.376 C  
ENDROOT
BRANCH   2   3
HETATM    3  C   UNL     1     -12.335  12.441  70.702  1.00  0.00    -0.367 C  
BRANCH   3   4
HETATM    4  C   UNL     1     -13.003  11.397  71.587  1.00  0.00    -0.523 C  
BRANCH   4   5
HETATM    5  C   UNL     1     -12.646   9.975  71.164  1.00  0.00    -0.480 C  
BRANCH   5   6
HETATM    6  C   UNL     1     -13.458   8.982  71.993  1.00  0.00    -0.498 C  
BRANCH   6   7
HETATM    7  C   UNL     1     -13.091   7.534  71.662  1.00  0.00    -0.358 C  
BRANCH   7   8
HETATM    8  N   UNL     1     -11.703   7.377  71.192  1.00  0.00    -0.285 NA 
BRANCH   8   9
HETATM    9  C   UNL     1     -10.769   6.887  72.222  1.00  0.00    -0.223 C  
HETATM   10  C   UNL     1     -11.062   5.504  72.799  1.00  0.00    -0.340 C  
ENDBRANCH   8   9
BRANCH   8  11
HETATM   11  C   UNL     1     -11.622   6.565  69.964  1.00  0.00    -0.390 C  
BRANCH  11  12
HETATM   12  C   UNL     1     -10.311   6.726  69.179  1.00  0.00    -0.213 C  
BRANCH  12  13
HETATM   13  C   UNL     1     -10.548   7.046  67.699  1.00  0.00    -0.327 C  
BRANCH  13  14
HETATM   14  C   UNL     1      -9.514   8.036  67.145  1.00  0.00    -0.162 C  
HETATM   15  H   UNL     1      -8.198   8.085  65.681  1.00  0.00     0.000 HD 
HETATM   16  O   UNL     1      -8.838   7.473  66.024  1.00  0.00    -0.162 OA 
BRANCH  14  17
HETATM   17  C   UNL     1     -10.154   9.355  66.755  1.00  0.00    -0.325 A  
HETATM   18  C   UNL     1     -10.032   9.826  65.439  1.00  0.00    -0.302 A  
HETATM   19  C   UNL     1     -10.548  11.072  65.075  1.00  0.00    -0.315 A  
HETATM   20  C   UNL     1     -11.188  11.863  66.025  1.00  0.00    -0.324 A  
HETATM   21  C   UNL     1     -10.848  10.147  67.688  1.00  0.00    -0.346 A  
HETATM   22  C   UNL     1     -11.365  11.393  67.324  1.00  0.00    -0.347 A  
BRANCH  20  23
HETATM   23  N   UNL     1     -11.666  13.151  65.649  1.00  0.00    -0.346 N  
HETATM   24  H   UNL     1     -12.536  13.258  65.127  1.00  0.00     0.000 HD 
BRANCH  23  25
HETATM   25  S   UNL     1     -10.747  14.494  66.096  1.00  0.00    -0.320 S  
HETATM   26  C   UNL     1     -11.517  14.948  67.635  1.00  0.00    -0.352 C  
HETATM   27  O   UNL     1     -11.069  15.520  65.128  1.00  0.00    -0.376 OA 
HETATM   28  O   UNL     1      -9.376  14.103  66.343  1.00  0.00    -0.275 OA 
ENDBRANCH  23  25
ENDBRANCH  20  23
ENDBRANCH  14  17
ENDBRANCH  13  14
ENDBRANCH  12  13
ENDBRANCH  11  12
ENDBRANCH   8  11
ENDBRANCH   7   8
ENDBRANCH   6   7
ENDBRANCH   5   6
ENDBRANCH   4   5
ENDBRANCH   3   4
ENDBRANCH   2   3
TORSDOF 14
ENDMDL
MODEL       25
REMARK 921   NORMALIZED FREE ENERGY PREDICTED BY IDOCK:   -4.82 KCAL/MOL
REMARK 922        TOTAL FREE ENERGY PREDICTED BY IDOCK:  -10.62 KCAL/MOL
REMARK 923 INTER-LIGAND FREE ENERGY PREDICTED BY IDOCK:   -8.59 KCAL/MOL
REMARK 924 INTRA-LIGAND FREE ENERGY PREDICTED BY IDOCK:   -2.03 KCAL/MOL
REMARK 927      BINDING AFFINITY PREDICTED BY RF-SCORE:    0.00 PKD
ROOT
HETATM    1  C   UNL     1      -9.421   9.980  64.532  1.00  0.00    -0.359 C  
HETATM    2  C   UNL     1     -10.475  11.060  64.693  1.00  0.00    -0.398 C  
ENDROOT
BRANCH   2   3
HETATM    3  C   UNL     1     -10.555  11.948  63.453  1.00  0.00    -0.485 C  
BRANCH   3   4
HETATM    4  C   UNL     1     -11.798  12.827  63.514  1.00  0.00    -0.618 C  
BRANCH   4   5
HETATM    5  C   UNL     1     -12.598  12.599  64.794  1.00  0.00    -0.530 C  
BRANCH   5   6
HETATM    6  C   UNL     1     -12.721  13.918  65.554  1.00  0.00    -0.536 C  
BRANCH   6   7
HETATM    7  C   UNL     1     -12.069  13.839  66.936  1.00  0.00    -0.413 C  
BRANCH   7   8
HETATM    8  N   UNL     1     -11.522  15.128  67.398  1.00  0.00    -0.315 NA 
BRANCH   8   9
HETATM    9  C   UNL     1     -11.859  15.460  68.794  1.00  0.00    -0.318 C  
HETATM   10  C   UNL     1     -12.147  14.282  69.720  1.00  0.00    -0.401 C  
ENDBRANCH   8   9
BRANCH   8  11
HETATM   11  C   UNL     1     -10.072  15.233  67.155  1.00  0.00    -0.240 C  
BRANCH  11  12
HETATM   12  C   UNL     1      -9.386  13.905  66.801  1.00  0.00    -0.286 C  
BRANCH  12  13
HETATM   13  C   UNL     1      -8.831  13.184  68.035  1.00  0.00    -0.191 C  
BRANCH  13  14
HETATM   14  C   UNL     1      -8.600  11.688  67.779  1.00  0.00    -0.144 C  
HETATM   15  H   UNL     1      -7.063  10.465  67.634  1.00  0.00     0.000 HD 
HETATM   16  O   UNL     1      -7.206  11.391  67.792  1.00  0.00    -0.083 OA 
BRANCH  14  17
HETATM   17  C   UNL     1      -9.322  10.828  68.799  1.00  0.00    -0.186 A  
HETATM   18  C   UNL     1     -10.710  10.956  68.959  1.00  0.00    -0.262 A  
HETATM   19  C   UNL     1     -11.386  10.230  69.943  1.00  0.00    -0.354 A  
HETATM   20  C   UNL     1     -10.680   9.370  70.780  1.00  0.00    -0.305 A  
HETATM   21  C   UNL     1      -8.634   9.917  69.622  1.00  0.00    -0.207 A  
HETATM   22  C   UNL     1      -9.311   9.189  70.605  1.00  0.00    -0.312 A  
BRANCH  20  23
HETATM   23  N   UNL     1     -11.377   8.674  71.808  1.00  0.00    -0.299 N  
HETATM   24  H   UNL     1     -11.494   9.083  72.736  1.00  0.00     0.000 HD 
BRANCH  23  25
HETATM   25  S   UNL     1     -12.004   7.150  71.443  1.00  0.00    -0.348 S  
HETATM   26  C   UNL     1     -13.754   7.463  71.528  1.00  0.00    -0.371 C  
HETATM   27  O   UNL     1     -11.656   6.311  72.569  1.00  0.00    -0.276 OA 
HETATM   28  O   UNL     1     -11.649   6.774  70.092  1.00  0.00    -0.354 OA 
ENDBRANCH  23  25
ENDBRANCH  20  23
ENDBRANCH  14  17
ENDBRANCH  13  14
ENDBRANCH  12  13
ENDBRANCH  11  12
ENDBRANCH   8  11
ENDBRANCH   7   8
ENDBRANCH   6   7
ENDBRANCH   5   6
ENDBRANCH   4   5
ENDBRANCH   3   4
ENDBRANCH   2   3
TORSDOF 14
ENDMDL
MODEL       26
REMARK 921   NORMALIZED FREE ENERGY PREDICTED BY IDOCK:   -4.82 KCAL/MOL
REMARK 922        TOTAL FREE ENERGY PREDICTED BY IDOCK:  -10.62 KCAL/MOL
REMARK 923 INTER-LIGAND FREE ENERGY PREDICTED BY IDOCK:   -9.60 KCAL/MOL
REMARK 924 INTRA-LIGAND FREE ENERGY PREDICTED BY IDOCK:   -1.01 KCAL/MOL
REMARK 927      BINDING AFFINITY PREDICTED BY RF-SCORE:    0.00 PKD
ROOT
HETATM    1  C   UNL     1     -10.515  19.702  66.397  1.00  0.00    -0.618 C  
HETATM    2  C   UNL     1     -10.498  18.869  67.665  1.00  0.00    -0.514 C  
ENDROOT
BRANCH   2   3
HETATM    3  C   UNL     1     -10.398  17.377  67.351  1.00  0.00    -0.343 C  
BRANCH   3   4
HETATM    4  C   UNL     1     -10.781  16.554  68.575  1.00  0.00    -0.336 C  
BRANCH   4   5
HETATM    5  C   UNL     1     -11.649  15.354  68.208  1.00  0.00    -0.361 C  
BRANCH   5   6
HETATM    6  C   UNL     1     -11.165  14.765  66.886  1.00  0.00    -0.347 C  
BRANCH   6   7
HETATM    7  C   UNL     1     -12.321  14.186  66.066  1.00  0.00    -0.445 C  
BRANCH   7   8
HETATM    8  N   UNL     1     -12.172  12.747  65.784  1.00  0.00    -0.558 NA 
BRANCH   8   9
HETATM    9  C   UNL     1     -12.504  12.366  64.399  1.00  0.00    -0.433 C  
HETATM   10  C   UNL     1     -11.327  12.026  63.489  1.00  0.00    -0.528 C  
ENDBRANCH   8   9
BRANCH   8  11
HETATM   11  C   UNL     1     -10.845  12.239  66.177  1.00  0.00    -0.279 C  
BRANCH  11  12
HETATM   12  C   UNL     1     -10.879  11.067  67.170  1.00  0.00    -0.336 C  
BRANCH  12  13
HETATM   13  C   UNL     1     -11.992  11.214  68.214  1.00  0.00    -0.173 C  
BRANCH  13  14
HETATM   14  C   UNL     1     -11.447  11.596  69.597  1.00  0.00    -0.288 C  
HETATM   15  H   UNL     1     -11.870  12.903  71.008  1.00  0.00     0.000 HD 
HETATM   16  O   UNL     1     -12.207  12.666  70.152  1.00  0.00    -0.305 OA 
BRANCH  14  17
HETATM   17  C   UNL     1     -11.447  10.413  70.546  1.00  0.00    -0.431 A  
HETATM   18  C   UNL     1     -10.271   9.671  70.733  1.00  0.00    -0.330 A  
HETATM   19  C   UNL     1     -10.264   8.533  71.543  1.00  0.00    -0.320 A  
HETATM   20  C   UNL     1     -11.436   8.121  72.171  1.00  0.00    -0.350 A  
HETATM   21  C   UNL     1     -12.609  10.009  71.229  1.00  0.00    -0.495 A  
HETATM   22  C   UNL     1     -12.603   8.871  72.040  1.00  0.00    -0.460 A  
BRANCH  20  23
HETATM   23  N   UNL     1     -11.425   6.932  72.954  1.00  0.00    -0.501 N  
HETATM   24  H   UNL     1     -11.986   6.855  73.803  1.00  0.00     0.000 HD 
BRANCH  23  25
HETATM   25  S   UNL     1     -10.451   5.655  72.434  1.00  0.00    -0.221 S  
HETATM   26  C   UNL     1     -11.000   4.341  73.503  1.00  0.00    -0.287 C  
HETATM   27  O   UNL     1      -9.107   6.008  72.834  1.00  0.00    -0.133 OA 
HETATM   28  O   UNL     1     -10.760   5.317  71.062  1.00  0.00    -0.213 OA 
ENDBRANCH  23  25
ENDBRANCH  20  23
ENDBRANCH  14  17
ENDBRANCH  13  14
ENDBRANCH  12  13
ENDBRANCH  11  12
ENDBRANCH   8  11
ENDBRANCH   7   8
ENDBRANCH   6   7
ENDBRANCH   5   6
ENDBRANCH   4   5
ENDBRANCH   3   4
ENDBRANCH   2   3
TORSDOF 14
ENDMDL
MODEL       27
REMARK 921   NORMALIZED FREE ENERGY PREDICTED BY IDOCK:   -4.82 KCAL/MOL
REMARK 922        TOTAL FREE ENERGY PREDICTED BY IDOCK:  -10.62 KCAL/MOL
REMARK 923 INTER-LIGAND FREE ENERGY PREDICTED BY IDOCK:   -9.58 KCAL/MOL
REMARK 924 INTRA-LIGAND FREE ENERGY PREDICTED BY IDOCK:   -1.04 KCAL/MOL
REMARK 927      BINDING AFFINITY PREDICTED BY RF-SCORE:    0.00 PKD
ROOT
HETATM    1  C   UNL     1     -12.490  15.752  74.234  1.00  0.00    -0.800 C  
HETATM    2  C   UNL     1     -12.955  15.721  72.790  1.00  0.00    -0.585 C  
ENDROOT
BRANCH   2   3
HETATM    3  C   UNL     1     -11.772  15.739  71.824  1.00  0.00    -0.562 C  
BRANCH   3   4
HETATM    4  C   UNL     1     -12.251  15.486  70.399  1.00  0.00    -0.443 C  
BRANCH   4   5
HETATM    5  C   UNL     1     -11.112  15.053  69.480  1.00  0.00    -0.292 C  
BRANCH   5   6
HETATM    6  C   UNL     1     -11.580  15.122  68.029  1.00  0.00    -0.345 C  
BRANCH   6   7
HETATM    7  C   UNL     1     -10.748  14.212  67.121  1.00  0.00    -0.280 C  
BRANCH   7   8
HETATM    8  N   UNL     1     -11.553  13.506  66.108  1.00  0.00    -0.331 NA 
BRANCH   8   9
HETATM    9  C   UNL     1     -11.110  13.733  64.721  1.00  0.00    -0.377 C  
HETATM   10  C   UNL     1     -11.691  12.798  63.663  1.00  0.00    -0.587 C  
ENDBRANCH   8   9
BRANCH   8  11
HETATM   11  C   UNL     1     -11.677  12.067  66.404  1.00  0.00    -0.252 C  
BRANCH  11  12
HETATM   12  C   UNL     1     -10.830  11.584  67.592  1.00  0.00    -0.277 C  
BRANCH  12  13
HETATM   13  C   UNL     1     -11.633  10.725  68.575  1.00  0.00    -0.325 C  
BRANCH  13  14
HETATM   14  C   UNL     1     -11.490  11.212  70.024  1.00  0.00    -0.292 C  
HETATM   15  H   UNL     1     -12.486  12.371  71.266  1.00  0.00     0.000 HD 
HETATM   16  O   UNL     1     -12.574  12.070  70.369  1.00  0.00    -0.169 OA 
BRANCH  14  17
HETATM   17  C   UNL     1     -11.416  10.052  70.999  1.00  0.00    -0.463 A  
HETATM   18  C   UNL     1     -10.176   9.458  71.280  1.00  0.00    -0.340 A  
HETATM   19  C   UNL     1     -10.092   8.342  72.116  1.00  0.00    -0.376 A  
HETATM   20  C   UNL     1     -11.248   7.805  72.677  1.00  0.00    -0.381 A  
HETATM   21  C   UNL     1     -12.566   9.525  71.615  1.00  0.00    -0.476 A  
HETATM   22  C   UNL     1     -12.482   8.409  72.452  1.00  0.00    -0.390 A  
BRANCH  20  23
HETATM   23  N   UNL     1     -11.150   6.639  73.488  1.00  0.00    -0.481 N  
HETATM   24  H   UNL     1     -11.238   6.694  74.503  1.00  0.00     0.000 HD 
BRANCH  23  25
HETATM   25  S   UNL     1     -10.883   5.161  72.716  1.00  0.00    -0.268 S  
HETATM   26  C   UNL     1      -9.142   4.926  73.004  1.00  0.00    -0.117 C  
HETATM   27  O   UNL     1     -11.059   5.427  71.305  1.00  0.00    -0.136 OA 
HETATM   28  O   UNL     1     -11.624   4.110  73.377  1.00  0.00    -0.231 OA 
ENDBRANCH  23  25
ENDBRANCH  20  23
ENDBRANCH  14  17
ENDBRANCH  13  14
ENDBRANCH  12  13
ENDBRANCH  11  12
ENDBRANCH   8  11
ENDBRANCH   7   8
ENDBRANCH   6   7
ENDBRANCH   5   6
ENDBRANCH   4   5
ENDBRANCH   3   4
ENDBRANCH   2   3
TORSDOF 14
ENDMDL
MODEL       28
REMARK 921   NORMALIZED FREE ENERGY PREDICTED BY IDOCK:   -4.81 KCAL/MOL
REMARK 922        TOTAL FREE ENERGY PREDICTED BY IDOCK:  -10.61 KCAL/MOL
REMARK 923 INTER-LIGAND FREE ENERGY PREDICTED BY IDOCK:   -8.58 KCAL/MOL
REMARK 924 INTRA-LIGAND FREE ENERGY PREDICTED BY IDOCK:   -2.02 KCAL/MOL
REMARK 927      BINDING AFFINITY PREDICTED BY RF-SCORE:    0.00 PKD
ROOT
HETATM    1  C   UNL     1     -12.710  15.229  70.741  1.00  0.00    -0.491 C  
HETATM    2  C   UNL     1     -13.205  14.018  71.509  1.00  0.00    -0.431 C  
ENDROOT
BRANCH   2   3
HETATM    3  C   UNL     1     -12.612  12.725  70.954  1.00  0.00    -0.342 C  
BRANCH   3   4
HETATM    4  C   UNL     1     -13.100  11.530  71.765  1.00  0.00    -0.503 C  
BRANCH   4   5
HETATM    5  C   UNL     1     -12.412  10.234  71.346  1.00  0.00    -0.528 C  
BRANCH   5   6
HETATM    6  C   UNL     1     -13.305   9.049  71.705  1.00  0.00    -0.453 C  
BRANCH   6   7
HETATM    7  C   UNL     1     -12.600   7.713  71.458  1.00  0.00    -0.343 C  
BRANCH   7   8
HETATM    8  N   UNL     1     -11.205   7.693  71.934  1.00  0.00    -0.249 NA 
BRANCH   8   9
HETATM    9  C   UNL     1     -11.013   6.976  73.208  1.00  0.00    -0.262 C  
HETATM   10  C   UNL     1     -11.013   5.451  73.134  1.00  0.00    -0.353 C  
ENDBRANCH   8   9
BRANCH   8  11
HETATM   11  C   UNL     1     -10.273   7.209  70.900  1.00  0.00    -0.197 C  
BRANCH  11  12
HETATM   12  C   UNL     1     -10.868   7.146  69.484  1.00  0.00    -0.244 C  
BRANCH  12  13
HETATM   13  C   UNL     1     -10.058   7.963  68.471  1.00  0.00    -0.216 C  
BRANCH  13  14
HETATM   14  C   UNL     1      -9.422   9.209  69.103  1.00  0.00    -0.156 C  
HETATM   15  H   UNL     1      -7.607   9.892  69.442  1.00  0.00     0.000 HD 
HETATM   16  O   UNL     1      -8.001   9.121  69.051  1.00  0.00    -0.097 OA 
BRANCH  14  17
HETATM   17  C   UNL     1      -9.888  10.482  68.423  1.00  0.00    -0.171 A  
HETATM   18  C   UNL     1      -9.008  11.568  68.300  1.00  0.00    -0.177 A  
HETATM   19  C   UNL     1      -9.436  12.776  67.745  1.00  0.00    -0.205 A  
HETATM   20  C   UNL     1     -10.752  12.914  67.311  1.00  0.00    -0.245 A  
HETATM   21  C   UNL     1     -11.199  10.625  67.932  1.00  0.00    -0.376 A  
HETATM   22  C   UNL     1     -11.628  11.833  67.376  1.00  0.00    -0.352 A  
BRANCH  20  23
HETATM   23  N   UNL     1     -11.185  14.167  66.792  1.00  0.00    -0.313 N  
HETATM   24  H   UNL     1     -11.242  14.993  67.389  1.00  0.00     0.000 HD 
BRANCH  23  25
HETATM   25  S   UNL     1     -11.603  14.242  65.158  1.00  0.00    -0.372 S  
HETATM   26  C   UNL     1     -11.223  15.940  64.779  1.00  0.00    -0.355 C  
HETATM   27  O   UNL     1     -13.041  14.098  65.122  1.00  0.00    -0.757 OA 
HETATM   28  O   UNL     1     -10.744  13.374  64.382  1.00  0.00    -0.396 OA 
ENDBRANCH  23  25
ENDBRANCH  20  23
ENDBRANCH  14  17
ENDBRANCH  13  14
ENDBRANCH  12  13
ENDBRANCH  11  12
ENDBRANCH   8  11
ENDBRANCH   7   8
ENDBRANCH   6   7
ENDBRANCH   5   6
ENDBRANCH   4   5
ENDBRANCH   3   4
ENDBRANCH   2   3
TORSDOF 14
ENDMDL
MODEL       29
REMARK 921   NORMALIZED FREE ENERGY PREDICTED BY IDOCK:   -4.81 KCAL/MOL
REMARK 922        TOTAL FREE ENERGY PREDICTED BY IDOCK:  -10.60 KCAL/MOL
REMARK 923 INTER-LIGAND FREE ENERGY PREDICTED BY IDOCK:   -9.65 KCAL/MOL
REMARK 924 INTRA-LIGAND FREE ENERGY PREDICTED BY IDOCK:   -0.95 KCAL/MOL
REMARK 927      BINDING AFFINITY PREDICTED BY RF-SCORE:    0.00 PKD
ROOT
HETATM    1  C   UNL     1      -9.932  19.775  66.052  1.00  0.00    -0.541 C  
HETATM    2  C   UNL     1      -9.565  20.120  67.484  1.00  0.00    -0.547 C  
ENDROOT
BRANCH   2   3
HETATM    3  C   UNL     1     -10.113  19.084  68.464  1.00  0.00    -0.467 C  
BRANCH   3   4
HETATM    4  C   UNL     1      -9.458  17.730  68.220  1.00  0.00    -0.290 C  
BRANCH   4   5
HETATM    5  C   UNL     1     -10.478  16.594  68.215  1.00  0.00    -0.321 C  
BRANCH   5   6
HETATM    6  C   UNL     1     -10.469  15.900  69.574  1.00  0.00    -0.281 C  
BRANCH   6   7
HETATM    7  C   UNL     1     -11.699  16.267  70.407  1.00  0.00    -0.088 C  
BRANCH   7   8
HETATM    8  N   UNL     1     -11.860  15.429  71.609  1.00  0.00    -0.360 NA 
BRANCH   8   9
HETATM    9  C   UNL     1     -11.796  16.176  72.878  1.00  0.00    -0.445 C  
HETATM   10  C   UNL     1     -12.212  15.415  74.134  1.00  0.00    -0.759 C  
ENDBRANCH   8   9
BRANCH   8  11
HETATM   11  C   UNL     1     -13.070  14.590  71.541  1.00  0.00    -0.343 C  
BRANCH  11  12
HETATM   12  C   UNL     1     -12.800  13.078  71.575  1.00  0.00    -0.386 C  
BRANCH  12  13
HETATM   13  C   UNL     1     -12.051  12.587  70.330  1.00  0.00    -0.380 C  
BRANCH  13  14
HETATM   14  C   UNL     1     -12.575  11.232  69.833  1.00  0.00    -0.064 C  
HETATM   15  H   UNL     1     -12.473  10.159  68.185  1.00  0.00     0.000 HD 
HETATM   16  O   UNL     1     -12.149  10.997  68.494  1.00  0.00    -0.573 OA 
BRANCH  14  17
HETATM   17  C   UNL     1     -12.124  10.094  70.728  1.00  0.00    -0.438 A  
HETATM   18  C   UNL     1     -13.057   9.443  71.549  1.00  0.00    -0.451 A  
HETATM   19  C   UNL     1     -12.654   8.443  72.437  1.00  0.00    -0.372 A  
HETATM   20  C   UNL     1     -11.310   8.086  72.516  1.00  0.00    -0.406 A  
HETATM   21  C   UNL     1     -10.779   9.684  70.787  1.00  0.00    -0.401 A  
HETATM   22  C   UNL     1     -10.375   8.683  71.674  1.00  0.00    -0.366 A  
BRANCH  20  23
HETATM   23  N   UNL     1     -10.908   7.099  73.460  1.00  0.00    -0.542 N  
HETATM   24  H   UNL     1     -10.719   7.345  74.432  1.00  0.00     0.000 HD 
BRANCH  23  25
HETATM   25  S   UNL     1     -10.754   5.507  72.919  1.00  0.00    -0.270 S  
HETATM   26  C   UNL     1      -8.989   5.285  72.988  1.00  0.00    -0.119 C  
HETATM   27  O   UNL     1     -11.135   5.536  71.524  1.00  0.00    -0.203 OA 
HETATM   28  O   UNL     1     -11.388   4.599  73.849  1.00  0.00    -0.242 OA 
ENDBRANCH  23  25
ENDBRANCH  20  23
ENDBRANCH  14  17
ENDBRANCH  13  14
ENDBRANCH  12  13
ENDBRANCH  11  12
ENDBRANCH   8  11
ENDBRANCH   7   8
ENDBRANCH   6   7
ENDBRANCH   5   6
ENDBRANCH   4   5
ENDBRANCH   3   4
ENDBRANCH   2   3
TORSDOF 14
ENDMDL
MODEL       30
REMARK 921   NORMALIZED FREE ENERGY PREDICTED BY IDOCK:   -4.79 KCAL/MOL
REMARK 922        TOTAL FREE ENERGY PREDICTED BY IDOCK:  -10.56 KCAL/MOL
REMARK 923 INTER-LIGAND FREE ENERGY PREDICTED BY IDOCK:   -8.89 KCAL/MOL
REMARK 924 INTRA-LIGAND FREE ENERGY PREDICTED BY IDOCK:   -1.68 KCAL/MOL
REMARK 927      BINDING AFFINITY PREDICTED BY RF-SCORE:    0.00 PKD
ROOT
HETATM    1  C   UNL     1     -13.985  15.114  71.986  1.00  0.00    -0.629 C  
HETATM    2  C   UNL     1     -13.297  13.885  71.419  1.00  0.00    -0.363 C  
ENDROOT
BRANCH   2   3
HETATM    3  C   UNL     1     -12.535  14.215  70.137  1.00  0.00    -0.391 C  
BRANCH   3   4
HETATM    4  C   UNL     1     -12.210  15.703  70.086  1.00  0.00    -0.387 C  
BRANCH   4   5
HETATM    5  C   UNL     1     -10.798  15.962  69.566  1.00  0.00    -0.305 C  
BRANCH   5   6
HETATM    6  C   UNL     1     -10.834  17.104  68.553  1.00  0.00    -0.281 C  
BRANCH   6   7
HETATM    7  C   UNL     1      -9.703  18.106  68.788  1.00  0.00    -0.325 C  
BRANCH   7   8
HETATM    8  N   UNL     1      -8.807  18.258  67.627  1.00  0.00    -0.254 NA 
BRANCH   8   9
HETATM    9  C   UNL     1      -8.616  19.652  67.190  1.00  0.00    -0.308 C  
HETATM   10  C   UNL     1      -9.885  20.465  66.942  1.00  0.00    -0.572 C  
ENDBRANCH   8   9
BRANCH   8  11
HETATM   11  C   UNL     1      -7.516  17.577  67.830  1.00  0.00    -0.191 C  
BRANCH  11  12
HETATM   12  C   UNL     1      -7.405  16.800  69.151  1.00  0.00    -0.213 C  
BRANCH  12  13
HETATM   13  C   UNL     1      -7.435  15.281  68.944  1.00  0.00    -0.147 C  
BRANCH  13  14
HETATM   14  C   UNL     1      -7.394  14.896  67.459  1.00  0.00    -0.204 C  
HETATM   15  H   UNL     1      -6.396  13.640  66.317  1.00  0.00     0.000 HD 
HETATM   16  O   UNL     1      -6.421  13.879  67.236  1.00  0.00    -0.282 OA 
BRANCH  14  17
HETATM   17  C   UNL     1      -8.751  14.432  66.963  1.00  0.00    -0.244 A  
HETATM   18  C   UNL     1      -9.338  13.284  67.515  1.00  0.00    -0.218 A  
HETATM   19  C   UNL     1     -10.551  12.795  67.024  1.00  0.00    -0.253 A  
HETATM   20  C   UNL     1     -11.189  13.447  65.972  1.00  0.00    -0.296 A  
HETATM   21  C   UNL     1      -9.435  15.106  65.934  1.00  0.00    -0.334 A  
HETATM   22  C   UNL     1     -10.649  14.617  65.444  1.00  0.00    -0.390 A  
BRANCH  20  23
HETATM   23  N   UNL     1     -12.399  12.909  65.452  1.00  0.00    -0.480 N  
HETATM   24  H   UNL     1     -13.215  12.773  66.049  1.00  0.00     0.000 HD 
BRANCH  23  25
HETATM   25  S   UNL     1     -12.442  12.502  63.814  1.00  0.00    -0.435 S  
HETATM   26  C   UNL     1     -10.857  11.718  63.608  1.00  0.00    -0.440 C  
HETATM   27  O   UNL     1     -12.401  13.761  63.104  1.00  0.00    -0.726 OA 
HETATM   28  O   UNL     1     -13.490  11.536  63.566  1.00  0.00    -0.219 OA 
ENDBRANCH  23  25
ENDBRANCH  20  23
ENDBRANCH  14  17
ENDBRANCH  13  14
ENDBRANCH  12  13
ENDBRANCH  11  12
ENDBRANCH   8  11
ENDBRANCH   7   8
ENDBRANCH   6   7
ENDBRANCH   5   6
ENDBRANCH   4   5
ENDBRANCH   3   4
ENDBRANCH   2   3
TORSDOF 14
ENDMDL
MODEL       31
REMARK 921   NORMALIZED FREE ENERGY PREDICTED BY IDOCK:   -4.79 KCAL/MOL
REMARK 922        TOTAL FREE ENERGY PREDICTED BY IDOCK:  -10.56 KCAL/MOL
REMARK 923 INTER-LIGAND FREE ENERGY PREDICTED BY IDOCK:   -8.82 KCAL/MOL
REMARK 924 INTRA-LIGAND FREE ENERGY PREDICTED BY IDOCK:   -1.73 KCAL/MOL
REMARK 927      BINDING AFFINITY PREDICTED BY RF-SCORE:    0.00 PKD
ROOT
HETATM    1  C   UNL     1     -10.305  10.957  64.418  1.00  0.00    -0.430 C  
HETATM    2  C   UNL     1     -10.825  11.832  65.544  1.00  0.00    -0.348 C  
ENDROOT
BRANCH   2   3
HETATM    3  C   UNL     1     -10.197  11.449  66.883  1.00  0.00    -0.254 C  
BRANCH   3   4
HETATM    4  C   UNL     1     -11.139  10.545  67.667  1.00  0.00    -0.375 C  
BRANCH   4   5
HETATM    5  C   UNL     1     -10.440   9.283  68.164  1.00  0.00    -0.263 C  
BRANCH   5   6
HETATM    6  C   UNL     1      -9.674   9.600  69.446  1.00  0.00    -0.203 C  
BRANCH   6   7
HETATM    7  C   UNL     1      -9.995   8.601  70.560  1.00  0.00    -0.189 C  
BRANCH   7   8
HETATM    8  N   UNL     1     -11.441   8.394  70.760  1.00  0.00    -0.272 NA 
BRANCH   8   9
HETATM    9  C   UNL     1     -11.860   6.982  70.716  1.00  0.00    -0.355 C  
HETATM   10  C   UNL     1     -11.051   6.063  69.803  1.00  0.00    -0.476 C  
ENDBRANCH   8   9
BRANCH   8  11
HETATM   11  C   UNL     1     -11.933   9.063  71.977  1.00  0.00    -0.363 C  
BRANCH  11  12
HETATM   12  C   UNL     1     -12.896  10.232  71.718  1.00  0.00    -0.565 C  
BRANCH  12  13
HETATM   13  C   UNL     1     -12.216  11.405  71.003  1.00  0.00    -0.391 C  
BRANCH  13  14
HETATM   14  C   UNL     1     -12.985  12.721  71.184  1.00  0.00    -0.157 C  
HETATM   15  H   UNL     1     -13.642  13.820  72.680  1.00  0.00     0.000 HD 
HETATM   16  O   UNL     1     -13.166  13.005  72.568  1.00  0.00    -0.453 OA 
BRANCH  14  17
HETATM   17  C   UNL     1     -12.280  13.880  70.505  1.00  0.00    -0.443 A  
HETATM   18  C   UNL     1     -11.891  14.997  71.259  1.00  0.00    -0.389 A  
HETATM   19  C   UNL     1     -11.308  16.107  70.644  1.00  0.00    -0.394 A  
HETATM   20  C   UNL     1     -11.111  16.115  69.266  1.00  0.00    -0.327 A  
HETATM   21  C   UNL     1     -12.026  13.886  69.120  1.00  0.00    -0.404 A  
HETATM   22  C   UNL     1     -11.442  14.996  68.505  1.00  0.00    -0.335 A  
BRANCH  20  23
HETATM   23  N   UNL     1     -10.559  17.273  68.649  1.00  0.00    -0.348 N  
HETATM   24  H   UNL     1     -11.145  18.075  68.416  1.00  0.00     0.000 HD 
BRANCH  23  25
HETATM   25  S   UNL     1      -8.905  17.276  68.313  1.00  0.00    -0.264 S  
HETATM   26  C   UNL     1      -8.900  16.885  66.576  1.00  0.00    -0.271 C  
HETATM   27  O   UNL     1      -8.367  16.133  69.018  1.00  0.00    -0.227 OA 
HETATM   28  O   UNL     1      -8.357  18.600  68.508  1.00  0.00    -0.327 OA 
ENDBRANCH  23  25
ENDBRANCH  20  23
ENDBRANCH  14  17
ENDBRANCH  13  14
ENDBRANCH  12  13
ENDBRANCH  11  12
ENDBRANCH   8  11
ENDBRANCH   7   8
ENDBRANCH   6   7
ENDBRANCH   5   6
ENDBRANCH   4   5
ENDBRANCH   3   4
ENDBRANCH   2   3
TORSDOF 14
ENDMDL
MODEL       32
REMARK 921   NORMALIZED FREE ENERGY PREDICTED BY IDOCK:   -4.79 KCAL/MOL
REMARK 922        TOTAL FREE ENERGY PREDICTED BY IDOCK:  -10.56 KCAL/MOL
REMARK 923 INTER-LIGAND FREE ENERGY PREDICTED BY IDOCK:   -8.62 KCAL/MOL
REMARK 924 INTRA-LIGAND FREE ENERGY PREDICTED BY IDOCK:   -1.93 KCAL/MOL
REMARK 927      BINDING AFFINITY PREDICTED BY RF-SCORE:    0.00 PKD
ROOT
HETATM    1  C   UNL     1     -12.672  13.963  65.541  1.00  0.00    -0.536 C  
HETATM    2  C   UNL     1     -12.516  12.606  64.880  1.00  0.00    -0.564 C  
ENDROOT
BRANCH   2   3
HETATM    3  C   UNL     1     -11.810  12.722  63.530  1.00  0.00    -0.618 C  
BRANCH   3   4
HETATM    4  C   UNL     1     -10.341  12.341  63.670  1.00  0.00    -0.463 C  
BRANCH   4   5
HETATM    5  C   UNL     1     -10.049  10.963  63.085  1.00  0.00    -0.317 C  
BRANCH   5   6
HETATM    6  C   UNL     1      -9.173  10.176  64.057  1.00  0.00    -0.315 C  
BRANCH   6   7
HETATM    7  C   UNL     1      -9.683  10.284  65.495  1.00  0.00    -0.265 C  
BRANCH   7   8
HETATM    8  N   UNL     1      -9.976   8.976  66.110  1.00  0.00    -0.284 NA 
BRANCH   8   9
HETATM    9  C   UNL     1      -8.856   8.020  66.053  1.00  0.00    -0.162 C  
HETATM   10  C   UNL     1      -9.192   6.564  66.364  1.00  0.00    -0.178 C  
ENDBRANCH   8   9
BRANCH   8  11
HETATM   11  C   UNL     1     -10.497   9.113  67.482  1.00  0.00    -0.270 C  
BRANCH  11  12
HETATM   12  C   UNL     1     -11.323  10.385  67.727  1.00  0.00    -0.205 C  
BRANCH  12  13
HETATM   13  C   UNL     1     -10.918  11.109  69.016  1.00  0.00    -0.286 C  
BRANCH  13  14
HETATM   14  C   UNL     1     -11.850  12.285  69.340  1.00  0.00    -0.310 C  
HETATM   15  H   UNL     1     -12.707  13.055  70.937  1.00  0.00     0.000 HD 
HETATM   16  O   UNL     1     -12.131  12.327  70.736  1.00  0.00    -0.340 OA 
BRANCH  14  17
HETATM   17  C   UNL     1     -11.259  13.608  68.890  1.00  0.00    -0.309 A  
HETATM   18  C   UNL     1     -10.007  13.631  68.257  1.00  0.00    -0.236 A  
HETATM   19  C   UNL     1      -9.408  14.842  67.901  1.00  0.00    -0.193 A  
HETATM   20  C   UNL     1     -10.053  16.044  68.180  1.00  0.00    -0.234 A  
HETATM   21  C   UNL     1     -11.917  14.831  69.118  1.00  0.00    -0.317 A  
HETATM   22  C   UNL     1     -11.318  16.042  68.762  1.00  0.00    -0.380 A  
BRANCH  20  23
HETATM   23  N   UNL     1      -9.408  17.271  67.855  1.00  0.00    -0.253 N  
HETATM   24  H   UNL     1      -9.073  17.900  68.585  1.00  0.00     0.000 HD 
BRANCH  23  25
HETATM   25  S   UNL     1      -9.214  17.651  66.222  1.00  0.00    -0.135 S  
HETATM   26  C   UNL     1      -9.355  19.426  66.258  1.00  0.00    -0.355 C  
HETATM   27  O   UNL     1     -10.394  17.134  65.564  1.00  0.00    -0.599 OA 
HETATM   28  O   UNL     1      -7.888  17.285  65.776  1.00  0.00    -0.495 OA 
ENDBRANCH  23  25
ENDBRANCH  20  23
ENDBRANCH  14  17
ENDBRANCH  13  14
ENDBRANCH  12  13
ENDBRANCH  11  12
ENDBRANCH   8  11
ENDBRANCH   7   8
ENDBRANCH   6   7
ENDBRANCH   5   6
ENDBRANCH   4   5
ENDBRANCH   3   4
ENDBRANCH   2   3
TORSDOF 14
ENDMDL
MODEL       33
REMARK 921   NORMALIZED FREE ENERGY PREDICTED BY IDOCK:   -4.78 KCAL/MOL
REMARK 922        TOTAL FREE ENERGY PREDICTED BY IDOCK:  -10.54 KCAL/MOL
REMARK 923 INTER-LIGAND FREE ENERGY PREDICTED BY IDOCK:   -8.82 KCAL/MOL
REMARK 924 INTRA-LIGAND FREE ENERGY PREDICTED BY IDOCK:   -1.72 KCAL/MOL
REMARK 927      BINDING AFFINITY PREDICTED BY RF-SCORE:    0.00 PKD
ROOT
HETATM    1  C   UNL     1     -12.443  12.706  64.781  1.00  0.00    -0.555 C  
HETATM    2  C   UNL     1     -11.546  11.984  63.793  1.00  0.00    -0.565 C  
ENDROOT
BRANCH   2   3
HETATM    3  C   UNL     1     -10.490  11.145  64.510  1.00  0.00    -0.415 C  
BRANCH   3   4
HETATM    4  C   UNL     1     -10.613  11.321  66.019  1.00  0.00    -0.314 C  
BRANCH   4   5
HETATM    5  C   UNL     1      -9.690  10.375  66.782  1.00  0.00    -0.224 C  
BRANCH   5   6
HETATM    6  C   UNL     1     -10.524   9.281  67.444  1.00  0.00    -0.340 C  
BRANCH   6   7
HETATM    7  C   UNL     1      -9.912   8.826  68.771  1.00  0.00    -0.185 C  
BRANCH   7   8
HETATM    8  N   UNL     1     -10.859   8.879  69.899  1.00  0.00    -0.228 NA 
BRANCH   8   9
HETATM    9  C   UNL     1     -10.873   7.663  70.732  1.00  0.00    -0.239 C  
HETATM   10  C   UNL     1     -11.868   6.578  70.330  1.00  0.00    -0.378 C  
ENDBRANCH   8   9
BRANCH   8  11
HETATM   11  C   UNL     1     -10.677  10.090  70.719  1.00  0.00    -0.202 C  
BRANCH  11  12
HETATM   12  C   UNL     1     -11.858  11.072  70.678  1.00  0.00    -0.434 C  
BRANCH  12  13
HETATM   13  C   UNL     1     -11.772  12.045  69.497  1.00  0.00    -0.408 C  
BRANCH  13  14
HETATM   14  C   UNL     1     -12.271  13.450  69.863  1.00  0.00    -0.271 C  
HETATM   15  H   UNL     1     -12.543  14.508  71.501  1.00  0.00     0.000 HD 
HETATM   16  O   UNL     1     -12.234  13.638  71.275  1.00  0.00    -0.318 OA 
BRANCH  14  17
HETATM   17  C   UNL     1     -11.456  14.530  69.175  1.00  0.00    -0.324 A  
HETATM   18  C   UNL     1     -11.060  15.667  69.894  1.00  0.00    -0.323 A  
HETATM   19  C   UNL     1     -10.375  16.708  69.265  1.00  0.00    -0.318 A  
HETATM   20  C   UNL     1     -10.082  16.626  67.906  1.00  0.00    -0.270 A  
HETATM   21  C   UNL     1     -11.107  14.442  67.815  1.00  0.00    -0.299 A  
HETATM   22  C   UNL     1     -10.421  15.484  67.184  1.00  0.00    -0.286 A  
BRANCH  20  23
HETATM   23  N   UNL     1      -9.425  17.716  67.269  1.00  0.00    -0.253 N  
HETATM   24  H   UNL     1      -8.412  17.823  67.319  1.00  0.00     0.000 HD 
BRANCH  23  25
HETATM   25  S   UNL     1     -10.378  18.828  66.427  1.00  0.00    -0.447 S  
HETATM   26  C   UNL     1      -9.173  20.066  65.998  1.00  0.00    -0.246 C  
HETATM   27  O   UNL     1     -11.262  19.404  67.417  1.00  0.00    -0.348 OA 
HETATM   28  O   UNL     1     -10.898  18.227  65.219  1.00  0.00    -0.629 OA 
ENDBRANCH  23  25
ENDBRANCH  20  23
ENDBRANCH  14  17
ENDBRANCH  13  14
ENDBRANCH  12  13
ENDBRANCH  11  12
ENDBRANCH   8  11
ENDBRANCH   7   8
ENDBRANCH   6   7
ENDBRANCH   5   6
ENDBRANCH   4   5
ENDBRANCH   3   4
ENDBRANCH   2   3
TORSDOF 14
ENDMDL
MODEL       34
REMARK 921   NORMALIZED FREE ENERGY PREDICTED BY IDOCK:   -4.78 KCAL/MOL
REMARK 922        TOTAL FREE ENERGY PREDICTED BY IDOCK:  -10.54 KCAL/MOL
REMARK 923 INTER-LIGAND FREE ENERGY PREDICTED BY IDOCK:   -8.84 KCAL/MOL
REMARK 924 INTRA-LIGAND FREE ENERGY PREDICTED BY IDOCK:   -1.70 KCAL/MOL
REMARK 927      BINDING AFFINITY PREDICTED BY RF-SCORE:    0.00 PKD
ROOT
HETATM    1  C   UNL     1     -13.557   8.972  72.046  1.00  0.00    -0.500 C  
HETATM    2  C   UNL     1     -12.048   9.075  72.171  1.00  0.00    -0.412 C  
ENDROOT
BRANCH   2   3
HETATM    3  C   UNL     1     -11.447   9.873  71.015  1.00  0.00    -0.466 C  
BRANCH   3   4
HETATM    4  C   UNL     1     -12.370  11.024  70.635  1.00  0.00    -0.480 C  
BRANCH   4   5
HETATM    5  C   UNL     1     -12.061  11.569  69.243  1.00  0.00    -0.344 C  
BRANCH   5   6
HETATM    6  C   UNL     1     -10.798  10.899  68.707  1.00  0.00    -0.251 C  
BRANCH   6   7
HETATM    7  C   UNL     1     -10.966  10.453  67.253  1.00  0.00    -0.240 C  
BRANCH   7   8
HETATM    8  N   UNL     1      -9.686  10.182  66.574  1.00  0.00    -0.190 NA 
BRANCH   8   9
HETATM    9  C   UNL     1      -9.459   8.760  66.260  1.00  0.00    -0.234 C  
HETATM   10  C   UNL     1      -9.251   7.828  67.452  1.00  0.00    -0.156 C  
ENDBRANCH   8   9
BRANCH   8  11
HETATM   11  C   UNL     1      -9.500  11.031  65.383  1.00  0.00    -0.222 C  
BRANCH  11  12
HETATM   12  C   UNL     1     -10.507  10.773  64.252  1.00  0.00    -0.330 C  
BRANCH  12  13
HETATM   13  C   UNL     1     -10.540  11.910  63.224  1.00  0.00    -0.420 C  
BRANCH  13  14
HETATM   14  C   UNL     1     -11.786  12.793  63.374  1.00  0.00    -0.518 C  
HETATM   15  H   UNL     1     -13.724  12.533  63.613  1.00  0.00     0.000 HD 
HETATM   16  O   UNL     1     -12.952  11.986  63.520  1.00  0.00    -0.774 OA 
BRANCH  14  17
HETATM   17  C   UNL     1     -11.662  13.742  64.550  1.00  0.00    -0.432 A  
HETATM   18  C   UNL     1     -10.791  14.839  64.470  1.00  0.00    -0.181 A  
HETATM   19  C   UNL     1     -10.603  15.684  65.566  1.00  0.00    -0.422 A  
HETATM   20  C   UNL     1     -11.281  15.439  66.757  1.00  0.00    -0.197 A  
HETATM   21  C   UNL     1     -12.376  13.540  65.746  1.00  0.00    -0.516 A  
HETATM   22  C   UNL     1     -12.189  14.386  66.843  1.00  0.00    -0.300 A  
BRANCH  20  23
HETATM   23  N   UNL     1     -11.042  16.281  67.880  1.00  0.00    -0.310 N  
HETATM   24  H   UNL     1     -11.518  17.178  67.976  1.00  0.00     0.000 HD 
BRANCH  23  25
HETATM   25  S   UNL     1      -9.945  15.747  69.047  1.00  0.00    -0.251 S  
HETATM   26  C   UNL     1     -10.992  15.630  70.482  1.00  0.00    -0.350 C  
HETATM   27  O   UNL     1      -9.039  16.855  69.258  1.00  0.00    -0.144 OA 
HETATM   28  O   UNL     1      -9.451  14.432  68.705  1.00  0.00    -0.203 OA 
ENDBRANCH  23  25
ENDBRANCH  20  23
ENDBRANCH  14  17
ENDBRANCH  13  14
ENDBRANCH  12  13
ENDBRANCH  11  12
ENDBRANCH   8  11
ENDBRANCH   7   8
ENDBRANCH   6   7
ENDBRANCH   5   6
ENDBRANCH   4   5
ENDBRANCH   3   4
ENDBRANCH   2   3
TORSDOF 14
ENDMDL
MODEL       35
REMARK 921   NORMALIZED FREE ENERGY PREDICTED BY IDOCK:   -4.77 KCAL/MOL
REMARK 922        TOTAL FREE ENERGY PREDICTED BY IDOCK:  -10.53 KCAL/MOL
REMARK 923 INTER-LIGAND FREE ENERGY PREDICTED BY IDOCK:   -9.03 KCAL/MOL
REMARK 924 INTRA-LIGAND FREE ENERGY PREDICTED BY IDOCK:   -1.49 KCAL/MOL
REMARK 927      BINDING AFFINITY PREDICTED BY RF-SCORE:    0.00 PKD
ROOT
HETATM    1  C   UNL     1      -9.295   7.587  69.246  1.00  0.00    -0.151 C  
HETATM    2  C   UNL     1     -10.591   7.083  68.640  1.00  0.00    -0.238 C  
ENDROOT
BRANCH   2   3
HETATM    3  C   UNL     1     -11.381   6.238  69.637  1.00  0.00    -0.492 C  
BRANCH   3   4
HETATM    4  C   UNL     1     -11.315   6.863  71.025  1.00  0.00    -0.342 C  
BRANCH   4   5
HETATM    5  C   UNL     1     -12.620   7.558  71.403  1.00  0.00    -0.382 C  
BRANCH   5   6
HETATM    6  C   UNL     1     -12.305   8.888  72.083  1.00  0.00    -0.449 C  
BRANCH   6   7
HETATM    7  C   UNL     1     -11.660   9.882  71.114  1.00  0.00    -0.389 C  
BRANCH   7   8
HETATM    8  N   UNL     1     -12.549  11.000  70.748  1.00  0.00    -0.366 NA 
BRANCH   8   9
HETATM    9  C   UNL     1     -12.960  11.840  71.886  1.00  0.00    -0.330 C  
HETATM   10  C   UNL     1     -13.086  13.337  71.612  1.00  0.00    -0.453 C  
ENDBRANCH   8   9
BRANCH   8  11
HETATM   11  C   UNL     1     -11.992  11.814  69.652  1.00  0.00    -0.312 C  
BRANCH  11  12
HETATM   12  C   UNL     1     -11.915  11.092  68.297  1.00  0.00    -0.173 C  
BRANCH  12  13
HETATM   13  C   UNL     1     -10.683  11.502  67.483  1.00  0.00    -0.267 C  
BRANCH  13  14
HETATM   14  C   UNL     1     -11.018  12.539  66.402  1.00  0.00    -0.273 C  
HETATM   15  H   UNL     1     -12.618  13.153  65.432  1.00  0.00     0.000 HD 
HETATM   16  O   UNL     1     -12.410  12.511  66.101  1.00  0.00    -0.596 OA 
BRANCH  14  17
HETATM   17  C   UNL     1     -10.606  13.938  66.821  1.00  0.00    -0.277 A  
HETATM   18  C   UNL     1     -11.516  14.754  67.509  1.00  0.00    -0.369 A  
HETATM   19  C   UNL     1     -11.187  16.070  67.840  1.00  0.00    -0.276 A  
HETATM   20  C   UNL     1      -9.945  16.588  67.480  1.00  0.00    -0.255 A  
HETATM   21  C   UNL     1      -9.338  14.462  66.511  1.00  0.00    -0.300 A  
HETATM   22  C   UNL     1      -9.008  15.779  66.842  1.00  0.00    -0.266 A  
BRANCH  20  23
HETATM   23  N   UNL     1      -9.644  17.946  67.782  1.00  0.00    -0.271 N  
HETATM   24  H   UNL     1      -9.519  18.256  68.746  1.00  0.00     0.000 HD 
BRANCH  23  25
HETATM   25  S   UNL     1      -9.499  19.026  66.493  1.00  0.00    -0.353 S  
HETATM   26  C   UNL     1      -9.845  20.577  67.298  1.00  0.00    -0.441 C  
HETATM   27  O   UNL     1     -10.612  18.732  65.618  1.00  0.00    -0.596 OA 
HETATM   28  O   UNL     1      -8.140  19.036  65.999  1.00  0.00    -0.417 OA 
ENDBRANCH  23  25
ENDBRANCH  20  23
ENDBRANCH  14  17
ENDBRANCH  13  14
ENDBRANCH  12  13
ENDBRANCH  11  12
ENDBRANCH   8  11
ENDBRANCH   7   8
ENDBRANCH   6   7
ENDBRANCH   5   6
ENDBRANCH   4   5
ENDBRANCH   3   4
ENDBRANCH   2   3
TORSDOF 14
ENDMDL
MODEL       36
REMARK 921   NORMALIZED FREE ENERGY PREDICTED BY IDOCK:   -4.76 KCAL/MOL
REMARK 922        TOTAL FREE ENERGY PREDICTED BY IDOCK:  -10.51 KCAL/MOL
REMARK 923 INTER-LIGAND FREE ENERGY PREDICTED BY IDOCK:   -8.52 KCAL/MOL
REMARK 924 INTRA-LIGAND FREE ENERGY PREDICTED BY IDOCK:   -1.99 KCAL/MOL
REMARK 927      BINDING AFFINITY PREDICTED BY RF-SCORE:    0.00 PKD
ROOT
HETATM    1  C   UNL     1     -11.653   9.383  70.899  1.00  0.00    -0.380 C  
HETATM    2  C   UNL     1     -12.850  10.125  71.463  1.00  0.00    -0.548 C  
ENDROOT
BRANCH   2   3
HETATM    3  C   UNL     1     -12.718  11.633  71.257  1.00  0.00    -0.444 C  
BRANCH   3   4
HETATM    4  C   UNL     1     -11.888  11.924  70.013  1.00  0.00    -0.407 C  
BRANCH   4   5
HETATM    5  C   UNL     1     -11.811  13.419  69.713  1.00  0.00    -0.393 C  
BRANCH   5   6
HETATM    6  C   UNL     1     -12.059  13.648  68.224  1.00  0.00    -0.306 C  
BRANCH   6   7
HETATM    7  C   UNL     1     -11.253  14.835  67.692  1.00  0.00    -0.323 C  
BRANCH   7   8
HETATM    8  N   UNL     1     -11.448  15.073  66.250  1.00  0.00    -0.272 NA 
BRANCH   8   9
HETATM    9  C   UNL     1     -10.196  15.165  65.479  1.00  0.00    -0.376 C  
HETATM   10  C   UNL     1      -8.914  15.349  66.287  1.00  0.00    -0.341 C  
ENDBRANCH   8   9
BRANCH   8  11
HETATM   11  C   UNL     1     -12.379  14.101  65.649  1.00  0.00    -0.456 C  
BRANCH  11  12
HETATM   12  C   UNL     1     -11.996  13.643  64.233  1.00  0.00    -0.488 C  
BRANCH  12  13
HETATM   13  C   UNL     1     -12.118  12.125  64.054  1.00  0.00    -0.540 C  
BRANCH  13  14
HETATM   14  C   UNL     1     -10.766  11.464  63.754  1.00  0.00    -0.403 C  
HETATM   15  H   UNL     1      -8.961  12.040  63.218  1.00  0.00     0.000 HD 
HETATM   16  O   UNL     1      -9.798  12.449  63.403  1.00  0.00    -0.370 OA 
BRANCH  14  17
HETATM   17  C   UNL     1     -10.270  10.645  64.931  1.00  0.00    -0.395 A  
HETATM   18  C   UNL     1      -9.333   9.623  64.722  1.00  0.00    -0.286 A  
HETATM   19  C   UNL     1      -8.917   8.807  65.777  1.00  0.00    -0.253 A  
HETATM   20  C   UNL     1      -9.438   9.002  67.053  1.00  0.00    -0.163 A  
HETATM   21  C   UNL     1     -10.747  10.859  66.237  1.00  0.00    -0.241 A  
HETATM   22  C   UNL     1     -10.331  10.044  67.293  1.00  0.00    -0.293 A  
BRANCH  20  23
HETATM   23  N   UNL     1      -9.041   8.132  68.107  1.00  0.00    -0.135 N  
HETATM   24  H   UNL     1      -8.369   8.433  68.814  1.00  0.00     0.000 HD 
BRANCH  23  25
HETATM   25  S   UNL     1      -9.715   6.585  68.150  1.00  0.00    -0.128 S  
HETATM   26  C   UNL     1      -9.731   6.259  69.900  1.00  0.00    -0.166 C  
HETATM   27  O   UNL     1      -8.724   5.717  67.553  1.00  0.00    -0.109 OA 
HETATM   28  O   UNL     1     -11.075   6.619  67.657  1.00  0.00    -0.305 OA 
ENDBRANCH  23  25
ENDBRANCH  20  23
ENDBRANCH  14  17
ENDBRANCH  13  14
ENDBRANCH  12  13
ENDBRANCH  11  12
ENDBRANCH   8  11
ENDBRANCH   7   8
ENDBRANCH   6   7
ENDBRANCH   5   6
ENDBRANCH   4   5
ENDBRANCH   3   4
ENDBRANCH   2   3
TORSDOF 14
ENDMDL
MODEL       37
REMARK 921   NORMALIZED FREE ENERGY PREDICTED BY IDOCK:   -4.73 KCAL/MOL
REMARK 922        TOTAL FREE ENERGY PREDICTED BY IDOCK:  -10.46 KCAL/MOL
REMARK 923 INTER-LIGAND FREE ENERGY PREDICTED BY IDOCK:   -9.08 KCAL/MOL
REMARK 924 INTRA-LIGAND FREE ENERGY PREDICTED BY IDOCK:   -1.38 KCAL/MOL
REMARK 927      BINDING AFFINITY PREDICTED BY RF-SCORE:    0.00 PKD
ROOT
HETATM    1  C   UNL     1     -13.847   9.363  72.247  1.00  0.00    -0.441 C  
HETATM    2  C   UNL     1     -13.147  10.580  71.671  1.00  0.00    -0.551 C  
ENDROOT
BRANCH   2   3
HETATM    3  C   UNL     1     -11.891  10.186  70.896  1.00  0.00    -0.468 C  
BRANCH   3   4
HETATM    4  C   UNL     1     -11.075   9.176  71.694  1.00  0.00    -0.445 C  
BRANCH   4   5
HETATM    5  C   UNL     1      -9.626   9.109  71.220  1.00  0.00    -0.331 C  
BRANCH   5   6
HETATM    6  C   UNL     1      -9.490   9.867  69.901  1.00  0.00    -0.256 C  
BRANCH   6   7
HETATM    7  C   UNL     1      -8.988   8.961  68.775  1.00  0.00    -0.134 C  
BRANCH   7   8
HETATM    8  N   UNL     1      -9.192   9.533  67.432  1.00  0.00    -0.133 NA 
BRANCH   8   9
HETATM    9  C   UNL     1      -9.807   8.604  66.468  1.00  0.00    -0.278 C  
HETATM   10  C   UNL     1     -10.667   7.488  67.056  1.00  0.00    -0.367 C  
ENDBRANCH   8   9
BRANCH   8  11
HETATM   11  C   UNL     1      -9.917  10.816  67.479  1.00  0.00    -0.174 C  
BRANCH  11  12
HETATM   12  C   UNL     1     -10.568  11.230  66.150  1.00  0.00    -0.312 C  
BRANCH  12  13
HETATM   13  C   UNL     1     -11.857  12.035  66.353  1.00  0.00    -0.232 C  
BRANCH  13  14
HETATM   14  C   UNL     1     -11.910  13.283  65.461  1.00  0.00    -0.370 C  
HETATM   15  H   UNL     1     -13.291  14.358  64.559  1.00  0.00     0.000 HD 
HETATM   16  O   UNL     1     -13.258  13.586  65.111  1.00  0.00    -0.720 OA 
BRANCH  14  17
HETATM   17  C   UNL     1     -11.267  14.480  66.134  1.00  0.00    -0.339 A  
HETATM   18  C   UNL     1     -10.250  15.187  65.474  1.00  0.00    -0.405 A  
HETATM   19  C   UNL     1      -9.592  16.246  66.103  1.00  0.00    -0.362 A  
HETATM   20  C   UNL     1      -9.939  16.608  67.401  1.00  0.00    -0.265 A  
HETATM   21  C   UNL     1     -11.638  14.893  67.427  1.00  0.00    -0.347 A  
HETATM   22  C   UNL     1     -10.980  15.954  68.056  1.00  0.00    -0.336 A  
BRANCH  20  23
HETATM   23  N   UNL     1      -9.226  17.658  68.045  1.00  0.00    -0.264 N  
HETATM   24  H   UNL     1      -8.383  17.467  68.587  1.00  0.00     0.000 HD 
BRANCH  23  25
HETATM   25  S   UNL     1      -9.820  19.230  67.883  1.00  0.00    -0.375 S  
HETATM   26  C   UNL     1      -8.469  20.028  67.042  1.00  0.00    -0.333 C  
HETATM   27  O   UNL     1      -9.872  19.762  69.227  1.00  0.00    -0.385 OA 
HETATM   28  O   UNL     1     -10.987  19.238  67.030  1.00  0.00    -0.454 OA 
ENDBRANCH  23  25
ENDBRANCH  20  23
ENDBRANCH  14  17
ENDBRANCH  13  14
ENDBRANCH  12  13
ENDBRANCH  11  12
ENDBRANCH   8  11
ENDBRANCH   7   8
ENDBRANCH   6   7
ENDBRANCH   5   6
ENDBRANCH   4   5
ENDBRANCH   3   4
ENDBRANCH   2   3
TORSDOF 14
ENDMDL
MODEL       38
REMARK 921   NORMALIZED FREE ENERGY PREDICTED BY IDOCK:   -4.73 KCAL/MOL
REMARK 922        TOTAL FREE ENERGY PREDICTED BY IDOCK:  -10.45 KCAL/MOL
REMARK 923 INTER-LIGAND FREE ENERGY PREDICTED BY IDOCK:   -9.10 KCAL/MOL
REMARK 924 INTRA-LIGAND FREE ENERGY PREDICTED BY IDOCK:   -1.35 KCAL/MOL
REMARK 927      BINDING AFFINITY PREDICTED BY RF-SCORE:    0.00 PKD
ROOT
HETATM    1  C   UNL     1      -8.948  20.156  67.264  1.00  0.00    -0.458 C  
HETATM    2  C   UNL     1     -10.381  19.702  67.062  1.00  0.00    -0.581 C  
ENDROOT
BRANCH   2   3
HETATM    3  C   UNL     1     -10.468  18.184  66.908  1.00  0.00    -0.372 C  
BRANCH   3   4
HETATM    4  C   UNL     1      -9.072  17.572  66.930  1.00  0.00    -0.265 C  
BRANCH   4   5
HETATM    5  C   UNL     1      -9.007  16.269  66.139  1.00  0.00    -0.374 C  
BRANCH   5   6
HETATM    6  C   UNL     1     -10.385  15.960  65.558  1.00  0.00    -0.425 C  
BRANCH   6   7
HETATM    7  C   UNL     1     -10.406  14.612  64.834  1.00  0.00    -0.350 C  
BRANCH   7   8
HETATM    8  N   UNL     1     -11.749  14.008  64.767  1.00  0.00    -0.374 NA 
BRANCH   8   9
HETATM    9  C   UNL     1     -12.062  13.377  63.473  1.00  0.00    -0.432 C  
HETATM   10  C   UNL     1     -12.679  11.982  63.530  1.00  0.00    -0.567 C  
ENDBRANCH   8   9
BRANCH   8  11
HETATM   11  C   UNL     1     -11.998  13.084  65.889  1.00  0.00    -0.435 C  
BRANCH  11  12
HETATM   12  C   UNL     1     -12.483  13.764  67.179  1.00  0.00    -0.086 C  
BRANCH  12  13
HETATM   13  C   UNL     1     -11.479  13.624  68.329  1.00  0.00    -0.348 C  
BRANCH  13  14
HETATM   14  C   UNL     1     -10.464  12.499  68.082  1.00  0.00    -0.229 C  
HETATM   15  H   UNL     1      -8.505  12.298  68.058  1.00  0.00     0.000 HD 
HETATM   16  O   UNL     1      -9.134  12.994  68.211  1.00  0.00    -0.197 OA 
BRANCH  14  17
HETATM   17  C   UNL     1     -10.678  11.334  69.029  1.00  0.00    -0.257 A  
HETATM   18  C   UNL     1     -11.905  11.194  69.695  1.00  0.00    -0.419 A  
HETATM   19  C   UNL     1     -12.100  10.173  70.627  1.00  0.00    -0.411 A  
HETATM   20  C   UNL     1     -11.068   9.282  70.908  1.00  0.00    -0.306 A  
HETATM   21  C   UNL     1      -9.664  10.393  69.289  1.00  0.00    -0.231 A  
HETATM   22  C   UNL     1      -9.859   9.371  70.222  1.00  0.00    -0.290 A  
BRANCH  20  23
HETATM   23  N   UNL     1     -11.267   8.276  71.896  1.00  0.00    -0.279 N  
HETATM   24  H   UNL     1     -10.891   8.382  72.839  1.00  0.00     0.000 HD 
BRANCH  23  25
HETATM   25  S   UNL     1     -12.145   6.903  71.458  1.00  0.00    -0.374 S  
HETATM   26  C   UNL     1     -11.437   5.677  72.537  1.00  0.00    -0.279 C  
HETATM   27  O   UNL     1     -11.724   6.591  70.109  1.00  0.00    -0.418 OA 
HETATM   28  O   UNL     1     -13.543   7.078  71.784  1.00  0.00    -0.343 OA 
ENDBRANCH  23  25
ENDBRANCH  20  23
ENDBRANCH  14  17
ENDBRANCH  13  14
ENDBRANCH  12  13
ENDBRANCH  11  12
ENDBRANCH   8  11
ENDBRANCH   7   8
ENDBRANCH   6   7
ENDBRANCH   5   6
ENDBRANCH   4   5
ENDBRANCH   3   4
ENDBRANCH   2   3
TORSDOF 14
ENDMDL
MODEL       39
REMARK 921   NORMALIZED FREE ENERGY PREDICTED BY IDOCK:   -4.72 KCAL/MOL
REMARK 922        TOTAL FREE ENERGY PREDICTED BY IDOCK:  -10.44 KCAL/MOL
REMARK 923 INTER-LIGAND FREE ENERGY PREDICTED BY IDOCK:   -8.23 KCAL/MOL
REMARK 924 INTRA-LIGAND FREE ENERGY PREDICTED BY IDOCK:   -2.21 KCAL/MOL
REMARK 927      BINDING AFFINITY PREDICTED BY RF-SCORE:    0.00 PKD
ROOT
HETATM    1  C   UNL     1     -12.320  12.582  63.465  1.00  0.00    -0.623 C  
HETATM    2  C   UNL     1     -12.292  12.473  64.978  1.00  0.00    -0.522 C  
ENDROOT
BRANCH   2   3
HETATM    3  C   UNL     1     -12.527  13.831  65.638  1.00  0.00    -0.541 C  
BRANCH   3   4
HETATM    4  C   UNL     1     -12.097  13.787  67.100  1.00  0.00    -0.416 C  
BRANCH   4   5
HETATM    5  C   UNL     1     -11.273  15.011  67.490  1.00  0.00    -0.333 C  
BRANCH   5   6
HETATM    6  C   UNL     1     -10.862  14.897  68.956  1.00  0.00    -0.248 C  
BRANCH   6   7
HETATM    7  C   UNL     1     -12.024  15.220  69.897  1.00  0.00    -0.343 C  
BRANCH   7   8
HETATM    8  N   UNL     1     -11.936  14.524  71.194  1.00  0.00    -0.343 NA 
BRANCH   8   9
HETATM    9  C   UNL     1     -11.813  15.423  72.354  1.00  0.00    -0.459 C  
HETATM   10  C   UNL     1     -12.961  15.394  73.359  1.00  0.00    -0.662 C  
ENDBRANCH   8   9
BRANCH   8  11
HETATM   11  C   UNL     1     -13.032  13.555  71.379  1.00  0.00    -0.339 C  
BRANCH  11  12
HETATM   12  C   UNL     1     -12.594  12.083  71.344  1.00  0.00    -0.330 C  
BRANCH  12  13
HETATM   13  C   UNL     1     -12.269  11.600  69.925  1.00  0.00    -0.310 C  
BRANCH  13  14
HETATM   14  C   UNL     1     -10.972  10.780  69.872  1.00  0.00    -0.239 C  
HETATM   15  H   UNL     1     -10.433   8.906  70.148  1.00  0.00     0.000 HD 
HETATM   16  O   UNL     1     -11.236   9.414  70.180  1.00  0.00    -0.242 OA 
BRANCH  14  17
HETATM   17  C   UNL     1     -10.298  10.886  68.518  1.00  0.00    -0.203 A  
HETATM   18  C   UNL     1     -10.738  10.080  67.457  1.00  0.00    -0.339 A  
HETATM   19  C   UNL     1     -10.086  10.105  66.222  1.00  0.00    -0.303 A  
HETATM   20  C   UNL     1      -8.982  10.933  66.036  1.00  0.00    -0.186 A  
HETATM   21  C   UNL     1      -9.212  11.752  68.295  1.00  0.00    -0.188 A  
HETATM   22  C   UNL     1      -8.560  11.778  67.059  1.00  0.00    -0.173 A  
BRANCH  20  23
HETATM   23  N   UNL     1      -8.299  10.911  64.787  1.00  0.00    -0.375 N  
HETATM   24  H   UNL     1      -8.529  11.577  64.049  1.00  0.00     0.000 HD 
BRANCH  23  25
HETATM   25  S   UNL     1      -7.096   9.747  64.566  1.00  0.00    -0.133 S  
HETATM   26  C   UNL     1      -7.944   8.558  63.547  1.00  0.00    -0.161 C  
HETATM   27  O   UNL     1      -6.900   9.145  65.867  1.00  0.00    -0.084 OA 
HETATM   28  O   UNL     1      -5.987  10.308  63.826  1.00  0.00    -0.135 OA 
ENDBRANCH  23  25
ENDBRANCH  20  23
ENDBRANCH  14  17
ENDBRANCH  13  14
ENDBRANCH  12  13
ENDBRANCH  11  12
ENDBRANCH   8  11
ENDBRANCH   7   8
ENDBRANCH   6   7
ENDBRANCH   5   6
ENDBRANCH   4   5
ENDBRANCH   3   4
ENDBRANCH   2   3
TORSDOF 14
ENDMDL
MODEL       40
REMARK 921   NORMALIZED FREE ENERGY PREDICTED BY IDOCK:   -4.71 KCAL/MOL
REMARK 922        TOTAL FREE ENERGY PREDICTED BY IDOCK:  -10.42 KCAL/MOL
REMARK 923 INTER-LIGAND FREE ENERGY PREDICTED BY IDOCK:   -8.28 KCAL/MOL
REMARK 924 INTRA-LIGAND FREE ENERGY PREDICTED BY IDOCK:   -2.13 KCAL/MOL
REMARK 927      BINDING AFFINITY PREDICTED BY RF-SCORE:    0.00 PKD
ROOT
HETATM    1  C   UNL     1      -5.878  11.823  70.098  1.00  0.00    -0.156 C  
HETATM    2  C   UNL     1      -6.388  13.052  69.369  1.00  0.00    -0.111 C  
ENDROOT
BRANCH   2   3
HETATM    3  C   UNL     1      -7.489  12.691  68.373  1.00  0.00    -0.127 C  
BRANCH   3   4
HETATM    4  C   UNL     1      -8.414  13.883  68.157  1.00  0.00    -0.171 C  
BRANCH   4   5
HETATM    5  C   UNL     1      -8.107  15.027  69.119  1.00  0.00    -0.192 C  
BRANCH   5   6
HETATM    6  C   UNL     1      -9.347  15.905  69.271  1.00  0.00    -0.259 C  
BRANCH   6   7
HETATM    7  C   UNL     1      -9.204  17.224  68.508  1.00  0.00    -0.273 C  
BRANCH   7   8
HETATM    8  N   UNL     1     -10.177  17.371  67.411  1.00  0.00    -0.316 NA 
BRANCH   8   9
HETATM    9  C   UNL     1     -10.702  18.739  67.249  1.00  0.00    -0.425 C  
HETATM   10  C   UNL     1      -9.983  19.625  66.234  1.00  0.00    -0.563 C  
ENDBRANCH   8   9
BRANCH   8  11
HETATM   11  C   UNL     1      -9.660  16.840  66.137  1.00  0.00    -0.274 C  
BRANCH  11  12
HETATM   12  C   UNL     1     -10.711  16.130  65.268  1.00  0.00    -0.386 C  
BRANCH  12  13
HETATM   13  C   UNL     1     -10.774  14.623  65.537  1.00  0.00    -0.360 C  
BRANCH  13  14
HETATM   14  C   UNL     1     -12.093  14.205  66.203  1.00  0.00    -0.435 C  
HETATM   15  H   UNL     1     -13.810  13.419  65.645  1.00  0.00     0.000 HD 
HETATM   16  O   UNL     1     -12.993  13.678  65.233  1.00  0.00    -0.719 OA 
BRANCH  14  17
HETATM   17  C   UNL     1     -11.866  13.189  67.306  1.00  0.00    -0.420 A  
HETATM   18  C   UNL     1     -11.542  11.864  66.976  1.00  0.00    -0.365 A  
HETATM   19  C   UNL     1     -11.402  10.894  67.970  1.00  0.00    -0.382 A  
HETATM   20  C   UNL     1     -11.589  11.236  69.307  1.00  0.00    -0.322 A  
HETATM   21  C   UNL     1     -12.001  13.526  68.665  1.00  0.00    -0.378 A  
HETATM   22  C   UNL     1     -11.860  12.556  69.661  1.00  0.00    -0.382 A  
BRANCH  20  23
HETATM   23  N   UNL     1     -11.490  10.225  70.304  1.00  0.00    -0.294 N  
HETATM   24  H   UNL     1     -12.193  10.138  71.038  1.00  0.00     0.000 HD 
BRANCH  23  25
HETATM   25  S   UNL     1     -10.170   9.174  70.234  1.00  0.00    -0.232 S  
HETATM   26  C   UNL     1     -10.073   8.623  71.924  1.00  0.00    -0.328 C  
HETATM   27  O   UNL     1      -9.021  10.016  69.983  1.00  0.00    -0.195 OA 
HETATM   28  O   UNL     1     -10.473   8.048  69.379  1.00  0.00    -0.219 OA 
ENDBRANCH  23  25
ENDBRANCH  20  23
ENDBRANCH  14  17
ENDBRANCH  13  14
ENDBRANCH  12  13
ENDBRANCH  11  12
ENDBRANCH   8  11
ENDBRANCH   7   8
ENDBRANCH   6   7
ENDBRANCH   5   6
ENDBRANCH   4   5
ENDBRANCH   3   4
ENDBRANCH   2   3
TORSDOF 14
ENDMDL
MODEL       41
REMARK 921   NORMALIZED FREE ENERGY PREDICTED BY IDOCK:   -4.71 KCAL/MOL
REMARK 922        TOTAL FREE ENERGY PREDICTED BY IDOCK:  -10.41 KCAL/MOL
REMARK 923 INTER-LIGAND FREE ENERGY PREDICTED BY IDOCK:   -8.96 KCAL/MOL
REMARK 924 INTRA-LIGAND FREE ENERGY PREDICTED BY IDOCK:   -1.46 KCAL/MOL
REMARK 927      BINDING AFFINITY PREDICTED BY RF-SCORE:    0.00 PKD
ROOT
HETATM    1  C   UNL     1     -13.568   9.034  72.028  1.00  0.00    -0.500 C  
HETATM    2  C   UNL     1     -12.383   9.946  71.770  1.00  0.00    -0.456 C  
ENDROOT
BRANCH   2   3
HETATM    3  C   UNL     1     -12.825  11.399  71.606  1.00  0.00    -0.497 C  
BRANCH   3   4
HETATM    4  C   UNL     1     -12.224  11.992  70.337  1.00  0.00    -0.379 C  
BRANCH   4   5
HETATM    5  C   UNL     1     -12.279  13.517  70.336  1.00  0.00    -0.426 C  
BRANCH   5   6
HETATM    6  C   UNL     1     -11.533  14.049  69.115  1.00  0.00    -0.340 C  
BRANCH   6   7
HETATM    7  C   UNL     1     -11.776  15.546  68.909  1.00  0.00    -0.370 C  
BRANCH   7   8
HETATM    8  N   UNL     1     -11.030  16.106  67.768  1.00  0.00    -0.319 NA 
BRANCH   8   9
HETATM    9  C   UNL     1      -9.973  17.060  68.148  1.00  0.00    -0.287 C  
HETATM   10  C   UNL     1      -8.634  16.457  68.563  1.00  0.00    -0.223 C  
ENDBRANCH   8   9
BRANCH   8  11
HETATM   11  C   UNL     1     -10.510  15.055  66.875  1.00  0.00    -0.279 C  
BRANCH  11  12
HETATM   12  C   UNL     1     -10.766  15.302  65.381  1.00  0.00    -0.407 C  
BRANCH  12  13
HETATM   13  C   UNL     1     -11.027  14.004  64.607  1.00  0.00    -0.401 C  
BRANCH  13  14
HETATM   14  C   UNL     1     -11.882  13.012  65.407  1.00  0.00    -0.388 C  
HETATM   15  H   UNL     1     -13.637  12.137  65.223  1.00  0.00     0.000 HD 
HETATM   16  O   UNL     1     -13.107  12.752  64.728  1.00  0.00    -0.813 OA 
BRANCH  14  17
HETATM   17  C   UNL     1     -11.142  11.711  65.658  1.00  0.00    -0.308 A  
HETATM   18  C   UNL     1     -11.051  11.203  66.963  1.00  0.00    -0.339 A  
HETATM   19  C   UNL     1     -10.313  10.048  67.230  1.00  0.00    -0.293 A  
HETATM   20  C   UNL     1      -9.653   9.390  66.195  1.00  0.00    -0.247 A  
HETATM   21  C   UNL     1     -10.510  11.004  64.618  1.00  0.00    -0.398 A  
HETATM   22  C   UNL     1      -9.772   9.848  64.885  1.00  0.00    -0.332 A  
BRANCH  20  23
HETATM   23  N   UNL     1      -8.865   8.242  66.492  1.00  0.00    -0.142 N  
HETATM   24  H   UNL     1      -7.846   8.287  66.487  1.00  0.00     0.000 HD 
BRANCH  23  25
HETATM   25  S   UNL     1      -9.672   6.804  66.852  1.00  0.00    -0.174 S  
HETATM   26  C   UNL     1      -9.062   6.462  68.489  1.00  0.00    -0.126 C  
HETATM   27  O   UNL     1      -9.109   5.813  65.961  1.00  0.00    -0.156 OA 
HETATM   28  O   UNL     1     -11.099   7.032  66.911  1.00  0.00    -0.359 OA 
ENDBRANCH  23  25
ENDBRANCH  20  23
ENDBRANCH  14  17
ENDBRANCH  13  14
ENDBRANCH  12  13
ENDBRANCH  11  12
ENDBRANCH   8  11
ENDBRANCH   7   8
ENDBRANCH   6   7
ENDBRANCH   5   6
ENDBRANCH   4   5
ENDBRANCH   3   4
ENDBRANCH   2   3
TORSDOF 14
ENDMDL
MODEL       42
REMARK 921   NORMALIZED FREE ENERGY PREDICTED BY IDOCK:   -4.71 KCAL/MOL
REMARK 922        TOTAL FREE ENERGY PREDICTED BY IDOCK:  -10.41 KCAL/MOL
REMARK 923 INTER-LIGAND FREE ENERGY PREDICTED BY IDOCK:   -7.93 KCAL/MOL
REMARK 924 INTRA-LIGAND FREE ENERGY PREDICTED BY IDOCK:   -2.48 KCAL/MOL
REMARK 927      BINDING AFFINITY PREDICTED BY RF-SCORE:    0.00 PKD
ROOT
HETATM    1  C   UNL     1     -11.565  14.339  68.751  1.00  0.00    -0.357 C  
HETATM    2  C   UNL     1     -11.729  14.430  70.256  1.00  0.00    -0.355 C  
ENDROOT
BRANCH   2   3
HETATM    3  C   UNL     1     -12.455  13.206  70.812  1.00  0.00    -0.389 C  
BRANCH   3   4
HETATM    4  C   UNL     1     -11.997  11.947  70.085  1.00  0.00    -0.413 C  
BRANCH   4   5
HETATM    5  C   UNL     1     -12.711  10.699  70.598  1.00  0.00    -0.445 C  
BRANCH   5   6
HETATM    6  C   UNL     1     -11.725   9.840  71.385  1.00  0.00    -0.475 C  
BRANCH   6   7
HETATM    7  C   UNL     1     -11.915   8.349  71.098  1.00  0.00    -0.272 C  
BRANCH   7   8
HETATM    8  N   UNL     1     -10.946   7.491  71.802  1.00  0.00    -0.231 NA 
BRANCH   8   9
HETATM    9  C   UNL     1     -10.707   6.191  71.150  1.00  0.00    -0.256 C  
HETATM   10  C   UNL     1     -11.179   6.061  69.704  1.00  0.00    -0.428 C  
ENDBRANCH   8   9
BRANCH   8  11
HETATM   11  C   UNL     1      -9.680   8.194  72.078  1.00  0.00    -0.227 C  
BRANCH  11  12
HETATM   12  C   UNL     1      -8.436   7.534  71.464  1.00  0.00    -0.120 C  
BRANCH  12  13
HETATM   13  C   UNL     1      -8.005   8.200  70.152  1.00  0.00    -0.107 C  
BRANCH  13  14
HETATM   14  C   UNL     1      -8.315   9.703  70.133  1.00  0.00    -0.198 C  
HETATM   15  H   UNL     1      -7.322  11.388  70.360  1.00  0.00     0.000 HD 
HETATM   16  O   UNL     1      -7.131  10.458  70.372  1.00  0.00    -0.268 OA 
BRANCH  14  17
HETATM   17  C   UNL     1      -8.944  10.128  68.820  1.00  0.00    -0.147 A  
HETATM   18  C   UNL     1      -9.831   9.263  68.160  1.00  0.00    -0.185 A  
HETATM   19  C   UNL     1     -10.364   9.600  66.914  1.00  0.00    -0.307 A  
HETATM   20  C   UNL     1     -10.013  10.805  66.311  1.00  0.00    -0.222 A  
HETATM   21  C   UNL     1      -8.641  11.363  68.217  1.00  0.00    -0.156 A  
HETATM   22  C   UNL     1      -9.175  11.701  66.971  1.00  0.00    -0.185 A  
BRANCH  20  23
HETATM   23  N   UNL     1     -10.528  11.112  65.020  1.00  0.00    -0.296 N  
HETATM   24  H   UNL     1     -10.286  10.544  64.207  1.00  0.00     0.000 HD 
BRANCH  23  25
HETATM   25  S   UNL     1     -11.552  12.446  64.875  1.00  0.00    -0.349 S  
HETATM   26  C   UNL     1     -12.531  11.983  63.461  1.00  0.00    -0.540 C  
HETATM   27  O   UNL     1     -10.700  13.544  64.475  1.00  0.00    -0.390 OA 
HETATM   28  O   UNL     1     -12.408  12.547  66.037  1.00  0.00    -0.615 OA 
ENDBRANCH  23  25
ENDBRANCH  20  23
ENDBRANCH  14  17
ENDBRANCH  13  14
ENDBRANCH  12  13
ENDBRANCH  11  12
ENDBRANCH   8  11
ENDBRANCH   7   8
ENDBRANCH   6   7
ENDBRANCH   5   6
ENDBRANCH   4   5
ENDBRANCH   3   4
ENDBRANCH   2   3
TORSDOF 14
ENDMDL
MODEL       43
REMARK 921   NORMALIZED FREE ENERGY PREDICTED BY IDOCK:   -4.70 KCAL/MOL
REMARK 922        TOTAL FREE ENERGY PREDICTED BY IDOCK:  -10.40 KCAL/MOL
REMARK 923 INTER-LIGAND FREE ENERGY PREDICTED BY IDOCK:   -9.09 KCAL/MOL
REMARK 924 INTRA-LIGAND FREE ENERGY PREDICTED BY IDOCK:   -1.31 KCAL/MOL
REMARK 927      BINDING AFFINITY PREDICTED BY RF-SCORE:    0.00 PKD
ROOT
HETATM    1  C   UNL     1     -10.461   5.828  70.397  1.00  0.00    -0.342 C  
HETATM    2  C   UNL     1     -11.772   6.587  70.312  1.00  0.00    -0.430 C  
ENDROOT
BRANCH   2   3
HETATM    3  C   UNL     1     -12.199   7.117  71.680  1.00  0.00    -0.385 C  
BRANCH   3   4
HETATM    4  C   UNL     1     -13.609   7.689  71.607  1.00  0.00    -0.431 C  
BRANCH   4   5
HETATM    5  C   UNL     1     -13.675   9.119  72.137  1.00  0.00    -0.531 C  
BRANCH   5   6
HETATM    6  C   UNL     1     -12.626   9.970  71.427  1.00  0.00    -0.518 C  
BRANCH   6   7
HETATM    7  C   UNL     1     -12.846  11.464  71.675  1.00  0.00    -0.391 C  
BRANCH   7   8
HETATM    8  N   UNL     1     -12.599  12.295  70.482  1.00  0.00    -0.156 NA 
BRANCH   8   9
HETATM    9  C   UNL     1     -12.279  13.702  70.784  1.00  0.00    -0.347 C  
HETATM   10  C   UNL     1     -12.263  14.663  69.598  1.00  0.00    -0.325 C  
ENDBRANCH   8   9
BRANCH   8  11
HETATM   11  C   UNL     1     -11.593  11.696  69.587  1.00  0.00    -0.330 C  
BRANCH  11  12
HETATM   12  C   UNL     1     -12.025  11.599  68.116  1.00  0.00    -0.214 C  
BRANCH  12  13
HETATM   13  C   UNL     1     -10.832  11.477  67.160  1.00  0.00    -0.314 C  
BRANCH  13  14
HETATM   14  C   UNL     1     -11.040  12.273  65.865  1.00  0.00    -0.322 C  
HETATM   15  H   UNL     1     -12.550  12.796  64.714  1.00  0.00     0.000 HD 
HETATM   16  O   UNL     1     -12.421  12.303  65.516  1.00  0.00    -0.597 OA 
BRANCH  14  17
HETATM   17  C   UNL     1     -10.505  13.688  65.985  1.00  0.00    -0.300 A  
HETATM   18  C   UNL     1      -9.400  13.946  66.811  1.00  0.00    -0.286 A  
HETATM   19  C   UNL     1      -8.936  15.250  66.996  1.00  0.00    -0.254 A  
HETATM   20  C   UNL     1      -9.575  16.312  66.362  1.00  0.00    -0.291 A  
HETATM   21  C   UNL     1     -11.106  14.768  65.314  1.00  0.00    -0.374 A  
HETATM   22  C   UNL     1     -10.641  16.073  65.499  1.00  0.00    -0.415 A  
BRANCH  20  23
HETATM   23  N   UNL     1      -9.119  17.639  66.600  1.00  0.00    -0.257 N  
HETATM   24  H   UNL     1      -8.737  18.209  65.844  1.00  0.00     0.000 HD 
BRANCH  23  25
HETATM   25  S   UNL     1      -9.231  18.242  68.173  1.00  0.00    -0.310 S  
HETATM   26  C   UNL     1      -9.375  19.990  67.867  1.00  0.00    -0.327 C  
HETATM   27  O   UNL     1      -7.933  18.009  68.767  1.00  0.00    -0.299 OA 
HETATM   28  O   UNL     1     -10.441  17.765  68.806  1.00  0.00    -0.343 OA 
ENDBRANCH  23  25
ENDBRANCH  20  23
ENDBRANCH  14  17
ENDBRANCH  13  14
ENDBRANCH  12  13
ENDBRANCH  11  12
ENDBRANCH   8  11
ENDBRANCH   7   8
ENDBRANCH   6   7
ENDBRANCH   5   6
ENDBRANCH   4   5
ENDBRANCH   3   4
ENDBRANCH   2   3
TORSDOF 14
ENDMDL
MODEL       44
REMARK 921   NORMALIZED FREE ENERGY PREDICTED BY IDOCK:   -4.68 KCAL/MOL
REMARK 922        TOTAL FREE ENERGY PREDICTED BY IDOCK:  -10.36 KCAL/MOL
REMARK 923 INTER-LIGAND FREE ENERGY PREDICTED BY IDOCK:   -8.91 KCAL/MOL
REMARK 924 INTRA-LIGAND FREE ENERGY PREDICTED BY IDOCK:   -1.45 KCAL/MOL
REMARK 927      BINDING AFFINITY PREDICTED BY RF-SCORE:    0.00 PKD
ROOT
HETATM    1  C   UNL     1     -12.212  12.472  64.075  1.00  0.00    -0.566 C  
HETATM    2  C   UNL     1     -11.855  12.463  65.550  1.00  0.00    -0.469 C  
ENDROOT
BRANCH   2   3
HETATM    3  C   UNL     1     -12.094  13.829  66.189  1.00  0.00    -0.477 C  
BRANCH   3   4
HETATM    4  C   UNL     1     -11.896  13.747  67.698  1.00  0.00    -0.413 C  
BRANCH   4   5
HETATM    5  C   UNL     1     -11.091  14.927  68.234  1.00  0.00    -0.290 C  
BRANCH   5   6
HETATM    6  C   UNL     1     -11.076  14.877  69.760  1.00  0.00    -0.300 C  
BRANCH   6   7
HETATM    7  C   UNL     1     -12.383  15.402  70.358  1.00  0.00    -0.402 C  
BRANCH   7   8
HETATM    8  N   UNL     1     -12.633  14.920  71.728  1.00  0.00    -0.315 NA 
BRANCH   8   9
HETATM    9  C   UNL     1     -12.564  15.972  72.759  1.00  0.00    -0.472 C  
HETATM   10  C   UNL     1     -12.362  15.499  74.196  1.00  0.00    -0.806 C  
ENDBRANCH   8   9
BRANCH   8  11
HETATM   11  C   UNL     1     -13.888  14.154  71.826  1.00  0.00    -0.414 C  
BRANCH  11  12
HETATM   12  C   UNL     1     -13.710  12.690  72.257  1.00  0.00    -0.429 C  
BRANCH  12  13
HETATM   13  C   UNL     1     -12.965  11.855  71.208  1.00  0.00    -0.334 C  
BRANCH  13  14
HETATM   14  C   UNL     1     -12.643  10.441  71.711  1.00  0.00    -0.367 C  
HETATM   15  H   UNL     1     -13.646   8.845  72.281  1.00  0.00     0.000 HD 
HETATM   16  O   UNL     1     -13.845   9.721  71.970  1.00  0.00    -0.305 OA 
BRANCH  14  17
HETATM   17  C   UNL     1     -11.784   9.677  70.721  1.00  0.00    -0.390 A  
HETATM   18  C   UNL     1     -11.289   8.410  71.063  1.00  0.00    -0.303 A  
HETATM   19  C   UNL     1     -10.435   7.720  70.200  1.00  0.00    -0.231 A  
HETATM   20  C   UNL     1     -10.063   8.292  68.986  1.00  0.00    -0.202 A  
HETATM   21  C   UNL     1     -11.437  10.217  69.469  1.00  0.00    -0.273 A  
HETATM   22  C   UNL     1     -10.583   9.526  68.604  1.00  0.00    -0.239 A  
BRANCH  20  23
HETATM   23  N   UNL     1      -9.154   7.597  68.139  1.00  0.00    -0.133 N  
HETATM   24  H   UNL     1      -8.214   7.955  67.968  1.00  0.00     0.000 HD 
BRANCH  23  25
HETATM   25  S   UNL     1      -9.681   6.159  67.427  1.00  0.00    -0.128 S  
HETATM   26  C   UNL     1      -8.680   6.111  65.955  1.00  0.00    -0.153 C  
HETATM   27  O   UNL     1     -11.046   6.410  67.019  1.00  0.00    -0.384 OA 
HETATM   28  O   UNL     1      -9.348   5.032  68.270  1.00  0.00    -0.116 OA 
ENDBRANCH  23  25
ENDBRANCH  20  23
ENDBRANCH  14  17
ENDBRANCH  13  14
ENDBRANCH  12  13
ENDBRANCH  11  12
ENDBRANCH   8  11
ENDBRANCH   7   8
ENDBRANCH   6   7
ENDBRANCH   5   6
ENDBRANCH   4   5
ENDBRANCH   3   4
ENDBRANCH   2   3
TORSDOF 14
ENDMDL
MODEL       45
REMARK 921   NORMALIZED FREE ENERGY PREDICTED BY IDOCK:   -4.67 KCAL/MOL
REMARK 922        TOTAL FREE ENERGY PREDICTED BY IDOCK:  -10.35 KCAL/MOL
REMARK 923 INTER-LIGAND FREE ENERGY PREDICTED BY IDOCK:   -8.48 KCAL/MOL
REMARK 924 INTRA-LIGAND FREE ENERGY PREDICTED BY IDOCK:   -1.87 KCAL/MOL
REMARK 927      BINDING AFFINITY PREDICTED BY RF-SCORE:    0.00 PKD
ROOT
HETATM    1  C   UNL     1     -10.413  12.050  63.928  1.00  0.00    -0.440 C  
HETATM    2  C   UNL     1     -10.299  10.607  64.381  1.00  0.00    -0.347 C  
ENDROOT
BRANCH   2   3
HETATM    3  C   UNL     1      -8.941  10.330  65.024  1.00  0.00    -0.225 C  
BRANCH   3   4
HETATM    4  C   UNL     1      -9.015   9.080  65.893  1.00  0.00    -0.233 C  
BRANCH   4   5
HETATM    5  C   UNL     1     -10.252   9.076  66.787  1.00  0.00    -0.341 C  
BRANCH   5   6
HETATM    6  C   UNL     1     -10.626   7.635  67.126  1.00  0.00    -0.410 C  
BRANCH   6   7
HETATM    7  C   UNL     1      -9.409   6.826  67.579  1.00  0.00    -0.124 C  
BRANCH   7   8
HETATM    8  N   UNL     1      -9.588   6.192  68.898  1.00  0.00    -0.128 NA 
BRANCH   8   9
HETATM    9  C   UNL     1      -8.775   6.792  69.971  1.00  0.00    -0.141 C  
HETATM   10  C   UNL     1      -7.921   7.996  69.581  1.00  0.00    -0.117 C  
ENDBRANCH   8   9
BRANCH   8  11
HETATM   11  C   UNL     1     -11.008   6.107  69.284  1.00  0.00    -0.381 C  
BRANCH  11  12
HETATM   12  C   UNL     1     -11.264   6.181  70.797  1.00  0.00    -0.373 C  
BRANCH  12  13
HETATM   13  C   UNL     1     -12.524   6.983  71.142  1.00  0.00    -0.407 C  
BRANCH  13  14
HETATM   14  C   UNL     1     -12.227   8.156  72.087  1.00  0.00    -0.350 C  
HETATM   15  H   UNL     1     -10.823   8.657  73.373  1.00  0.00     0.000 HD 
HETATM   16  O   UNL     1     -11.007   7.932  72.788  1.00  0.00    -0.344 OA 
BRANCH  14  17
HETATM   17  C   UNL     1     -12.161   9.474  71.340  1.00  0.00    -0.455 A  
HETATM   18  C   UNL     1     -11.213   9.650  70.321  1.00  0.00    -0.324 A  
HETATM   19  C   UNL     1     -11.083  10.879  69.670  1.00  0.00    -0.328 A  
HETATM   20  C   UNL     1     -11.897  11.948  70.034  1.00  0.00    -0.328 A  
HETATM   21  C   UNL     1     -13.009  10.551  71.659  1.00  0.00    -0.581 A  
HETATM   22  C   UNL     1     -12.879  11.781  71.007  1.00  0.00    -0.309 A  
BRANCH  20  23
HETATM   23  N   UNL     1     -11.719  13.207  69.394  1.00  0.00    -0.312 N  
HETATM   24  H   UNL     1     -11.649  14.069  69.937  1.00  0.00     0.000 HD 
BRANCH  23  25
HETATM   25  S   UNL     1     -11.628  13.229  67.709  1.00  0.00    -0.362 S  
HETATM   26  C   UNL     1      -9.866  13.247  67.455  1.00  0.00    -0.227 C  
HETATM   27  O   UNL     1     -12.138  14.524  67.313  1.00  0.00    -0.392 OA 
HETATM   28  O   UNL     1     -12.179  12.009  67.162  1.00  0.00    -0.505 OA 
ENDBRANCH  23  25
ENDBRANCH  20  23
ENDBRANCH  14  17
ENDBRANCH  13  14
ENDBRANCH  12  13
ENDBRANCH  11  12
ENDBRANCH   8  11
ENDBRANCH   7   8
ENDBRANCH   6   7
ENDBRANCH   5   6
ENDBRANCH   4   5
ENDBRANCH   3   4
ENDBRANCH   2   3
TORSDOF 14
ENDMDL
MODEL       46
REMARK 921   NORMALIZED FREE ENERGY PREDICTED BY IDOCK:   -4.65 KCAL/MOL
REMARK 922        TOTAL FREE ENERGY PREDICTED BY IDOCK:  -10.31 KCAL/MOL
REMARK 923 INTER-LIGAND FREE ENERGY PREDICTED BY IDOCK:   -8.77 KCAL/MOL
REMARK 924 INTRA-LIGAND FREE ENERGY PREDICTED BY IDOCK:   -1.53 KCAL/MOL
REMARK 927      BINDING AFFINITY PREDICTED BY RF-SCORE:    0.00 PKD
ROOT
HETATM    1  C   UNL     1     -13.039  14.315  71.652  1.00  0.00    -0.417 C  
HETATM    2  C   UNL     1     -13.201  12.837  71.956  1.00  0.00    -0.538 C  
ENDROOT
BRANCH   2   3
HETATM    3  C   UNL     1     -12.534  11.972  70.888  1.00  0.00    -0.384 C  
BRANCH   3   4
HETATM    4  C   UNL     1     -12.677  10.496  71.242  1.00  0.00    -0.532 C  
BRANCH   4   5
HETATM    5  C   UNL     1     -11.328   9.782  71.268  1.00  0.00    -0.445 C  
BRANCH   5   6
HETATM    6  C   UNL     1     -11.517   8.330  70.834  1.00  0.00    -0.296 C  
BRANCH   6   7
HETATM    7  C   UNL     1     -10.454   7.897  69.822  1.00  0.00    -0.233 C  
BRANCH   7   8
HETATM    8  N   UNL     1      -9.871   9.024  69.071  1.00  0.00    -0.171 NA 
BRANCH   8   9
HETATM    9  C   UNL     1      -8.398   9.033  69.045  1.00  0.00    -0.124 C  
HETATM   10  C   UNL     1      -7.711  10.066  69.934  1.00  0.00    -0.183 C  
ENDBRANCH   8   9
BRANCH   8  11
HETATM   11  C   UNL     1     -10.434   9.135  67.713  1.00  0.00    -0.247 C  
BRANCH  11  12
HETATM   12  C   UNL     1     -10.264  10.517  67.064  1.00  0.00    -0.275 C  
BRANCH  12  13
HETATM   13  C   UNL     1     -11.558  11.340  67.087  1.00  0.00    -0.113 C  
BRANCH  13  14
HETATM   14  C   UNL     1     -11.568  12.439  66.016  1.00  0.00    -0.401 C  
HETATM   15  H   UNL     1     -12.902  13.342  64.882  1.00  0.00     0.000 HD 
HETATM   16  O   UNL     1     -12.895  12.661  65.545  1.00  0.00    -0.513 OA 
BRANCH  14  17
HETATM   17  C   UNL     1     -10.980  13.736  66.538  1.00  0.00    -0.299 A  
HETATM   18  C   UNL     1     -11.576  14.379  67.633  1.00  0.00    -0.396 A  
HETATM   19  C   UNL     1     -11.098  15.611  68.085  1.00  0.00    -0.330 A  
HETATM   20  C   UNL     1     -10.020  16.216  67.444  1.00  0.00    -0.247 A  
HETATM   21  C   UNL     1      -9.861  14.339  65.935  1.00  0.00    -0.322 A  
HETATM   22  C   UNL     1      -9.381  15.571  66.388  1.00  0.00    -0.330 A  
BRANCH  20  23
HETATM   23  N   UNL     1      -9.576  17.494  67.887  1.00  0.00    -0.270 N  
HETATM   24  H   UNL     1      -9.089  17.603  68.777  1.00  0.00     0.000 HD 
BRANCH  23  25
HETATM   25  S   UNL     1      -9.880  18.823  66.892  1.00  0.00    -0.356 S  
HETATM   26  C   UNL     1      -8.236  19.465  66.654  1.00  0.00    -0.306 C  
HETATM   27  O   UNL     1     -10.600  19.766  67.719  1.00  0.00    -0.421 OA 
HETATM   28  O   UNL     1     -10.411  18.385  65.620  1.00  0.00    -0.624 OA 
ENDBRANCH  23  25
ENDBRANCH  20  23
ENDBRANCH  14  17
ENDBRANCH  13  14
ENDBRANCH  12  13
ENDBRANCH  11  12
ENDBRANCH   8  11
ENDBRANCH   7   8
ENDBRANCH   6   7
ENDBRANCH   5   6
ENDBRANCH   4   5
ENDBRANCH   3   4
ENDBRANCH   2   3
TORSDOF 14
ENDMDL
MODEL       47
REMARK 921   NORMALIZED FREE ENERGY PREDICTED BY IDOCK:   -4.64 KCAL/MOL
REMARK 922        TOTAL FREE ENERGY PREDICTED BY IDOCK:  -10.30 KCAL/MOL
REMARK 923 INTER-LIGAND FREE ENERGY PREDICTED BY IDOCK:   -9.19 KCAL/MOL
REMARK 924 INTRA-LIGAND FREE ENERGY PREDICTED BY IDOCK:   -1.11 KCAL/MOL
REMARK 927      BINDING AFFINITY PREDICTED BY RF-SCORE:    0.00 PKD
ROOT
HETATM    1  C   UNL     1     -10.853  16.462  69.511  1.00  0.00    -0.338 C  
HETATM    2  C   UNL     1      -9.905  17.183  68.571  1.00  0.00    -0.297 C  
ENDROOT
BRANCH   2   3
HETATM    3  C   UNL     1     -10.636  18.237  67.742  1.00  0.00    -0.415 C  
BRANCH   3   4
HETATM    4  C   UNL     1     -10.382  18.010  66.257  1.00  0.00    -0.384 C  
BRANCH   4   5
HETATM    5  C   UNL     1      -9.926  16.582  65.967  1.00  0.00    -0.359 C  
BRANCH   5   6
HETATM    6  C   UNL     1     -10.843  15.963  64.915  1.00  0.00    -0.420 C  
BRANCH   6   7
HETATM    7  C   UNL     1     -10.757  14.436  64.915  1.00  0.00    -0.426 C  
BRANCH   7   8
HETATM    8  N   UNL     1     -12.053  13.779  64.664  1.00  0.00    -0.403 NA 
BRANCH   8   9
HETATM    9  C   UNL     1     -11.968  12.592  63.794  1.00  0.00    -0.517 C  
HETATM   10  C   UNL     1     -10.564  12.078  63.484  1.00  0.00    -0.514 C  
ENDBRANCH   8   9
BRANCH   8  11
HETATM   11  C   UNL     1     -12.774  13.478  65.913  1.00  0.00    -0.321 C  
BRANCH  11  12
HETATM   12  C   UNL     1     -11.908  13.544  67.181  1.00  0.00    -0.430 C  
BRANCH  12  13
HETATM   13  C   UNL     1     -11.745  12.176  67.852  1.00  0.00    -0.403 C  
BRANCH  13  14
HETATM   14  C   UNL     1     -11.430  12.296  69.350  1.00  0.00    -0.277 C  
HETATM   15  H   UNL     1     -12.062  13.362  70.880  1.00  0.00     0.000 HD 
HETATM   16  O   UNL     1     -12.256  13.287  69.953  1.00  0.00    -0.302 OA 
BRANCH  14  17
HETATM   17  C   UNL     1     -11.603  10.970  70.067  1.00  0.00    -0.427 A  
HETATM   18  C   UNL     1     -12.438  10.891  71.191  1.00  0.00    -0.511 A  
HETATM   19  C   UNL     1     -12.556   9.700  71.912  1.00  0.00    -0.481 A  
HETATM   20  C   UNL     1     -11.835   8.576  71.519  1.00  0.00    -0.299 A  
HETATM   21  C   UNL     1     -10.922   9.809  69.655  1.00  0.00    -0.269 A  
HETATM   22  C   UNL     1     -11.040   8.618  70.376  1.00  0.00    -0.250 A  
BRANCH  20  23
HETATM   23  N   UNL     1     -11.929   7.384  72.292  1.00  0.00    -0.422 N  
HETATM   24  H   UNL     1     -12.812   6.880  72.378  1.00  0.00     0.000 HD 
BRANCH  23  25
HETATM   25  S   UNL     1     -10.532   6.831  73.061  1.00  0.00    -0.278 S  
HETATM   26  C   UNL     1      -9.782   5.862  71.770  1.00  0.00    -0.155 C  
HETATM   27  O   UNL     1     -10.992   5.916  74.082  1.00  0.00     0.002 OA 
HETATM   28  O   UNL     1      -9.667   7.944  73.388  1.00  0.00    -0.293 OA 
ENDBRANCH  23  25
ENDBRANCH  20  23
ENDBRANCH  14  17
ENDBRANCH  13  14
ENDBRANCH  12  13
ENDBRANCH  11  12
ENDBRANCH   8  11
ENDBRANCH   7   8
ENDBRANCH   6   7
ENDBRANCH   5   6
ENDBRANCH   4   5
ENDBRANCH   3   4
ENDBRANCH   2   3
TORSDOF 14
ENDMDL
MODEL       48
REMARK 921   NORMALIZED FREE ENERGY PREDICTED BY IDOCK:   -4.63 KCAL/MOL
REMARK 922        TOTAL FREE ENERGY PREDICTED BY IDOCK:  -10.28 KCAL/MOL
REMARK 923 INTER-LIGAND FREE ENERGY PREDICTED BY IDOCK:   -8.02 KCAL/MOL
REMARK 924 INTRA-LIGAND FREE ENERGY PREDICTED BY IDOCK:   -2.25 KCAL/MOL
REMARK 927      BINDING AFFINITY PREDICTED BY RF-SCORE:    0.00 PKD
ROOT
HETATM    1  C   UNL     1     -11.687  14.821  64.581  1.00  0.00    -0.426 C  
HETATM    2  C   UNL     1     -12.400  13.683  63.875  1.00  0.00    -0.375 C  
ENDROOT
BRANCH   2   3
HETATM    3  C   UNL     1     -11.997  12.329  64.455  1.00  0.00    -0.473 C  
BRANCH   3   4
HETATM    4  C   UNL     1     -10.480  12.231  64.560  1.00  0.00    -0.339 C  
BRANCH   4   5
HETATM    5  C   UNL     1      -9.954  10.903  64.021  1.00  0.00    -0.403 C  
BRANCH   5   6
HETATM    6  C   UNL     1      -9.750   9.932  65.182  1.00  0.00    -0.376 C  
BRANCH   6   7
HETATM    7  C   UNL     1      -9.031  10.597  66.358  1.00  0.00    -0.162 C  
BRANCH   7   8
HETATM    8  N   UNL     1      -9.197   9.870  67.629  1.00  0.00    -0.134 NA 
BRANCH   8   9
HETATM    9  C   UNL     1      -8.399  10.414  68.743  1.00  0.00    -0.134 C  
HETATM   10  C   UNL     1      -7.648  11.713  68.467  1.00  0.00    -0.127 C  
ENDBRANCH   8   9
BRANCH   8  11
HETATM   11  C   UNL     1     -10.615   9.725  68.004  1.00  0.00    -0.243 C  
BRANCH  11  12
HETATM   12  C   UNL     1     -11.149  10.837  68.920  1.00  0.00    -0.307 C  
BRANCH  12  13
HETATM   13  C   UNL     1     -11.797  11.983  68.134  1.00  0.00    -0.352 C  
BRANCH  13  14
HETATM   14  C   UNL     1     -12.161  13.173  69.034  1.00  0.00    -0.198 C  
HETATM   15  H   UNL     1     -12.279  13.544  70.965  1.00  0.00     0.000 HD 
HETATM   16  O   UNL     1     -12.054  12.807  70.407  1.00  0.00    -0.363 OA 
BRANCH  14  17
HETATM   17  C   UNL     1     -11.286  14.379  68.749  1.00  0.00    -0.299 A  
HETATM   18  C   UNL     1     -11.583  15.611  69.349  1.00  0.00    -0.378 A  
HETATM   19  C   UNL     1     -10.839  16.753  69.044  1.00  0.00    -0.291 A  
HETATM   20  C   UNL     1      -9.791  16.676  68.130  1.00  0.00    -0.250 A  
HETATM   21  C   UNL     1     -10.193  14.310  67.866  1.00  0.00    -0.237 A  
HETATM   22  C   UNL     1      -9.447  15.452  67.561  1.00  0.00    -0.205 A  
BRANCH  20  23
HETATM   23  N   UNL     1      -9.073  17.858  67.794  1.00  0.00    -0.255 N  
HETATM   24  H   UNL     1      -8.154  18.048  68.195  1.00  0.00     0.000 HD 
BRANCH  23  25
HETATM   25  S   UNL     1      -9.791  18.936  66.711  1.00  0.00    -0.372 S  
HETATM   26  C   UNL     1      -8.384  19.893  66.188  1.00  0.00    -0.317 C  
HETATM   27  O   UNL     1     -10.626  19.795  67.521  1.00  0.00    -0.433 OA 
HETATM   28  O   UNL     1     -10.331  18.219  65.577  1.00  0.00    -0.575 OA 
ENDBRANCH  23  25
ENDBRANCH  20  23
ENDBRANCH  14  17
ENDBRANCH  13  14
ENDBRANCH  12  13
ENDBRANCH  11  12
ENDBRANCH   8  11
ENDBRANCH   7   8
ENDBRANCH   6   7
ENDBRANCH   5   6
ENDBRANCH   4   5
ENDBRANCH   3   4
ENDBRANCH   2   3
TORSDOF 14
ENDMDL
MODEL       49
REMARK 921   NORMALIZED FREE ENERGY PREDICTED BY IDOCK:   -4.63 KCAL/MOL
REMARK 922        TOTAL FREE ENERGY PREDICTED BY IDOCK:  -10.27 KCAL/MOL
REMARK 923 INTER-LIGAND FREE ENERGY PREDICTED BY IDOCK:   -8.94 KCAL/MOL
REMARK 924 INTRA-LIGAND FREE ENERGY PREDICTED BY IDOCK:   -1.33 KCAL/MOL
REMARK 927      BINDING AFFINITY PREDICTED BY RF-SCORE:    0.00 PKD
ROOT
HETATM    1  C   UNL     1     -10.150  10.602  65.426  1.00  0.00    -0.356 C  
HETATM    2  C   UNL     1     -10.610  11.499  64.292  1.00  0.00    -0.405 C  
ENDROOT
BRANCH   2   3
HETATM    3  C   UNL     1     -11.928  12.193  64.630  1.00  0.00    -0.398 C  
BRANCH   3   4
HETATM    4  C   UNL     1     -11.977  13.574  63.988  1.00  0.00    -0.501 C  
BRANCH   4   5
HETATM    5  C   UNL     1     -11.309  14.634  64.860  1.00  0.00    -0.403 C  
BRANCH   5   6
HETATM    6  C   UNL     1     -11.585  14.326  66.330  1.00  0.00    -0.379 C  
BRANCH   6   7
HETATM    7  C   UNL     1     -10.292  14.243  67.144  1.00  0.00    -0.262 C  
BRANCH   7   8
HETATM    8  N   UNL     1     -10.416  14.818  68.496  1.00  0.00    -0.243 NA 
BRANCH   8   9
HETATM    9  C   UNL     1      -9.529  15.969  68.745  1.00  0.00    -0.227 C  
HETATM   10  C   UNL     1      -8.084  15.642  69.113  1.00  0.00    -0.238 C  
ENDBRANCH   8   9
BRANCH   8  11
HETATM   11  C   UNL     1     -11.815  15.135  68.837  1.00  0.00    -0.310 C  
BRANCH  11  12
HETATM   12  C   UNL     1     -12.368  14.361  70.044  1.00  0.00    -0.391 C  
BRANCH  12  13
HETATM   13  C   UNL     1     -11.617  13.048  70.294  1.00  0.00    -0.060 C  
BRANCH  13  14
HETATM   14  C   UNL     1     -12.404  11.825  69.807  1.00  0.00    -0.111 C  
HETATM   15  H   UNL     1     -12.609  10.808  68.132  1.00  0.00     0.000 HD 
HETATM   16  O   UNL     1     -12.121  11.566  68.435  1.00  0.00    -0.556 OA 
BRANCH  14  17
HETATM   17  C   UNL     1     -12.100  10.594  70.640  1.00  0.00    -0.461 A  
HETATM   18  C   UNL     1     -13.108  10.020  71.428  1.00  0.00    -0.512 A  
HETATM   19  C   UNL     1     -12.833   8.933  72.261  1.00  0.00    -0.475 A  
HETATM   20  C   UNL     1     -11.544   8.410  72.318  1.00  0.00    -0.383 A  
HETATM   21  C   UNL     1     -10.815  10.020  70.674  1.00  0.00    -0.367 A  
HETATM   22  C   UNL     1     -10.540   8.932  71.506  1.00  0.00    -0.399 A  
BRANCH  20  23
HETATM   23  N   UNL     1     -11.269   7.333  73.207  1.00  0.00    -0.587 N  
HETATM   24  H   UNL     1     -11.150   7.494  74.208  1.00  0.00     0.000 HD 
BRANCH  23  25
HETATM   25  S   UNL     1     -11.147   5.782  72.553  1.00  0.00    -0.292 S  
HETATM   26  C   UNL     1      -9.381   5.556  72.518  1.00  0.00    -0.142 C  
HETATM   27  O   UNL     1     -11.597   5.905  71.184  1.00  0.00    -0.196 OA 
HETATM   28  O   UNL     1     -11.736   4.813  73.451  1.00  0.00    -0.284 OA 
ENDBRANCH  23  25
ENDBRANCH  20  23
ENDBRANCH  14  17
ENDBRANCH  13  14
ENDBRANCH  12  13
ENDBRANCH  11  12
ENDBRANCH   8  11
ENDBRANCH   7   8
ENDBRANCH   6   7
ENDBRANCH   5   6
ENDBRANCH   4   5
ENDBRANCH   3   4
ENDBRANCH   2   3
TORSDOF 14
ENDMDL
MODEL       50
REMARK 921   NORMALIZED FREE ENERGY PREDICTED BY IDOCK:   -4.62 KCAL/MOL
REMARK 922        TOTAL FREE ENERGY PREDICTED BY IDOCK:  -10.25 KCAL/MOL
REMARK 923 INTER-LIGAND FREE ENERGY PREDICTED BY IDOCK:   -9.71 KCAL/MOL
REMARK 924 INTRA-LIGAND FREE ENERGY PREDICTED BY IDOCK:   -0.54 KCAL/MOL
REMARK 927      BINDING AFFINITY PREDICTED BY RF-SCORE:    0.00 PKD
ROOT
HETATM    1  C   UNL     1      -9.026  20.092  67.172  1.00  0.00    -0.463 C  
HETATM    2  C   UNL     1     -10.375  19.865  66.516  1.00  0.00    -0.608 C  
ENDROOT
BRANCH   2   3
HETATM    3  C   UNL     1     -10.514  18.429  66.013  1.00  0.00    -0.400 C  
BRANCH   3   4
HETATM    4  C   UNL     1      -9.295  17.609  66.416  1.00  0.00    -0.265 C  
BRANCH   4   5
HETATM    5  C   UNL     1      -9.403  16.158  65.955  1.00  0.00    -0.368 C  
BRANCH   5   6
HETATM    6  C   UNL     1     -10.770  15.932  65.314  1.00  0.00    -0.442 C  
BRANCH   6   7
HETATM    7  C   UNL     1     -10.988  14.463  64.946  1.00  0.00    -0.406 C  
BRANCH   7   8
HETATM    8  N   UNL     1     -12.207  13.887  65.543  1.00  0.00    -0.417 NA 
BRANCH   8   9
HETATM    9  C   UNL     1     -12.772  12.756  64.785  1.00  0.00    -0.393 C  
HETATM   10  C   UNL     1     -12.234  12.551  63.372  1.00  0.00    -0.613 C  
ENDBRANCH   8   9
BRANCH   8  11
HETATM   11  C   UNL     1     -12.019  13.542  66.963  1.00  0.00    -0.394 C  
BRANCH  11  12
HETATM   12  C   UNL     1     -11.314  12.198  67.205  1.00  0.00    -0.398 C  
BRANCH  12  13
HETATM   13  C   UNL     1     -11.957  11.394  68.341  1.00  0.00    -0.270 C  
BRANCH  13  14
HETATM   14  C   UNL     1     -11.387  11.771  69.716  1.00  0.00    -0.170 C  
HETATM   15  H   UNL     1     -11.748  13.110  71.114  1.00  0.00     0.000 HD 
HETATM   16  O   UNL     1     -12.100  12.877  70.263  1.00  0.00    -0.347 OA 
BRANCH  14  17
HETATM   17  C   UNL     1     -11.428  10.600  70.679  1.00  0.00    -0.374 A  
HETATM   18  C   UNL     1     -10.284   9.808  70.861  1.00  0.00    -0.195 A  
HETATM   19  C   UNL     1     -10.318   8.681  71.685  1.00  0.00    -0.366 A  
HETATM   20  C   UNL     1     -11.499   8.330  72.334  1.00  0.00    -0.394 A  
HETATM   21  C   UNL     1     -12.597  10.258  71.383  1.00  0.00    -0.539 A  
HETATM   22  C   UNL     1     -12.632   9.131  72.208  1.00  0.00    -0.425 A  
BRANCH  20  23
HETATM   23  N   UNL     1     -11.530   7.152  73.131  1.00  0.00    -0.551 N  
HETATM   24  H   UNL     1     -11.815   7.186  74.111  1.00  0.00     0.000 HD 
BRANCH  23  25
HETATM   25  S   UNL     1     -11.081   5.695  72.405  1.00  0.00    -0.265 S  
HETATM   26  C   UNL     1      -9.317   5.715  72.645  1.00  0.00    -0.140 C  
HETATM   27  O   UNL     1     -11.331   5.877  70.992  1.00  0.00    -0.263 OA 
HETATM   28  O   UNL     1     -11.650   4.580  73.128  1.00  0.00    -0.243 OA 
ENDBRANCH  23  25
ENDBRANCH  20  23
ENDBRANCH  14  17
ENDBRANCH  13  14
ENDBRANCH  12  13
ENDBRANCH  11  12
ENDBRANCH   8  11
ENDBRANCH   7   8
ENDBRANCH   6   7
ENDBRANCH   5   6
ENDBRANCH   4   5
ENDBRANCH   3   4
ENDBRANCH   2   3
TORSDOF 14
ENDMDL
MODEL       51
REMARK 921   NORMALIZED FREE ENERGY PREDICTED BY IDOCK:   -4.61 KCAL/MOL
REMARK 922        TOTAL FREE ENERGY PREDICTED BY IDOCK:  -10.23 KCAL/MOL
REMARK 923 INTER-LIGAND FREE ENERGY PREDICTED BY IDOCK:   -9.10 KCAL/MOL
REMARK 924 INTRA-LIGAND FREE ENERGY PREDICTED BY IDOCK:   -1.13 KCAL/MOL
REMARK 927      BINDING AFFINITY PREDICTED BY RF-SCORE:    0.00 PKD
ROOT
HETATM    1  C   UNL     1     -10.776  12.514  64.676  1.00  0.00    -0.341 C  
HETATM    2  C   UNL     1     -12.226  12.585  65.119  1.00  0.00    -0.509 C  
ENDROOT
BRANCH   2   3
HETATM    3  C   UNL     1     -12.495  13.843  65.944  1.00  0.00    -0.519 C  
BRANCH   3   4
HETATM    4  C   UNL     1     -11.970  13.664  67.363  1.00  0.00    -0.413 C  
BRANCH   4   5
HETATM    5  C   UNL     1     -11.558  14.993  67.992  1.00  0.00    -0.356 C  
BRANCH   5   6
HETATM    6  C   UNL     1     -11.735  14.911  69.506  1.00  0.00    -0.353 C  
BRANCH   6   7
HETATM    7  C   UNL     1     -12.121  13.501  69.957  1.00  0.00    -0.341 C  
BRANCH   7   8
HETATM    8  N   UNL     1     -12.700  13.460  71.312  1.00  0.00    -0.362 NA 
BRANCH   8   9
HETATM    9  C   UNL     1     -13.880  14.326  71.489  1.00  0.00    -0.352 C  
HETATM   10  C   UNL     1     -13.753  15.439  72.526  1.00  0.00    -0.652 C  
ENDBRANCH   8   9
BRANCH   8  11
HETATM   11  C   UNL     1     -12.975  12.081  71.756  1.00  0.00    -0.340 C  
BRANCH  11  12
HETATM   12  C   UNL     1     -12.586  10.995  70.741  1.00  0.00    -0.463 C  
BRANCH  12  13
HETATM   13  C   UNL     1     -11.946   9.771  71.407  1.00  0.00    -0.493 C  
BRANCH  13  14
HETATM   14  C   UNL     1     -10.577   9.430  70.804  1.00  0.00    -0.303 C  
HETATM   15  H   UNL     1      -8.882   8.637  71.420  1.00  0.00     0.000 HD 
HETATM   16  O   UNL     1      -9.730   8.849  71.792  1.00  0.00    -0.288 OA 
BRANCH  14  17
HETATM   17  C   UNL     1     -10.705   8.494  69.617  1.00  0.00    -0.200 A  
HETATM   18  C   UNL     1     -10.957   7.131  69.829  1.00  0.00    -0.256 A  
HETATM   19  C   UNL     1     -11.005   6.237  68.757  1.00  0.00    -0.424 A  
HETATM   20  C   UNL     1     -10.796   6.697  67.459  1.00  0.00    -0.342 A  
HETATM   21  C   UNL     1     -10.545   8.948  68.294  1.00  0.00    -0.203 A  
HETATM   22  C   UNL     1     -10.594   8.054  67.221  1.00  0.00    -0.360 A  
BRANCH  20  23
HETATM   23  N   UNL     1     -10.800   5.766  66.382  1.00  0.00    -0.678 N  
HETATM   24  H   UNL     1     -11.664   5.529  65.894  1.00  0.00     0.000 HD 
BRANCH  23  25
HETATM   25  S   UNL     1      -9.329   5.066  65.939  1.00  0.00    -0.162 S  
HETATM   26  C   UNL     1      -9.435   3.486  66.754  1.00  0.00    -0.165 C  
HETATM   27  O   UNL     1      -8.314   5.839  66.620  1.00  0.00    -0.109 OA 
HETATM   28  O   UNL     1      -9.282   4.864  64.508  1.00  0.00    -0.116 OA 
ENDBRANCH  23  25
ENDBRANCH  20  23
ENDBRANCH  14  17
ENDBRANCH  13  14
ENDBRANCH  12  13
ENDBRANCH  11  12
ENDBRANCH   8  11
ENDBRANCH   7   8
ENDBRANCH   6   7
ENDBRANCH   5   6
ENDBRANCH   4   5
ENDBRANCH   3   4
ENDBRANCH   2   3
TORSDOF 14
ENDMDL
MODEL       52
REMARK 921   NORMALIZED FREE ENERGY PREDICTED BY IDOCK:   -4.60 KCAL/MOL
REMARK 922        TOTAL FREE ENERGY PREDICTED BY IDOCK:  -10.22 KCAL/MOL
REMARK 923 INTER-LIGAND FREE ENERGY PREDICTED BY IDOCK:   -9.02 KCAL/MOL
REMARK 924 INTRA-LIGAND FREE ENERGY PREDICTED BY IDOCK:   -1.20 KCAL/MOL
REMARK 927      BINDING AFFINITY PREDICTED BY RF-SCORE:    0.00 PKD
ROOT
HETATM    1  C   UNL     1     -12.477   6.879  71.634  1.00  0.00    -0.418 C  
HETATM    2  C   UNL     1     -12.143   8.245  72.203  1.00  0.00    -0.425 C  
ENDROOT
BRANCH   2   3
HETATM    3  C   UNL     1     -13.265   9.248  71.940  1.00  0.00    -0.493 C  
BRANCH   3   4
HETATM    4  C   UNL     1     -12.693  10.540  71.371  1.00  0.00    -0.547 C  
BRANCH   4   5
HETATM    5  C   UNL     1     -11.442  10.292  70.533  1.00  0.00    -0.427 C  
BRANCH   5   6
HETATM    6  C   UNL     1     -11.695  10.749  69.098  1.00  0.00    -0.368 C  
BRANCH   6   7
HETATM    7  C   UNL     1     -10.444  11.370  68.472  1.00  0.00    -0.203 C  
BRANCH   7   8
HETATM    8  N   UNL     1     -10.710  12.644  67.779  1.00  0.00    -0.216 NA 
BRANCH   8   9
HETATM    9  C   UNL     1     -10.521  12.586  66.318  1.00  0.00    -0.246 C  
HETATM   10  C   UNL     1     -10.069  13.878  65.642  1.00  0.00    -0.332 C  
ENDBRANCH   8   9
BRANCH   8  11
HETATM   11  C   UNL     1     -12.029  13.200  68.128  1.00  0.00    -0.294 C  
BRANCH  11  12
HETATM   12  C   UNL     1     -12.005  14.236  69.263  1.00  0.00    -0.375 C  
BRANCH  12  13
HETATM   13  C   UNL     1     -11.911  15.675  68.743  1.00  0.00    -0.336 C  
BRANCH  13  14
HETATM   14  C   UNL     1     -10.769  16.459  69.404  1.00  0.00    -0.324 C  
HETATM   15  H   UNL     1      -9.042  16.056  70.260  1.00  0.00     0.000 HD 
HETATM   16  O   UNL     1      -9.749  15.570  69.851  1.00  0.00    -0.290 OA 
BRANCH  14  17
HETATM   17  C   UNL     1     -10.180  17.492  68.462  1.00  0.00    -0.378 A  
HETATM   18  C   UNL     1     -10.114  17.221  67.086  1.00  0.00    -0.297 A  
HETATM   19  C   UNL     1      -9.508  18.124  66.209  1.00  0.00    -0.231 A  
HETATM   20  C   UNL     1      -8.957  19.306  66.698  1.00  0.00    -0.338 A  
HETATM   21  C   UNL     1      -9.662  18.714  68.929  1.00  0.00    -0.363 A  
HETATM   22  C   UNL     1      -9.057  19.618  68.051  1.00  0.00    -0.392 A  
BRANCH  20  23
HETATM   23  N   UNL     1      -8.302  20.192  65.797  1.00  0.00    -0.492 N  
HETATM   24  H   UNL     1      -8.805  20.963  65.357  1.00  0.00     0.000 HD 
BRANCH  23  25
HETATM   25  S   UNL     1      -6.665  19.926  65.481  1.00  0.00    -0.299 S  
HETATM   26  C   UNL     1      -6.395  21.016  64.098  1.00  0.00    -0.270 C  
HETATM   27  O   UNL     1      -6.583  18.569  64.988  1.00  0.00    -0.497 OA 
HETATM   28  O   UNL     1      -5.862  20.366  66.600  1.00  0.00    -0.172 OA 
ENDBRANCH  23  25
ENDBRANCH  20  23
ENDBRANCH  14  17
ENDBRANCH  13  14
ENDBRANCH  12  13
ENDBRANCH  11  12
ENDBRANCH   8  11
ENDBRANCH   7   8
ENDBRANCH   6   7
ENDBRANCH   5   6
ENDBRANCH   4   5
ENDBRANCH   3   4
ENDBRANCH   2   3
TORSDOF 14
ENDMDL
MODEL       53
REMARK 921   NORMALIZED FREE ENERGY PREDICTED BY IDOCK:   -4.60 KCAL/MOL
REMARK 922        TOTAL FREE ENERGY PREDICTED BY IDOCK:  -10.22 KCAL/MOL
REMARK 923 INTER-LIGAND FREE ENERGY PREDICTED BY IDOCK:   -8.47 KCAL/MOL
REMARK 924 INTRA-LIGAND FREE ENERGY PREDICTED BY IDOCK:   -1.75 KCAL/MOL
REMARK 927      BINDING AFFINITY PREDICTED BY RF-SCORE:    0.00 PKD
ROOT
HETATM    1  C   UNL     1      -5.287  10.865  68.779  1.00  0.00    -0.040 C  
HETATM    2  C   UNL     1      -5.862  12.267  68.705  1.00  0.00    -0.054 C  
ENDROOT
BRANCH   2   3
HETATM    3  C   UNL     1      -7.107  12.313  67.821  1.00  0.00    -0.114 C  
BRANCH   3   4
HETATM    4  C   UNL     1      -8.092  13.348  68.351  1.00  0.00    -0.138 C  
BRANCH   4   5
HETATM    5  C   UNL     1      -7.389  14.467  69.114  1.00  0.00    -0.133 C  
BRANCH   5   6
HETATM    6  C   UNL     1      -8.354  15.636  69.300  1.00  0.00    -0.256 C  
BRANCH   6   7
HETATM    7  C   UNL     1      -7.985  16.824  68.409  1.00  0.00    -0.224 C  
BRANCH   7   8
HETATM    8  N   UNL     1      -8.982  17.098  67.359  1.00  0.00    -0.218 NA 
BRANCH   8   9
HETATM    9  C   UNL     1      -9.148  18.528  67.043  1.00  0.00    -0.281 C  
HETATM   10  C   UNL     1     -10.581  19.052  67.002  1.00  0.00    -0.543 C  
ENDBRANCH   8   9
BRANCH   8  11
HETATM   11  C   UNL     1      -8.739  16.304  66.142  1.00  0.00    -0.318 C  
BRANCH  11  12
HETATM   12  C   UNL     1     -10.010  15.779  65.457  1.00  0.00    -0.341 C  
BRANCH  12  13
HETATM   13  C   UNL     1     -10.091  14.248  65.462  1.00  0.00    -0.370 C  
BRANCH  13  14
HETATM   14  C   UNL     1     -11.486  13.741  65.855  1.00  0.00    -0.322 C  
HETATM   15  H   UNL     1     -12.534  12.086  65.650  1.00  0.00     0.000 HD 
HETATM   16  O   UNL     1     -11.671  12.401  65.407  1.00  0.00    -0.372 OA 
BRANCH  14  17
HETATM   17  C   UNL     1     -11.710  13.822  67.353  1.00  0.00    -0.417 A  
HETATM   18  C   UNL     1     -11.742  15.075  67.984  1.00  0.00    -0.320 A  
HETATM   19  C   UNL     1     -11.872  15.173  69.371  1.00  0.00    -0.357 A  
HETATM   20  C   UNL     1     -11.967  14.018  70.144  1.00  0.00    -0.330 A  
HETATM   21  C   UNL     1     -11.858  12.669  68.145  1.00  0.00    -0.366 A  
HETATM   22  C   UNL     1     -11.989  12.767  69.533  1.00  0.00    -0.338 A  
BRANCH  20  23
HETATM   23  N   UNL     1     -12.051  14.134  71.560  1.00  0.00    -0.365 N  
HETATM   24  H   UNL     1     -11.255  13.902  72.156  1.00  0.00     0.000 HD 
BRANCH  23  25
HETATM   25  S   UNL     1     -13.508  14.668  72.223  1.00  0.00    -0.453 S  
HETATM   26  C   UNL     1     -12.935  15.560  73.654  1.00  0.00    -0.507 C  
HETATM   27  O   UNL     1     -14.178  13.475  72.692  1.00  0.00    -0.751 OA 
HETATM   28  O   UNL     1     -14.163  15.587  71.317  1.00  0.00    -0.544 OA 
ENDBRANCH  23  25
ENDBRANCH  20  23
ENDBRANCH  14  17
ENDBRANCH  13  14
ENDBRANCH  12  13
ENDBRANCH  11  12
ENDBRANCH   8  11
ENDBRANCH   7   8
ENDBRANCH   6   7
ENDBRANCH   5   6
ENDBRANCH   4   5
ENDBRANCH   3   4
ENDBRANCH   2   3
TORSDOF 14
ENDMDL
MODEL       54
REMARK 921   NORMALIZED FREE ENERGY PREDICTED BY IDOCK:   -4.60 KCAL/MOL
REMARK 922        TOTAL FREE ENERGY PREDICTED BY IDOCK:  -10.21 KCAL/MOL
REMARK 923 INTER-LIGAND FREE ENERGY PREDICTED BY IDOCK:   -8.71 KCAL/MOL
REMARK 924 INTRA-LIGAND FREE ENERGY PREDICTED BY IDOCK:   -1.50 KCAL/MOL
REMARK 927      BINDING AFFINITY PREDICTED BY RF-SCORE:    0.00 PKD
ROOT
HETATM    1  C   UNL     1     -11.794  12.504  63.481  1.00  0.00    -0.616 C  
HETATM    2  C   UNL     1     -11.916  13.860  64.151  1.00  0.00    -0.464 C  
ENDROOT
BRANCH   2   3
HETATM    3  C   UNL     1     -12.573  13.745  65.526  1.00  0.00    -0.551 C  
BRANCH   3   4
HETATM    4  C   UNL     1     -11.508  13.680  66.614  1.00  0.00    -0.365 C  
BRANCH   4   5
HETATM    5  C   UNL     1     -11.333  15.020  67.323  1.00  0.00    -0.337 C  
BRANCH   5   6
HETATM    6  C   UNL     1     -10.921  14.775  68.773  1.00  0.00    -0.267 C  
BRANCH   6   7
HETATM    7  C   UNL     1     -11.832  15.514  69.755  1.00  0.00    -0.359 C  
BRANCH   7   8
HETATM    8  N   UNL     1     -12.340  14.655  70.839  1.00  0.00    -0.311 NA 
BRANCH   8   9
HETATM    9  C   UNL     1     -13.657  15.060  71.363  1.00  0.00    -0.460 C  
HETATM   10  C   UNL     1     -13.673  15.656  72.768  1.00  0.00    -0.662 C  
ENDBRANCH   8   9
BRANCH   8  11
HETATM   11  C   UNL     1     -12.326  13.228  70.469  1.00  0.00    -0.316 C  
BRANCH  11  12
HETATM   12  C   UNL     1     -12.737  12.272  71.600  1.00  0.00    -0.309 C  
BRANCH  12  13
HETATM   13  C   UNL     1     -12.812  10.812  71.136  1.00  0.00    -0.513 C  
BRANCH  13  14
HETATM   14  C   UNL     1     -11.433  10.137  71.113  1.00  0.00    -0.307 C  
HETATM   15  H   UNL     1     -10.544   8.631  72.018  1.00  0.00     0.000 HD 
HETATM   16  O   UNL     1     -11.397   9.050  72.033  1.00  0.00    -0.364 OA 
BRANCH  14  17
HETATM   17  C   UNL     1     -11.071   9.653  69.722  1.00  0.00    -0.247 A  
HETATM   18  C   UNL     1     -10.666   8.323  69.532  1.00  0.00    -0.179 A  
HETATM   19  C   UNL     1     -10.256   7.873  68.275  1.00  0.00    -0.240 A  
HETATM   20  C   UNL     1     -10.241   8.750  67.194  1.00  0.00    -0.276 A  
HETATM   21  C   UNL     1     -11.096  10.511  68.607  1.00  0.00    -0.319 A  
HETATM   22  C   UNL     1     -10.686  10.061  67.349  1.00  0.00    -0.336 A  
BRANCH  20  23
HETATM   23  N   UNL     1      -9.774   8.289  65.931  1.00  0.00    -0.456 N  
HETATM   24  H   UNL     1     -10.419   8.139  65.154  1.00  0.00     0.000 HD 
BRANCH  23  25
HETATM   25  S   UNL     1      -8.120   7.999  65.759  1.00  0.00    -0.129 S  
HETATM   26  C   UNL     1      -7.837   8.571  64.097  1.00  0.00    -0.144 C  
HETATM   27  O   UNL     1      -7.981   6.559  65.754  1.00  0.00    -0.102 OA 
HETATM   28  O   UNL     1      -7.369   8.820  66.683  1.00  0.00    -0.080 OA 
ENDBRANCH  23  25
ENDBRANCH  20  23
ENDBRANCH  14  17
ENDBRANCH  13  14
ENDBRANCH  12  13
ENDBRANCH  11  12
ENDBRANCH   8  11
ENDBRANCH   7   8
ENDBRANCH   6   7
ENDBRANCH   5   6
ENDBRANCH   4   5
ENDBRANCH   3   4
ENDBRANCH   2   3
TORSDOF 14
ENDMDL
MODEL       55
REMARK 921   NORMALIZED FREE ENERGY PREDICTED BY IDOCK:   -4.60 KCAL/MOL
REMARK 922        TOTAL FREE ENERGY PREDICTED BY IDOCK:  -10.21 KCAL/MOL
REMARK 923 INTER-LIGAND FREE ENERGY PREDICTED BY IDOCK:   -8.64 KCAL/MOL
REMARK 924 INTRA-LIGAND FREE ENERGY PREDICTED BY IDOCK:   -1.57 KCAL/MOL
REMARK 927      BINDING AFFINITY PREDICTED BY RF-SCORE:    0.00 PKD
ROOT
HETATM    1  C   UNL     1     -11.303   6.234  72.409  1.00  0.00    -0.333 C  
HETATM    2  C   UNL     1     -10.640   7.157  71.403  1.00  0.00    -0.234 C  
ENDROOT
BRANCH   2   3
HETATM    3  C   UNL     1     -11.631   8.177  70.845  1.00  0.00    -0.283 C  
BRANCH   3   4
HETATM    4  C   UNL     1     -11.076   9.588  70.996  1.00  0.00    -0.433 C  
BRANCH   4   5
HETATM    5  C   UNL     1     -12.102  10.651  70.611  1.00  0.00    -0.461 C  
BRANCH   5   6
HETATM    6  C   UNL     1     -11.769  11.194  69.223  1.00  0.00    -0.401 C  
BRANCH   6   7
HETATM    7  C   UNL     1     -10.269  11.127  68.932  1.00  0.00    -0.194 C  
BRANCH   7   8
HETATM    8  N   UNL     1      -9.887  11.804  67.680  1.00  0.00    -0.182 NA 
BRANCH   8   9
HETATM    9  C   UNL     1      -8.722  12.698  67.809  1.00  0.00    -0.179 C  
HETATM   10  C   UNL     1      -7.412  12.196  67.208  1.00  0.00    -0.152 C  
ENDBRANCH   8   9
BRANCH   8  11
HETATM   11  C   UNL     1      -9.713  10.854  66.566  1.00  0.00    -0.198 C  
BRANCH  11  12
HETATM   12  C   UNL     1     -10.358  11.297  65.244  1.00  0.00    -0.337 C  
BRANCH  12  13
HETATM   13  C   UNL     1     -11.596  12.175  65.459  1.00  0.00    -0.398 C  
BRANCH  13  14
HETATM   14  C   UNL     1     -11.482  13.528  64.743  1.00  0.00    -0.346 C  
HETATM   15  H   UNL     1     -12.655  14.715  63.697  1.00  0.00     0.000 HD 
HETATM   16  O   UNL     1     -12.725  13.877  64.140  1.00  0.00    -0.665 OA 
BRANCH  14  17
HETATM   17  C   UNL     1     -11.039  14.626  65.691  1.00  0.00    -0.338 A  
HETATM   18  C   UNL     1      -9.971  15.463  65.334  1.00  0.00    -0.356 A  
HETATM   19  C   UNL     1      -9.496  16.433  66.221  1.00  0.00    -0.347 A  
HETATM   20  C   UNL     1     -10.081  16.573  67.476  1.00  0.00    -0.267 A  
HETATM   21  C   UNL     1     -11.650  14.817  66.944  1.00  0.00    -0.337 A  
HETATM   22  C   UNL     1     -11.176  15.788  67.831  1.00  0.00    -0.313 A  
BRANCH  20  23
HETATM   23  N   UNL     1      -9.555  17.533  68.386  1.00  0.00    -0.291 N  
HETATM   24  H   UNL     1      -8.963  17.249  69.167  1.00  0.00     0.000 HD 
BRANCH  23  25
HETATM   25  S   UNL     1      -9.941  19.156  68.130  1.00  0.00    -0.412 S  
HETATM   26  C   UNL     1      -8.402  19.785  67.492  1.00  0.00    -0.314 C  
HETATM   27  O   UNL     1     -10.128  19.720  69.450  1.00  0.00    -0.387 OA 
HETATM   28  O   UNL     1     -10.964  19.273  67.115  1.00  0.00    -0.476 OA 
ENDBRANCH  23  25
ENDBRANCH  20  23
ENDBRANCH  14  17
ENDBRANCH  13  14
ENDBRANCH  12  13
ENDBRANCH  11  12
ENDBRANCH   8  11
ENDBRANCH   7   8
ENDBRANCH   6   7
ENDBRANCH   5   6
ENDBRANCH   4   5
ENDBRANCH   3   4
ENDBRANCH   2   3
TORSDOF 14
ENDMDL
MODEL       56
REMARK 921   NORMALIZED FREE ENERGY PREDICTED BY IDOCK:   -4.59 KCAL/MOL
REMARK 922        TOTAL FREE ENERGY PREDICTED BY IDOCK:  -10.20 KCAL/MOL
REMARK 923 INTER-LIGAND FREE ENERGY PREDICTED BY IDOCK:   -8.73 KCAL/MOL
REMARK 924 INTRA-LIGAND FREE ENERGY PREDICTED BY IDOCK:   -1.46 KCAL/MOL
REMARK 927      BINDING AFFINITY PREDICTED BY RF-SCORE:    0.00 PKD
ROOT
HETATM    1  C   UNL     1     -11.661   7.431  71.817  1.00  0.00    -0.305 C  
HETATM    2  C   UNL     1     -10.605   8.469  72.149  1.00  0.00    -0.419 C  
ENDROOT
BRANCH   2   3
HETATM    3  C   UNL     1     -10.470   9.503  71.032  1.00  0.00    -0.377 C  
BRANCH   3   4
HETATM    4  C   UNL     1     -11.845  10.004  70.609  1.00  0.00    -0.411 C  
BRANCH   4   5
HETATM    5  C   UNL     1     -11.761  11.300  69.807  1.00  0.00    -0.422 C  
BRANCH   5   6
HETATM    6  C   UNL     1     -10.600  11.207  68.819  1.00  0.00    -0.233 C  
BRANCH   6   7
HETATM    7  C   UNL     1     -11.057  10.690  67.454  1.00  0.00    -0.272 C  
BRANCH   7   8
HETATM    8  N   UNL     1     -10.005   9.956  66.727  1.00  0.00    -0.202 NA 
BRANCH   8   9
HETATM    9  C   UNL     1     -10.226   8.501  66.655  1.00  0.00    -0.275 C  
HETATM   10  C   UNL     1      -9.899   7.703  67.914  1.00  0.00    -0.190 C  
ENDBRANCH   8   9
BRANCH   8  11
HETATM   11  C   UNL     1      -9.752  10.528  65.392  1.00  0.00    -0.257 C  
BRANCH  11  12
HETATM   12  C   UNL     1     -11.020  10.850  64.585  1.00  0.00    -0.027 C  
BRANCH  12  13
HETATM   13  C   UNL     1     -10.845  12.075  63.681  1.00  0.00    -0.510 C  
BRANCH  13  14
HETATM   14  C   UNL     1     -11.871  13.175  63.986  1.00  0.00    -0.453 C  
HETATM   15  H   UNL     1     -13.590  13.328  64.936  1.00  0.00     0.000 HD 
HETATM   16  O   UNL     1     -12.954  12.647  64.747  1.00  0.00    -0.816 OA 
BRANCH  14  17
HETATM   17  C   UNL     1     -11.240  14.341  64.724  1.00  0.00    -0.387 A  
HETATM   18  C   UNL     1     -11.657  15.651  64.442  1.00  0.00    -0.250 A  
HETATM   19  C   UNL     1     -11.039  16.744  65.052  1.00  0.00    -0.063 A  
HETATM   20  C   UNL     1      -9.994  16.541  65.949  1.00  0.00    -0.317 A  
HETATM   21  C   UNL     1     -10.215  14.153  65.670  1.00  0.00    -0.357 A  
HETATM   22  C   UNL     1      -9.598  15.248  66.282  1.00  0.00    -0.331 A  
BRANCH  20  23
HETATM   23  N   UNL     1      -9.343  17.668  66.526  1.00  0.00    -0.270 N  
HETATM   24  H   UNL     1      -8.436  17.985  66.183  1.00  0.00     0.000 HD 
BRANCH  23  25
HETATM   25  S   UNL     1     -10.120  18.462  67.797  1.00  0.00    -0.376 S  
HETATM   26  C   UNL     1      -8.748  19.266  68.598  1.00  0.00    -0.365 C  
HETATM   27  O   UNL     1     -10.587  17.415  68.678  1.00  0.00    -0.357 OA 
HETATM   28  O   UNL     1     -11.027  19.464  67.280  1.00  0.00    -0.491 OA 
ENDBRANCH  23  25
ENDBRANCH  20  23
ENDBRANCH  14  17
ENDBRANCH  13  14
ENDBRANCH  12  13
ENDBRANCH  11  12
ENDBRANCH   8  11
ENDBRANCH   7   8
ENDBRANCH   6   7
ENDBRANCH   5   6
ENDBRANCH   4   5
ENDBRANCH   3   4
ENDBRANCH   2   3
TORSDOF 14
ENDMDL
MODEL       57
REMARK 921   NORMALIZED FREE ENERGY PREDICTED BY IDOCK:   -4.58 KCAL/MOL
REMARK 922        TOTAL FREE ENERGY PREDICTED BY IDOCK:  -10.18 KCAL/MOL
REMARK 923 INTER-LIGAND FREE ENERGY PREDICTED BY IDOCK:   -8.17 KCAL/MOL
REMARK 924 INTRA-LIGAND FREE ENERGY PREDICTED BY IDOCK:   -2.01 KCAL/MOL
REMARK 927      BINDING AFFINITY PREDICTED BY RF-SCORE:    0.00 PKD
ROOT
HETATM    1  C   UNL     1      -8.507  10.314  68.516  1.00  0.00    -0.121 C  
HETATM    2  C   UNL     1      -8.841  10.058  67.058  1.00  0.00    -0.147 C  
ENDROOT
BRANCH   2   3
HETATM    3  C   UNL     1     -10.086   9.184  66.917  1.00  0.00    -0.328 C  
BRANCH   3   4
HETATM    4  C   UNL     1      -9.736   7.723  67.173  1.00  0.00    -0.243 C  
BRANCH   4   5
HETATM    5  C   UNL     1     -10.913   6.794  66.888  1.00  0.00    -0.370 C  
BRANCH   5   6
HETATM    6  C   UNL     1     -10.896   5.637  67.884  1.00  0.00    -0.171 C  
BRANCH   6   7
HETATM    7  C   UNL     1     -10.172   6.014  69.179  1.00  0.00    -0.204 C  
BRANCH   7   8
HETATM    8  N   UNL     1     -11.026   5.910  70.376  1.00  0.00    -0.314 NA 
BRANCH   8   9
HETATM    9  C   UNL     1     -10.342   5.358  71.558  1.00  0.00    -0.225 C  
HETATM   10  C   UNL     1     -11.176   5.242  72.832  1.00  0.00    -0.375 C  
ENDBRANCH   8   9
BRANCH   8  11
HETATM   11  C   UNL     1     -11.697   7.184  70.690  1.00  0.00    -0.307 C  
BRANCH  11  12
HETATM   12  C   UNL     1     -10.816   8.430  70.513  1.00  0.00    -0.250 C  
BRANCH  12  13
HETATM   13  C   UNL     1     -11.232   9.581  71.436  1.00  0.00    -0.452 C  
BRANCH  13  14
HETATM   14  C   UNL     1     -12.549  10.234  70.994  1.00  0.00    -0.390 C  
HETATM   15  H   UNL     1     -14.218  10.845  71.843  1.00  0.00     0.000 HD 
HETATM   16  O   UNL     1     -13.402  10.441  72.117  1.00  0.00    -0.441 OA 
BRANCH  14  17
HETATM   17  C   UNL     1     -12.309  11.549  70.277  1.00  0.00    -0.355 A  
HETATM   18  C   UNL     1     -12.484  12.759  70.965  1.00  0.00    -0.369 A  
HETATM   19  C   UNL     1     -12.341  13.982  70.306  1.00  0.00    -0.425 A  
HETATM   20  C   UNL     1     -12.027  14.009  68.950  1.00  0.00    -0.352 A  
HETATM   21  C   UNL     1     -11.943  11.597  68.919  1.00  0.00    -0.355 A  
HETATM   22  C   UNL     1     -11.800  12.821  68.260  1.00  0.00    -0.357 A  
BRANCH  20  23
HETATM   23  N   UNL     1     -11.933  15.263  68.282  1.00  0.00    -0.529 N  
HETATM   24  H   UNL     1     -12.770  15.784  68.019  1.00  0.00     0.000 HD 
BRANCH  23  25
HETATM   25  S   UNL     1     -10.392  15.861  67.940  1.00  0.00    -0.276 S  
HETATM   26  C   UNL     1     -10.598  17.590  68.311  1.00  0.00    -0.354 C  
HETATM   27  O   UNL     1     -10.241  15.737  66.507  1.00  0.00    -0.267 OA 
HETATM   28  O   UNL     1      -9.421  15.289  68.847  1.00  0.00    -0.196 OA 
ENDBRANCH  23  25
ENDBRANCH  20  23
ENDBRANCH  14  17
ENDBRANCH  13  14
ENDBRANCH  12  13
ENDBRANCH  11  12
ENDBRANCH   8  11
ENDBRANCH   7   8
ENDBRANCH   6   7
ENDBRANCH   5   6
ENDBRANCH   4   5
ENDBRANCH   3   4
ENDBRANCH   2   3
TORSDOF 14
ENDMDL
MODEL       58
REMARK 921   NORMALIZED FREE ENERGY PREDICTED BY IDOCK:   -4.58 KCAL/MOL
REMARK 922        TOTAL FREE ENERGY PREDICTED BY IDOCK:  -10.17 KCAL/MOL
REMARK 923 INTER-LIGAND FREE ENERGY PREDICTED BY IDOCK:   -8.34 KCAL/MOL
REMARK 924 INTRA-LIGAND FREE ENERGY PREDICTED BY IDOCK:   -1.83 KCAL/MOL
REMARK 927      BINDING AFFINITY PREDICTED BY RF-SCORE:    0.00 PKD
ROOT
HETATM    1  C   UNL     1     -14.044   8.209  71.637  1.00  0.00    -0.504 C  
HETATM    2  C   UNL     1     -13.638   9.589  72.119  1.00  0.00    -0.500 C  
ENDROOT
BRANCH   2   3
HETATM    3  C   UNL     1     -12.350  10.058  71.444  1.00  0.00    -0.512 C  
BRANCH   3   4
HETATM    4  C   UNL     1     -12.535  11.456  70.868  1.00  0.00    -0.478 C  
BRANCH   4   5
HETATM    5  C   UNL     1     -11.460  11.799  69.841  1.00  0.00    -0.285 C  
BRANCH   5   6
HETATM    6  C   UNL     1     -12.018  11.587  68.435  1.00  0.00    -0.268 C  
BRANCH   6   7
HETATM    7  C   UNL     1     -11.591  12.704  67.481  1.00  0.00    -0.359 C  
BRANCH   7   8
HETATM    8  N   UNL     1     -11.541  12.279  66.070  1.00  0.00    -0.386 NA 
BRANCH   8   9
HETATM    9  C   UNL     1     -12.530  12.946  65.204  1.00  0.00    -0.501 C  
HETATM   10  C   UNL     1     -12.485  12.586  63.722  1.00  0.00    -0.552 C  
ENDBRANCH   8   9
BRANCH   8  11
HETATM   11  C   UNL     1     -10.182  12.378  65.508  1.00  0.00    -0.274 C  
BRANCH  11  12
HETATM   12  C   UNL     1      -9.303  11.139  65.744  1.00  0.00    -0.238 C  
BRANCH  12  13
HETATM   13  C   UNL     1     -10.013   9.834  65.364  1.00  0.00    -0.302 C  
BRANCH  13  14
HETATM   14  C   UNL     1      -9.239   8.594  65.833  1.00  0.00    -0.202 C  
HETATM   15  H   UNL     1      -7.398   8.157  66.377  1.00  0.00     0.000 HD 
HETATM   16  O   UNL     1      -7.877   8.925  66.087  1.00  0.00    -0.099 OA 
BRANCH  14  17
HETATM   17  C   UNL     1      -9.863   7.979  67.071  1.00  0.00    -0.295 A  
HETATM   18  C   UNL     1      -9.806   8.667  68.293  1.00  0.00    -0.186 A  
HETATM   19  C   UNL     1     -10.307   8.089  69.462  1.00  0.00    -0.221 A  
HETATM   20  C   UNL     1     -10.867   6.814  69.423  1.00  0.00    -0.271 A  
HETATM   21  C   UNL     1     -10.477   6.714  67.042  1.00  0.00    -0.369 A  
HETATM   22  C   UNL     1     -10.980   6.136  68.211  1.00  0.00    -0.397 A  
BRANCH  20  23
HETATM   23  N   UNL     1     -11.329   6.220  70.631  1.00  0.00    -0.342 N  
HETATM   24  H   UNL     1     -12.282   5.867  70.713  1.00  0.00     0.000 HD 
BRANCH  23  25
HETATM   25  S   UNL     1     -10.249   6.120  71.924  1.00  0.00    -0.204 S  
HETATM   26  C   UNL     1     -11.049   4.908  72.954  1.00  0.00    -0.256 C  
HETATM   27  O   UNL     1     -10.339   7.395  72.601  1.00  0.00    -0.208 OA 
HETATM   28  O   UNL     1      -8.976   5.601  71.474  1.00  0.00    -0.138 OA 
ENDBRANCH  23  25
ENDBRANCH  20  23
ENDBRANCH  14  17
ENDBRANCH  13  14
ENDBRANCH  12  13
ENDBRANCH  11  12
ENDBRANCH   8  11
ENDBRANCH   7   8
ENDBRANCH   6   7
ENDBRANCH   5   6
ENDBRANCH   4   5
ENDBRANCH   3   4
ENDBRANCH   2   3
TORSDOF 14
ENDMDL
MODEL       59
REMARK 921   NORMALIZED FREE ENERGY PREDICTED BY IDOCK:   -4.57 KCAL/MOL
REMARK 922        TOTAL FREE ENERGY PREDICTED BY IDOCK:  -10.17 KCAL/MOL
REMARK 923 INTER-LIGAND FREE ENERGY PREDICTED BY IDOCK:   -8.12 KCAL/MOL
REMARK 924 INTRA-LIGAND FREE ENERGY PREDICTED BY IDOCK:   -2.05 KCAL/MOL
REMARK 927      BINDING AFFINITY PREDICTED BY RF-SCORE:    0.00 PKD
ROOT
HETATM    1  C   UNL     1      -9.201  10.073  63.769  1.00  0.00    -0.314 C  
HETATM    2  C   UNL     1     -10.377  10.909  64.240  1.00  0.00    -0.436 C  
ENDROOT
BRANCH   2   3
HETATM    3  C   UNL     1     -10.725  12.000  63.229  1.00  0.00    -0.400 C  
BRANCH   3   4
HETATM    4  C   UNL     1     -12.054  12.650  63.593  1.00  0.00    -0.632 C  
BRANCH   4   5
HETATM    5  C   UNL     1     -12.447  12.377  65.042  1.00  0.00    -0.393 C  
BRANCH   5   6
HETATM    6  C   UNL     1     -13.009  13.653  65.662  1.00  0.00    -0.296 C  
BRANCH   6   7
HETATM    7  C   UNL     1     -12.149  14.143  66.829  1.00  0.00    -0.442 C  
BRANCH   7   8
HETATM    8  N   UNL     1     -10.946  13.320  67.052  1.00  0.00    -0.272 NA 
BRANCH   8   9
HETATM    9  C   UNL     1      -9.695  13.942  66.581  1.00  0.00    -0.289 C  
HETATM   10  C   UNL     1      -9.833  14.998  65.488  1.00  0.00    -0.352 C  
ENDBRANCH   8   9
BRANCH   8  11
HETATM   11  C   UNL     1     -10.830  12.875  68.452  1.00  0.00    -0.254 C  
BRANCH  11  12
HETATM   12  C   UNL     1     -12.001  13.295  69.354  1.00  0.00    -0.356 C  
BRANCH  12  13
HETATM   13  C   UNL     1     -11.541  14.092  70.580  1.00  0.00    -0.169 C  
BRANCH  13  14
HETATM   14  C   UNL     1     -11.769  15.601  70.413  1.00  0.00    -0.357 C  
HETATM   15  H   UNL     1     -11.882  17.185  71.577  1.00  0.00     0.000 HD 
HETATM   16  O   UNL     1     -11.741  16.251  71.680  1.00  0.00    -0.480 OA 
BRANCH  14  17
HETATM   17  C   UNL     1     -10.741  16.223  69.488  1.00  0.00    -0.323 A  
HETATM   18  C   UNL     1      -9.380  15.926  69.659  1.00  0.00    -0.114 A  
HETATM   19  C   UNL     1      -8.408  16.544  68.869  1.00  0.00    -0.241 A  
HETATM   20  C   UNL     1      -8.786  17.470  67.900  1.00  0.00    -0.247 A  
HETATM   21  C   UNL     1     -11.106  17.125  68.471  1.00  0.00    -0.092 A  
HETATM   22  C   UNL     1     -10.134  17.742  67.679  1.00  0.00    -0.342 A  
BRANCH  20  23
HETATM   23  N   UNL     1      -7.780  18.127  67.136  1.00  0.00    -0.216 N  
HETATM   24  H   UNL     1      -7.282  17.639  66.391  1.00  0.00     0.000 HD 
BRANCH  23  25
HETATM   25  S   UNL     1      -7.438  19.739  67.502  1.00  0.00    -0.280 S  
HETATM   26  C   UNL     1      -6.033  20.044  66.452  1.00  0.00    -0.168 C  
HETATM   27  O   UNL     1      -6.966  19.731  68.870  1.00  0.00    -0.322 OA 
HETATM   28  O   UNL     1      -8.534  20.588  67.094  1.00  0.00    -0.336 OA 
ENDBRANCH  23  25
ENDBRANCH  20  23
ENDBRANCH  14  17
ENDBRANCH  13  14
ENDBRANCH  12  13
ENDBRANCH  11  12
ENDBRANCH   8  11
ENDBRANCH   7   8
ENDBRANCH   6   7
ENDBRANCH   5   6
ENDBRANCH   4   5
ENDBRANCH   3   4
ENDBRANCH   2   3
TORSDOF 14
ENDMDL
MODEL       60
REMARK 921   NORMALIZED FREE ENERGY PREDICTED BY IDOCK:   -4.57 KCAL/MOL
REMARK 922        TOTAL FREE ENERGY PREDICTED BY IDOCK:  -10.16 KCAL/MOL
REMARK 923 INTER-LIGAND FREE ENERGY PREDICTED BY IDOCK:   -8.23 KCAL/MOL
REMARK 924 INTRA-LIGAND FREE ENERGY PREDICTED BY IDOCK:   -1.92 KCAL/MOL
REMARK 927      BINDING AFFINITY PREDICTED BY RF-SCORE:    0.00 PKD
ROOT
HETATM    1  C   UNL     1      -9.870   7.436  73.498  1.00  0.00    -0.363 C  
HETATM    2  C   UNL     1     -11.125   7.763  72.711  1.00  0.00    -0.457 C  
ENDROOT
BRANCH   2   3
HETATM    3  C   UNL     1     -10.951   9.038  71.888  1.00  0.00    -0.423 C  
BRANCH   3   4
HETATM    4  C   UNL     1     -12.212   9.321  71.082  1.00  0.00    -0.373 C  
BRANCH   4   5
HETATM    5  C   UNL     1     -13.025  10.469  71.675  1.00  0.00    -0.581 C  
BRANCH   5   6
HETATM    6  C   UNL     1     -12.571  11.785  71.048  1.00  0.00    -0.409 C  
BRANCH   6   7
HETATM    7  C   UNL     1     -13.137  12.994  71.796  1.00  0.00    -0.373 C  
BRANCH   7   8
HETATM    8  N   UNL     1     -13.174  14.221  70.979  1.00  0.00    -0.335 NA 
BRANCH   8   9
HETATM    9  C   UNL     1     -13.998  15.301  71.551  1.00  0.00    -0.532 C  
HETATM   10  C   UNL     1     -13.640  15.750  72.965  1.00  0.00    -0.638 C  
ENDBRANCH   8   9
BRANCH   8  11
HETATM   11  C   UNL     1     -11.823  14.699  70.636  1.00  0.00    -0.305 C  
BRANCH  11  12
HETATM   12  C   UNL     1     -11.697  15.297  69.226  1.00  0.00    -0.359 C  
BRANCH  12  13
HETATM   13  C   UNL     1     -12.010  14.276  68.126  1.00  0.00    -0.343 C  
BRANCH  13  14
HETATM   14  C   UNL     1     -10.742  13.761  67.431  1.00  0.00    -0.275 C  
HETATM   15  H   UNL     1      -8.836  14.250  67.351  1.00  0.00     0.000 HD 
HETATM   16  O   UNL     1      -9.621  14.569  67.780  1.00  0.00    -0.209 OA 
BRANCH  14  17
HETATM   17  C   UNL     1     -10.463  12.311  67.778  1.00  0.00    -0.225 A  
HETATM   18  C   UNL     1      -9.182  11.931  68.205  1.00  0.00    -0.187 A  
HETATM   19  C   UNL     1      -8.881  10.591  68.458  1.00  0.00    -0.144 A  
HETATM   20  C   UNL     1      -9.857   9.614  68.282  1.00  0.00    -0.150 A  
HETATM   21  C   UNL     1     -11.450  11.315  67.654  1.00  0.00    -0.341 A  
HETATM   22  C   UNL     1     -11.150   9.974  67.908  1.00  0.00    -0.260 A  
BRANCH  20  23
HETATM   23  N   UNL     1      -9.521   8.248  68.497  1.00  0.00    -0.146 N  
HETATM   24  H   UNL     1      -9.240   7.913  69.420  1.00  0.00     0.000 HD 
BRANCH  23  25
HETATM   25  S   UNL     1      -9.600   7.198  67.178  1.00  0.00    -0.161 S  
HETATM   26  C   UNL     1      -8.547   5.870  67.724  1.00  0.00    -0.105 C  
HETATM   27  O   UNL     1      -8.917   7.881  66.101  1.00  0.00    -0.168 OA 
HETATM   28  O   UNL     1     -10.949   6.703  67.013  1.00  0.00    -0.376 OA 
ENDBRANCH  23  25
ENDBRANCH  20  23
ENDBRANCH  14  17
ENDBRANCH  13  14
ENDBRANCH  12  13
ENDBRANCH  11  12
ENDBRANCH   8  11
ENDBRANCH   7   8
ENDBRANCH   6   7
ENDBRANCH   5   6
ENDBRANCH   4   5
ENDBRANCH   3   4
ENDBRANCH   2   3
TORSDOF 14
ENDMDL
MODEL       61
REMARK 921   NORMALIZED FREE ENERGY PREDICTED BY IDOCK:   -4.56 KCAL/MOL
REMARK 922        TOTAL FREE ENERGY PREDICTED BY IDOCK:  -10.15 KCAL/MOL
REMARK 923 INTER-LIGAND FREE ENERGY PREDICTED BY IDOCK:   -8.88 KCAL/MOL
REMARK 924 INTRA-LIGAND FREE ENERGY PREDICTED BY IDOCK:   -1.26 KCAL/MOL
REMARK 927      BINDING AFFINITY PREDICTED BY RF-SCORE:    0.00 PKD
ROOT
HETATM    1  C   UNL     1     -11.057   7.275  72.472  1.00  0.00    -0.334 C  
HETATM    2  C   UNL     1     -12.296   6.807  71.731  1.00  0.00    -0.400 C  
ENDROOT
BRANCH   2   3
HETATM    3  C   UNL     1     -13.206   7.980  71.371  1.00  0.00    -0.260 C  
BRANCH   3   4
HETATM    4  C   UNL     1     -12.901   9.177  72.264  1.00  0.00    -0.472 C  
BRANCH   4   5
HETATM    5  C   UNL     1     -12.713  10.459  71.458  1.00  0.00    -0.564 C  
BRANCH   5   6
HETATM    6  C   UNL     1     -12.100  10.119  70.102  1.00  0.00    -0.224 C  
BRANCH   6   7
HETATM    7  C   UNL     1     -10.572  10.193  70.136  1.00  0.00    -0.281 C  
BRANCH   7   8
HETATM    8  N   UNL     1      -9.935   9.672  68.913  1.00  0.00    -0.172 NA 
BRANCH   8   9
HETATM    9  C   UNL     1      -9.419   8.297  69.041  1.00  0.00    -0.155 C  
HETATM   10  C   UNL     1      -8.401   8.056  70.152  1.00  0.00    -0.126 C  
ENDBRANCH   8   9
BRANCH   8  11
HETATM   11  C   UNL     1     -10.806   9.811  67.732  1.00  0.00    -0.246 C  
BRANCH  11  12
HETATM   12  C   UNL     1     -10.584  11.098  66.924  1.00  0.00    -0.304 C  
BRANCH  12  13
HETATM   13  C   UNL     1     -11.881  11.885  66.702  1.00  0.00    -0.150 C  
BRANCH  13  14
HETATM   14  C   UNL     1     -11.741  12.940  65.597  1.00  0.00    -0.387 C  
HETATM   15  H   UNL     1     -12.929  13.906  64.360  1.00  0.00     0.000 HD 
HETATM   16  O   UNL     1     -13.016  13.253  65.044  1.00  0.00    -0.726 OA 
BRANCH  14  17
HETATM   17  C   UNL     1     -11.073  14.202  66.109  1.00  0.00    -0.312 A  
HETATM   18  C   UNL     1     -11.512  14.784  67.307  1.00  0.00    -0.378 A  
HETATM   19  C   UNL     1     -10.964  15.986  67.761  1.00  0.00    -0.307 A  
HETATM   20  C   UNL     1      -9.974  16.623  67.017  1.00  0.00    -0.271 A  
HETATM   21  C   UNL     1     -10.037  14.835  65.397  1.00  0.00    -0.406 A  
HETATM   22  C   UNL     1      -9.488  16.037  65.851  1.00  0.00    -0.351 A  
BRANCH  20  23
HETATM   23  N   UNL     1      -9.460  17.872  67.468  1.00  0.00    -0.256 N  
HETATM   24  H   UNL     1      -9.121  17.988  68.424  1.00  0.00     0.000 HD 
BRANCH  23  25
HETATM   25  S   UNL     1      -9.431  19.155  66.372  1.00  0.00    -0.347 S  
HETATM   26  C   UNL     1      -9.759  20.538  67.444  1.00  0.00    -0.446 C  
HETATM   27  O   UNL     1     -10.593  18.970  65.532  1.00  0.00    -0.557 OA 
HETATM   28  O   UNL     1      -8.109  19.294  65.801  1.00  0.00    -0.448 OA 
ENDBRANCH  23  25
ENDBRANCH  20  23
ENDBRANCH  14  17
ENDBRANCH  13  14
ENDBRANCH  12  13
ENDBRANCH  11  12
ENDBRANCH   8  11
ENDBRANCH   7   8
ENDBRANCH   6   7
ENDBRANCH   5   6
ENDBRANCH   4   5
ENDBRANCH   3   4
ENDBRANCH   2   3
TORSDOF 14
ENDMDL
MODEL       62
REMARK 921   NORMALIZED FREE ENERGY PREDICTED BY IDOCK:   -4.55 KCAL/MOL
REMARK 922        TOTAL FREE ENERGY PREDICTED BY IDOCK:  -10.12 KCAL/MOL
REMARK 923 INTER-LIGAND FREE ENERGY PREDICTED BY IDOCK:   -8.25 KCAL/MOL
REMARK 924 INTRA-LIGAND FREE ENERGY PREDICTED BY IDOCK:   -1.88 KCAL/MOL
REMARK 927      BINDING AFFINITY PREDICTED BY RF-SCORE:    0.00 PKD
ROOT
HETATM    1  C   UNL     1     -10.481  19.466  66.020  1.00  0.00    -0.596 C  
HETATM    2  C   UNL     1     -10.864  19.564  67.484  1.00  0.00    -0.494 C  
ENDROOT
BRANCH   2   3
HETATM    3  C   UNL     1      -9.649  19.381  68.392  1.00  0.00    -0.460 C  
BRANCH   3   4
HETATM    4  C   UNL     1      -8.439  18.953  67.571  1.00  0.00    -0.296 C  
BRANCH   4   5
HETATM    5  C   UNL     1      -7.539  17.989  68.338  1.00  0.00    -0.288 C  
BRANCH   5   6
HETATM    6  C   UNL     1      -6.999  16.930  67.379  1.00  0.00    -0.181 C  
BRANCH   6   7
HETATM    7  C   UNL     1      -8.061  16.482  66.373  1.00  0.00    -0.327 C  
BRANCH   7   8
HETATM    8  N   UNL     1      -8.631  15.157  66.677  1.00  0.00    -0.268 NA 
BRANCH   8   9
HETATM    9  C   UNL     1      -7.718  14.262  67.410  1.00  0.00    -0.173 C  
HETATM   10  C   UNL     1      -8.345  13.017  68.033  1.00  0.00    -0.169 C  
ENDBRANCH   8   9
BRANCH   8  11
HETATM   11  C   UNL     1      -9.939  15.257  67.349  1.00  0.00    -0.223 C  
BRANCH  11  12
HETATM   12  C   UNL     1     -11.125  15.507  66.404  1.00  0.00    -0.174 C  
BRANCH  12  13
HETATM   13  C   UNL     1     -12.211  14.432  66.526  1.00  0.00    -0.358 C  
BRANCH  13  14
HETATM   14  C   UNL     1     -12.540  13.782  65.175  1.00  0.00    -0.433 C  
HETATM   15  H   UNL     1     -12.624  14.332  63.287  1.00  0.00     0.000 HD 
HETATM   16  O   UNL     1     -12.420  14.734  64.123  1.00  0.00    -0.758 OA 
BRANCH  14  17
HETATM   17  C   UNL     1     -11.648  12.586  64.897  1.00  0.00    -0.386 A  
HETATM   18  C   UNL     1     -11.242  11.760  65.955  1.00  0.00    -0.352 A  
HETATM   19  C   UNL     1     -10.362  10.698  65.736  1.00  0.00    -0.287 A  
HETATM   20  C   UNL     1      -9.873  10.454  64.455  1.00  0.00    -0.339 A  
HETATM   21  C   UNL     1     -11.183  12.293  63.602  1.00  0.00    -0.539 A  
HETATM   22  C   UNL     1     -10.302  11.231  63.382  1.00  0.00    -0.449 A  
BRANCH  20  23
HETATM   23  N   UNL     1      -8.939   9.398  64.257  1.00  0.00    -0.367 N  
HETATM   24  H   UNL     1      -9.134   8.638  63.606  1.00  0.00     0.000 HD 
BRANCH  23  25
HETATM   25  S   UNL     1      -7.497   9.446  65.134  1.00  0.00    -0.109 S  
HETATM   26  C   UNL     1      -6.373   8.657  64.000  1.00  0.00    -0.072 C  
HETATM   27  O   UNL     1      -7.695   8.545  66.248  1.00  0.00    -0.091 OA 
HETATM   28  O   UNL     1      -7.083  10.816  65.343  1.00  0.00    -0.059 OA 
ENDBRANCH  23  25
ENDBRANCH  20  23
ENDBRANCH  14  17
ENDBRANCH  13  14
ENDBRANCH  12  13
ENDBRANCH  11  12
ENDBRANCH   8  11
ENDBRANCH   7   8
ENDBRANCH   6   7
ENDBRANCH   5   6
ENDBRANCH   4   5
ENDBRANCH   3   4
ENDBRANCH   2   3
TORSDOF 14
ENDMDL
MODEL       63
REMARK 921   NORMALIZED FREE ENERGY PREDICTED BY IDOCK:   -4.53 KCAL/MOL
REMARK 922        TOTAL FREE ENERGY PREDICTED BY IDOCK:  -10.09 KCAL/MOL
REMARK 923 INTER-LIGAND FREE ENERGY PREDICTED BY IDOCK:   -8.20 KCAL/MOL
REMARK 924 INTRA-LIGAND FREE ENERGY PREDICTED BY IDOCK:   -1.89 KCAL/MOL
REMARK 927      BINDING AFFINITY PREDICTED BY RF-SCORE:    0.00 PKD
ROOT
HETATM    1  C   UNL     1     -10.234  19.535  65.974  1.00  0.00    -0.567 C  
HETATM    2  C   UNL     1     -10.797  19.592  67.382  1.00  0.00    -0.536 C  
ENDROOT
BRANCH   2   3
HETATM    3  C   UNL     1      -9.746  19.199  68.418  1.00  0.00    -0.451 C  
BRANCH   3   4
HETATM    4  C   UNL     1      -8.346  19.420  67.859  1.00  0.00    -0.343 C  
BRANCH   4   5
HETATM    5  C   UNL     1      -7.279  19.365  68.949  1.00  0.00    -0.397 C  
BRANCH   5   6
HETATM    6  C   UNL     1      -6.393  18.142  68.726  1.00  0.00    -0.216 C  
BRANCH   6   7
HETATM    7  C   UNL     1      -6.675  17.474  67.378  1.00  0.00    -0.160 C  
BRANCH   7   8
HETATM    8  N   UNL     1      -6.618  16.002  67.433  1.00  0.00    -0.177 NA 
BRANCH   8   9
HETATM    9  C   UNL     1      -5.783  15.472  68.526  1.00  0.00    -0.100 C  
HETATM   10  C   UNL     1      -6.356  14.288  69.302  1.00  0.00    -0.110 C  
ENDBRANCH   8   9
BRANCH   8  11
HETATM   11  C   UNL     1      -7.961  15.395  67.440  1.00  0.00    -0.188 C  
BRANCH  11  12
HETATM   12  C   UNL     1      -8.895  15.900  66.329  1.00  0.00    -0.386 C  
BRANCH  12  13
HETATM   13  C   UNL     1     -10.367  15.910  66.757  1.00  0.00    -0.298 C  
BRANCH  13  14
HETATM   14  C   UNL     1     -11.189  14.831  66.039  1.00  0.00    -0.341 C  
HETATM   15  H   UNL     1     -11.034  13.743  64.405  1.00  0.00     0.000 HD 
HETATM   16  O   UNL     1     -10.526  14.411  64.850  1.00  0.00    -0.415 OA 
BRANCH  14  17
HETATM   17  C   UNL     1     -11.450  13.636  66.936  1.00  0.00    -0.369 A  
HETATM   18  C   UNL     1     -11.764  13.837  68.289  1.00  0.00    -0.394 A  
HETATM   19  C   UNL     1     -11.935  12.752  69.152  1.00  0.00    -0.296 A  
HETATM   20  C   UNL     1     -11.790  11.453  68.672  1.00  0.00    -0.310 A  
HETATM   21  C   UNL     1     -11.357  12.315  66.460  1.00  0.00    -0.403 A  
HETATM   22  C   UNL     1     -11.529  11.229  67.323  1.00  0.00    -0.265 A  
BRANCH  20  23
HETATM   23  N   UNL     1     -11.920  10.360  69.575  1.00  0.00    -0.497 N  
HETATM   24  H   UNL     1     -12.804  10.171  70.049  1.00  0.00     0.000 HD 
BRANCH  23  25
HETATM   25  S   UNL     1     -10.566   9.386  69.836  1.00  0.00    -0.247 S  
HETATM   26  C   UNL     1     -10.771   8.955  71.551  1.00  0.00    -0.328 C  
HETATM   27  O   UNL     1      -9.429  10.276  69.743  1.00  0.00    -0.191 OA 
HETATM   28  O   UNL     1     -10.648   8.189  69.028  1.00  0.00    -0.215 OA 
ENDBRANCH  23  25
ENDBRANCH  20  23
ENDBRANCH  14  17
ENDBRANCH  13  14
ENDBRANCH  12  13
ENDBRANCH  11  12
ENDBRANCH   8  11
ENDBRANCH   7   8
ENDBRANCH   6   7
ENDBRANCH   5   6
ENDBRANCH   4   5
ENDBRANCH   3   4
ENDBRANCH   2   3
TORSDOF 14
ENDMDL
MODEL       64
REMARK 921   NORMALIZED FREE ENERGY PREDICTED BY IDOCK:   -4.53 KCAL/MOL
REMARK 922        TOTAL FREE ENERGY PREDICTED BY IDOCK:  -10.09 KCAL/MOL
REMARK 923 INTER-LIGAND FREE ENERGY PREDICTED BY IDOCK:   -8.50 KCAL/MOL
REMARK 924 INTRA-LIGAND FREE ENERGY PREDICTED BY IDOCK:   -1.59 KCAL/MOL
REMARK 927      BINDING AFFINITY PREDICTED BY RF-SCORE:    0.00 PKD
ROOT
HETATM    1  C   UNL     1     -11.095   6.294  68.900  1.00  0.00    -0.434 C  
HETATM    2  C   UNL     1     -10.698   5.519  70.143  1.00  0.00    -0.348 C  
ENDROOT
BRANCH   2   3
HETATM    3  C   UNL     1     -11.141   6.239  71.415  1.00  0.00    -0.339 C  
BRANCH   3   4
HETATM    4  C   UNL     1     -12.446   6.988  71.168  1.00  0.00    -0.407 C  
BRANCH   4   5
HETATM    5  C   UNL     1     -12.529   8.275  71.984  1.00  0.00    -0.393 C  
BRANCH   5   6
HETATM    6  C   UNL     1     -11.231   9.062  71.822  1.00  0.00    -0.448 C  
BRANCH   6   7
HETATM    7  C   UNL     1     -11.298  10.029  70.638  1.00  0.00    -0.348 C  
BRANCH   7   8
HETATM    8  N   UNL     1     -10.007  10.195  69.947  1.00  0.00    -0.234 NA 
BRANCH   8   9
HETATM    9  C   UNL     1      -8.994   9.189  70.312  1.00  0.00    -0.217 C  
HETATM   10  C   UNL     1      -8.176   8.603  69.163  1.00  0.00    -0.117 C  
ENDBRANCH   8   9
BRANCH   8  11
HETATM   11  C   UNL     1     -10.168  10.289  68.485  1.00  0.00    -0.172 C  
BRANCH  11  12
HETATM   12  C   UNL     1     -11.494  10.918  68.029  1.00  0.00    -0.356 C  
BRANCH  12  13
HETATM   13  C   UNL     1     -11.286  12.190  67.199  1.00  0.00    -0.372 C  
BRANCH  13  14
HETATM   14  C   UNL     1     -11.959  13.415  67.833  1.00  0.00    -0.323 C  
HETATM   15  H   UNL     1     -12.406  14.045  69.645  1.00  0.00     0.000 HD 
HETATM   16  O   UNL     1     -11.989  13.287  69.252  1.00  0.00    -0.312 OA 
BRANCH  14  17
HETATM   17  C   UNL     1     -11.259  14.703  67.444  1.00  0.00    -0.351 A  
HETATM   18  C   UNL     1     -11.252  15.788  68.334  1.00  0.00    -0.362 A  
HETATM   19  C   UNL     1     -10.679  17.008  67.969  1.00  0.00    -0.365 A  
HETATM   20  C   UNL     1     -10.111  17.160  66.707  1.00  0.00    -0.303 A  
HETATM   21  C   UNL     1     -10.636  14.860  66.192  1.00  0.00    -0.322 A  
HETATM   22  C   UNL     1     -10.062  16.081  65.827  1.00  0.00    -0.393 A  
BRANCH  20  23
HETATM   23  N   UNL     1      -9.574  18.424  66.333  1.00  0.00    -0.321 N  
HETATM   24  H   UNL     1     -10.171  19.157  65.949  1.00  0.00     0.000 HD 
BRANCH  23  25
HETATM   25  S   UNL     1      -7.918  18.672  66.545  1.00  0.00    -0.283 S  
HETATM   26  C   UNL     1      -7.878  20.392  67.002  1.00  0.00    -0.319 C  
HETATM   27  O   UNL     1      -7.340  18.559  65.224  1.00  0.00    -0.460 OA 
HETATM   28  O   UNL     1      -7.430  17.872  67.647  1.00  0.00    -0.199 OA 
ENDBRANCH  23  25
ENDBRANCH  20  23
ENDBRANCH  14  17
ENDBRANCH  13  14
ENDBRANCH  12  13
ENDBRANCH  11  12
ENDBRANCH   8  11
ENDBRANCH   7   8
ENDBRANCH   6   7
ENDBRANCH   5   6
ENDBRANCH   4   5
ENDBRANCH   3   4
ENDBRANCH   2   3
TORSDOF 14
ENDMDL
MODEL       65
REMARK 921   NORMALIZED FREE ENERGY PREDICTED BY IDOCK:   -4.53 KCAL/MOL
REMARK 922        TOTAL FREE ENERGY PREDICTED BY IDOCK:  -10.08 KCAL/MOL
REMARK 923 INTER-LIGAND FREE ENERGY PREDICTED BY IDOCK:   -8.35 KCAL/MOL
REMARK 924 INTRA-LIGAND FREE ENERGY PREDICTED BY IDOCK:   -1.73 KCAL/MOL
REMARK 927      BINDING AFFINITY PREDICTED BY RF-SCORE:    0.00 PKD
ROOT
HETATM    1  C   UNL     1      -6.879   8.241  72.908  1.00  0.00    -0.117 C  
HETATM    2  C   UNL     1      -7.690   7.668  74.055  1.00  0.00    -0.182 C  
ENDROOT
BRANCH   2   3
HETATM    3  C   UNL     1      -9.188   7.736  73.767  1.00  0.00    -0.316 C  
BRANCH   3   4
HETATM    4  C   UNL     1      -9.894   6.521  74.357  1.00  0.00    -0.355 C  
BRANCH   4   5
HETATM    5  C   UNL     1      -9.702   5.275  73.497  1.00  0.00    -0.158 C  
BRANCH   5   6
HETATM    6  C   UNL     1     -10.970   5.020  72.686  1.00  0.00    -0.280 C  
BRANCH   6   7
HETATM    7  C   UNL     1     -10.813   5.468  71.231  1.00  0.00    -0.180 C  
BRANCH   7   8
HETATM    8  N   UNL     1     -11.844   6.430  70.802  1.00  0.00    -0.325 NA 
BRANCH   8   9
HETATM    9  C   UNL     1     -12.543   7.099  71.914  1.00  0.00    -0.293 C  
HETATM   10  C   UNL     1     -14.009   7.453  71.677  1.00  0.00    -0.523 C  
ENDBRANCH   8   9
BRANCH   8  11
HETATM   11  C   UNL     1     -11.320   7.408  69.832  1.00  0.00    -0.076 C  
BRANCH  11  12
HETATM   12  C   UNL     1     -10.038   8.127  70.279  1.00  0.00    -0.192 C  
BRANCH  12  13
HETATM   13  C   UNL     1     -10.280   9.602  70.620  1.00  0.00    -0.346 C  
BRANCH  13  14
HETATM   14  C   UNL     1     -11.588  10.132  70.017  1.00  0.00    -0.253 C  
HETATM   15  H   UNL     1     -13.194  11.079  70.650  1.00  0.00     0.000 HD 
HETATM   16  O   UNL     1     -12.384  10.751  71.023  1.00  0.00    -0.344 OA 
BRANCH  14  17
HETATM   17  C   UNL     1     -11.328  11.110  68.887  1.00  0.00    -0.344 A  
HETATM   18  C   UNL     1     -11.564  12.479  69.083  1.00  0.00    -0.375 A  
HETATM   19  C   UNL     1     -11.404  13.389  68.036  1.00  0.00    -0.320 A  
HETATM   20  C   UNL     1     -11.009  12.940  66.778  1.00  0.00    -0.272 A  
HETATM   21  C   UNL     1     -10.882  10.682  67.622  1.00  0.00    -0.346 A  
HETATM   22  C   UNL     1     -10.720  11.593  66.575  1.00  0.00    -0.313 A  
BRANCH  20  23
HETATM   23  N   UNL     1     -10.897  13.874  65.710  1.00  0.00    -0.285 N  
HETATM   24  H   UNL     1     -10.029  14.384  65.546  1.00  0.00     0.000 HD 
BRANCH  23  25
HETATM   25  S   UNL     1     -12.245  14.109  64.723  1.00  0.00    -0.432 S  
HETATM   26  C   UNL     1     -12.059  12.778  63.555  1.00  0.00    -0.559 C  
HETATM   27  O   UNL     1     -11.995  15.346  64.017  1.00  0.00    -0.512 OA 
HETATM   28  O   UNL     1     -13.461  13.913  65.482  1.00  0.00    -0.657 OA 
ENDBRANCH  23  25
ENDBRANCH  20  23
ENDBRANCH  14  17
ENDBRANCH  13  14
ENDBRANCH  12  13
ENDBRANCH  11  12
ENDBRANCH   8  11
ENDBRANCH   7   8
ENDBRANCH   6   7
ENDBRANCH   5   6
ENDBRANCH   4   5
ENDBRANCH   3   4
ENDBRANCH   2   3
TORSDOF 14
ENDMDL
MODEL       66
REMARK 921   NORMALIZED FREE ENERGY PREDICTED BY IDOCK:   -4.52 KCAL/MOL
REMARK 922        TOTAL FREE ENERGY PREDICTED BY IDOCK:  -10.07 KCAL/MOL
REMARK 923 INTER-LIGAND FREE ENERGY PREDICTED BY IDOCK:   -8.37 KCAL/MOL
REMARK 924 INTRA-LIGAND FREE ENERGY PREDICTED BY IDOCK:   -1.70 KCAL/MOL
REMARK 927      BINDING AFFINITY PREDICTED BY RF-SCORE:    0.00 PKD
ROOT
HETATM    1  C   UNL     1      -6.104   9.402  70.411  1.00  0.00    -0.054 C  
HETATM    2  C   UNL     1      -7.149  10.369  69.888  1.00  0.00    -0.160 C  
ENDROOT
BRANCH   2   3
HETATM    3  C   UNL     1      -8.492   9.673  69.671  1.00  0.00    -0.181 C  
BRANCH   3   4
HETATM    4  C   UNL     1      -9.466  10.615  68.974  1.00  0.00    -0.202 C  
BRANCH   4   5
HETATM    5  C   UNL     1     -10.393   9.872  68.015  1.00  0.00    -0.244 C  
BRANCH   5   6
HETATM    6  C   UNL     1      -9.599   9.424  66.791  1.00  0.00    -0.234 C  
BRANCH   6   7
HETATM    7  C   UNL     1     -10.190   9.984  65.495  1.00  0.00    -0.178 C  
BRANCH   7   8
HETATM    8  N   UNL     1      -9.313  10.966  64.831  1.00  0.00    -0.216 NA 
BRANCH   8   9
HETATM    9  C   UNL     1      -8.352  10.373  63.884  1.00  0.00    -0.143 C  
HETATM   10  C   UNL     1      -8.559  10.707  62.409  1.00  0.00    -0.294 C  
ENDBRANCH   8   9
BRANCH   8  11
HETATM   11  C   UNL     1     -10.079  12.058  64.205  1.00  0.00    -0.313 C  
BRANCH  11  12
HETATM   12  C   UNL     1     -11.601  11.843  64.189  1.00  0.00    -0.434 C  
BRANCH  12  13
HETATM   13  C   UNL     1     -12.362  12.979  64.880  1.00  0.00    -0.512 C  
BRANCH  13  14
HETATM   14  C   UNL     1     -11.419  14.031  65.482  1.00  0.00    -0.318 C  
HETATM   15  H   UNL     1     -11.055  15.952  65.246  1.00  0.00     0.000 HD 
HETATM   16  O   UNL     1     -11.639  15.301  64.874  1.00  0.00    -0.352 OA 
BRANCH  14  17
HETATM   17  C   UNL     1     -11.587  14.139  66.985  1.00  0.00    -0.404 A  
HETATM   18  C   UNL     1     -11.351  15.365  67.625  1.00  0.00    -0.292 A  
HETATM   19  C   UNL     1     -11.426  15.471  69.016  1.00  0.00    -0.361 A  
HETATM   20  C   UNL     1     -11.734  14.351  69.783  1.00  0.00    -0.305 A  
HETATM   21  C   UNL     1     -11.946  13.030  67.774  1.00  0.00    -0.344 A  
HETATM   22  C   UNL     1     -12.023  13.136  69.165  1.00  0.00    -0.329 A  
BRANCH  20  23
HETATM   23  N   UNL     1     -11.760  14.465  71.202  1.00  0.00    -0.494 N  
HETATM   24  H   UNL     1     -10.896  14.483  71.745  1.00  0.00     0.000 HD 
BRANCH  23  25
HETATM   25  S   UNL     1     -13.266  14.571  71.958  1.00  0.00    -0.396 S  
HETATM   26  C   UNL     1     -12.846  15.448  73.449  1.00  0.00    -0.538 C  
HETATM   27  O   UNL     1     -13.605  13.215  72.330  1.00  0.00    -0.574 OA 
HETATM   28  O   UNL     1     -14.167  15.377  71.165  1.00  0.00    -0.493 OA 
ENDBRANCH  23  25
ENDBRANCH  20  23
ENDBRANCH  14  17
ENDBRANCH  13  14
ENDBRANCH  12  13
ENDBRANCH  11  12
ENDBRANCH   8  11
ENDBRANCH   7   8
ENDBRANCH   6   7
ENDBRANCH   5   6
ENDBRANCH   4   5
ENDBRANCH   3   4
ENDBRANCH   2   3
TORSDOF 14
ENDMDL
MODEL       67
REMARK 921   NORMALIZED FREE ENERGY PREDICTED BY IDOCK:   -4.51 KCAL/MOL
REMARK 922        TOTAL FREE ENERGY PREDICTED BY IDOCK:  -10.05 KCAL/MOL
REMARK 923 INTER-LIGAND FREE ENERGY PREDICTED BY IDOCK:   -8.26 KCAL/MOL
REMARK 924 INTRA-LIGAND FREE ENERGY PREDICTED BY IDOCK:   -1.79 KCAL/MOL
REMARK 927      BINDING AFFINITY PREDICTED BY RF-SCORE:    0.00 PKD
ROOT
HETATM    1  C   UNL     1     -12.692  11.350  71.335  1.00  0.00    -0.489 C  
HETATM    2  C   UNL     1     -13.391  10.039  71.645  1.00  0.00    -0.468 C  
ENDROOT
BRANCH   2   3
HETATM    3  C   UNL     1     -12.389   8.945  72.008  1.00  0.00    -0.460 C  
BRANCH   3   4
HETATM    4  C   UNL     1     -12.812   7.618  71.392  1.00  0.00    -0.354 C  
BRANCH   4   5
HETATM    5  C   UNL     1     -12.127   6.430  72.064  1.00  0.00    -0.353 C  
BRANCH   5   6
HETATM    6  C   UNL     1     -10.998   6.938  72.957  1.00  0.00    -0.308 C  
BRANCH   6   7
HETATM    7  C   UNL     1      -9.622   6.590  72.385  1.00  0.00    -0.145 C  
BRANCH   7   8
HETATM    8  N   UNL     1      -9.295   7.339  71.158  1.00  0.00    -0.156 NA 
BRANCH   8   9
HETATM    9  C   UNL     1      -8.261   8.373  71.341  1.00  0.00    -0.139 C  
HETATM   10  C   UNL     1      -8.254   9.512  70.325  1.00  0.00    -0.209 C  
ENDBRANCH   8   9
BRANCH   8  11
HETATM   11  C   UNL     1      -8.966   6.444  70.034  1.00  0.00    -0.146 C  
BRANCH  11  12
HETATM   12  C   UNL     1     -10.173   5.714  69.426  1.00  0.00    -0.315 C  
BRANCH  12  13
HETATM   13  C   UNL     1     -10.755   6.450  68.214  1.00  0.00    -0.351 C  
BRANCH  13  14
HETATM   14  C   UNL     1      -9.687   7.240  67.444  1.00  0.00    -0.150 C  
HETATM   15  H   UNL     1      -8.635   7.022  65.794  1.00  0.00     0.000 HD 
HETATM   16  O   UNL     1      -9.296   6.533  66.271  1.00  0.00    -0.160 OA 
BRANCH  14  17
HETATM   17  C   UNL     1     -10.175   8.628  67.076  1.00  0.00    -0.360 A  
HETATM   18  C   UNL     1      -9.776   9.206  65.861  1.00  0.00    -0.336 A  
HETATM   19  C   UNL     1     -10.151  10.511  65.533  1.00  0.00    -0.349 A  
HETATM   20  C   UNL     1     -10.925  11.256  66.420  1.00  0.00    -0.227 A  
HETATM   21  C   UNL     1     -10.998   9.378  67.936  1.00  0.00    -0.122 A  
HETATM   22  C   UNL     1     -11.374  10.684  67.608  1.00  0.00    -0.284 A  
BRANCH  20  23
HETATM   23  N   UNL     1     -11.258  12.600  66.092  1.00  0.00    -0.295 N  
HETATM   24  H   UNL     1     -11.143  13.352  66.773  1.00  0.00     0.000 HD 
BRANCH  23  25
HETATM   25  S   UNL     1     -11.847  12.912  64.542  1.00  0.00    -0.403 S  
HETATM   26  C   UNL     1     -12.149  14.664  64.628  1.00  0.00    -0.454 C  
HETATM   27  O   UNL     1     -13.132  12.251  64.479  1.00  0.00    -0.791 OA 
HETATM   28  O   UNL     1     -10.823  12.650  63.555  1.00  0.00    -0.429 OA 
ENDBRANCH  23  25
ENDBRANCH  20  23
ENDBRANCH  14  17
ENDBRANCH  13  14
ENDBRANCH  12  13
ENDBRANCH  11  12
ENDBRANCH   8  11
ENDBRANCH   7   8
ENDBRANCH   6   7
ENDBRANCH   5   6
ENDBRANCH   4   5
ENDBRANCH   3   4
ENDBRANCH   2   3
TORSDOF 14
ENDMDL
MODEL       68
REMARK 921   NORMALIZED FREE ENERGY PREDICTED BY IDOCK:   -4.48 KCAL/MOL
REMARK 922        TOTAL FREE ENERGY PREDICTED BY IDOCK:  -10.00 KCAL/MOL
REMARK 923 INTER-LIGAND FREE ENERGY PREDICTED BY IDOCK:   -8.92 KCAL/MOL
REMARK 924 INTRA-LIGAND FREE ENERGY PREDICTED BY IDOCK:   -1.08 KCAL/MOL
REMARK 927      BINDING AFFINITY PREDICTED BY RF-SCORE:    0.00 PKD
ROOT
HETATM    1  C   UNL     1      -9.541  20.187  66.663  1.00  0.00    -0.547 C  
HETATM    2  C   UNL     1     -10.733  19.466  67.264  1.00  0.00    -0.603 C  
ENDROOT
BRANCH   2   3
HETATM    3  C   UNL     1     -10.460  17.972  67.421  1.00  0.00    -0.399 C  
BRANCH   3   4
HETATM    4  C   UNL     1      -9.051  17.641  66.947  1.00  0.00    -0.262 C  
BRANCH   4   5
HETATM    5  C   UNL     1      -8.994  16.306  66.209  1.00  0.00    -0.366 C  
BRANCH   5   6
HETATM    6  C   UNL     1     -10.245  16.151  65.348  1.00  0.00    -0.294 C  
BRANCH   6   7
HETATM    7  C   UNL     1     -10.459  14.699  64.916  1.00  0.00    -0.387 C  
BRANCH   7   8
HETATM    8  N   UNL     1     -11.881  14.337  64.770  1.00  0.00    -0.406 NA 
BRANCH   8   9
HETATM    9  C   UNL     1     -12.191  13.596  63.534  1.00  0.00    -0.268 C  
HETATM   10  C   UNL     1     -12.244  12.075  63.651  1.00  0.00    -0.642 C  
ENDBRANCH   8   9
BRANCH   8  11
HETATM   11  C   UNL     1     -12.401  13.639  65.959  1.00  0.00    -0.445 C  
BRANCH  11  12
HETATM   12  C   UNL     1     -12.100  14.341  67.293  1.00  0.00    -0.390 C  
BRANCH  12  13
HETATM   13  C   UNL     1     -11.810  13.349  68.426  1.00  0.00    -0.401 C  
BRANCH  13  14
HETATM   14  C   UNL     1     -11.131  12.069  67.919  1.00  0.00    -0.236 C  
HETATM   15  H   UNL     1      -9.380  11.557  67.177  1.00  0.00     0.000 HD 
HETATM   16  O   UNL     1      -9.801  12.349  67.491  1.00  0.00    -0.190 OA 
BRANCH  14  17
HETATM   17  C   UNL     1     -11.116  10.986  68.981  1.00  0.00    -0.301 A  
HETATM   18  C   UNL     1     -10.421   9.790  68.745  1.00  0.00    -0.240 A  
HETATM   19  C   UNL     1     -10.454   8.749  69.675  1.00  0.00    -0.220 A  
HETATM   20  C   UNL     1     -11.188   8.890  70.850  1.00  0.00    -0.279 A  
HETATM   21  C   UNL     1     -11.811  11.128  70.196  1.00  0.00    -0.449 A  
HETATM   22  C   UNL     1     -11.844  10.087  71.128  1.00  0.00    -0.481 A  
BRANCH  20  23
HETATM   23  N   UNL     1     -11.251   7.801  71.765  1.00  0.00    -0.249 N  
HETATM   24  H   UNL     1     -12.125   7.300  71.928  1.00  0.00     0.000 HD 
BRANCH  23  25
HETATM   25  S   UNL     1      -9.834   7.365  72.572  1.00  0.00    -0.181 S  
HETATM   26  C   UNL     1     -10.489   6.566  74.022  1.00  0.00    -0.285 C  
HETATM   27  O   UNL     1      -9.234   8.611  72.995  1.00  0.00    -0.257 OA 
HETATM   28  O   UNL     1      -9.089   6.404  71.790  1.00  0.00    -0.143 OA 
ENDBRANCH  23  25
ENDBRANCH  20  23
ENDBRANCH  14  17
ENDBRANCH  13  14
ENDBRANCH  12  13
ENDBRANCH  11  12
ENDBRANCH   8  11
ENDBRANCH   7   8
ENDBRANCH   6   7
ENDBRANCH   5   6
ENDBRANCH   4   5
ENDBRANCH   3   4
ENDBRANCH   2   3
TORSDOF 14
ENDMDL
MODEL       69
REMARK 921   NORMALIZED FREE ENERGY PREDICTED BY IDOCK:   -4.47 KCAL/MOL
REMARK 922        TOTAL FREE ENERGY PREDICTED BY IDOCK:   -9.98 KCAL/MOL
REMARK 923 INTER-LIGAND FREE ENERGY PREDICTED BY IDOCK:   -7.40 KCAL/MOL
REMARK 924 INTRA-LIGAND FREE ENERGY PREDICTED BY IDOCK:   -2.59 KCAL/MOL
REMARK 927      BINDING AFFINITY PREDICTED BY RF-SCORE:    0.00 PKD
ROOT
HETATM    1  C   UNL     1     -11.854  13.639  64.373  1.00  0.00    -0.460 C  
HETATM    2  C   UNL     1     -12.260  13.070  65.719  1.00  0.00    -0.511 C  
ENDROOT
BRANCH   2   3
HETATM    3  C   UNL     1     -11.987  14.062  66.849  1.00  0.00    -0.479 C  
BRANCH   3   4
HETATM    4  C   UNL     1     -11.871  13.327  68.178  1.00  0.00    -0.388 C  
BRANCH   4   5
HETATM    5  C   UNL     1     -11.468  14.261  69.316  1.00  0.00    -0.330 C  
BRANCH   5   6
HETATM    6  C   UNL     1     -11.744  15.706  68.904  1.00  0.00    -0.396 C  
BRANCH   6   7
HETATM    7  C   UNL     1     -10.593  16.636  69.294  1.00  0.00    -0.343 C  
BRANCH   7   8
HETATM    8  N   UNL     1      -9.861  17.176  68.134  1.00  0.00    -0.269 NA 
BRANCH   8   9
HETATM    9  C   UNL     1      -9.829  18.649  68.074  1.00  0.00    -0.342 C  
HETATM   10  C   UNL     1     -10.765  19.306  67.063  1.00  0.00    -0.565 C  
ENDBRANCH   8   9
BRANCH   8  11
HETATM   11  C   UNL     1      -8.508  16.605  68.016  1.00  0.00    -0.192 C  
BRANCH  11  12
HETATM   12  C   UNL     1      -8.419  15.354  67.129  1.00  0.00    -0.241 C  
BRANCH  12  13
HETATM   13  C   UNL     1      -7.969  14.112  67.907  1.00  0.00    -0.157 C  
BRANCH  13  14
HETATM   14  C   UNL     1      -7.774  12.892  66.995  1.00  0.00     0.037 C  
HETATM   15  H   UNL     1      -6.280  11.762  66.391  1.00  0.00     0.000 HD 
HETATM   16  O   UNL     1      -6.401  12.517  66.955  1.00  0.00    -0.176 OA 
BRANCH  14  17
HETATM   17  C   UNL     1      -8.620  11.716  67.445  1.00  0.00    -0.149 A  
HETATM   18  C   UNL     1      -9.387  11.011  66.505  1.00  0.00    -0.200 A  
HETATM   19  C   UNL     1     -10.231   9.973  66.906  1.00  0.00    -0.299 A  
HETATM   20  C   UNL     1     -10.322   9.631  68.253  1.00  0.00    -0.204 A  
HETATM   21  C   UNL     1      -8.688  11.323  68.794  1.00  0.00    -0.105 A  
HETATM   22  C   UNL     1      -9.531  10.284  69.196  1.00  0.00    -0.225 A  
BRANCH  20  23
HETATM   23  N   UNL     1     -11.222   8.603  68.650  1.00  0.00    -0.244 N  
HETATM   24  H   UNL     1     -12.192   8.814  68.886  1.00  0.00     0.000 HD 
BRANCH  23  25
HETATM   25  S   UNL     1     -10.634   7.022  68.719  1.00  0.00    -0.197 S  
HETATM   26  C   UNL     1     -11.010   6.438  67.080  1.00  0.00    -0.389 C  
HETATM   27  O   UNL     1     -11.506   6.327  69.640  1.00  0.00    -0.432 OA 
HETATM   28  O   UNL     1      -9.200   7.030  68.908  1.00  0.00    -0.138 OA 
ENDBRANCH  23  25
ENDBRANCH  20  23
ENDBRANCH  14  17
ENDBRANCH  13  14
ENDBRANCH  12  13
ENDBRANCH  11  12
ENDBRANCH   8  11
ENDBRANCH   7   8
ENDBRANCH   6   7
ENDBRANCH   5   6
ENDBRANCH   4   5
ENDBRANCH   3   4
ENDBRANCH   2   3
TORSDOF 14
ENDMDL
MODEL       70
REMARK 921   NORMALIZED FREE ENERGY PREDICTED BY IDOCK:   -4.46 KCAL/MOL
REMARK 922        TOTAL FREE ENERGY PREDICTED BY IDOCK:   -9.96 KCAL/MOL
REMARK 923 INTER-LIGAND FREE ENERGY PREDICTED BY IDOCK:   -9.28 KCAL/MOL
REMARK 924 INTRA-LIGAND FREE ENERGY PREDICTED BY IDOCK:   -0.68 KCAL/MOL
REMARK 927      BINDING AFFINITY PREDICTED BY RF-SCORE:    0.00 PKD
ROOT
HETATM    1  C   UNL     1     -10.336   5.287  66.583  1.00  0.00    -0.330 C  
HETATM    2  C   UNL     1      -9.574   4.564  67.678  1.00  0.00    -0.207 C  
ENDROOT
BRANCH   2   3
HETATM    3  C   UNL     1      -9.872   5.160  69.052  1.00  0.00    -0.246 C  
BRANCH   3   4
HETATM    4  C   UNL     1     -10.840   6.330  68.920  1.00  0.00    -0.396 C  
BRANCH   4   5
HETATM    5  C   UNL     1     -11.707   6.498  70.164  1.00  0.00    -0.419 C  
BRANCH   5   6
HETATM    6  C   UNL     1     -10.843   6.998  71.319  1.00  0.00    -0.260 C  
BRANCH   6   7
HETATM    7  C   UNL     1     -11.413   8.274  71.943  1.00  0.00    -0.310 C  
BRANCH   7   8
HETATM    8  N   UNL     1     -12.044   9.173  70.959  1.00  0.00    -0.285 NA 
BRANCH   8   9
HETATM    9  C   UNL     1     -13.395   9.626  71.336  1.00  0.00    -0.368 C  
HETATM   10  C   UNL     1     -14.229   8.653  72.165  1.00  0.00    -0.520 C  
ENDBRANCH   8   9
BRANCH   8  11
HETATM   11  C   UNL     1     -11.174  10.310  70.610  1.00  0.00    -0.325 C  
BRANCH  11  12
HETATM   12  C   UNL     1     -10.978  10.525  69.101  1.00  0.00    -0.286 C  
BRANCH  12  13
HETATM   13  C   UNL     1     -11.877  11.635  68.544  1.00  0.00    -0.357 C  
BRANCH  13  14
HETATM   14  C   UNL     1     -11.297  12.270  67.273  1.00  0.00    -0.328 C  
HETATM   15  H   UNL     1     -11.749  12.347  65.358  1.00  0.00     0.000 HD 
HETATM   16  O   UNL     1     -12.108  11.954  66.145  1.00  0.00    -0.519 OA 
BRANCH  14  17
HETATM   17  C   UNL     1     -11.165  13.775  67.410  1.00  0.00    -0.330 A  
HETATM   18  C   UNL     1     -10.554  14.516  66.387  1.00  0.00    -0.302 A  
HETATM   19  C   UNL     1     -10.353  15.892  66.523  1.00  0.00    -0.304 A  
HETATM   20  C   UNL     1     -10.757  16.542  67.686  1.00  0.00    -0.311 A  
HETATM   21  C   UNL     1     -11.611  14.458  68.557  1.00  0.00    -0.347 A  
HETATM   22  C   UNL     1     -11.412  15.835  68.692  1.00  0.00    -0.389 A  
BRANCH  20  23
HETATM   23  N   UNL     1     -10.502  17.935  67.829  1.00  0.00    -0.388 N  
HETATM   24  H   UNL     1     -10.728  18.426  68.694  1.00  0.00     0.000 HD 
BRANCH  23  25
HETATM   25  S   UNL     1      -9.813  18.748  66.520  1.00  0.00    -0.385 S  
HETATM   26  C   UNL     1      -9.482  20.345  67.237  1.00  0.00    -0.431 C  
HETATM   27  O   UNL     1     -10.885  18.914  65.563  1.00  0.00    -0.483 OA 
HETATM   28  O   UNL     1      -8.564  18.124  66.144  1.00  0.00    -0.456 OA 
ENDBRANCH  23  25
ENDBRANCH  20  23
ENDBRANCH  14  17
ENDBRANCH  13  14
ENDBRANCH  12  13
ENDBRANCH  11  12
ENDBRANCH   8  11
ENDBRANCH   7   8
ENDBRANCH   6   7
ENDBRANCH   5   6
ENDBRANCH   4   5
ENDBRANCH   3   4
ENDBRANCH   2   3
TORSDOF 14
ENDMDL
MODEL       71
REMARK 921   NORMALIZED FREE ENERGY PREDICTED BY IDOCK:   -4.46 KCAL/MOL
REMARK 922        TOTAL FREE ENERGY PREDICTED BY IDOCK:   -9.95 KCAL/MOL
REMARK 923 INTER-LIGAND FREE ENERGY PREDICTED BY IDOCK:   -8.22 KCAL/MOL
REMARK 924 INTRA-LIGAND FREE ENERGY PREDICTED BY IDOCK:   -1.73 KCAL/MOL
REMARK 927      BINDING AFFINITY PREDICTED BY RF-SCORE:    0.00 PKD
ROOT
HETATM    1  C   UNL     1     -11.598   6.208  71.849  1.00  0.00    -0.352 C  
HETATM    2  C   UNL     1     -12.564   7.252  71.319  1.00  0.00    -0.402 C  
ENDROOT
BRANCH   2   3
HETATM    3  C   UNL     1     -12.541   8.518  72.174  1.00  0.00    -0.431 C  
BRANCH   3   4
HETATM    4  C   UNL     1     -11.474   9.479  71.664  1.00  0.00    -0.433 C  
BRANCH   4   5
HETATM    5  C   UNL     1     -11.779   9.973  70.252  1.00  0.00    -0.327 C  
BRANCH   5   6
HETATM    6  C   UNL     1     -10.481  10.044  69.451  1.00  0.00    -0.252 C  
BRANCH   6   7
HETATM    7  C   UNL     1      -9.813   8.672  69.331  1.00  0.00    -0.184 C  
BRANCH   7   8
HETATM    8  N   UNL     1      -9.960   8.066  67.995  1.00  0.00    -0.172 NA 
BRANCH   8   9
HETATM    9  C   UNL     1     -10.634   6.756  67.999  1.00  0.00    -0.231 C  
HETATM   10  C   UNL     1      -9.924   5.631  68.748  1.00  0.00    -0.221 C  
ENDBRANCH   8   9
BRANCH   8  11
HETATM   11  C   UNL     1     -10.587   8.990  67.033  1.00  0.00    -0.200 C  
BRANCH  11  12
HETATM   12  C   UNL     1      -9.708   9.346  65.824  1.00  0.00    -0.354 C  
BRANCH  12  13
HETATM   13  C   UNL     1      -9.093  10.746  65.937  1.00  0.00    -0.208 C  
BRANCH  13  14
HETATM   14  C   UNL     1      -9.886  11.795  65.144  1.00  0.00    -0.235 C  
HETATM   15  H   UNL     1     -11.368  11.814  63.849  1.00  0.00     0.000 HD 
HETATM   16  O   UNL     1     -10.877  11.165  64.339  1.00  0.00    -0.344 OA 
BRANCH  14  17
HETATM   17  C   UNL     1     -10.533  12.817  66.060  1.00  0.00    -0.291 A  
HETATM   18  C   UNL     1      -9.734  13.588  66.917  1.00  0.00    -0.261 A  
HETATM   19  C   UNL     1     -10.313  14.482  67.822  1.00  0.00    -0.237 A  
HETATM   20  C   UNL     1     -11.698  14.610  67.883  1.00  0.00    -0.351 A  
HETATM   21  C   UNL     1     -11.928  12.997  66.102  1.00  0.00    -0.488 A  
HETATM   22  C   UNL     1     -12.507  13.891  67.006  1.00  0.00    -0.142 A  
BRANCH  20  23
HETATM   23  N   UNL     1     -12.273  15.489  68.843  1.00  0.00    -0.608 N  
HETATM   24  H   UNL     1     -12.520  16.448  68.598  1.00  0.00     0.000 HD 
BRANCH  23  25
HETATM   25  S   UNL     1     -12.534  14.893  70.401  1.00  0.00    -0.347 S  
HETATM   26  C   UNL     1     -11.114  15.536  71.263  1.00  0.00    -0.284 C  
HETATM   27  O   UNL     1     -12.369  13.460  70.298  1.00  0.00    -0.323 OA 
HETATM   28  O   UNL     1     -13.736  15.469  70.963  1.00  0.00    -0.546 OA 
ENDBRANCH  23  25
ENDBRANCH  20  23
ENDBRANCH  14  17
ENDBRANCH  13  14
ENDBRANCH  12  13
ENDBRANCH  11  12
ENDBRANCH   8  11
ENDBRANCH   7   8
ENDBRANCH   6   7
ENDBRANCH   5   6
ENDBRANCH   4   5
ENDBRANCH   3   4
ENDBRANCH   2   3
TORSDOF 14
ENDMDL
MODEL       72
REMARK 921   NORMALIZED FREE ENERGY PREDICTED BY IDOCK:   -4.45 KCAL/MOL
REMARK 922        TOTAL FREE ENERGY PREDICTED BY IDOCK:   -9.95 KCAL/MOL
REMARK 923 INTER-LIGAND FREE ENERGY PREDICTED BY IDOCK:   -8.08 KCAL/MOL
REMARK 924 INTRA-LIGAND FREE ENERGY PREDICTED BY IDOCK:   -1.87 KCAL/MOL
REMARK 927      BINDING AFFINITY PREDICTED BY RF-SCORE:    0.00 PKD
ROOT
HETATM    1  C   UNL     1     -12.569   7.059  71.394  1.00  0.00    -0.428 C  
HETATM    2  C   UNL     1     -13.304   8.291  71.888  1.00  0.00    -0.364 C  
ENDROOT
BRANCH   2   3
HETATM    3  C   UNL     1     -12.435   9.542  71.773  1.00  0.00    -0.484 C  
BRANCH   3   4
HETATM    4  C   UNL     1     -11.044   9.173  71.274  1.00  0.00    -0.405 C  
BRANCH   4   5
HETATM    5  C   UNL     1     -10.660   9.954  70.020  1.00  0.00    -0.335 C  
BRANCH   5   6
HETATM    6  C   UNL     1     -10.597   9.001  68.829  1.00  0.00    -0.196 C  
BRANCH   6   7
HETATM    7  C   UNL     1      -9.157   8.765  68.367  1.00  0.00    -0.141 C  
BRANCH   7   8
HETATM    8  N   UNL     1      -8.753   9.640  67.251  1.00  0.00    -0.132 NA 
BRANCH   8   9
HETATM    9  C   UNL     1      -7.384  10.175  67.370  1.00  0.00    -0.089 C  
HETATM   10  C   UNL     1      -7.239  11.691  67.278  1.00  0.00    -0.137 C  
ENDBRANCH   8   9
BRANCH   8  11
HETATM   11  C   UNL     1      -8.969   9.002  65.940  1.00  0.00    -0.190 C  
BRANCH  11  12
HETATM   12  C   UNL     1      -9.345   9.975  64.812  1.00  0.00    -0.330 C  
BRANCH  12  13
HETATM   13  C   UNL     1     -10.508  10.897  65.194  1.00  0.00    -0.316 C  
BRANCH  13  14
HETATM   14  C   UNL     1     -10.096  12.375  65.218  1.00  0.00    -0.265 C  
HETATM   15  H   UNL     1     -10.232  13.934  64.022  1.00  0.00     0.000 HD 
HETATM   16  O   UNL     1     -10.487  13.019  64.008  1.00  0.00    -0.418 OA 
BRANCH  14  17
HETATM   17  C   UNL     1     -10.691  13.103  66.408  1.00  0.00    -0.293 A  
HETATM   18  C   UNL     1     -11.533  12.415  67.294  1.00  0.00    -0.421 A  
HETATM   19  C   UNL     1     -12.152  13.082  68.354  1.00  0.00    -0.193 A  
HETATM   20  C   UNL     1     -11.940  14.446  68.537  1.00  0.00    -0.298 A  
HETATM   21  C   UNL     1     -10.449  14.470  66.639  1.00  0.00    -0.274 A  
HETATM   22  C   UNL     1     -11.067  15.137  67.700  1.00  0.00    -0.318 A  
BRANCH  20  23
HETATM   23  N   UNL     1     -12.616  15.119  69.593  1.00  0.00    -0.610 N  
HETATM   24  H   UNL     1     -13.276  15.872  69.400  1.00  0.00     0.000 HD 
BRANCH  23  25
HETATM   25  S   UNL     1     -12.289  14.633  71.176  1.00  0.00    -0.361 S  
HETATM   26  C   UNL     1     -13.452  15.621  72.092  1.00  0.00    -0.469 C  
HETATM   27  O   UNL     1     -10.964  15.136  71.468  1.00  0.00    -0.270 OA 
HETATM   28  O   UNL     1     -12.612  13.233  71.346  1.00  0.00    -0.342 OA 
ENDBRANCH  23  25
ENDBRANCH  20  23
ENDBRANCH  14  17
ENDBRANCH  13  14
ENDBRANCH  12  13
ENDBRANCH  11  12
ENDBRANCH   8  11
ENDBRANCH   7   8
ENDBRANCH   6   7
ENDBRANCH   5   6
ENDBRANCH   4   5
ENDBRANCH   3   4
ENDBRANCH   2   3
TORSDOF 14
ENDMDL
MODEL       73
REMARK 921   NORMALIZED FREE ENERGY PREDICTED BY IDOCK:   -4.45 KCAL/MOL
REMARK 922        TOTAL FREE ENERGY PREDICTED BY IDOCK:   -9.95 KCAL/MOL
REMARK 923 INTER-LIGAND FREE ENERGY PREDICTED BY IDOCK:   -8.59 KCAL/MOL
REMARK 924 INTRA-LIGAND FREE ENERGY PREDICTED BY IDOCK:   -1.36 KCAL/MOL
REMARK 927      BINDING AFFINITY PREDICTED BY RF-SCORE:    0.00 PKD
ROOT
HETATM    1  C   UNL     1      -9.210  10.085  63.864  1.00  0.00    -0.317 C  
HETATM    2  C   UNL     1     -10.402  10.926  64.283  1.00  0.00    -0.436 C  
ENDROOT
BRANCH   2   3
HETATM    3  C   UNL     1     -10.476  12.225  63.483  1.00  0.00    -0.459 C  
BRANCH   3   4
HETATM    4  C   UNL     1     -11.883  12.806  63.550  1.00  0.00    -0.618 C  
BRANCH   4   5
HETATM    5  C   UNL     1     -12.502  12.645  64.936  1.00  0.00    -0.564 C  
BRANCH   5   6
HETATM    6  C   UNL     1     -12.706  14.023  65.561  1.00  0.00    -0.517 C  
BRANCH   6   7
HETATM    7  C   UNL     1     -12.035  14.128  66.932  1.00  0.00    -0.449 C  
BRANCH   7   8
HETATM    8  N   UNL     1     -10.662  13.591  66.953  1.00  0.00    -0.273 NA 
BRANCH   8   9
HETATM    9  C   UNL     1      -9.611  14.624  66.979  1.00  0.00    -0.240 C  
HETATM   10  C   UNL     1      -9.571  15.581  65.790  1.00  0.00    -0.367 C  
ENDBRANCH   8   9
BRANCH   8  11
HETATM   11  C   UNL     1     -10.470  12.601  68.028  1.00  0.00    -0.224 C  
BRANCH  11  12
HETATM   12  C   UNL     1     -11.747  12.251  68.808  1.00  0.00    -0.390 C  
BRANCH  12  13
HETATM   13  C   UNL     1     -11.797  10.775  69.220  1.00  0.00    -0.359 C  
BRANCH  13  14
HETATM   14  C   UNL     1     -12.015  10.599  70.729  1.00  0.00    -0.374 C  
HETATM   15  H   UNL     1     -13.539  10.362  71.953  1.00  0.00     0.000 HD 
HETATM   16  O   UNL     1     -13.404  10.471  71.019  1.00  0.00    -0.306 OA 
BRANCH  14  17
HETATM   17  C   UNL     1     -11.260   9.398  71.267  1.00  0.00    -0.437 A  
HETATM   18  C   UNL     1     -11.858   8.578  72.236  1.00  0.00    -0.453 A  
HETATM   19  C   UNL     1     -11.155   7.511  72.800  1.00  0.00    -0.416 A  
HETATM   20  C   UNL     1      -9.844   7.255  72.406  1.00  0.00    -0.155 A  
HETATM   21  C   UNL     1      -9.953   9.093  70.845  1.00  0.00    -0.357 A  
HETATM   22  C   UNL     1      -9.250   8.025  71.410  1.00  0.00    -0.180 A  
BRANCH  20  23
HETATM   23  N   UNL     1      -9.126   6.194  73.026  1.00  0.00    -0.131 N  
HETATM   24  H   UNL     1      -8.336   6.383  73.643  1.00  0.00     0.000 HD 
BRANCH  23  25
HETATM   25  S   UNL     1      -9.625   4.613  72.708  1.00  0.00    -0.136 S  
HETATM   26  C   UNL     1      -8.084   3.729  72.835  1.00  0.00    -0.086 C  
HETATM   27  O   UNL     1     -10.018   4.606  71.316  1.00  0.00    -0.186 OA 
HETATM   28  O   UNL     1     -10.526   4.155  73.743  1.00  0.00    -0.159 OA 
ENDBRANCH  23  25
ENDBRANCH  20  23
ENDBRANCH  14  17
ENDBRANCH  13  14
ENDBRANCH  12  13
ENDBRANCH  11  12
ENDBRANCH   8  11
ENDBRANCH   7   8
ENDBRANCH   6   7
ENDBRANCH   5   6
ENDBRANCH   4   5
ENDBRANCH   3   4
ENDBRANCH   2   3
TORSDOF 14
ENDMDL
MODEL       74
REMARK 921   NORMALIZED FREE ENERGY PREDICTED BY IDOCK:   -4.43 KCAL/MOL
REMARK 922        TOTAL FREE ENERGY PREDICTED BY IDOCK:   -9.91 KCAL/MOL
REMARK 923 INTER-LIGAND FREE ENERGY PREDICTED BY IDOCK:   -8.41 KCAL/MOL
REMARK 924 INTRA-LIGAND FREE ENERGY PREDICTED BY IDOCK:   -1.49 KCAL/MOL
REMARK 927      BINDING AFFINITY PREDICTED BY RF-SCORE:    0.00 PKD
ROOT
HETATM    1  C   UNL     1     -13.214   7.556  71.649  1.00  0.00    -0.404 C  
HETATM    2  C   UNL     1     -13.754   8.863  72.200  1.00  0.00    -0.527 C  
ENDROOT
BRANCH   2   3
HETATM    3  C   UNL     1     -13.038  10.064  71.585  1.00  0.00    -0.547 C  
BRANCH   3   4
HETATM    4  C   UNL     1     -11.574   9.729  71.326  1.00  0.00    -0.465 C  
BRANCH   4   5
HETATM    5  C   UNL     1     -11.063  10.361  70.034  1.00  0.00    -0.379 C  
BRANCH   5   6
HETATM    6  C   UNL     1     -10.786   9.264  69.009  1.00  0.00    -0.189 C  
BRANCH   6   7
HETATM    7  C   UNL     1      -9.325   9.269  68.553  1.00  0.00    -0.142 C  
BRANCH   7   8
HETATM    8  N   UNL     1      -9.085  10.122  67.376  1.00  0.00    -0.137 NA 
BRANCH   8   9
HETATM    9  C   UNL     1      -7.699  10.609  67.257  1.00  0.00    -0.108 C  
HETATM   10  C   UNL     1      -7.482  12.101  67.494  1.00  0.00    -0.148 C  
ENDBRANCH   8   9
BRANCH   8  11
HETATM   11  C   UNL     1      -9.539   9.484  66.127  1.00  0.00    -0.239 C  
BRANCH  11  12
HETATM   12  C   UNL     1     -10.391  10.388  65.223  1.00  0.00    -0.267 C  
BRANCH  12  13
HETATM   13  C   UNL     1     -11.106  11.495  66.005  1.00  0.00    -0.289 C  
BRANCH  13  14
HETATM   14  C   UNL     1     -11.522  12.668  65.106  1.00  0.00    -0.326 C  
HETATM   15  H   UNL     1     -13.193  13.411  64.377  1.00  0.00     0.000 HD 
HETATM   16  O   UNL     1     -12.936  12.685  64.933  1.00  0.00    -0.830 OA 
BRANCH  14  17
HETATM   17  C   UNL     1     -11.052  13.997  65.667  1.00  0.00    -0.302 A  
HETATM   18  C   UNL     1     -10.772  14.114  67.037  1.00  0.00    -0.285 A  
HETATM   19  C   UNL     1     -10.410  15.344  67.589  1.00  0.00    -0.262 A  
HETATM   20  C   UNL     1     -10.329  16.474  66.779  1.00  0.00    -0.296 A  
HETATM   21  C   UNL     1     -10.916  15.138  64.855  1.00  0.00    -0.434 A  
HETATM   22  C   UNL     1     -10.553  16.370  65.408  1.00  0.00    -0.338 A  
BRANCH  20  23
HETATM   23  N   UNL     1     -10.006  17.730  67.366  1.00  0.00    -0.311 N  
HETATM   24  H   UNL     1     -10.700  18.257  67.896  1.00  0.00     0.000 HD 
BRANCH  23  25
HETATM   25  S   UNL     1      -8.438  18.318  67.157  1.00  0.00    -0.256 S  
HETATM   26  C   UNL     1      -8.500  19.822  68.108  1.00  0.00    -0.286 C  
HETATM   27  O   UNL     1      -8.348  18.688  65.762  1.00  0.00    -0.462 OA 
HETATM   28  O   UNL     1      -7.480  17.413  67.754  1.00  0.00    -0.182 OA 
ENDBRANCH  23  25
ENDBRANCH  20  23
ENDBRANCH  14  17
ENDBRANCH  13  14
ENDBRANCH  12  13
ENDBRANCH  11  12
ENDBRANCH   8  11
ENDBRANCH   7   8
ENDBRANCH   6   7
ENDBRANCH   5   6
ENDBRANCH   4   5
ENDBRANCH   3   4
ENDBRANCH   2   3
TORSDOF 14
ENDMDL
MODEL       75
REMARK 921   NORMALIZED FREE ENERGY PREDICTED BY IDOCK:   -4.42 KCAL/MOL
REMARK 922        TOTAL FREE ENERGY PREDICTED BY IDOCK:   -9.89 KCAL/MOL
REMARK 923 INTER-LIGAND FREE ENERGY PREDICTED BY IDOCK:   -8.65 KCAL/MOL
REMARK 924 INTRA-LIGAND FREE ENERGY PREDICTED BY IDOCK:   -1.25 KCAL/MOL
REMARK 927      BINDING AFFINITY PREDICTED BY RF-SCORE:    0.00 PKD
ROOT
HETATM    1  C   UNL     1     -10.151   4.412  72.593  1.00  0.00    -0.229 C  
HETATM    2  C   UNL     1     -11.383   5.252  72.874  1.00  0.00    -0.368 C  
ENDROOT
BRANCH   2   3
HETATM    3  C   UNL     1     -11.435   6.484  71.971  1.00  0.00    -0.342 C  
BRANCH   3   4
HETATM    4  C   UNL     1     -11.133   7.741  72.778  1.00  0.00    -0.457 C  
BRANCH   4   5
HETATM    5  C   UNL     1      -9.779   8.344  72.413  1.00  0.00    -0.376 C  
BRANCH   5   6
HETATM    6  C   UNL     1      -9.559   8.215  70.908  1.00  0.00    -0.187 C  
BRANCH   6   7
HETATM    7  C   UNL     1      -9.701   9.563  70.197  1.00  0.00    -0.246 C  
BRANCH   7   8
HETATM    8  N   UNL     1     -10.953   9.688  69.428  1.00  0.00    -0.219 NA 
BRANCH   8   9
HETATM    9  C   UNL     1     -11.815  10.804  69.857  1.00  0.00    -0.335 C  
HETATM   10  C   UNL     1     -12.859  10.483  70.923  1.00  0.00    -0.485 C  
ENDBRANCH   8   9
BRANCH   8  11
HETATM   11  C   UNL     1     -10.710   9.724  67.975  1.00  0.00    -0.247 C  
BRANCH  11  12
HETATM   12  C   UNL     1     -11.197  11.004  67.279  1.00  0.00    -0.330 C  
BRANCH  12  13
HETATM   13  C   UNL     1     -10.317  11.394  66.085  1.00  0.00    -0.294 C  
BRANCH  13  14
HETATM   14  C   UNL     1     -10.918  12.549  65.272  1.00  0.00    -0.293 C  
HETATM   15  H   UNL     1     -12.714  13.228  64.831  1.00  0.00     0.000 HD 
HETATM   16  O   UNL     1     -12.341  12.513  65.334  1.00  0.00    -0.579 OA 
BRANCH  14  17
HETATM   17  C   UNL     1     -10.413  13.896  65.755  1.00  0.00    -0.313 A  
HETATM   18  C   UNL     1     -10.918  15.074  65.184  1.00  0.00    -0.417 A  
HETATM   19  C   UNL     1     -10.415  16.322  65.558  1.00  0.00    -0.383 A  
HETATM   20  C   UNL     1      -9.397  16.406  66.505  1.00  0.00    -0.273 A  
HETATM   21  C   UNL     1      -9.420  14.004  66.746  1.00  0.00    -0.292 A  
HETATM   22  C   UNL     1      -8.917  15.253  67.121  1.00  0.00    -0.227 A  
BRANCH  20  23
HETATM   23  N   UNL     1      -8.863  17.682  66.840  1.00  0.00    -0.239 N  
HETATM   24  H   UNL     1      -8.036  18.047  66.367  1.00  0.00     0.000 HD 
BRANCH  23  25
HETATM   25  S   UNL     1      -9.642  18.572  68.044  1.00  0.00    -0.327 S  
HETATM   26  C   UNL     1     -10.648  19.672  67.070  1.00  0.00    -0.480 C  
HETATM   27  O   UNL     1      -8.605  19.366  68.667  1.00  0.00    -0.356 OA 
HETATM   28  O   UNL     1     -10.497  17.710  68.829  1.00  0.00    -0.351 OA 
ENDBRANCH  23  25
ENDBRANCH  20  23
ENDBRANCH  14  17
ENDBRANCH  13  14
ENDBRANCH  12  13
ENDBRANCH  11  12
ENDBRANCH   8  11
ENDBRANCH   7   8
ENDBRANCH   6   7
ENDBRANCH   5   6
ENDBRANCH   4   5
ENDBRANCH   3   4
ENDBRANCH   2   3
TORSDOF 14
ENDMDL
MODEL       76
REMARK 921   NORMALIZED FREE ENERGY PREDICTED BY IDOCK:   -4.42 KCAL/MOL
REMARK 922        TOTAL FREE ENERGY PREDICTED BY IDOCK:   -9.89 KCAL/MOL
REMARK 923 INTER-LIGAND FREE ENERGY PREDICTED BY IDOCK:   -8.29 KCAL/MOL
REMARK 924 INTRA-LIGAND FREE ENERGY PREDICTED BY IDOCK:   -1.61 KCAL/MOL
REMARK 927      BINDING AFFINITY PREDICTED BY RF-SCORE:    0.00 PKD
ROOT
HETATM    1  C   UNL     1     -12.877  12.007  63.544  1.00  0.00    -0.472 C  
HETATM    2  C   UNL     1     -11.427  12.313  63.869  1.00  0.00    -0.512 C  
ENDROOT
BRANCH   2   3
HETATM    3  C   UNL     1     -11.298  13.602  64.678  1.00  0.00    -0.380 C  
BRANCH   3   4
HETATM    4  C   UNL     1     -12.479  13.747  65.630  1.00  0.00    -0.541 C  
BRANCH   4   5
HETATM    5  C   UNL     1     -12.086  14.455  66.924  1.00  0.00    -0.386 C  
BRANCH   5   6
HETATM    6  C   UNL     1     -10.734  15.137  66.737  1.00  0.00    -0.311 C  
BRANCH   6   7
HETATM    7  C   UNL     1      -9.743  14.745  67.836  1.00  0.00    -0.211 C  
BRANCH   7   8
HETATM    8  N   UNL     1      -8.828  13.661  67.436  1.00  0.00    -0.209 NA 
BRANCH   8   9
HETATM    9  C   UNL     1      -7.399  13.997  67.572  1.00  0.00    -0.170 C  
HETATM   10  C   UNL     1      -7.034  15.473  67.431  1.00  0.00    -0.232 C  
ENDBRANCH   8   9
BRANCH   8  11
HETATM   11  C   UNL     1      -9.147  12.389  68.108  1.00  0.00    -0.200 C  
BRANCH  11  12
HETATM   12  C   UNL     1      -9.970  11.407  67.259  1.00  0.00    -0.217 C  
BRANCH  12  13
HETATM   13  C   UNL     1     -11.304  11.037  67.917  1.00  0.00    -0.381 C  
BRANCH  13  14
HETATM   14  C   UNL     1     -11.299  11.299  69.430  1.00  0.00    -0.292 C  
HETATM   15  H   UNL     1     -12.337  12.371  70.715  1.00  0.00     0.000 HD 
HETATM   16  O   UNL     1     -12.339  12.209  69.779  1.00  0.00    -0.158 OA 
BRANCH  14  17
HETATM   17  C   UNL     1     -11.447  10.014  70.221  1.00  0.00    -0.372 A  
HETATM   18  C   UNL     1     -10.857   8.832  69.747  1.00  0.00    -0.196 A  
HETATM   19  C   UNL     1     -11.042   7.622  70.418  1.00  0.00    -0.270 A  
HETATM   20  C   UNL     1     -11.823   7.577  71.570  1.00  0.00    -0.295 A  
HETATM   21  C   UNL     1     -12.192   9.958  71.414  1.00  0.00    -0.499 A  
HETATM   22  C   UNL     1     -12.376   8.747  72.086  1.00  0.00    -0.458 A  
BRANCH  20  23
HETATM   23  N   UNL     1     -12.041   6.327  72.215  1.00  0.00    -0.501 N  
HETATM   24  H   UNL     1     -12.890   5.787  72.045  1.00  0.00     0.000 HD 
BRANCH  23  25
HETATM   25  S   UNL     1     -10.849   5.766  73.270  1.00  0.00    -0.258 S  
HETATM   26  C   UNL     1      -9.532   5.379  72.136  1.00  0.00    -0.143 C  
HETATM   27  O   UNL     1     -11.355   4.516  73.793  1.00  0.00    -0.256 OA 
HETATM   28  O   UNL     1     -10.423   6.829  74.154  1.00  0.00    -0.365 OA 
ENDBRANCH  23  25
ENDBRANCH  20  23
ENDBRANCH  14  17
ENDBRANCH  13  14
ENDBRANCH  12  13
ENDBRANCH  11  12
ENDBRANCH   8  11
ENDBRANCH   7   8
ENDBRANCH   6   7
ENDBRANCH   5   6
ENDBRANCH   4   5
ENDBRANCH   3   4
ENDBRANCH   2   3
TORSDOF 14
ENDMDL
MODEL       77
REMARK 921   NORMALIZED FREE ENERGY PREDICTED BY IDOCK:   -4.42 KCAL/MOL
REMARK 922        TOTAL FREE ENERGY PREDICTED BY IDOCK:   -9.88 KCAL/MOL
REMARK 923 INTER-LIGAND FREE ENERGY PREDICTED BY IDOCK:   -8.65 KCAL/MOL
REMARK 924 INTRA-LIGAND FREE ENERGY PREDICTED BY IDOCK:   -1.23 KCAL/MOL
REMARK 927      BINDING AFFINITY PREDICTED BY RF-SCORE:    0.00 PKD
ROOT
HETATM    1  C   UNL     1      -9.291   4.467  69.612  1.00  0.00    -0.221 C  
HETATM    2  C   UNL     1     -10.502   5.380  69.644  1.00  0.00    -0.361 C  
ENDROOT
BRANCH   2   3
HETATM    3  C   UNL     1     -10.770   5.901  71.055  1.00  0.00    -0.331 C  
BRANCH   3   4
HETATM    4  C   UNL     1     -12.031   6.756  71.070  1.00  0.00    -0.431 C  
BRANCH   4   5
HETATM    5  C   UNL     1     -11.970   7.848  72.135  1.00  0.00    -0.379 C  
BRANCH   5   6
HETATM    6  C   UNL     1     -10.876   8.848  71.770  1.00  0.00    -0.436 C  
BRANCH   6   7
HETATM    7  C   UNL     1     -11.435  10.043  70.995  1.00  0.00    -0.383 C  
BRANCH   7   8
HETATM    8  N   UNL     1     -10.683  10.342  69.763  1.00  0.00    -0.267 NA 
BRANCH   8   9
HETATM    9  C   UNL     1      -9.865   9.220  69.268  1.00  0.00    -0.172 C  
HETATM   10  C   UNL     1     -10.351   8.540  67.991  1.00  0.00    -0.272 C  
ENDBRANCH   8   9
BRANCH   8  11
HETATM   11  C   UNL     1     -11.550  10.884  68.702  1.00  0.00    -0.303 C  
BRANCH  11  12
HETATM   12  C   UNL     1     -11.094  12.237  68.134  1.00  0.00    -0.285 C  
BRANCH  12  13
HETATM   13  C   UNL     1     -12.243  13.021  67.489  1.00  0.00    -0.127 C  
BRANCH  13  14
HETATM   14  C   UNL     1     -11.807  13.745  66.208  1.00  0.00    -0.398 C  
HETATM   15  H   UNL     1     -12.677  14.599  64.661  1.00  0.00     0.000 HD 
HETATM   16  O   UNL     1     -12.946  14.150  65.454  1.00  0.00    -0.706 OA 
BRANCH  14  17
HETATM   17  C   UNL     1     -10.934  14.947  66.514  1.00  0.00    -0.327 A  
HETATM   18  C   UNL     1      -9.840  15.241  65.686  1.00  0.00    -0.383 A  
HETATM   19  C   UNL     1      -8.977  16.297  65.989  1.00  0.00    -0.325 A  
HETATM   20  C   UNL     1      -9.197  17.069  67.127  1.00  0.00    -0.234 A  
HETATM   21  C   UNL     1     -11.168  15.770  67.631  1.00  0.00    -0.246 A  
HETATM   22  C   UNL     1     -10.306  16.827  67.935  1.00  0.00    -0.319 A  
BRANCH  20  23
HETATM   23  N   UNL     1      -8.282  18.111  67.448  1.00  0.00    -0.233 N  
HETATM   24  H   UNL     1      -7.741  18.090  68.313  1.00  0.00     0.000 HD 
BRANCH  23  25
HETATM   25  S   UNL     1      -8.119  19.383  66.351  1.00  0.00    -0.328 S  
HETATM   26  C   UNL     1      -7.378  20.636  67.376  1.00  0.00    -0.336 C  
HETATM   27  O   UNL     1      -9.469  19.808  66.051  1.00  0.00    -0.383 OA 
HETATM   28  O   UNL     1      -7.198  19.021  65.297  1.00  0.00    -0.466 OA 
ENDBRANCH  23  25
ENDBRANCH  20  23
ENDBRANCH  14  17
ENDBRANCH  13  14
ENDBRANCH  12  13
ENDBRANCH  11  12
ENDBRANCH   8  11
ENDBRANCH   7   8
ENDBRANCH   6   7
ENDBRANCH   5   6
ENDBRANCH   4   5
ENDBRANCH   3   4
ENDBRANCH   2   3
TORSDOF 14
ENDMDL
MODEL       78
REMARK 921   NORMALIZED FREE ENERGY PREDICTED BY IDOCK:   -4.41 KCAL/MOL
REMARK 922        TOTAL FREE ENERGY PREDICTED BY IDOCK:   -9.86 KCAL/MOL
REMARK 923 INTER-LIGAND FREE ENERGY PREDICTED BY IDOCK:   -7.41 KCAL/MOL
REMARK 924 INTRA-LIGAND FREE ENERGY PREDICTED BY IDOCK:   -2.45 KCAL/MOL
REMARK 927      BINDING AFFINITY PREDICTED BY RF-SCORE:    0.00 PKD
ROOT
HETATM    1  C   UNL     1      -6.790  15.175  68.295  1.00  0.00    -0.119 C  
HETATM    2  C   UNL     1      -7.314  13.996  67.497  1.00  0.00    -0.187 C  
ENDROOT
BRANCH   2   3
HETATM    3  C   UNL     1      -8.312  13.173  68.310  1.00  0.00    -0.152 C  
BRANCH   3   4
HETATM    4  C   UNL     1      -7.772  11.766  68.538  1.00  0.00    -0.137 C  
BRANCH   4   5
HETATM    5  C   UNL     1      -7.466  11.051  67.225  1.00  0.00    -0.107 C  
BRANCH   5   6
HETATM    6  C   UNL     1      -8.027   9.632  67.280  1.00  0.00    -0.106 C  
BRANCH   6   7
HETATM    7  C   UNL     1      -9.110   9.409  66.222  1.00  0.00    -0.163 C  
BRANCH   7   8
HETATM    8  N   UNL     1      -9.494  10.643  65.512  1.00  0.00    -0.200 NA 
BRANCH   8   9
HETATM    9  C   UNL     1      -9.186  10.629  64.070  1.00  0.00    -0.239 C  
HETATM   10  C   UNL     1      -9.946  11.631  63.206  1.00  0.00    -0.442 C  
ENDBRANCH   8   9
BRANCH   8  11
HETATM   11  C   UNL     1     -10.900  11.009  65.757  1.00  0.00    -0.097 C  
BRANCH  11  12
HETATM   12  C   UNL     1     -11.227  11.341  67.221  1.00  0.00    -0.364 C  
BRANCH  12  13
HETATM   13  C   UNL     1     -11.947  12.686  67.372  1.00  0.00    -0.309 C  
BRANCH  13  14
HETATM   14  C   UNL     1     -11.774  13.580  66.137  1.00  0.00    -0.365 C  
HETATM   15  H   UNL     1     -12.934  14.436  64.795  1.00  0.00     0.000 HD 
HETATM   16  O   UNL     1     -13.041  13.882  65.560  1.00  0.00    -0.699 OA 
BRANCH  14  17
HETATM   17  C   UNL     1     -11.039  14.864  66.474  1.00  0.00    -0.341 A  
HETATM   18  C   UNL     1     -10.113  15.396  65.564  1.00  0.00    -0.405 A  
HETATM   19  C   UNL     1      -9.370  16.534  65.883  1.00  0.00    -0.226 A  
HETATM   20  C   UNL     1      -9.540  17.152  67.119  1.00  0.00    -0.255 A  
HETATM   21  C   UNL     1     -11.233  15.531  67.698  1.00  0.00    -0.291 A  
HETATM   22  C   UNL     1     -10.490  16.671  68.017  1.00  0.00    -0.320 A  
BRANCH  20  23
HETATM   23  N   UNL     1      -8.741  18.282  67.448  1.00  0.00    -0.254 N  
HETATM   24  H   UNL     1      -7.746  18.183  67.653  1.00  0.00     0.000 HD 
BRANCH  23  25
HETATM   25  S   UNL     1      -9.491  19.794  67.490  1.00  0.00    -0.363 S  
HETATM   26  C   UNL     1     -10.534  19.705  66.049  1.00  0.00    -0.523 C  
HETATM   27  O   UNL     1      -8.444  20.751  67.210  1.00  0.00    -0.301 OA 
HETATM   28  O   UNL     1     -10.316  19.911  68.672  1.00  0.00    -0.446 OA 
ENDBRANCH  23  25
ENDBRANCH  20  23
ENDBRANCH  14  17
ENDBRANCH  13  14
ENDBRANCH  12  13
ENDBRANCH  11  12
ENDBRANCH   8  11
ENDBRANCH   7   8
ENDBRANCH   6   7
ENDBRANCH   5   6
ENDBRANCH   4   5
ENDBRANCH   3   4
ENDBRANCH   2   3
TORSDOF 14
ENDMDL
MODEL       79
REMARK 921   NORMALIZED FREE ENERGY PREDICTED BY IDOCK:   -4.41 KCAL/MOL
REMARK 922        TOTAL FREE ENERGY PREDICTED BY IDOCK:   -9.86 KCAL/MOL
REMARK 923 INTER-LIGAND FREE ENERGY PREDICTED BY IDOCK:   -8.15 KCAL/MOL
REMARK 924 INTRA-LIGAND FREE ENERGY PREDICTED BY IDOCK:   -1.71 KCAL/MOL
REMARK 927      BINDING AFFINITY PREDICTED BY RF-SCORE:    0.00 PKD
ROOT
HETATM    1  C   UNL     1     -14.407  14.810  71.624  1.00  0.00    -0.645 C  
HETATM    2  C   UNL     1     -13.820  13.636  72.385  1.00  0.00    -0.691 C  
ENDROOT
BRANCH   2   3
HETATM    3  C   UNL     1     -12.957  12.760  71.479  1.00  0.00    -0.388 C  
BRANCH   3   4
HETATM    4  C   UNL     1     -13.217  11.287  71.767  1.00  0.00    -0.480 C  
BRANCH   4   5
HETATM    5  C   UNL     1     -12.345  10.373  70.910  1.00  0.00    -0.480 C  
BRANCH   5   6
HETATM    6  C   UNL     1     -11.836   9.214  71.764  1.00  0.00    -0.453 C  
BRANCH   6   7
HETATM    7  C   UNL     1     -11.442   8.009  70.907  1.00  0.00    -0.276 C  
BRANCH   7   8
HETATM    8  N   UNL     1      -9.984   7.863  70.742  1.00  0.00    -0.184 NA 
BRANCH   8   9
HETATM    9  C   UNL     1      -9.473   6.518  71.062  1.00  0.00    -0.164 C  
HETATM   10  C   UNL     1     -10.301   5.695  72.046  1.00  0.00    -0.261 C  
ENDBRANCH   8   9
BRANCH   8  11
HETATM   11  C   UNL     1      -9.530   8.307  69.412  1.00  0.00    -0.159 C  
BRANCH  11  12
HETATM   12  C   UNL     1     -10.391   7.804  68.243  1.00  0.00    -0.239 C  
BRANCH  12  13
HETATM   13  C   UNL     1     -10.619   8.880  67.175  1.00  0.00    -0.301 C  
BRANCH  13  14
HETATM   14  C   UNL     1      -9.473   9.901  67.123  1.00  0.00    -0.158 C  
HETATM   15  H   UNL     1      -7.955  10.313  65.939  1.00  0.00     0.000 HD 
HETATM   16  O   UNL     1      -8.664   9.681  65.971  1.00  0.00    -0.132 OA 
BRANCH  14  17
HETATM   17  C   UNL     1      -9.992  11.326  67.128  1.00  0.00    -0.219 A  
HETATM   18  C   UNL     1      -9.648  12.196  66.082  1.00  0.00    -0.250 A  
HETATM   19  C   UNL     1     -10.051  13.532  66.103  1.00  0.00    -0.307 A  
HETATM   20  C   UNL     1     -10.800  14.017  67.172  1.00  0.00    -0.286 A  
HETATM   21  C   UNL     1     -10.792  11.821  68.175  1.00  0.00    -0.258 A  
HETATM   22  C   UNL     1     -11.196  13.159  68.195  1.00  0.00    -0.304 A  
BRANCH  20  23
HETATM   23  N   UNL     1     -11.163  15.393  67.201  1.00  0.00    -0.300 N  
HETATM   24  H   UNL     1     -11.801  15.784  66.508  1.00  0.00     0.000 HD 
BRANCH  23  25
HETATM   25  S   UNL     1     -10.501  16.357  68.418  1.00  0.00    -0.316 S  
HETATM   26  C   UNL     1     -10.606  17.974  67.679  1.00  0.00    -0.399 C  
HETATM   27  O   UNL     1      -9.102  15.996  68.478  1.00  0.00    -0.189 OA 
HETATM   28  O   UNL     1     -11.336  16.315  69.598  1.00  0.00    -0.317 OA 
ENDBRANCH  23  25
ENDBRANCH  20  23
ENDBRANCH  14  17
ENDBRANCH  13  14
ENDBRANCH  12  13
ENDBRANCH  11  12
ENDBRANCH   8  11
ENDBRANCH   7   8
ENDBRANCH   6   7
ENDBRANCH   5   6
ENDBRANCH   4   5
ENDBRANCH   3   4
ENDBRANCH   2   3
TORSDOF 14
ENDMDL
MODEL       80
REMARK 921   NORMALIZED FREE ENERGY PREDICTED BY IDOCK:   -4.40 KCAL/MOL
REMARK 922        TOTAL FREE ENERGY PREDICTED BY IDOCK:   -9.86 KCAL/MOL
REMARK 923 INTER-LIGAND FREE ENERGY PREDICTED BY IDOCK:   -7.97 KCAL/MOL
REMARK 924 INTRA-LIGAND FREE ENERGY PREDICTED BY IDOCK:   -1.89 KCAL/MOL
REMARK 927      BINDING AFFINITY PREDICTED BY RF-SCORE:    0.00 PKD
ROOT
HETATM    1  C   UNL     1     -14.148  15.314  71.398  1.00  0.00    -0.595 C  
HETATM    2  C   UNL     1     -13.316  14.232  72.060  1.00  0.00    -0.484 C  
ENDROOT
BRANCH   2   3
HETATM    3  C   UNL     1     -12.528  13.426  71.029  1.00  0.00    -0.437 C  
BRANCH   3   4
HETATM    4  C   UNL     1     -12.757  11.934  71.239  1.00  0.00    -0.401 C  
BRANCH   4   5
HETATM    5  C   UNL     1     -11.842  11.085  70.360  1.00  0.00    -0.460 C  
BRANCH   5   6
HETATM    6  C   UNL     1     -11.375   9.865  71.149  1.00  0.00    -0.443 C  
BRANCH   6   7
HETATM    7  C   UNL     1     -11.239   8.630  70.255  1.00  0.00    -0.184 C  
BRANCH   7   8
HETATM    8  N   UNL     1      -9.841   8.309  69.914  1.00  0.00    -0.184 NA 
BRANCH   8   9
HETATM    9  C   UNL     1      -9.484   6.892  70.107  1.00  0.00    -0.162 C  
HETATM   10  C   UNL     1      -8.732   6.551  71.391  1.00  0.00    -0.130 C  
ENDBRANCH   8   9
BRANCH   8  11
HETATM   11  C   UNL     1      -9.479   8.775  68.563  1.00  0.00    -0.145 C  
BRANCH  11  12
HETATM   12  C   UNL     1     -10.652   8.832  67.572  1.00  0.00    -0.298 C  
BRANCH  12  13
HETATM   13  C   UNL     1     -10.850  10.230  66.977  1.00  0.00    -0.248 C  
BRANCH  13  14
HETATM   14  C   UNL     1      -9.608  11.116  67.145  1.00  0.00    -0.173 C  
HETATM   15  H   UNL     1      -8.020  11.598  66.084  1.00  0.00     0.000 HD 
HETATM   16  O   UNL     1      -8.789  11.049  65.981  1.00  0.00    -0.182 OA 
BRANCH  14  17
HETATM   17  C   UNL     1      -9.983  12.558  67.432  1.00  0.00    -0.207 A  
HETATM   18  C   UNL     1     -11.077  13.137  66.772  1.00  0.00    -0.314 A  
HETATM   19  C   UNL     1     -11.397  14.483  66.964  1.00  0.00    -0.359 A  
HETATM   20  C   UNL     1     -10.622  15.267  67.815  1.00  0.00    -0.266 A  
HETATM   21  C   UNL     1      -9.243  13.353  68.326  1.00  0.00    -0.198 A  
HETATM   22  C   UNL     1      -9.562  14.700  68.519  1.00  0.00    -0.221 A  
BRANCH  20  23
HETATM   23  N   UNL     1     -10.932  16.649  67.962  1.00  0.00    -0.343 N  
HETATM   24  H   UNL     1     -11.765  16.951  68.468  1.00  0.00     0.000 HD 
BRANCH  23  25
HETATM   25  S   UNL     1      -9.875  17.771  67.274  1.00  0.00    -0.325 S  
HETATM   26  C   UNL     1     -10.887  19.237  67.258  1.00  0.00    -0.449 C  
HETATM   27  O   UNL     1      -9.702  17.346  65.903  1.00  0.00    -0.507 OA 
HETATM   28  O   UNL     1      -8.738  17.984  68.142  1.00  0.00    -0.258 OA 
ENDBRANCH  23  25
ENDBRANCH  20  23
ENDBRANCH  14  17
ENDBRANCH  13  14
ENDBRANCH  12  13
ENDBRANCH  11  12
ENDBRANCH   8  11
ENDBRANCH   7   8
ENDBRANCH   6   7
ENDBRANCH   5   6
ENDBRANCH   4   5
ENDBRANCH   3   4
ENDBRANCH   2   3
TORSDOF 14
ENDMDL
MODEL       81
REMARK 921   NORMALIZED FREE ENERGY PREDICTED BY IDOCK:   -4.39 KCAL/MOL
REMARK 922        TOTAL FREE ENERGY PREDICTED BY IDOCK:   -9.84 KCAL/MOL
REMARK 923 INTER-LIGAND FREE ENERGY PREDICTED BY IDOCK:   -8.01 KCAL/MOL
REMARK 924 INTRA-LIGAND FREE ENERGY PREDICTED BY IDOCK:   -1.83 KCAL/MOL
REMARK 927      BINDING AFFINITY PREDICTED BY RF-SCORE:    0.00 PKD
ROOT
HETATM    1  C   UNL     1      -7.653   8.206  69.972  1.00  0.00    -0.077 C  
HETATM    2  C   UNL     1      -8.581   9.340  70.366  1.00  0.00    -0.250 C  
ENDROOT
BRANCH   2   3
HETATM    3  C   UNL     1      -9.513   8.928  71.504  1.00  0.00    -0.347 C  
BRANCH   3   4
HETATM    4  C   UNL     1     -10.939   9.374  71.204  1.00  0.00    -0.430 C  
BRANCH   4   5
HETATM    5  C   UNL     1     -11.973   8.442  71.830  1.00  0.00    -0.380 C  
BRANCH   5   6
HETATM    6  C   UNL     1     -11.278   7.176  72.326  1.00  0.00    -0.297 C  
BRANCH   6   7
HETATM    7  C   UNL     1     -11.448   6.014  71.345  1.00  0.00    -0.199 C  
BRANCH   7   8
HETATM    8  N   UNL     1     -10.171   5.516  70.804  1.00  0.00    -0.221 NA 
BRANCH   8   9
HETATM    9  C   UNL     1      -9.781   4.186  71.306  1.00  0.00    -0.185 C  
HETATM   10  C   UNL     1      -9.339   3.169  70.258  1.00  0.00    -0.236 C  
ENDBRANCH   8   9
BRANCH   8  11
HETATM   11  C   UNL     1     -10.134   5.566  69.331  1.00  0.00    -0.236 C  
BRANCH  11  12
HETATM   12  C   UNL     1     -11.182   6.494  68.699  1.00  0.00    -0.302 C  
BRANCH  12  13
HETATM   13  C   UNL     1     -10.892   6.789  67.223  1.00  0.00    -0.443 C  
BRANCH  13  14
HETATM   14  C   UNL     1      -9.634   7.649  67.038  1.00  0.00    -0.175 C  
HETATM   15  H   UNL     1      -7.932   7.531  66.053  1.00  0.00     0.000 HD 
HETATM   16  O   UNL     1      -8.711   6.998  66.168  1.00  0.00    -0.137 OA 
BRANCH  14  17
HETATM   17  C   UNL     1      -9.971   9.026  66.499  1.00  0.00    -0.355 A  
HETATM   18  C   UNL     1      -9.534   9.399  65.219  1.00  0.00    -0.296 A  
HETATM   19  C   UNL     1      -9.767  10.686  64.731  1.00  0.00    -0.350 A  
HETATM   20  C   UNL     1     -10.438  11.618  65.519  1.00  0.00    -0.273 A  
HETATM   21  C   UNL     1     -10.691   9.965  67.261  1.00  0.00    -0.304 A  
HETATM   22  C   UNL     1     -10.925  11.253  66.772  1.00  0.00    -0.339 A  
BRANCH  20  23
HETATM   23  N   UNL     1     -10.625  12.940  65.026  1.00  0.00    -0.303 N  
HETATM   24  H   UNL     1      -9.833  13.568  64.888  1.00  0.00     0.000 HD 
BRANCH  23  25
HETATM   25  S   UNL     1     -12.201  13.435  64.678  1.00  0.00    -0.404 S  
HETATM   26  C   UNL     1     -12.722  14.079  66.254  1.00  0.00    -0.183 C  
HETATM   27  O   UNL     1     -12.943  12.217  64.438  1.00  0.00    -0.719 OA 
HETATM   28  O   UNL     1     -12.185  14.506  63.705  1.00  0.00    -0.566 OA 
ENDBRANCH  23  25
ENDBRANCH  20  23
ENDBRANCH  14  17
ENDBRANCH  13  14
ENDBRANCH  12  13
ENDBRANCH  11  12
ENDBRANCH   8  11
ENDBRANCH   7   8
ENDBRANCH   6   7
ENDBRANCH   5   6
ENDBRANCH   4   5
ENDBRANCH   3   4
ENDBRANCH   2   3
TORSDOF 14
ENDMDL
MODEL       82
REMARK 921   NORMALIZED FREE ENERGY PREDICTED BY IDOCK:   -4.39 KCAL/MOL
REMARK 922        TOTAL FREE ENERGY PREDICTED BY IDOCK:   -9.83 KCAL/MOL
REMARK 923 INTER-LIGAND FREE ENERGY PREDICTED BY IDOCK:   -7.82 KCAL/MOL
REMARK 924 INTRA-LIGAND FREE ENERGY PREDICTED BY IDOCK:   -2.02 KCAL/MOL
REMARK 927      BINDING AFFINITY PREDICTED BY RF-SCORE:    0.00 PKD
ROOT
HETATM    1  C   UNL     1     -11.748  11.986  63.817  1.00  0.00    -0.575 C  
HETATM    2  C   UNL     1     -11.836  13.475  64.098  1.00  0.00    -0.483 C  
ENDROOT
BRANCH   2   3
HETATM    3  C   UNL     1     -12.728  13.763  65.304  1.00  0.00    -0.481 C  
BRANCH   3   4
HETATM    4  C   UNL     1     -12.135  13.134  66.559  1.00  0.00    -0.423 C  
BRANCH   4   5
HETATM    5  C   UNL     1     -11.974  14.151  67.686  1.00  0.00    -0.405 C  
BRANCH   5   6
HETATM    6  C   UNL     1     -11.807  13.413  69.012  1.00  0.00    -0.378 C  
BRANCH   6   7
HETATM    7  C   UNL     1     -12.023  11.906  68.853  1.00  0.00    -0.254 C  
BRANCH   7   8
HETATM    8  N   UNL     1     -11.576  11.126  70.022  1.00  0.00    -0.321 NA 
BRANCH   8   9
HETATM    9  C   UNL     1     -12.673  10.649  70.883  1.00  0.00    -0.404 C  
HETATM   10  C   UNL     1     -12.380   9.414  71.731  1.00  0.00    -0.471 C  
ENDBRANCH   8   9
BRANCH   8  11
HETATM   11  C   UNL     1     -10.673  10.025  69.642  1.00  0.00    -0.255 C  
BRANCH  11  12
HETATM   12  C   UNL     1      -9.909  10.251  68.328  1.00  0.00    -0.161 C  
BRANCH  12  13
HETATM   13  C   UNL     1      -8.680  11.149  68.511  1.00  0.00    -0.161 C  
BRANCH  13  14
HETATM   14  C   UNL     1      -8.290  11.874  67.216  1.00  0.00    -0.169 C  
HETATM   15  H   UNL     1      -8.932  11.958  65.356  1.00  0.00     0.000 HD 
HETATM   16  O   UNL     1      -9.173  11.509  66.158  1.00  0.00    -0.211 OA 
BRANCH  14  17
HETATM   17  C   UNL     1      -8.291  13.380  67.395  1.00  0.00    -0.193 A  
HETATM   18  C   UNL     1      -7.816  13.938  68.592  1.00  0.00    -0.120 A  
HETATM   19  C   UNL     1      -7.875  15.316  68.811  1.00  0.00    -0.154 A  
HETATM   20  C   UNL     1      -8.416  16.152  67.837  1.00  0.00    -0.163 A  
HETATM   21  C   UNL     1      -8.787  14.246  66.403  1.00  0.00    -0.001 A  
HETATM   22  C   UNL     1      -8.846  15.625  66.621  1.00  0.00    -0.327 A  
BRANCH  20  23
HETATM   23  N   UNL     1      -8.513  17.549  68.095  1.00  0.00    -0.246 N  
HETATM   24  H   UNL     1      -7.683  18.142  68.104  1.00  0.00     0.000 HD 
BRANCH  23  25
HETATM   25  S   UNL     1     -10.047  18.192  68.385  1.00  0.00    -0.393 S  
HETATM   26  C   UNL     1     -10.753  16.947  69.443  1.00  0.00    -0.258 C  
HETATM   27  O   UNL     1     -10.737  18.128  67.116  1.00  0.00    -0.375 OA 
HETATM   28  O   UNL     1      -9.937  19.436  69.116  1.00  0.00    -0.435 OA 
ENDBRANCH  23  25
ENDBRANCH  20  23
ENDBRANCH  14  17
ENDBRANCH  13  14
ENDBRANCH  12  13
ENDBRANCH  11  12
ENDBRANCH   8  11
ENDBRANCH   7   8
ENDBRANCH   6   7
ENDBRANCH   5   6
ENDBRANCH   4   5
ENDBRANCH   3   4
ENDBRANCH   2   3
TORSDOF 14
ENDMDL
MODEL       83
REMARK 921   NORMALIZED FREE ENERGY PREDICTED BY IDOCK:   -4.36 KCAL/MOL
REMARK 922        TOTAL FREE ENERGY PREDICTED BY IDOCK:   -9.78 KCAL/MOL
REMARK 923 INTER-LIGAND FREE ENERGY PREDICTED BY IDOCK:   -8.46 KCAL/MOL
REMARK 924 INTRA-LIGAND FREE ENERGY PREDICTED BY IDOCK:   -1.32 KCAL/MOL
REMARK 927      BINDING AFFINITY PREDICTED BY RF-SCORE:    0.00 PKD
ROOT
HETATM    1  C   UNL     1      -9.112  10.618  64.003  1.00  0.00    -0.246 C  
HETATM    2  C   UNL     1     -10.064  11.644  63.418  1.00  0.00    -0.468 C  
ENDROOT
BRANCH   2   3
HETATM    3  C   UNL     1     -11.478  11.471  63.971  1.00  0.00    -0.331 C  
BRANCH   3   4
HETATM    4  C   UNL     1     -12.384  12.583  63.458  1.00  0.00    -0.623 C  
BRANCH   4   5
HETATM    5  C   UNL     1     -11.999  13.945  64.030  1.00  0.00    -0.425 C  
BRANCH   5   6
HETATM    6  C   UNL     1     -11.962  13.860  65.554  1.00  0.00    -0.397 C  
BRANCH   6   7
HETATM    7  C   UNL     1     -10.560  14.134  66.103  1.00  0.00    -0.293 C  
BRANCH   7   8
HETATM    8  N   UNL     1     -10.569  14.826  67.405  1.00  0.00    -0.264 NA 
BRANCH   8   9
HETATM    9  C   UNL     1      -9.956  16.166  67.380  1.00  0.00    -0.247 C  
HETATM   10  C   UNL     1      -8.995  16.450  66.229  1.00  0.00    -0.368 C  
ENDBRANCH   8   9
BRANCH   8  11
HETATM   11  C   UNL     1     -11.915  14.861  68.005  1.00  0.00    -0.185 C  
BRANCH  11  12
HETATM   12  C   UNL     1     -12.018  14.186  69.382  1.00  0.00    -0.382 C  
BRANCH  12  13
HETATM   13  C   UNL     1     -11.162  12.919  69.480  1.00  0.00    -0.143 C  
BRANCH  13  14
HETATM   14  C   UNL     1     -11.997  11.639  69.334  1.00  0.00    -0.316 C  
HETATM   15  H   UNL     1     -12.632  10.484  67.871  1.00  0.00     0.000 HD 
HETATM   16  O   UNL     1     -12.115  11.276  67.962  1.00  0.00    -0.638 OA 
BRANCH  14  17
HETATM   17  C   UNL     1     -11.402  10.489  70.125  1.00  0.00    -0.400 A  
HETATM   18  C   UNL     1     -10.188   9.918  69.716  1.00  0.00    -0.278 A  
HETATM   19  C   UNL     1      -9.658   8.811  70.383  1.00  0.00    -0.210 A  
HETATM   20  C   UNL     1     -10.340   8.260  71.465  1.00  0.00    -0.214 A  
HETATM   21  C   UNL     1     -12.051   9.949  71.251  1.00  0.00    -0.485 A  
HETATM   22  C   UNL     1     -11.521   8.842  71.919  1.00  0.00    -0.428 A  
BRANCH  20  23
HETATM   23  N   UNL     1      -9.811   7.103  72.103  1.00  0.00    -0.154 N  
HETATM   24  H   UNL     1      -9.818   6.195  71.638  1.00  0.00     0.000 HD 
BRANCH  23  25
HETATM   25  S   UNL     1      -9.172   7.281  73.656  1.00  0.00    -0.241 S  
HETATM   26  C   UNL     1      -7.895   6.041  73.652  1.00  0.00    -0.103 C  
HETATM   27  O   UNL     1     -10.213   6.832  74.554  1.00  0.00    -0.321 OA 
HETATM   28  O   UNL     1      -8.570   8.588  73.802  1.00  0.00    -0.307 OA 
ENDBRANCH  23  25
ENDBRANCH  20  23
ENDBRANCH  14  17
ENDBRANCH  13  14
ENDBRANCH  12  13
ENDBRANCH  11  12
ENDBRANCH   8  11
ENDBRANCH   7   8
ENDBRANCH   6   7
ENDBRANCH   5   6
ENDBRANCH   4   5
ENDBRANCH   3   4
ENDBRANCH   2   3
TORSDOF 14
ENDMDL
MODEL       84
REMARK 921   NORMALIZED FREE ENERGY PREDICTED BY IDOCK:   -4.36 KCAL/MOL
REMARK 922        TOTAL FREE ENERGY PREDICTED BY IDOCK:   -9.78 KCAL/MOL
REMARK 923 INTER-LIGAND FREE ENERGY PREDICTED BY IDOCK:   -7.69 KCAL/MOL
REMARK 924 INTRA-LIGAND FREE ENERGY PREDICTED BY IDOCK:   -2.09 KCAL/MOL
REMARK 927      BINDING AFFINITY PREDICTED BY RF-SCORE:    0.00 PKD
ROOT
HETATM    1  C   UNL     1      -8.282  10.766  67.332  1.00  0.00    -0.116 C  
HETATM    2  C   UNL     1      -8.205  10.793  68.847  1.00  0.00    -0.149 C  
ENDROOT
BRANCH   2   3
HETATM    3  C   UNL     1      -7.748   9.447  69.406  1.00  0.00    -0.085 C  
BRANCH   3   4
HETATM    4  C   UNL     1      -7.664   8.414  68.289  1.00  0.00    -0.106 C  
BRANCH   4   5
HETATM    5  C   UNL     1      -7.436   7.005  68.829  1.00  0.00    -0.099 C  
BRANCH   5   6
HETATM    6  C   UNL     1      -7.849   6.954  70.298  1.00  0.00    -0.109 C  
BRANCH   6   7
HETATM    7  C   UNL     1      -9.067   6.052  70.514  1.00  0.00    -0.149 C  
BRANCH   7   8
HETATM    8  N   UNL     1     -10.346   6.785  70.497  1.00  0.00    -0.199 NA 
BRANCH   8   9
HETATM    9  C   UNL     1     -11.347   6.228  69.570  1.00  0.00    -0.404 C  
HETATM   10  C   UNL     1     -10.903   6.047  68.121  1.00  0.00    -0.365 C  
ENDBRANCH   8   9
BRANCH   8  11
HETATM   11  C   UNL     1     -10.904   6.957  71.850  1.00  0.00    -0.229 C  
BRANCH  11  12
HETATM   12  C   UNL     1     -10.821   8.391  72.396  1.00  0.00    -0.416 C  
BRANCH  12  13
HETATM   13  C   UNL     1     -10.763   9.442  71.281  1.00  0.00    -0.421 C  
BRANCH  13  14
HETATM   14  C   UNL     1     -12.150  10.002  70.936  1.00  0.00    -0.355 C  
HETATM   15  H   UNL     1     -13.744  10.621  71.911  1.00  0.00     0.000 HD 
HETATM   16  O   UNL     1     -12.886  10.275  72.125  1.00  0.00    -0.388 OA 
BRANCH  14  17
HETATM   17  C   UNL     1     -12.052  11.255  70.087  1.00  0.00    -0.448 A  
HETATM   18  C   UNL     1     -12.265  12.512  70.675  1.00  0.00    -0.365 A  
HETATM   19  C   UNL     1     -12.254  13.674  69.900  1.00  0.00    -0.367 A  
HETATM   20  C   UNL     1     -12.034  13.593  68.528  1.00  0.00    -0.361 A  
HETATM   21  C   UNL     1     -11.782  11.199  68.707  1.00  0.00    -0.394 A  
HETATM   22  C   UNL     1     -11.770  12.361  67.932  1.00  0.00    -0.421 A  
BRANCH  20  23
HETATM   23  N   UNL     1     -12.074  14.781  67.746  1.00  0.00    -0.559 N  
HETATM   24  H   UNL     1     -12.962  15.181  67.439  1.00  0.00     0.000 HD 
BRANCH  23  25
HETATM   25  S   UNL     1     -10.606  15.509  67.341  1.00  0.00    -0.295 S  
HETATM   26  C   UNL     1     -10.479  15.102  65.613  1.00  0.00    -0.359 C  
HETATM   27  O   UNL     1      -9.594  14.750  68.043  1.00  0.00    -0.203 OA 
HETATM   28  O   UNL     1     -10.701  16.944  67.489  1.00  0.00    -0.329 OA 
ENDBRANCH  23  25
ENDBRANCH  20  23
ENDBRANCH  14  17
ENDBRANCH  13  14
ENDBRANCH  12  13
ENDBRANCH  11  12
ENDBRANCH   8  11
ENDBRANCH   7   8
ENDBRANCH   6   7
ENDBRANCH   5   6
ENDBRANCH   4   5
ENDBRANCH   3   4
ENDBRANCH   2   3
TORSDOF 14
ENDMDL
MODEL       85
REMARK 921   NORMALIZED FREE ENERGY PREDICTED BY IDOCK:   -4.35 KCAL/MOL
REMARK 922        TOTAL FREE ENERGY PREDICTED BY IDOCK:   -9.76 KCAL/MOL
REMARK 923 INTER-LIGAND FREE ENERGY PREDICTED BY IDOCK:   -8.77 KCAL/MOL
REMARK 924 INTRA-LIGAND FREE ENERGY PREDICTED BY IDOCK:   -0.99 KCAL/MOL
REMARK 927      BINDING AFFINITY PREDICTED BY RF-SCORE:    0.00 PKD
ROOT
HETATM    1  C   UNL     1     -11.956  12.817  64.712  1.00  0.00    -0.455 C  
HETATM    2  C   UNL     1     -12.355  13.089  66.151  1.00  0.00    -0.335 C  
ENDROOT
BRANCH   2   3
HETATM    3  C   UNL     1     -11.952  14.498  66.583  1.00  0.00    -0.358 C  
BRANCH   3   4
HETATM    4  C   UNL     1     -11.516  14.495  68.043  1.00  0.00    -0.345 C  
BRANCH   4   5
HETATM    5  C   UNL     1     -11.469  15.904  68.629  1.00  0.00    -0.391 C  
BRANCH   5   6
HETATM    6  C   UNL     1     -11.514  15.820  70.152  1.00  0.00    -0.366 C  
BRANCH   6   7
HETATM    7  C   UNL     1     -12.902  15.421  70.658  1.00  0.00    -0.430 C  
BRANCH   7   8
HETATM    8  N   UNL     1     -12.885  14.846  72.015  1.00  0.00    -0.309 NA 
BRANCH   8   9
HETATM    9  C   UNL     1     -13.367  15.762  73.064  1.00  0.00    -0.583 C  
HETATM   10  C   UNL     1     -12.475  15.915  74.293  1.00  0.00    -0.773 C  
ENDBRANCH   8   9
BRANCH   8  11
HETATM   11  C   UNL     1     -13.579  13.547  72.076  1.00  0.00    -0.499 C  
BRANCH  11  12
HETATM   12  C   UNL     1     -12.822  12.387  71.410  1.00  0.00    -0.360 C  
BRANCH  12  13
HETATM   13  C   UNL     1     -13.280  11.017  71.921  1.00  0.00    -0.503 C  
BRANCH  13  14
HETATM   14  C   UNL     1     -13.153   9.924  70.850  1.00  0.00    -0.274 C  
HETATM   15  H   UNL     1     -12.663   9.815  68.946  1.00  0.00     0.000 HD 
HETATM   16  O   UNL     1     -12.742  10.491  69.609  1.00  0.00    -0.169 OA 
BRANCH  14  17
HETATM   17  C   UNL     1     -12.182   8.838  71.270  1.00  0.00    -0.332 A  
HETATM   18  C   UNL     1     -10.840   9.162  71.518  1.00  0.00    -0.436 A  
HETATM   19  C   UNL     1      -9.911   8.168  71.834  1.00  0.00    -0.276 A  
HETATM   20  C   UNL     1     -10.313   6.837  71.901  1.00  0.00    -0.197 A  
HETATM   21  C   UNL     1     -12.579   7.493  71.392  1.00  0.00    -0.382 A  
HETATM   22  C   UNL     1     -11.650   6.498  71.708  1.00  0.00    -0.359 A  
BRANCH  20  23
HETATM   23  N   UNL     1      -9.344   5.831  72.176  1.00  0.00    -0.146 N  
HETATM   24  H   UNL     1      -8.963   5.709  73.115  1.00  0.00     0.000 HD 
BRANCH  23  25
HETATM   25  S   UNL     1      -8.847   4.844  70.900  1.00  0.00    -0.130 S  
HETATM   26  C   UNL     1      -7.422   4.046  71.610  1.00  0.00    -0.060 C  
HETATM   27  O   UNL     1      -8.374   5.749  69.876  1.00  0.00    -0.115 OA 
HETATM   28  O   UNL     1      -9.858   3.851  70.612  1.00  0.00    -0.189 OA 
ENDBRANCH  23  25
ENDBRANCH  20  23
ENDBRANCH  14  17
ENDBRANCH  13  14
ENDBRANCH  12  13
ENDBRANCH  11  12
ENDBRANCH   8  11
ENDBRANCH   7   8
ENDBRANCH   6   7
ENDBRANCH   5   6
ENDBRANCH   4   5
ENDBRANCH   3   4
ENDBRANCH   2   3
TORSDOF 14
ENDMDL
MODEL       86
REMARK 921   NORMALIZED FREE ENERGY PREDICTED BY IDOCK:   -4.35 KCAL/MOL
REMARK 922        TOTAL FREE ENERGY PREDICTED BY IDOCK:   -9.76 KCAL/MOL
REMARK 923 INTER-LIGAND FREE ENERGY PREDICTED BY IDOCK:   -7.72 KCAL/MOL
REMARK 924 INTRA-LIGAND FREE ENERGY PREDICTED BY IDOCK:   -2.04 KCAL/MOL
REMARK 927      BINDING AFFINITY PREDICTED BY RF-SCORE:    0.00 PKD
ROOT
HETATM    1  C   UNL     1      -8.296  10.801  62.454  1.00  0.00    -0.289 C  
HETATM    2  C   UNL     1      -9.722  10.734  62.969  1.00  0.00    -0.374 C  
ENDROOT
BRANCH   2   3
HETATM    3  C   UNL     1     -10.210  12.104  63.436  1.00  0.00    -0.422 C  
BRANCH   3   4
HETATM    4  C   UNL     1     -11.580  11.978  64.093  1.00  0.00    -0.460 C  
BRANCH   4   5
HETATM    5  C   UNL     1     -11.689  12.830  65.355  1.00  0.00    -0.425 C  
BRANCH   5   6
HETATM    6  C   UNL     1     -10.355  13.527  65.611  1.00  0.00    -0.303 C  
BRANCH   6   7
HETATM    7  C   UNL     1      -9.606  12.904  66.791  1.00  0.00    -0.246 C  
BRANCH   7   8
HETATM    8  N   UNL     1     -10.122  11.578  67.174  1.00  0.00    -0.195 NA 
BRANCH   8   9
HETATM    9  C   UNL     1      -9.280  10.452  66.732  1.00  0.00    -0.155 C  
HETATM   10  C   UNL     1      -7.924  10.816  66.132  1.00  0.00    -0.157 C  
ENDBRANCH   8   9
BRANCH   8  11
HETATM   11  C   UNL     1     -10.418  11.493  68.616  1.00  0.00    -0.202 C  
BRANCH  11  12
HETATM   12  C   UNL     1     -11.856  11.879  68.996  1.00  0.00    -0.368 C  
BRANCH  12  13
HETATM   13  C   UNL     1     -11.940  12.543  70.375  1.00  0.00    -0.335 C  
BRANCH  13  14
HETATM   14  C   UNL     1     -12.460  13.985  70.296  1.00  0.00    -0.338 C  
HETATM   15  H   UNL     1     -13.015  15.395  71.554  1.00  0.00     0.000 HD 
HETATM   16  O   UNL     1     -12.693  14.502  71.603  1.00  0.00    -0.312 OA 
BRANCH  14  17
HETATM   17  C   UNL     1     -11.499  14.887  69.545  1.00  0.00    -0.325 A  
HETATM   18  C   UNL     1     -10.197  15.076  70.034  1.00  0.00    -0.059 A  
HETATM   19  C   UNL     1      -9.318  15.959  69.403  1.00  0.00    -0.250 A  
HETATM   20  C   UNL     1      -9.733  16.667  68.278  1.00  0.00    -0.244 A  
HETATM   21  C   UNL     1     -11.882  15.574  68.378  1.00  0.00    -0.241 A  
HETATM   22  C   UNL     1     -11.003  16.457  67.746  1.00  0.00    -0.261 A  
BRANCH  20  23
HETATM   23  N   UNL     1      -8.841  17.599  67.675  1.00  0.00    -0.234 N  
HETATM   24  H   UNL     1      -7.849  17.386  67.569  1.00  0.00     0.000 HD 
BRANCH  23  25
HETATM   25  S   UNL     1      -9.478  19.068  67.142  1.00  0.00    -0.316 S  
HETATM   26  C   UNL     1      -8.052  20.129  67.256  1.00  0.00    -0.330 C  
HETATM   27  O   UNL     1     -10.410  19.479  68.169  1.00  0.00    -0.421 OA 
HETATM   28  O   UNL     1      -9.887  18.963  65.759  1.00  0.00    -0.458 OA 
ENDBRANCH  23  25
ENDBRANCH  20  23
ENDBRANCH  14  17
ENDBRANCH  13  14
ENDBRANCH  12  13
ENDBRANCH  11  12
ENDBRANCH   8  11
ENDBRANCH   7   8
ENDBRANCH   6   7
ENDBRANCH   5   6
ENDBRANCH   4   5
ENDBRANCH   3   4
ENDBRANCH   2   3
TORSDOF 14
ENDMDL
MODEL       87
REMARK 921   NORMALIZED FREE ENERGY PREDICTED BY IDOCK:   -4.35 KCAL/MOL
REMARK 922        TOTAL FREE ENERGY PREDICTED BY IDOCK:   -9.75 KCAL/MOL
REMARK 923 INTER-LIGAND FREE ENERGY PREDICTED BY IDOCK:   -8.43 KCAL/MOL
REMARK 924 INTRA-LIGAND FREE ENERGY PREDICTED BY IDOCK:   -1.33 KCAL/MOL
REMARK 927      BINDING AFFINITY PREDICTED BY RF-SCORE:    0.00 PKD
ROOT
HETATM    1  C   UNL     1      -9.377   3.067  67.474  1.00  0.00    -0.229 C  
HETATM    2  C   UNL     1      -9.597   4.568  67.475  1.00  0.00    -0.211 C  
ENDROOT
BRANCH   2   3
HETATM    3  C   UNL     1      -8.365   5.313  66.966  1.00  0.00    -0.107 C  
BRANCH   3   4
HETATM    4  C   UNL     1      -8.680   6.793  66.788  1.00  0.00    -0.122 C  
BRANCH   4   5
HETATM    5  C   UNL     1     -10.162   7.092  66.998  1.00  0.00    -0.330 C  
BRANCH   5   6
HETATM    6  C   UNL     1     -10.364   8.602  67.095  1.00  0.00    -0.369 C  
BRANCH   6   7
HETATM    7  C   UNL     1      -9.034   9.343  67.248  1.00  0.00    -0.130 C  
BRANCH   7   8
HETATM    8  N   UNL     1      -8.813  10.366  66.209  1.00  0.00    -0.149 NA 
BRANCH   8   9
HETATM    9  C   UNL     1      -7.495  10.285  65.555  1.00  0.00    -0.149 C  
HETATM   10  C   UNL     1      -7.391   9.351  64.352  1.00  0.00    -0.109 C  
ENDBRANCH   8   9
BRANCH   8  11
HETATM   11  C   UNL     1      -9.904  10.394  65.218  1.00  0.00    -0.297 C  
BRANCH  11  12
HETATM   12  C   UNL     1     -10.369  11.803  64.821  1.00  0.00    -0.333 C  
BRANCH  12  13
HETATM   13  C   UNL     1     -11.791  12.110  65.302  1.00  0.00    -0.356 C  
BRANCH  13  14
HETATM   14  C   UNL     1     -11.998  13.603  65.593  1.00  0.00    -0.395 C  
HETATM   15  H   UNL     1     -13.451  14.922  65.427  1.00  0.00     0.000 HD 
HETATM   16  O   UNL     1     -13.323  13.997  65.247  1.00  0.00    -0.741 OA 
BRANCH  14  17
HETATM   17  C   UNL     1     -11.721  13.934  67.047  1.00  0.00    -0.426 A  
HETATM   18  C   UNL     1     -11.813  12.927  68.020  1.00  0.00    -0.390 A  
HETATM   19  C   UNL     1     -11.636  13.222  69.373  1.00  0.00    -0.364 A  
HETATM   20  C   UNL     1     -11.371  14.530  69.770  1.00  0.00    -0.260 A  
HETATM   21  C   UNL     1     -11.403  15.240  67.463  1.00  0.00    -0.300 A  
HETATM   22  C   UNL     1     -11.225  15.536  68.818  1.00  0.00    -0.316 A  
BRANCH  20  23
HETATM   23  N   UNL     1     -11.241  14.823  71.157  1.00  0.00    -0.546 N  
HETATM   24  H   UNL     1     -10.342  14.736  71.632  1.00  0.00     0.000 HD 
BRANCH  23  25
HETATM   25  S   UNL     1     -12.622  15.320  71.991  1.00  0.00    -0.388 S  
HETATM   26  C   UNL     1     -13.141  13.794  72.748  1.00  0.00    -0.331 C  
HETATM   27  O   UNL     1     -13.590  15.650  70.969  1.00  0.00    -0.588 OA 
HETATM   28  O   UNL     1     -12.269  16.270  73.023  1.00  0.00    -0.492 OA 
ENDBRANCH  23  25
ENDBRANCH  20  23
ENDBRANCH  14  17
ENDBRANCH  13  14
ENDBRANCH  12  13
ENDBRANCH  11  12
ENDBRANCH   8  11
ENDBRANCH   7   8
ENDBRANCH   6   7
ENDBRANCH   5   6
ENDBRANCH   4   5
ENDBRANCH   3   4
ENDBRANCH   2   3
TORSDOF 14
ENDMDL
MODEL       88
REMARK 921   NORMALIZED FREE ENERGY PREDICTED BY IDOCK:   -4.34 KCAL/MOL
REMARK 922        TOTAL FREE ENERGY PREDICTED BY IDOCK:   -9.75 KCAL/MOL
REMARK 923 INTER-LIGAND FREE ENERGY PREDICTED BY IDOCK:   -8.25 KCAL/MOL
REMARK 924 INTRA-LIGAND FREE ENERGY PREDICTED BY IDOCK:   -1.50 KCAL/MOL
REMARK 927      BINDING AFFINITY PREDICTED BY RF-SCORE:    0.00 PKD
ROOT
HETATM    1  C   UNL     1     -12.626  15.147  73.751  1.00  0.00    -0.712 C  
HETATM    2  C   UNL     1     -13.143  14.460  72.501  1.00  0.00    -0.536 C  
ENDROOT
BRANCH   2   3
HETATM    3  C   UNL     1     -13.098  15.393  71.293  1.00  0.00    -0.564 C  
BRANCH   3   4
HETATM    4  C   UNL     1     -12.214  14.801  70.202  1.00  0.00    -0.391 C  
BRANCH   4   5
HETATM    5  C   UNL     1     -12.150  13.278  70.282  1.00  0.00    -0.405 C  
BRANCH   5   6
HETATM    6  C   UNL     1     -11.704  12.719  68.933  1.00  0.00    -0.370 C  
BRANCH   6   7
HETATM    7  C   UNL     1     -11.854  13.753  67.814  1.00  0.00    -0.369 C  
BRANCH   7   8
HETATM    8  N   UNL     1     -12.151  13.152  66.501  1.00  0.00    -0.385 NA 
BRANCH   8   9
HETATM    9  C   UNL     1     -11.847  14.027  65.355  1.00  0.00    -0.359 C  
HETATM   10  C   UNL     1     -11.104  15.323  65.670  1.00  0.00    -0.308 C  
ENDBRANCH   8   9
BRANCH   8  11
HETATM   11  C   UNL     1     -11.527  11.826  66.344  1.00  0.00    -0.239 C  
BRANCH  11  12
HETATM   12  C   UNL     1     -10.198  11.833  65.572  1.00  0.00    -0.291 C  
BRANCH  12  13
HETATM   13  C   UNL     1      -9.929  10.506  64.853  1.00  0.00    -0.401 C  
BRANCH  13  14
HETATM   14  C   UNL     1      -8.682   9.794  65.395  1.00  0.00    -0.154 C  
HETATM   15  H   UNL     1      -6.844  10.282  65.906  1.00  0.00     0.000 HD 
HETATM   16  O   UNL     1      -7.616  10.723  65.571  1.00  0.00    -0.112 OA 
BRANCH  14  17
HETATM   17  C   UNL     1      -8.968   9.080  66.702  1.00  0.00    -0.163 A  
HETATM   18  C   UNL     1     -10.162   8.359  66.854  1.00  0.00    -0.383 A  
HETATM   19  C   UNL     1     -10.483   7.756  68.072  1.00  0.00    -0.244 A  
HETATM   20  C   UNL     1      -9.615   7.871  69.155  1.00  0.00    -0.153 A  
HETATM   21  C   UNL     1      -8.081   9.142  67.792  1.00  0.00    -0.105 A  
HETATM   22  C   UNL     1      -8.401   8.538  69.011  1.00  0.00    -0.118 A  
BRANCH  20  23
HETATM   23  N   UNL     1      -9.979   7.291  70.403  1.00  0.00    -0.190 N  
HETATM   24  H   UNL     1      -9.432   6.532  70.810  1.00  0.00     0.000 HD 
BRANCH  23  25
HETATM   25  S   UNL     1     -11.343   7.901  71.188  1.00  0.00    -0.269 S  
HETATM   26  C   UNL     1     -10.901   7.658  72.895  1.00  0.00    -0.389 C  
HETATM   27  O   UNL     1     -12.411   6.975  70.878  1.00  0.00    -0.369 OA 
HETATM   28  O   UNL     1     -11.481   9.316  70.925  1.00  0.00    -0.269 OA 
ENDBRANCH  23  25
ENDBRANCH  20  23
ENDBRANCH  14  17
ENDBRANCH  13  14
ENDBRANCH  12  13
ENDBRANCH  11  12
ENDBRANCH   8  11
ENDBRANCH   7   8
ENDBRANCH   6   7
ENDBRANCH   5   6
ENDBRANCH   4   5
ENDBRANCH   3   4
ENDBRANCH   2   3
TORSDOF 14
ENDMDL
MODEL       89
REMARK 921   NORMALIZED FREE ENERGY PREDICTED BY IDOCK:   -4.33 KCAL/MOL
REMARK 922        TOTAL FREE ENERGY PREDICTED BY IDOCK:   -9.73 KCAL/MOL
REMARK 923 INTER-LIGAND FREE ENERGY PREDICTED BY IDOCK:   -8.39 KCAL/MOL
REMARK 924 INTRA-LIGAND FREE ENERGY PREDICTED BY IDOCK:   -1.34 KCAL/MOL
REMARK 927      BINDING AFFINITY PREDICTED BY RF-SCORE:    0.00 PKD
ROOT
HETATM    1  C   UNL     1      -8.955   9.037  70.779  1.00  0.00    -0.286 C  
HETATM    2  C   UNL     1      -9.234   8.565  72.193  1.00  0.00    -0.336 C  
ENDROOT
BRANCH   2   3
HETATM    3  C   UNL     1     -10.671   8.068  72.341  1.00  0.00    -0.386 C  
BRANCH   3   4
HETATM    4  C   UNL     1     -11.337   7.967  70.975  1.00  0.00    -0.294 C  
BRANCH   4   5
HETATM    5  C   UNL     1     -11.778   6.541  70.657  1.00  0.00    -0.436 C  
BRANCH   5   6
HETATM    6  C   UNL     1     -10.760   5.894  69.721  1.00  0.00    -0.411 C  
BRANCH   6   7
HETATM    7  C   UNL     1     -10.944   6.358  68.274  1.00  0.00    -0.312 C  
BRANCH   7   8
HETATM    8  N   UNL     1      -9.735   6.976  67.702  1.00  0.00    -0.133 NA 
BRANCH   8   9
HETATM    9  C   UNL     1      -8.800   6.016  67.089  1.00  0.00    -0.108 C  
HETATM   10  C   UNL     1      -7.313   6.286  67.304  1.00  0.00    -0.083 C  
ENDBRANCH   8   9
BRANCH   8  11
HETATM   11  C   UNL     1     -10.060   8.076  66.775  1.00  0.00    -0.287 C  
BRANCH  11  12
HETATM   12  C   UNL     1     -10.542   9.365  67.459  1.00  0.00    -0.333 C  
BRANCH  12  13
HETATM   13  C   UNL     1     -10.144  10.625  66.683  1.00  0.00    -0.270 C  
BRANCH  13  14
HETATM   14  C   UNL     1     -11.280  11.657  66.627  1.00  0.00    -0.299 C  
HETATM   15  H   UNL     1     -12.832  12.161  67.729  1.00  0.00     0.000 HD 
HETATM   16  O   UNL     1     -12.129  11.523  67.763  1.00  0.00    -0.626 OA 
BRANCH  14  17
HETATM   17  C   UNL     1     -10.745  13.074  66.543  1.00  0.00    -0.290 A  
HETATM   18  C   UNL     1     -11.023  13.856  65.412  1.00  0.00    -0.316 A  
HETATM   19  C   UNL     1     -10.481  15.136  65.277  1.00  0.00    -0.434 A  
HETATM   20  C   UNL     1      -9.650  15.647  66.271  1.00  0.00    -0.308 A  
HETATM   21  C   UNL     1      -9.944  13.626  67.559  1.00  0.00    -0.230 A  
HETATM   22  C   UNL     1      -9.402  14.908  67.425  1.00  0.00    -0.202 A  
BRANCH  20  23
HETATM   23  N   UNL     1      -9.066  16.934  66.097  1.00  0.00    -0.258 N  
HETATM   24  H   UNL     1      -8.086  17.036  65.832  1.00  0.00     0.000 HD 
BRANCH  23  25
HETATM   25  S   UNL     1     -10.048  18.285  66.342  1.00  0.00    -0.397 S  
HETATM   26  C   UNL     1      -8.838  19.588  66.410  1.00  0.00    -0.366 C  
HETATM   27  O   UNL     1     -10.594  18.127  67.672  1.00  0.00    -0.406 OA 
HETATM   28  O   UNL     1     -10.911  18.490  65.199  1.00  0.00    -0.588 OA 
ENDBRANCH  23  25
ENDBRANCH  20  23
ENDBRANCH  14  17
ENDBRANCH  13  14
ENDBRANCH  12  13
ENDBRANCH  11  12
ENDBRANCH   8  11
ENDBRANCH   7   8
ENDBRANCH   6   7
ENDBRANCH   5   6
ENDBRANCH   4   5
ENDBRANCH   3   4
ENDBRANCH   2   3
TORSDOF 14
ENDMDL
MODEL       90
REMARK 921   NORMALIZED FREE ENERGY PREDICTED BY IDOCK:   -4.33 KCAL/MOL
REMARK 922        TOTAL FREE ENERGY PREDICTED BY IDOCK:   -9.73 KCAL/MOL
REMARK 923 INTER-LIGAND FREE ENERGY PREDICTED BY IDOCK:   -8.39 KCAL/MOL
REMARK 924 INTRA-LIGAND FREE ENERGY PREDICTED BY IDOCK:   -1.33 KCAL/MOL
REMARK 927      BINDING AFFINITY PREDICTED BY RF-SCORE:    0.00 PKD
ROOT
HETATM    1  C   UNL     1      -7.636  14.310  68.747  1.00  0.00    -0.130 C  
HETATM    2  C   UNL     1      -8.202  15.644  69.199  1.00  0.00    -0.248 C  
ENDROOT
BRANCH   2   3
HETATM    3  C   UNL     1      -7.542  16.808  68.462  1.00  0.00    -0.217 C  
BRANCH   3   4
HETATM    4  C   UNL     1      -8.555  17.920  68.220  1.00  0.00    -0.277 C  
BRANCH   4   5
HETATM    5  C   UNL     1      -9.072  17.921  66.783  1.00  0.00    -0.276 C  
BRANCH   5   6
HETATM    6  C   UNL     1     -10.416  17.197  66.729  1.00  0.00    -0.263 C  
BRANCH   6   7
HETATM    7  C   UNL     1     -10.486  16.218  65.556  1.00  0.00    -0.362 C  
BRANCH   7   8
HETATM    8  N   UNL     1     -11.311  15.030  65.836  1.00  0.00    -0.314 NA 
BRANCH   8   9
HETATM    9  C   UNL     1     -11.608  14.208  64.649  1.00  0.00    -0.406 C  
HETATM   10  C   UNL     1     -10.702  13.001  64.417  1.00  0.00    -0.414 C  
ENDBRANCH   8   9
BRANCH   8  11
HETATM   11  C   UNL     1     -10.754  14.213  66.930  1.00  0.00    -0.286 C  
BRANCH  11  12
HETATM   12  C   UNL     1     -11.721  13.966  68.098  1.00  0.00    -0.388 C  
BRANCH  12  13
HETATM   13  C   UNL     1     -11.227  12.870  69.048  1.00  0.00    -0.320 C  
BRANCH  13  14
HETATM   14  C   UNL     1     -12.033  11.571  68.908  1.00  0.00    -0.299 C  
HETATM   15  H   UNL     1     -12.248  10.139  67.574  1.00  0.00     0.000 HD 
HETATM   16  O   UNL     1     -11.749  10.943  67.661  1.00  0.00    -0.566 OA 
BRANCH  14  17
HETATM   17  C   UNL     1     -11.752  10.611  70.048  1.00  0.00    -0.405 A  
HETATM   18  C   UNL     1     -10.461  10.087  70.214  1.00  0.00    -0.331 A  
HETATM   19  C   UNL     1     -10.196   9.144  71.210  1.00  0.00    -0.400 A  
HETATM   20  C   UNL     1     -11.219   8.712  72.049  1.00  0.00    -0.364 A  
HETATM   21  C   UNL     1     -12.762  10.199  70.938  1.00  0.00    -0.448 A  
HETATM   22  C   UNL     1     -12.496   9.257  71.935  1.00  0.00    -0.457 A  
BRANCH  20  23
HETATM   23  N   UNL     1     -10.942   7.716  73.028  1.00  0.00    -0.400 N  
HETATM   24  H   UNL     1     -11.032   7.917  74.024  1.00  0.00     0.000 HD 
BRANCH  23  25
HETATM   25  S   UNL     1     -10.461   6.191  72.487  1.00  0.00    -0.210 S  
HETATM   26  C   UNL     1     -10.825   5.185  73.910  1.00  0.00    -0.250 C  
HETATM   27  O   UNL     1      -9.022   6.264  72.361  1.00  0.00    -0.139 OA 
HETATM   28  O   UNL     1     -11.288   5.770  71.378  1.00  0.00    -0.225 OA 
ENDBRANCH  23  25
ENDBRANCH  20  23
ENDBRANCH  14  17
ENDBRANCH  13  14
ENDBRANCH  12  13
ENDBRANCH  11  12
ENDBRANCH   8  11
ENDBRANCH   7   8
ENDBRANCH   6   7
ENDBRANCH   5   6
ENDBRANCH   4   5
ENDBRANCH   3   4
ENDBRANCH   2   3
TORSDOF 14
ENDMDL
MODEL       91
REMARK 921   NORMALIZED FREE ENERGY PREDICTED BY IDOCK:   -4.32 KCAL/MOL
REMARK 922        TOTAL FREE ENERGY PREDICTED BY IDOCK:   -9.71 KCAL/MOL
REMARK 923 INTER-LIGAND FREE ENERGY PREDICTED BY IDOCK:   -8.69 KCAL/MOL
REMARK 924 INTRA-LIGAND FREE ENERGY PREDICTED BY IDOCK:   -1.03 KCAL/MOL
REMARK 927      BINDING AFFINITY PREDICTED BY RF-SCORE:    0.00 PKD
ROOT
HETATM    1  C   UNL     1     -10.356   2.173  72.531  1.00  0.00    -0.223 C  
HETATM    2  C   UNL     1     -11.100   2.948  73.602  1.00  0.00    -0.326 C  
ENDROOT
BRANCH   2   3
HETATM    3  C   UNL     1     -11.053   4.452  73.336  1.00  0.00    -0.394 C  
BRANCH   3   4
HETATM    4  C   UNL     1     -10.285   4.735  72.050  1.00  0.00    -0.261 C  
BRANCH   4   5
HETATM    5  C   UNL     1     -10.901   5.884  71.257  1.00  0.00    -0.333 C  
BRANCH   5   6
HETATM    6  C   UNL     1     -11.947   6.589  72.118  1.00  0.00    -0.334 C  
BRANCH   6   7
HETATM    7  C   UNL     1     -11.550   8.034  72.424  1.00  0.00    -0.390 C  
BRANCH   7   8
HETATM    8  N   UNL     1     -12.012   8.994  71.404  1.00  0.00    -0.312 NA 
BRANCH   8   9
HETATM    9  C   UNL     1     -13.157   9.819  71.829  1.00  0.00    -0.431 C  
HETATM   10  C   UNL     1     -12.979  11.332  71.723  1.00  0.00    -0.519 C  
ENDBRANCH   8   9
BRANCH   8  11
HETATM   11  C   UNL     1     -10.911   9.827  70.888  1.00  0.00    -0.341 C  
BRANCH  11  12
HETATM   12  C   UNL     1     -10.722   9.762  69.365  1.00  0.00    -0.250 C  
BRANCH  12  13
HETATM   13  C   UNL     1     -10.001  10.995  68.808  1.00  0.00    -0.215 C  
BRANCH  13  14
HETATM   14  C   UNL     1     -10.767  11.642  67.647  1.00  0.00    -0.207 C  
HETATM   15  H   UNL     1     -12.638  11.781  67.046  1.00  0.00     0.000 HD 
HETATM   16  O   UNL     1     -12.163  11.381  67.765  1.00  0.00    -0.537 OA 
BRANCH  14  17
HETATM   17  C   UNL     1     -10.524  13.138  67.580  1.00  0.00    -0.225 A  
HETATM   18  C   UNL     1      -9.285  13.622  67.135  1.00  0.00    -0.244 A  
HETATM   19  C   UNL     1      -9.011  14.992  67.136  1.00  0.00    -0.235 A  
HETATM   20  C   UNL     1      -9.972  15.893  67.586  1.00  0.00    -0.237 A  
HETATM   21  C   UNL     1     -11.500  14.068  67.984  1.00  0.00    -0.342 A  
HETATM   22  C   UNL     1     -11.227  15.438  67.984  1.00  0.00    -0.326 A  
BRANCH  20  23
HETATM   23  N   UNL     1      -9.659  17.281  67.625  1.00  0.00    -0.252 N  
HETATM   24  H   UNL     1      -9.414  17.741  68.502  1.00  0.00     0.000 HD 
BRANCH  23  25
HETATM   25  S   UNL     1      -9.708  18.142  66.174  1.00  0.00    -0.139 S  
HETATM   26  C   UNL     1     -10.489  19.656  66.692  1.00  0.00    -0.497 C  
HETATM   27  O   UNL     1     -10.648  17.431  65.336  1.00  0.00    -0.638 OA 
HETATM   28  O   UNL     1      -8.365  18.428  65.717  1.00  0.00    -0.478 OA 
ENDBRANCH  23  25
ENDBRANCH  20  23
ENDBRANCH  14  17
ENDBRANCH  13  14
ENDBRANCH  12  13
ENDBRANCH  11  12
ENDBRANCH   8  11
ENDBRANCH   7   8
ENDBRANCH   6   7
ENDBRANCH   5   6
ENDBRANCH   4   5
ENDBRANCH   3   4
ENDBRANCH   2   3
TORSDOF 14
ENDMDL
MODEL       92
REMARK 921   NORMALIZED FREE ENERGY PREDICTED BY IDOCK:   -4.32 KCAL/MOL
REMARK 922        TOTAL FREE ENERGY PREDICTED BY IDOCK:   -9.70 KCAL/MOL
REMARK 923 INTER-LIGAND FREE ENERGY PREDICTED BY IDOCK:   -7.99 KCAL/MOL
REMARK 924 INTRA-LIGAND FREE ENERGY PREDICTED BY IDOCK:   -1.71 KCAL/MOL
REMARK 927      BINDING AFFINITY PREDICTED BY RF-SCORE:    0.00 PKD
ROOT
HETATM    1  C   UNL     1     -13.663   9.269  72.162  1.00  0.00    -0.517 C  
HETATM    2  C   UNL     1     -12.454   9.964  71.563  1.00  0.00    -0.506 C  
ENDROOT
BRANCH   2   3
HETATM    3  C   UNL     1     -11.200   9.100  71.683  1.00  0.00    -0.447 C  
BRANCH   3   4
HETATM    4  C   UNL     1     -11.460   7.919  72.610  1.00  0.00    -0.454 C  
BRANCH   4   5
HETATM    5  C   UNL     1     -10.175   7.395  73.244  1.00  0.00    -0.386 C  
BRANCH   5   6
HETATM    6  C   UNL     1      -9.081   7.319  72.181  1.00  0.00    -0.149 C  
BRANCH   6   7
HETATM    7  C   UNL     1      -8.588   5.886  71.976  1.00  0.00    -0.137 C  
BRANCH   7   8
HETATM    8  N   UNL     1      -8.946   5.329  70.659  1.00  0.00    -0.132 NA 
BRANCH   8   9
HETATM    9  C   UNL     1      -9.779   4.114  70.724  1.00  0.00    -0.196 C  
HETATM   10  C   UNL     1      -9.513   3.173  71.896  1.00  0.00    -0.210 C  
ENDBRANCH   8   9
BRANCH   8  11
HETATM   11  C   UNL     1      -9.545   6.343  69.772  1.00  0.00    -0.151 C  
BRANCH  11  12
HETATM   12  C   UNL     1     -10.825   5.887  69.055  1.00  0.00    -0.383 C  
BRANCH  12  13
HETATM   13  C   UNL     1     -11.135   6.732  67.814  1.00  0.00    -0.285 C  
BRANCH  13  14
HETATM   14  C   UNL     1      -9.871   7.347  67.197  1.00  0.00    -0.193 C  
HETATM   15  H   UNL     1      -8.695   6.997  65.657  1.00  0.00     0.000 HD 
HETATM   16  O   UNL     1      -9.478   6.616  66.039  1.00  0.00    -0.078 OA 
BRANCH  14  17
HETATM   17  C   UNL     1     -10.075   8.808  66.844  1.00  0.00    -0.348 A  
HETATM   18  C   UNL     1     -10.966   9.588  67.595  1.00  0.00    -0.150 A  
HETATM   19  C   UNL     1     -11.227  10.915  67.244  1.00  0.00    -0.307 A  
HETATM   20  C   UNL     1     -10.602  11.475  66.133  1.00  0.00    -0.266 A  
HETATM   21  C   UNL     1      -9.415   9.407  65.755  1.00  0.00    -0.325 A  
HETATM   22  C   UNL     1      -9.674  10.735  65.404  1.00  0.00    -0.297 A  
BRANCH  20  23
HETATM   23  N   UNL     1     -10.914  12.813  65.760  1.00  0.00    -0.272 N  
HETATM   24  H   UNL     1     -10.470  13.606  66.223  1.00  0.00     0.000 HD 
BRANCH  23  25
HETATM   25  S   UNL     1     -12.044  13.044  64.528  1.00  0.00    -0.431 S  
HETATM   26  C   UNL     1     -11.865  14.788  64.213  1.00  0.00    -0.319 C  
HETATM   27  O   UNL     1     -13.336  12.843  65.147  1.00  0.00    -0.605 OA 
HETATM   28  O   UNL     1     -11.656  12.303  63.348  1.00  0.00    -0.450 OA 
ENDBRANCH  23  25
ENDBRANCH  20  23
ENDBRANCH  14  17
ENDBRANCH  13  14
ENDBRANCH  12  13
ENDBRANCH  11  12
ENDBRANCH   8  11
ENDBRANCH   7   8
ENDBRANCH   6   7
ENDBRANCH   5   6
ENDBRANCH   4   5
ENDBRANCH   3   4
ENDBRANCH   2   3
TORSDOF 14
ENDMDL
MODEL       93
REMARK 921   NORMALIZED FREE ENERGY PREDICTED BY IDOCK:   -4.32 KCAL/MOL
REMARK 922        TOTAL FREE ENERGY PREDICTED BY IDOCK:   -9.70 KCAL/MOL
REMARK 923 INTER-LIGAND FREE ENERGY PREDICTED BY IDOCK:   -8.29 KCAL/MOL
REMARK 924 INTRA-LIGAND FREE ENERGY PREDICTED BY IDOCK:   -1.42 KCAL/MOL
REMARK 927      BINDING AFFINITY PREDICTED BY RF-SCORE:    0.00 PKD
ROOT
HETATM    1  C   UNL     1     -10.792   6.049  68.458  1.00  0.00    -0.363 C  
HETATM    2  C   UNL     1     -10.210   5.255  69.613  1.00  0.00    -0.348 C  
ENDROOT
BRANCH   2   3
HETATM    3  C   UNL     1     -10.620   5.849  70.960  1.00  0.00    -0.312 C  
BRANCH   3   4
HETATM    4  C   UNL     1     -11.922   6.627  70.817  1.00  0.00    -0.412 C  
BRANCH   4   5
HETATM    5  C   UNL     1     -12.191   7.519  72.026  1.00  0.00    -0.314 C  
BRANCH   5   6
HETATM    6  C   UNL     1     -11.295   8.753  71.952  1.00  0.00    -0.431 C  
BRANCH   6   7
HETATM    7  C   UNL     1     -12.043   9.965  71.393  1.00  0.00    -0.413 C  
BRANCH   7   8
HETATM    8  N   UNL     1     -11.351  10.607  70.262  1.00  0.00    -0.316 NA 
BRANCH   8   9
HETATM    9  C   UNL     1     -10.495   9.695  69.483  1.00  0.00    -0.224 C  
HETATM   10  C   UNL     1      -9.036  10.114  69.313  1.00  0.00    -0.208 C  
ENDBRANCH   8   9
BRANCH   8  11
HETATM   11  C   UNL     1     -12.282  11.346  69.389  1.00  0.00    -0.221 C  
BRANCH  11  12
HETATM   12  C   UNL     1     -11.700  12.631  68.779  1.00  0.00    -0.364 C  
BRANCH  12  13
HETATM   13  C   UNL     1     -11.765  12.635  67.247  1.00  0.00    -0.435 C  
BRANCH  13  14
HETATM   14  C   UNL     1     -10.371  12.661  66.605  1.00  0.00    -0.236 C  
HETATM   15  H   UNL     1      -9.560  12.147  64.886  1.00  0.00     0.000 HD 
HETATM   16  O   UNL     1     -10.422  12.131  65.284  1.00  0.00    -0.258 OA 
BRANCH  14  17
HETATM   17  C   UNL     1      -9.792  14.063  66.580  1.00  0.00    -0.298 A  
HETATM   18  C   UNL     1     -10.494  15.093  65.936  1.00  0.00    -0.350 A  
HETATM   19  C   UNL     1      -9.947  16.374  65.835  1.00  0.00    -0.358 A  
HETATM   20  C   UNL     1      -8.690  16.639  66.371  1.00  0.00    -0.310 A  
HETATM   21  C   UNL     1      -8.545  14.361  67.159  1.00  0.00    -0.237 A  
HETATM   22  C   UNL     1      -7.998  15.644  67.059  1.00  0.00    -0.268 A  
BRANCH  20  23
HETATM   23  N   UNL     1      -8.127  17.937  66.217  1.00  0.00    -0.253 N  
HETATM   24  H   UNL     1      -7.298  18.086  65.641  1.00  0.00     0.000 HD 
BRANCH  23  25
HETATM   25  S   UNL     1      -8.874  19.221  67.018  1.00  0.00    -0.305 S  
HETATM   26  C   UNL     1      -7.532  20.385  67.140  1.00  0.00    -0.314 C  
HETATM   27  O   UNL     1      -9.151  18.734  68.352  1.00  0.00    -0.317 OA 
HETATM   28  O   UNL     1      -9.921  19.783  66.194  1.00  0.00    -0.422 OA 
ENDBRANCH  23  25
ENDBRANCH  20  23
ENDBRANCH  14  17
ENDBRANCH  13  14
ENDBRANCH  12  13
ENDBRANCH  11  12
ENDBRANCH   8  11
ENDBRANCH   7   8
ENDBRANCH   6   7
ENDBRANCH   5   6
ENDBRANCH   4   5
ENDBRANCH   3   4
ENDBRANCH   2   3
TORSDOF 14
ENDMDL
MODEL       94
REMARK 921   NORMALIZED FREE ENERGY PREDICTED BY IDOCK:   -4.31 KCAL/MOL
REMARK 922        TOTAL FREE ENERGY PREDICTED BY IDOCK:   -9.69 KCAL/MOL
REMARK 923 INTER-LIGAND FREE ENERGY PREDICTED BY IDOCK:   -7.80 KCAL/MOL
REMARK 924 INTRA-LIGAND FREE ENERGY PREDICTED BY IDOCK:   -1.89 KCAL/MOL
REMARK 927      BINDING AFFINITY PREDICTED BY RF-SCORE:    0.00 PKD
ROOT
HETATM    1  C   UNL     1     -10.676   5.436  70.280  1.00  0.00    -0.286 C  
HETATM    2  C   UNL     1     -11.767   6.477  70.449  1.00  0.00    -0.439 C  
ENDROOT
BRANCH   2   3
HETATM    3  C   UNL     1     -11.923   6.888  71.912  1.00  0.00    -0.363 C  
BRANCH   3   4
HETATM    4  C   UNL     1     -11.088   5.979  72.806  1.00  0.00    -0.305 C  
BRANCH   4   5
HETATM    5  C   UNL     1     -10.277   6.770  73.828  1.00  0.00    -0.378 C  
BRANCH   5   6
HETATM    6  C   UNL     1      -9.498   7.871  73.112  1.00  0.00    -0.344 C  
BRANCH   6   7
HETATM    7  C   UNL     1      -8.293   7.311  72.354  1.00  0.00    -0.108 C  
BRANCH   7   8
HETATM    8  N   UNL     1      -7.724   8.261  71.380  1.00  0.00    -0.088 NA 
BRANCH   8   9
HETATM    9  C   UNL     1      -6.312   8.606  71.629  1.00  0.00    -0.069 C  
HETATM   10  C   UNL     1      -5.627   9.463  70.568  1.00  0.00    -0.039 C  
ENDBRANCH   8   9
BRANCH   8  11
HETATM   11  C   UNL     1      -7.932   7.821  69.989  1.00  0.00    -0.113 C  
BRANCH  11  12
HETATM   12  C   UNL     1      -9.077   8.539  69.258  1.00  0.00    -0.153 C  
BRANCH  12  13
HETATM   13  C   UNL     1      -9.541   9.804  69.991  1.00  0.00    -0.282 C  
BRANCH  13  14
HETATM   14  C   UNL     1     -11.044  10.060  69.816  1.00  0.00    -0.274 C  
HETATM   15  H   UNL     1     -12.595  10.419  70.974  1.00  0.00     0.000 HD 
HETATM   16  O   UNL     1     -11.665  10.260  71.082  1.00  0.00    -0.358 OA 
BRANCH  14  17
HETATM   17  C   UNL     1     -11.308  11.252  68.915  1.00  0.00    -0.340 A  
HETATM   18  C   UNL     1     -11.252  11.097  67.522  1.00  0.00    -0.369 A  
HETATM   19  C   UNL     1     -11.417  12.194  66.673  1.00  0.00    -0.426 A  
HETATM   20  C   UNL     1     -11.635  13.460  67.209  1.00  0.00    -0.360 A  
HETATM   21  C   UNL     1     -11.578  12.530  69.436  1.00  0.00    -0.368 A  
HETATM   22  C   UNL     1     -11.744  13.628  68.588  1.00  0.00    -0.389 A  
BRANCH  20  23
HETATM   23  N   UNL     1     -11.753  14.576  66.333  1.00  0.00    -0.376 N  
HETATM   24  H   UNL     1     -12.644  14.808  65.893  1.00  0.00     0.000 HD 
BRANCH  23  25
HETATM   25  S   UNL     1     -10.372  15.501  66.043  1.00  0.00    -0.349 S  
HETATM   26  C   UNL     1     -10.525  16.759  67.295  1.00  0.00    -0.310 C  
HETATM   27  O   UNL     1     -10.593  16.133  64.761  1.00  0.00    -0.630 OA 
HETATM   28  O   UNL     1      -9.182  14.717  66.295  1.00  0.00    -0.283 OA 
ENDBRANCH  23  25
ENDBRANCH  20  23
ENDBRANCH  14  17
ENDBRANCH  13  14
ENDBRANCH  12  13
ENDBRANCH  11  12
ENDBRANCH   8  11
ENDBRANCH   7   8
ENDBRANCH   6   7
ENDBRANCH   5   6
ENDBRANCH   4   5
ENDBRANCH   3   4
ENDBRANCH   2   3
TORSDOF 14
ENDMDL
MODEL       95
REMARK 921   NORMALIZED FREE ENERGY PREDICTED BY IDOCK:   -4.28 KCAL/MOL
REMARK 922        TOTAL FREE ENERGY PREDICTED BY IDOCK:   -9.64 KCAL/MOL
REMARK 923 INTER-LIGAND FREE ENERGY PREDICTED BY IDOCK:   -8.25 KCAL/MOL
REMARK 924 INTRA-LIGAND FREE ENERGY PREDICTED BY IDOCK:   -1.40 KCAL/MOL
REMARK 927      BINDING AFFINITY PREDICTED BY RF-SCORE:    0.00 PKD
ROOT
HETATM    1  C   UNL     1      -9.585   5.795  72.854  1.00  0.00    -0.163 C  
HETATM    2  C   UNL     1     -10.465   6.709  72.021  1.00  0.00    -0.227 C  
ENDROOT
BRANCH   2   3
HETATM    3  C   UNL     1     -10.730   8.032  72.739  1.00  0.00    -0.431 C  
BRANCH   3   4
HETATM    4  C   UNL     1     -11.410   9.016  71.795  1.00  0.00    -0.447 C  
BRANCH   4   5
HETATM    5  C   UNL     1     -11.022   8.773  70.339  1.00  0.00    -0.262 C  
BRANCH   5   6
HETATM    6  C   UNL     1     -10.121   9.908  69.860  1.00  0.00    -0.297 C  
BRANCH   6   7
HETATM    7  C   UNL     1      -8.827   9.379  69.235  1.00  0.00    -0.150 C  
BRANCH   7   8
HETATM    8  N   UNL     1      -8.845   9.391  67.761  1.00  0.00    -0.123 NA 
BRANCH   8   9
HETATM    9  C   UNL     1      -9.136   8.081  67.151  1.00  0.00    -0.137 C  
HETATM   10  C   UNL     1     -10.604   7.778  66.865  1.00  0.00    -0.347 C  
ENDBRANCH   8   9
BRANCH   8  11
HETATM   11  C   UNL     1      -9.729  10.441  67.225  1.00  0.00    -0.165 C  
BRANCH  11  12
HETATM   12  C   UNL     1      -9.020  11.489  66.352  1.00  0.00    -0.200 C  
BRANCH  12  13
HETATM   13  C   UNL     1      -8.667  12.761  67.131  1.00  0.00    -0.202 C  
BRANCH  13  14
HETATM   14  C   UNL     1      -9.473  13.977  66.655  1.00  0.00    -0.287 C  
HETATM   15  H   UNL     1     -10.547  14.475  65.082  1.00  0.00     0.000 HD 
HETATM   16  O   UNL     1     -10.049  13.722  65.377  1.00  0.00    -0.313 OA 
BRANCH  14  17
HETATM   17  C   UNL     1     -10.557  14.354  67.647  1.00  0.00    -0.260 A  
HETATM   18  C   UNL     1     -10.806  15.707  67.924  1.00  0.00    -0.306 A  
HETATM   19  C   UNL     1     -11.747  16.077  68.888  1.00  0.00    -0.322 A  
HETATM   20  C   UNL     1     -12.446  15.098  69.589  1.00  0.00    -0.136 A  
HETATM   21  C   UNL     1     -11.309  13.381  68.330  1.00  0.00    -0.330 A  
HETATM   22  C   UNL     1     -12.251  13.751  69.293  1.00  0.00    -0.307 A  
BRANCH  20  23
HETATM   23  N   UNL     1     -13.366  15.491  70.601  1.00  0.00    -0.794 N  
HETATM   24  H   UNL     1     -14.261  15.919  70.362  1.00  0.00     0.000 HD 
BRANCH  23  25
HETATM   25  S   UNL     1     -12.930  15.226  72.210  1.00  0.00    -0.408 S  
HETATM   26  C   UNL     1     -13.472  13.546  72.446  1.00  0.00    -0.584 C  
HETATM   27  O   UNL     1     -13.800  16.078  72.990  1.00  0.00    -0.592 OA 
HETATM   28  O   UNL     1     -11.493  15.290  72.355  1.00  0.00    -0.454 OA 
ENDBRANCH  23  25
ENDBRANCH  20  23
ENDBRANCH  14  17
ENDBRANCH  13  14
ENDBRANCH  12  13
ENDBRANCH  11  12
ENDBRANCH   8  11
ENDBRANCH   7   8
ENDBRANCH   6   7
ENDBRANCH   5   6
ENDBRANCH   4   5
ENDBRANCH   3   4
ENDBRANCH   2   3
TORSDOF 14
ENDMDL
MODEL       96
REMARK 921   NORMALIZED FREE ENERGY PREDICTED BY IDOCK:   -4.28 KCAL/MOL
REMARK 922        TOTAL FREE ENERGY PREDICTED BY IDOCK:   -9.64 KCAL/MOL
REMARK 923 INTER-LIGAND FREE ENERGY PREDICTED BY IDOCK:   -8.69 KCAL/MOL
REMARK 924 INTRA-LIGAND FREE ENERGY PREDICTED BY IDOCK:   -0.95 KCAL/MOL
REMARK 927      BINDING AFFINITY PREDICTED BY RF-SCORE:    0.00 PKD
ROOT
HETATM    1  C   UNL     1     -12.322  15.943  73.647  1.00  0.00    -0.682 C  
HETATM    2  C   UNL     1     -13.225  14.949  72.941  1.00  0.00    -0.590 C  
ENDROOT
BRANCH   2   3
HETATM    3  C   UNL     1     -13.623  15.446  71.553  1.00  0.00    -0.604 C  
BRANCH   3   4
HETATM    4  C   UNL     1     -12.846  14.693  70.481  1.00  0.00    -0.371 C  
BRANCH   4   5
HETATM    5  C   UNL     1     -12.588  13.241  70.875  1.00  0.00    -0.386 C  
BRANCH   5   6
HETATM    6  C   UNL     1     -11.748  12.566  69.793  1.00  0.00    -0.355 C  
BRANCH   6   7
HETATM    7  C   UNL     1     -11.917  13.249  68.435  1.00  0.00    -0.301 C  
BRANCH   7   8
HETATM    8  N   UNL     1     -12.077  12.297  67.320  1.00  0.00    -0.517 NA 
BRANCH   8   9
HETATM    9  C   UNL     1     -11.568  12.792  66.028  1.00  0.00    -0.383 C  
HETATM   10  C   UNL     1     -12.530  12.712  64.845  1.00  0.00    -0.564 C  
ENDBRANCH   8   9
BRANCH   8  11
HETATM   11  C   UNL     1     -11.526  10.969  67.641  1.00  0.00    -0.224 C  
BRANCH  11  12
HETATM   12  C   UNL     1     -10.378  10.516  66.725  1.00  0.00    -0.301 C  
BRANCH  12  13
HETATM   13  C   UNL     1     -10.267   8.989  66.634  1.00  0.00    -0.333 C  
BRANCH  13  14
HETATM   14  C   UNL     1      -9.202   8.426  67.585  1.00  0.00    -0.134 C  
HETATM   15  H   UNL     1      -7.617   9.095  68.543  1.00  0.00     0.000 HD 
HETATM   16  O   UNL     1      -8.276   9.444  67.954  1.00  0.00    -0.113 OA 
BRANCH  14  17
HETATM   17  C   UNL     1      -9.826   7.818  68.827  1.00  0.00    -0.171 A  
HETATM   18  C   UNL     1     -10.736   6.758  68.701  1.00  0.00    -0.279 A  
HETATM   19  C   UNL     1     -11.381   6.232  69.823  1.00  0.00    -0.506 A  
HETATM   20  C   UNL     1     -11.126   6.763  71.085  1.00  0.00    -0.270 A  
HETATM   21  C   UNL     1      -9.544   8.309  70.116  1.00  0.00    -0.167 A  
HETATM   22  C   UNL     1     -10.188   7.782  71.239  1.00  0.00    -0.218 A  
BRANCH  20  23
HETATM   23  N   UNL     1     -11.826   6.248  72.211  1.00  0.00    -0.425 N  
HETATM   24  H   UNL     1     -12.802   6.491  72.381  1.00  0.00     0.000 HD 
BRANCH  23  25
HETATM   25  S   UNL     1     -10.990   5.221  73.258  1.00  0.00    -0.316 S  
HETATM   26  C   UNL     1      -9.846   4.438  72.140  1.00  0.00    -0.176 C  
HETATM   27  O   UNL     1     -11.952   4.222  73.668  1.00  0.00    -0.037 OA 
HETATM   28  O   UNL     1     -10.252   5.994  74.233  1.00  0.00    -0.263 OA 
ENDBRANCH  23  25
ENDBRANCH  20  23
ENDBRANCH  14  17
ENDBRANCH  13  14
ENDBRANCH  12  13
ENDBRANCH  11  12
ENDBRANCH   8  11
ENDBRANCH   7   8
ENDBRANCH   6   7
ENDBRANCH   5   6
ENDBRANCH   4   5
ENDBRANCH   3   4
ENDBRANCH   2   3
TORSDOF 14
ENDMDL
MODEL       97
REMARK 921   NORMALIZED FREE ENERGY PREDICTED BY IDOCK:   -4.28 KCAL/MOL
REMARK 922        TOTAL FREE ENERGY PREDICTED BY IDOCK:   -9.63 KCAL/MOL
REMARK 923 INTER-LIGAND FREE ENERGY PREDICTED BY IDOCK:   -8.18 KCAL/MOL
REMARK 924 INTRA-LIGAND FREE ENERGY PREDICTED BY IDOCK:   -1.45 KCAL/MOL
REMARK 927      BINDING AFFINITY PREDICTED BY RF-SCORE:    0.00 PKD
ROOT
HETATM    1  C   UNL     1      -8.590   4.120  67.707  1.00  0.00    -0.109 C  
HETATM    2  C   UNL     1      -9.650   4.806  68.548  1.00  0.00    -0.218 C  
ENDROOT
BRANCH   2   3
HETATM    3  C   UNL     1      -9.679   4.249  69.970  1.00  0.00    -0.287 C  
BRANCH   3   4
HETATM    4  C   UNL     1      -9.376   5.353  70.975  1.00  0.00    -0.188 C  
BRANCH   4   5
HETATM    5  C   UNL     1     -10.552   5.612  71.913  1.00  0.00    -0.287 C  
BRANCH   5   6
HETATM    6  C   UNL     1     -10.155   6.669  72.941  1.00  0.00    -0.200 C  
BRANCH   6   7
HETATM    7  C   UNL     1     -11.215   7.765  73.066  1.00  0.00    -0.321 C  
BRANCH   7   8
HETATM    8  N   UNL     1     -11.538   8.413  71.782  1.00  0.00    -0.287 NA 
BRANCH   8   9
HETATM    9  C   UNL     1     -12.880   9.020  71.733  1.00  0.00    -0.374 C  
HETATM   10  C   UNL     1     -12.934  10.546  71.736  1.00  0.00    -0.582 C  
ENDBRANCH   8   9
BRANCH   8  11
HETATM   11  C   UNL     1     -10.499   9.373  71.369  1.00  0.00    -0.288 C  
BRANCH  11  12
HETATM   12  C   UNL     1      -9.690   8.946  70.134  1.00  0.00    -0.199 C  
BRANCH  12  13
HETATM   13  C   UNL     1     -10.577   8.390  69.014  1.00  0.00    -0.172 C  
BRANCH  13  14
HETATM   14  C   UNL     1      -9.960   8.598  67.625  1.00  0.00    -0.194 C  
HETATM   15  H   UNL     1     -10.134   7.805  65.830  1.00  0.00     0.000 HD 
HETATM   16  O   UNL     1     -10.516   7.676  66.691  1.00  0.00    -0.281 OA 
BRANCH  14  17
HETATM   17  C   UNL     1     -10.158  10.019  67.131  1.00  0.00    -0.265 A  
HETATM   18  C   UNL     1     -11.186  10.806  67.672  1.00  0.00    -0.370 A  
HETATM   19  C   UNL     1     -11.435  12.090  67.182  1.00  0.00    -0.401 A  
HETATM   20  C   UNL     1     -10.663  12.600  66.142  1.00  0.00    -0.267 A  
HETATM   21  C   UNL     1      -9.356  10.570  66.115  1.00  0.00    -0.210 A  
HETATM   22  C   UNL     1      -9.605  11.855  65.625  1.00  0.00    -0.221 A  
BRANCH  20  23
HETATM   23  N   UNL     1     -10.961  13.891  65.622  1.00  0.00    -0.286 N  
HETATM   24  H   UNL     1     -10.364  14.693  65.828  1.00  0.00     0.000 HD 
BRANCH  23  25
HETATM   25  S   UNL     1     -12.334  14.053  64.654  1.00  0.00    -0.363 S  
HETATM   26  C   UNL     1     -12.085  12.745  63.472  1.00  0.00    -0.559 C  
HETATM   27  O   UNL     1     -12.166  15.309  63.955  1.00  0.00    -0.625 OA 
HETATM   28  O   UNL     1     -13.526  13.781  65.426  1.00  0.00    -0.620 OA 
ENDBRANCH  23  25
ENDBRANCH  20  23
ENDBRANCH  14  17
ENDBRANCH  13  14
ENDBRANCH  12  13
ENDBRANCH  11  12
ENDBRANCH   8  11
ENDBRANCH   7   8
ENDBRANCH   6   7
ENDBRANCH   5   6
ENDBRANCH   4   5
ENDBRANCH   3   4
ENDBRANCH   2   3
TORSDOF 14
ENDMDL
MODEL       98
REMARK 921   NORMALIZED FREE ENERGY PREDICTED BY IDOCK:   -4.26 KCAL/MOL
REMARK 922        TOTAL FREE ENERGY PREDICTED BY IDOCK:   -9.59 KCAL/MOL
REMARK 923 INTER-LIGAND FREE ENERGY PREDICTED BY IDOCK:   -7.37 KCAL/MOL
REMARK 924 INTRA-LIGAND FREE ENERGY PREDICTED BY IDOCK:   -2.23 KCAL/MOL
REMARK 927      BINDING AFFINITY PREDICTED BY RF-SCORE:    0.00 PKD
ROOT
HETATM    1  C   UNL     1     -11.202  15.400  64.793  1.00  0.00    -0.404 C  
HETATM    2  C   UNL     1     -11.837  14.507  65.843  1.00  0.00    -0.334 C  
ENDROOT
BRANCH   2   3
HETATM    3  C   UNL     1     -12.580  13.336  65.202  1.00  0.00    -0.512 C  
BRANCH   3   4
HETATM    4  C   UNL     1     -12.142  13.164  63.753  1.00  0.00    -0.563 C  
BRANCH   4   5
HETATM    5  C   UNL     1     -11.607  11.761  63.480  1.00  0.00    -0.487 C  
BRANCH   5   6
HETATM    6  C   UNL     1     -10.219  11.620  64.100  1.00  0.00    -0.372 C  
BRANCH   6   7
HETATM    7  C   UNL     1     -10.165  10.476  65.115  1.00  0.00    -0.288 C  
BRANCH   7   8
HETATM    8  N   UNL     1      -9.941  10.934  66.498  1.00  0.00    -0.204 NA 
BRANCH   8   9
HETATM    9  C   UNL     1     -11.108  10.768  67.384  1.00  0.00    -0.296 C  
HETATM   10  C   UNL     1     -11.296  11.831  68.463  1.00  0.00    -0.328 C  
ENDBRANCH   8   9
BRANCH   8  11
HETATM   11  C   UNL     1      -8.729  10.339  67.090  1.00  0.00    -0.129 C  
BRANCH  11  12
HETATM   12  C   UNL     1      -7.420  10.723  66.382  1.00  0.00    -0.142 C  
BRANCH  12  13
HETATM   13  C   UNL     1      -6.627  11.787  67.149  1.00  0.00    -0.143 C  
BRANCH  13  14
HETATM   14  C   UNL     1      -7.417  12.361  68.333  1.00  0.00    -0.123 C  
HETATM   15  H   UNL     1      -7.235  12.439  70.292  1.00  0.00     0.000 HD 
HETATM   16  O   UNL     1      -6.746  12.083  69.559  1.00  0.00    -0.104 OA 
BRANCH  14  17
HETATM   17  C   UNL     1      -7.637  13.855  68.189  1.00  0.00    -0.134 A  
HETATM   18  C   UNL     1      -7.368  14.705  69.271  1.00  0.00    -0.149 A  
HETATM   19  C   UNL     1      -7.633  16.074  69.187  1.00  0.00    -0.225 A  
HETATM   20  C   UNL     1      -8.175  16.607  68.021  1.00  0.00    -0.185 A  
HETATM   21  C   UNL     1      -8.137  14.420  67.001  1.00  0.00    -0.095 A  
HETATM   22  C   UNL     1      -8.402  15.789  66.916  1.00  0.00    -0.283 A  
BRANCH  20  23
HETATM   23  N   UNL     1      -8.483  17.996  67.969  1.00  0.00    -0.254 N  
HETATM   24  H   UNL     1      -7.745  18.699  67.927  1.00  0.00     0.000 HD 
BRANCH  23  25
HETATM   25  S   UNL     1     -10.111  18.443  67.978  1.00  0.00    -0.387 S  
HETATM   26  C   UNL     1     -10.340  18.964  66.291  1.00  0.00    -0.453 C  
HETATM   27  O   UNL     1     -10.181  19.623  68.812  1.00  0.00    -0.437 OA 
HETATM   28  O   UNL     1     -10.945  17.291  68.241  1.00  0.00    -0.336 OA 
ENDBRANCH  23  25
ENDBRANCH  20  23
ENDBRANCH  14  17
ENDBRANCH  13  14
ENDBRANCH  12  13
ENDBRANCH  11  12
ENDBRANCH   8  11
ENDBRANCH   7   8
ENDBRANCH   6   7
ENDBRANCH   5   6
ENDBRANCH   4   5
ENDBRANCH   3   4
ENDBRANCH   2   3
TORSDOF 14
ENDMDL
MODEL       99
REMARK 921   NORMALIZED FREE ENERGY PREDICTED BY IDOCK:   -4.26 KCAL/MOL
REMARK 922        TOTAL FREE ENERGY PREDICTED BY IDOCK:   -9.59 KCAL/MOL
REMARK 923 INTER-LIGAND FREE ENERGY PREDICTED BY IDOCK:   -8.13 KCAL/MOL
REMARK 924 INTRA-LIGAND FREE ENERGY PREDICTED BY IDOCK:   -1.46 KCAL/MOL
REMARK 927      BINDING AFFINITY PREDICTED BY RF-SCORE:    0.00 PKD
ROOT
HETATM    1  C   UNL     1     -12.437   8.721  72.163  1.00  0.00    -0.460 C  
HETATM    2  C   UNL     1     -11.074   8.130  72.470  1.00  0.00    -0.446 C  
ENDROOT
BRANCH   2   3
HETATM    3  C   UNL     1     -10.813   6.871  71.645  1.00  0.00    -0.252 C  
BRANCH   3   4
HETATM    4  C   UNL     1     -11.894   6.705  70.583  1.00  0.00    -0.443 C  
BRANCH   4   5
HETATM    5  C   UNL     1     -11.314   6.262  69.242  1.00  0.00    -0.411 C  
BRANCH   5   6
HETATM    6  C   UNL     1     -10.166   7.191  68.856  1.00  0.00    -0.188 C  
BRANCH   6   7
HETATM    7  C   UNL     1     -10.279   7.659  67.404  1.00  0.00    -0.251 C  
BRANCH   7   8
HETATM    8  N   UNL     1      -9.785   9.032  67.193  1.00  0.00    -0.169 NA 
BRANCH   8   9
HETATM    9  C   UNL     1      -8.694   9.135  66.207  1.00  0.00    -0.140 C  
HETATM   10  C   UNL     1      -8.743  10.336  65.266  1.00  0.00    -0.186 C  
ENDBRANCH   8   9
BRANCH   8  11
HETATM   11  C   UNL     1     -10.878   9.973  66.885  1.00  0.00    -0.082 C  
BRANCH  11  12
HETATM   12  C   UNL     1     -11.415  10.745  68.100  1.00  0.00    -0.346 C  
BRANCH  12  13
HETATM   13  C   UNL     1     -11.896  12.154  67.735  1.00  0.00    -0.327 C  
BRANCH  13  14
HETATM   14  C   UNL     1     -11.573  12.520  66.279  1.00  0.00    -0.394 C  
HETATM   15  H   UNL     1     -12.575  12.932  64.635  1.00  0.00     0.000 HD 
HETATM   16  O   UNL     1     -12.774  12.706  65.536  1.00  0.00    -0.597 OA 
BRANCH  14  17
HETATM   17  C   UNL     1     -10.712  13.765  66.193  1.00  0.00    -0.283 A  
HETATM   18  C   UNL     1      -9.446  13.779  66.798  1.00  0.00    -0.281 A  
HETATM   19  C   UNL     1      -8.666  14.938  66.797  1.00  0.00    -0.278 A  
HETATM   20  C   UNL     1      -9.146  16.098  66.194  1.00  0.00    -0.347 A  
HETATM   21  C   UNL     1     -11.158  14.932  65.545  1.00  0.00    -0.353 A  
HETATM   22  C   UNL     1     -10.377  16.092  65.543  1.00  0.00    -0.415 A  
BRANCH  20  23
HETATM   23  N   UNL     1      -8.359  17.283  66.243  1.00  0.00    -0.269 N  
HETATM   24  H   UNL     1      -7.570  17.419  65.610  1.00  0.00     0.000 HD 
BRANCH  23  25
HETATM   25  S   UNL     1      -8.773  18.458  67.382  1.00  0.00    -0.263 S  
HETATM   26  C   UNL     1      -9.712  19.596  66.385  1.00  0.00    -0.409 C  
HETATM   27  O   UNL     1      -7.530  19.109  67.733  1.00  0.00    -0.247 OA 
HETATM   28  O   UNL     1      -9.632  17.889  68.398  1.00  0.00    -0.293 OA 
ENDBRANCH  23  25
ENDBRANCH  20  23
ENDBRANCH  14  17
ENDBRANCH  13  14
ENDBRANCH  12  13
ENDBRANCH  11  12
ENDBRANCH   8  11
ENDBRANCH   7   8
ENDBRANCH   6   7
ENDBRANCH   5   6
ENDBRANCH   4   5
ENDBRANCH   3   4
ENDBRANCH   2   3
TORSDOF 14
ENDMDL
MODEL      100
REMARK 921   NORMALIZED FREE ENERGY PREDICTED BY IDOCK:   -4.25 KCAL/MOL
REMARK 922        TOTAL FREE ENERGY PREDICTED BY IDOCK:   -9.59 KCAL/MOL
REMARK 923 INTER-LIGAND FREE ENERGY PREDICTED BY IDOCK:   -8.12 KCAL/MOL
REMARK 924 INTRA-LIGAND FREE ENERGY PREDICTED BY IDOCK:   -1.47 KCAL/MOL
REMARK 927      BINDING AFFINITY PREDICTED BY RF-SCORE:    0.00 PKD
ROOT
HETATM    1  C   UNL     1      -8.738   6.709  74.221  1.00  0.00    -0.171 C  
HETATM    2  C   UNL     1     -10.202   6.314  74.160  1.00  0.00    -0.338 C  
ENDROOT
BRANCH   2   3
HETATM    3  C   UNL     1     -10.981   7.210  73.198  1.00  0.00    -0.344 C  
BRANCH   3   4
HETATM    4  C   UNL     1     -11.568   6.379  72.064  1.00  0.00    -0.368 C  
BRANCH   4   5
HETATM    5  C   UNL     1     -10.484   5.779  71.173  1.00  0.00    -0.301 C  
BRANCH   5   6
HETATM    6  C   UNL     1     -10.830   6.042  69.709  1.00  0.00    -0.433 C  
BRANCH   6   7
HETATM    7  C   UNL     1     -10.673   7.520  69.346  1.00  0.00    -0.193 C  
BRANCH   7   8
HETATM    8  N   UNL     1      -9.455   8.132  69.907  1.00  0.00    -0.160 NA 
BRANCH   8   9
HETATM    9  C   UNL     1      -8.333   8.222  68.955  1.00  0.00    -0.120 C  
HETATM   10  C   UNL     1      -8.545   9.120  67.739  1.00  0.00    -0.121 C  
ENDBRANCH   8   9
BRANCH   8  11
HETATM   11  C   UNL     1      -9.729   9.436  70.538  1.00  0.00    -0.271 C  
BRANCH  11  12
HETATM   12  C   UNL     1     -11.206   9.861  70.507  1.00  0.00    -0.399 C  
BRANCH  12  13
HETATM   13  C   UNL     1     -11.394  11.295  70.000  1.00  0.00    -0.292 C  
BRANCH  13  14
HETATM   14  C   UNL     1     -10.887  11.475  68.562  1.00  0.00    -0.215 C  
HETATM   15  H   UNL     1     -11.388  10.850  66.763  1.00  0.00     0.000 HD 
HETATM   16  O   UNL     1     -11.701  10.739  67.653  1.00  0.00    -0.538 OA 
BRANCH  14  17
HETATM   17  C   UNL     1     -10.851  12.937  68.159  1.00  0.00    -0.257 A  
HETATM   18  C   UNL     1     -10.052  13.837  68.879  1.00  0.00    -0.075 A  
HETATM   19  C   UNL     1     -10.060  15.201  68.575  1.00  0.00    -0.228 A  
HETATM   20  C   UNL     1     -10.872  15.679  67.550  1.00  0.00    -0.316 A  
HETATM   21  C   UNL     1     -11.626  13.432  67.094  1.00  0.00    -0.399 A  
HETATM   22  C   UNL     1     -11.634  14.796  66.789  1.00  0.00    -0.333 A  
BRANCH  20  23
HETATM   23  N   UNL     1     -10.904  17.078  67.284  1.00  0.00    -0.196 N  
HETATM   24  H   UNL     1     -11.409  17.719  67.897  1.00  0.00     0.000 HD 
BRANCH  23  25
HETATM   25  S   UNL     1     -10.081  17.641  65.923  1.00  0.00    -0.106 S  
HETATM   26  C   UNL     1     -10.077  19.397  66.219  1.00  0.00    -0.456 C  
HETATM   27  O   UNL     1     -10.966  17.390  64.807  1.00  0.00    -0.964 OA 
HETATM   28  O   UNL     1      -8.720  17.152  65.923  1.00  0.00    -0.526 OA 
ENDBRANCH  23  25
ENDBRANCH  20  23
ENDBRANCH  14  17
ENDBRANCH  13  14
ENDBRANCH  12  13
ENDBRANCH  11  12
ENDBRANCH   8  11
ENDBRANCH   7   8
ENDBRANCH   6   7
ENDBRANCH   5   6
ENDBRANCH   4   5
ENDBRANCH   3   4
ENDBRANCH   2   3
TORSDOF 14
ENDMDL
MODEL      101
REMARK 921   NORMALIZED FREE ENERGY PREDICTED BY IDOCK:   -4.22 KCAL/MOL
REMARK 922        TOTAL FREE ENERGY PREDICTED BY IDOCK:   -9.53 KCAL/MOL
REMARK 923 INTER-LIGAND FREE ENERGY PREDICTED BY IDOCK:   -8.26 KCAL/MOL
REMARK 924 INTRA-LIGAND FREE ENERGY PREDICTED BY IDOCK:   -1.28 KCAL/MOL
REMARK 927      BINDING AFFINITY PREDICTED BY RF-SCORE:    0.00 PKD
ROOT
HETATM    1  C   UNL     1     -11.273  15.231  64.555  1.00  0.00    -0.291 C  
HETATM    2  C   UNL     1     -10.121  14.668  65.368  1.00  0.00    -0.403 C  
ENDROOT
BRANCH   2   3
HETATM    3  C   UNL     1      -9.309  15.781  66.028  1.00  0.00    -0.384 C  
BRANCH   3   4
HETATM    4  C   UNL     1     -10.187  17.003  66.266  1.00  0.00    -0.336 C  
BRANCH   4   5
HETATM    5  C   UNL     1     -10.261  17.375  67.745  1.00  0.00    -0.345 C  
BRANCH   5   6
HETATM    6  C   UNL     1     -11.258  16.456  68.448  1.00  0.00    -0.324 C  
BRANCH   6   7
HETATM    7  C   UNL     1     -10.753  16.019  69.825  1.00  0.00    -0.331 C  
BRANCH   7   8
HETATM    8  N   UNL     1     -11.676  15.104  70.521  1.00  0.00    -0.278 NA 
BRANCH   8   9
HETATM    9  C   UNL     1     -12.658  15.782  71.386  1.00  0.00    -0.455 C  
HETATM   10  C   UNL     1     -13.983  15.056  71.606  1.00  0.00    -0.594 C  
ENDBRANCH   8   9
BRANCH   8  11
HETATM   11  C   UNL     1     -12.334  14.168  69.592  1.00  0.00    -0.256 C  
BRANCH  11  12
HETATM   12  C   UNL     1     -11.492  12.935  69.227  1.00  0.00    -0.341 C  
BRANCH  12  13
HETATM   13  C   UNL     1     -12.210  11.619  69.544  1.00  0.00    -0.257 C  
BRANCH  13  14
HETATM   14  C   UNL     1     -12.037  11.200  71.010  1.00  0.00    -0.275 C  
HETATM   15  H   UNL     1     -13.112  11.228  72.660  1.00  0.00     0.000 HD 
HETATM   16  O   UNL     1     -13.219  11.487  71.752  1.00  0.00    -0.457 OA 
BRANCH  14  17
HETATM   17  C   UNL     1     -11.691   9.728  71.135  1.00  0.00    -0.465 A  
HETATM   18  C   UNL     1     -10.509   9.239  70.560  1.00  0.00    -0.312 A  
HETATM   19  C   UNL     1     -10.206   7.876  70.596  1.00  0.00    -0.199 A  
HETATM   20  C   UNL     1     -11.085   6.985  71.205  1.00  0.00    -0.252 A  
HETATM   21  C   UNL     1     -12.543   8.818  71.789  1.00  0.00    -0.409 A  
HETATM   22  C   UNL     1     -12.240   7.455  71.827  1.00  0.00    -0.359 A  
BRANCH  20  23
HETATM   23  N   UNL     1     -10.785   5.594  71.192  1.00  0.00    -0.254 N  
HETATM   24  H   UNL     1     -10.808   5.058  70.324  1.00  0.00     0.000 HD 
BRANCH  23  25
HETATM   25  S   UNL     1     -10.391   4.858  72.659  1.00  0.00    -0.204 S  
HETATM   26  C   UNL     1      -9.461   3.445  72.102  1.00  0.00    -0.128 C  
HETATM   27  O   UNL     1     -11.643   4.371  73.194  1.00  0.00    -0.210 OA 
HETATM   28  O   UNL     1      -9.530   5.722  73.436  1.00  0.00    -0.139 OA 
ENDBRANCH  23  25
ENDBRANCH  20  23
ENDBRANCH  14  17
ENDBRANCH  13  14
ENDBRANCH  12  13
ENDBRANCH  11  12
ENDBRANCH   8  11
ENDBRANCH   7   8
ENDBRANCH   6   7
ENDBRANCH   5   6
ENDBRANCH   4   5
ENDBRANCH   3   4
ENDBRANCH   2   3
TORSDOF 14
ENDMDL
MODEL      102
REMARK 921   NORMALIZED FREE ENERGY PREDICTED BY IDOCK:   -4.22 KCAL/MOL
REMARK 922        TOTAL FREE ENERGY PREDICTED BY IDOCK:   -9.53 KCAL/MOL
REMARK 923 INTER-LIGAND FREE ENERGY PREDICTED BY IDOCK:   -8.43 KCAL/MOL
REMARK 924 INTRA-LIGAND FREE ENERGY PREDICTED BY IDOCK:   -1.10 KCAL/MOL
REMARK 927      BINDING AFFINITY PREDICTED BY RF-SCORE:    0.00 PKD
ROOT
HETATM    1  C   UNL     1     -10.178  19.801  65.821  1.00  0.00    -0.478 C  
HETATM    2  C   UNL     1      -9.402  20.146  67.079  1.00  0.00    -0.523 C  
ENDROOT
BRANCH   2   3
HETATM    3  C   UNL     1      -9.853  19.293  68.263  1.00  0.00    -0.482 C  
BRANCH   3   4
HETATM    4  C   UNL     1      -9.315  17.874  68.125  1.00  0.00    -0.286 C  
BRANCH   4   5
HETATM    5  C   UNL     1     -10.400  16.826  68.360  1.00  0.00    -0.319 C  
BRANCH   5   6
HETATM    6  C   UNL     1     -10.155  16.137  69.700  1.00  0.00    -0.212 C  
BRANCH   6   7
HETATM    7  C   UNL     1     -11.363  16.262  70.631  1.00  0.00    -0.297 C  
BRANCH   7   8
HETATM    8  N   UNL     1     -11.764  14.982  71.241  1.00  0.00    -0.330 NA 
BRANCH   8   9
HETATM    9  C   UNL     1     -12.358  15.114  72.584  1.00  0.00    -0.378 C  
HETATM   10  C   UNL     1     -13.826  15.531  72.638  1.00  0.00    -0.654 C  
ENDBRANCH   8   9
BRANCH   8  11
HETATM   11  C   UNL     1     -12.627  14.188  70.348  1.00  0.00    -0.332 C  
BRANCH  11  12
HETATM   12  C   UNL     1     -12.062  12.810  69.974  1.00  0.00    -0.355 C  
BRANCH  12  13
HETATM   13  C   UNL     1     -11.129  12.867  68.759  1.00  0.00    -0.305 C  
BRANCH  13  14
HETATM   14  C   UNL     1     -11.849  12.498  67.454  1.00  0.00    -0.312 C  
HETATM   15  H   UNL     1     -12.659  13.445  65.930  1.00  0.00     0.000 HD 
HETATM   16  O   UNL     1     -12.213  13.674  66.737  1.00  0.00    -0.406 OA 
BRANCH  14  17
HETATM   17  C   UNL     1     -10.995  11.600  66.578  1.00  0.00    -0.349 A  
HETATM   18  C   UNL     1     -10.711  11.983  65.259  1.00  0.00    -0.331 A  
HETATM   19  C   UNL     1      -9.990  11.139  64.410  1.00  0.00    -0.354 A  
HETATM   20  C   UNL     1      -9.549   9.901  64.870  1.00  0.00    -0.288 A  
HETATM   21  C   UNL     1     -10.498  10.367  67.040  1.00  0.00    -0.309 A  
HETATM   22  C   UNL     1      -9.776   9.524  66.192  1.00  0.00    -0.324 A  
BRANCH  20  23
HETATM   23  N   UNL     1      -8.858   9.034  63.978  1.00  0.00    -0.425 N  
HETATM   24  H   UNL     1      -9.336   8.255  63.524  1.00  0.00     0.000 HD 
BRANCH  23  25
HETATM   25  S   UNL     1      -7.221   9.335  63.696  1.00  0.00    -0.096 S  
HETATM   26  C   UNL     1      -6.756   7.889  62.766  1.00  0.00    -0.084 C  
HETATM   27  O   UNL     1      -6.584   9.244  64.991  1.00  0.00    -0.074 OA 
HETATM   28  O   UNL     1      -7.065  10.508  62.865  1.00  0.00    -0.126 OA 
ENDBRANCH  23  25
ENDBRANCH  20  23
ENDBRANCH  14  17
ENDBRANCH  13  14
ENDBRANCH  12  13
ENDBRANCH  11  12
ENDBRANCH   8  11
ENDBRANCH   7   8
ENDBRANCH   6   7
ENDBRANCH   5   6
ENDBRANCH   4   5
ENDBRANCH   3   4
ENDBRANCH   2   3
TORSDOF 14
ENDMDL
MODEL      103
REMARK 921   NORMALIZED FREE ENERGY PREDICTED BY IDOCK:   -4.22 KCAL/MOL
REMARK 922        TOTAL FREE ENERGY PREDICTED BY IDOCK:   -9.53 KCAL/MOL
REMARK 923 INTER-LIGAND FREE ENERGY PREDICTED BY IDOCK:   -8.17 KCAL/MOL
REMARK 924 INTRA-LIGAND FREE ENERGY PREDICTED BY IDOCK:   -1.35 KCAL/MOL
REMARK 927      BINDING AFFINITY PREDICTED BY RF-SCORE:    0.00 PKD
ROOT
HETATM    1  C   UNL     1     -12.440  13.234  70.813  1.00  0.00    -0.403 C  
HETATM    2  C   UNL     1     -11.786  12.345  69.771  1.00  0.00    -0.361 C  
ENDROOT
BRANCH   2   3
HETATM    3  C   UNL     1     -11.769  10.884  70.217  1.00  0.00    -0.437 C  
BRANCH   3   4
HETATM    4  C   UNL     1     -12.618  10.706  71.470  1.00  0.00    -0.517 C  
BRANCH   4   5
HETATM    5  C   UNL     1     -12.567   9.275  71.997  1.00  0.00    -0.465 C  
BRANCH   5   6
HETATM    6  C   UNL     1     -11.891   8.379  70.962  1.00  0.00    -0.278 C  
BRANCH   6   7
HETATM    7  C   UNL     1     -11.905   6.909  71.389  1.00  0.00    -0.330 C  
BRANCH   7   8
HETATM    8  N   UNL     1     -10.645   6.204  71.092  1.00  0.00    -0.236 NA 
BRANCH   8   9
HETATM    9  C   UNL     1     -10.254   5.213  72.110  1.00  0.00    -0.202 C  
HETATM   10  C   UNL     1     -10.077   3.777  71.625  1.00  0.00    -0.149 C  
ENDBRANCH   8   9
BRANCH   8  11
HETATM   11  C   UNL     1     -10.645   5.615  69.741  1.00  0.00    -0.329 C  
BRANCH  11  12
HETATM   12  C   UNL     1      -9.527   6.130  68.820  1.00  0.00    -0.128 C  
BRANCH  12  13
HETATM   13  C   UNL     1     -10.012   7.226  67.864  1.00  0.00    -0.192 C  
BRANCH  13  14
HETATM   14  C   UNL     1      -8.927   7.648  66.864  1.00  0.00    -0.138 C  
HETATM   15  H   UNL     1      -8.098   6.917  65.234  1.00  0.00     0.000 HD 
HETATM   16  O   UNL     1      -8.770   6.656  65.854  1.00  0.00    -0.150 OA 
BRANCH  14  17
HETATM   17  C   UNL     1      -9.241   8.990  66.230  1.00  0.00    -0.258 A  
HETATM   18  C   UNL     1      -9.512  10.099  67.045  1.00  0.00    -0.197 A  
HETATM   19  C   UNL     1      -9.877  11.325  66.486  1.00  0.00    -0.239 A  
HETATM   20  C   UNL     1      -9.980  11.455  65.103  1.00  0.00    -0.264 A  
HETATM   21  C   UNL     1      -9.301   9.154  64.833  1.00  0.00    -0.050 A  
HETATM   22  C   UNL     1      -9.666  10.382  64.273  1.00  0.00    -0.389 A  
BRANCH  20  23
HETATM   23  N   UNL     1     -10.400  12.698  64.551  1.00  0.00    -0.378 N  
HETATM   24  H   UNL     1      -9.720  13.390  64.233  1.00  0.00     0.000 HD 
BRANCH  23  25
HETATM   25  S   UNL     1     -12.058  12.992  64.439  1.00  0.00    -0.428 S  
HETATM   26  C   UNL     1     -12.104  14.770  64.507  1.00  0.00    -0.446 C  
HETATM   27  O   UNL     1     -12.621  12.494  65.675  1.00  0.00    -0.612 OA 
HETATM   28  O   UNL     1     -12.559  12.548  63.157  1.00  0.00    -0.598 OA 
ENDBRANCH  23  25
ENDBRANCH  20  23
ENDBRANCH  14  17
ENDBRANCH  13  14
ENDBRANCH  12  13
ENDBRANCH  11  12
ENDBRANCH   8  11
ENDBRANCH   7   8
ENDBRANCH   6   7
ENDBRANCH   5   6
ENDBRANCH   4   5
ENDBRANCH   3   4
ENDBRANCH   2   3
TORSDOF 14
ENDMDL
MODEL      104
REMARK 921   NORMALIZED FREE ENERGY PREDICTED BY IDOCK:   -4.21 KCAL/MOL
REMARK 922        TOTAL FREE ENERGY PREDICTED BY IDOCK:   -9.51 KCAL/MOL
REMARK 923 INTER-LIGAND FREE ENERGY PREDICTED BY IDOCK:   -8.16 KCAL/MOL
REMARK 924 INTRA-LIGAND FREE ENERGY PREDICTED BY IDOCK:   -1.34 KCAL/MOL
REMARK 927      BINDING AFFINITY PREDICTED BY RF-SCORE:    0.00 PKD
ROOT
HETATM    1  C   UNL     1     -12.352  12.195  63.537  1.00  0.00    -0.682 C  
HETATM    2  C   UNL     1     -12.360  12.681  64.975  1.00  0.00    -0.561 C  
ENDROOT
BRANCH   2   3
HETATM    3  C   UNL     1     -12.169  14.195  65.052  1.00  0.00    -0.450 C  
BRANCH   3   4
HETATM    4  C   UNL     1     -10.685  14.535  65.124  1.00  0.00    -0.422 C  
BRANCH   4   5
HETATM    5  C   UNL     1     -10.451  16.009  65.444  1.00  0.00    -0.415 C  
BRANCH   5   6
HETATM    6  C   UNL     1      -9.750  16.127  66.795  1.00  0.00    -0.255 C  
BRANCH   6   7
HETATM    7  C   UNL     1     -10.702  16.621  67.887  1.00  0.00    -0.344 C  
BRANCH   7   8
HETATM    8  N   UNL     1     -10.808  15.696  69.030  1.00  0.00    -0.239 NA 
BRANCH   8   9
HETATM    9  C   UNL     1     -11.128  16.353  70.310  1.00  0.00    -0.256 C  
HETATM   10  C   UNL     1     -12.401  15.887  71.011  1.00  0.00    -0.404 C  
ENDBRANCH   8   9
BRANCH   8  11
HETATM   11  C   UNL     1     -11.728  14.578  68.756  1.00  0.00    -0.327 C  
BRANCH  11  12
HETATM   12  C   UNL     1     -11.050  13.203  68.654  1.00  0.00    -0.304 C  
BRANCH  12  13
HETATM   13  C   UNL     1     -11.711  12.154  69.556  1.00  0.00    -0.402 C  
BRANCH  13  14
HETATM   14  C   UNL     1     -11.757  10.768  68.899  1.00  0.00    -0.267 C  
HETATM   15  H   UNL     1     -11.202   9.956  67.192  1.00  0.00     0.000 HD 
HETATM   16  O   UNL     1     -11.174  10.814  67.599  1.00  0.00    -0.303 OA 
BRANCH  14  17
HETATM   17  C   UNL     1     -11.055   9.723  69.745  1.00  0.00    -0.272 A  
HETATM   18  C   UNL     1     -11.222   9.729  71.138  1.00  0.00    -0.444 A  
HETATM   19  C   UNL     1     -10.528   8.825  71.945  1.00  0.00    -0.423 A  
HETATM   20  C   UNL     1      -9.654   7.907  71.368  1.00  0.00    -0.153 A  
HETATM   21  C   UNL     1     -10.206   8.755  69.177  1.00  0.00    -0.215 A  
HETATM   22  C   UNL     1      -9.512   7.850  69.984  1.00  0.00    -0.157 A  
BRANCH  20  23
HETATM   23  N   UNL     1      -8.918   7.025  72.209  1.00  0.00    -0.133 N  
HETATM   24  H   UNL     1      -8.067   7.333  72.679  1.00  0.00     0.000 HD 
BRANCH  23  25
HETATM   25  S   UNL     1      -9.499   5.452  72.402  1.00  0.00    -0.143 S  
HETATM   26  C   UNL     1     -10.377   5.591  73.944  1.00  0.00    -0.261 C  
HETATM   27  O   UNL     1      -8.328   4.636  72.639  1.00  0.00    -0.111 OA 
HETATM   28  O   UNL     1     -10.433   5.130  71.346  1.00  0.00    -0.218 OA 
ENDBRANCH  23  25
ENDBRANCH  20  23
ENDBRANCH  14  17
ENDBRANCH  13  14
ENDBRANCH  12  13
ENDBRANCH  11  12
ENDBRANCH   8  11
ENDBRANCH   7   8
ENDBRANCH   6   7
ENDBRANCH   5   6
ENDBRANCH   4   5
ENDBRANCH   3   4
ENDBRANCH   2   3
TORSDOF 14
ENDMDL
MODEL      105
REMARK 921   NORMALIZED FREE ENERGY PREDICTED BY IDOCK:   -4.21 KCAL/MOL
REMARK 922        TOTAL FREE ENERGY PREDICTED BY IDOCK:   -9.50 KCAL/MOL
REMARK 923 INTER-LIGAND FREE ENERGY PREDICTED BY IDOCK:   -8.16 KCAL/MOL
REMARK 924 INTRA-LIGAND FREE ENERGY PREDICTED BY IDOCK:   -1.34 KCAL/MOL
REMARK 927      BINDING AFFINITY PREDICTED BY RF-SCORE:    0.00 PKD
ROOT
HETATM    1  C   UNL     1     -12.655  10.455  70.927  1.00  0.00    -0.478 C  
HETATM    2  C   UNL     1     -13.471   9.676  71.941  1.00  0.00    -0.496 C  
ENDROOT
BRANCH   2   3
HETATM    3  C   UNL     1     -13.335   8.170  71.727  1.00  0.00    -0.370 C  
BRANCH   3   4
HETATM    4  C   UNL     1     -11.987   7.684  72.246  1.00  0.00    -0.329 C  
BRANCH   4   5
HETATM    5  C   UNL     1     -11.496   6.450  71.494  1.00  0.00    -0.360 C  
BRANCH   5   6
HETATM    6  C   UNL     1     -10.932   6.873  70.140  1.00  0.00    -0.322 C  
BRANCH   6   7
HETATM    7  C   UNL     1     -10.381   5.680  69.357  1.00  0.00    -0.273 C  
BRANCH   7   8
HETATM    8  N   UNL     1      -9.428   6.065  68.300  1.00  0.00    -0.115 NA 
BRANCH   8   9
HETATM    9  C   UNL     1      -8.680   4.935  67.722  1.00  0.00    -0.103 C  
HETATM   10  C   UNL     1      -9.314   3.554  67.873  1.00  0.00    -0.238 C  
ENDBRANCH   8   9
BRANCH   8  11
HETATM   11  C   UNL     1     -10.064   6.882  67.251  1.00  0.00    -0.198 C  
BRANCH  11  12
HETATM   12  C   UNL     1      -9.224   8.078  66.777  1.00  0.00    -0.206 C  
BRANCH  12  13
HETATM   13  C   UNL     1     -10.088   9.278  66.372  1.00  0.00    -0.337 C  
BRANCH  13  14
HETATM   14  C   UNL     1     -10.746   9.957  67.581  1.00  0.00    -0.281 C  
HETATM   15  H   UNL     1     -10.288  10.324  69.460  1.00  0.00     0.000 HD 
HETATM   16  O   UNL     1      -9.881   9.904  68.712  1.00  0.00    -0.161 OA 
BRANCH  14  17
HETATM   17  C   UNL     1     -11.120  11.396  67.280  1.00  0.00    -0.363 A  
HETATM   18  C   UNL     1     -11.473  11.765  65.973  1.00  0.00    -0.281 A  
HETATM   19  C   UNL     1     -11.748  13.097  65.656  1.00  0.00    -0.402 A  
HETATM   20  C   UNL     1     -11.669  14.077  66.643  1.00  0.00    -0.399 A  
HETATM   21  C   UNL     1     -11.093  12.393  68.273  1.00  0.00    -0.283 A  
HETATM   22  C   UNL     1     -11.370  13.725  67.957  1.00  0.00    -0.318 A  
BRANCH  20  23
HETATM   23  N   UNL     1     -11.905  15.436  66.293  1.00  0.00     0.200 N  
HETATM   24  H   UNL     1     -12.816  15.869  66.448  1.00  0.00     0.000 HD 
BRANCH  23  25
HETATM   25  S   UNL     1     -10.630  16.309  65.613  1.00  0.00    -0.296 S  
HETATM   26  C   UNL     1     -10.399  17.591  66.827  1.00  0.00    -0.314 C  
HETATM   27  O   UNL     1     -11.177  16.928  64.426  1.00  0.00    -1.159 OA 
HETATM   28  O   UNL     1      -9.440  15.489  65.550  1.00  0.00    -0.279 OA 
ENDBRANCH  23  25
ENDBRANCH  20  23
ENDBRANCH  14  17
ENDBRANCH  13  14
ENDBRANCH  12  13
ENDBRANCH  11  12
ENDBRANCH   8  11
ENDBRANCH   7   8
ENDBRANCH   6   7
ENDBRANCH   5   6
ENDBRANCH   4   5
ENDBRANCH   3   4
ENDBRANCH   2   3
TORSDOF 14
ENDMDL
MODEL      106
REMARK 921   NORMALIZED FREE ENERGY PREDICTED BY IDOCK:   -4.20 KCAL/MOL
REMARK 922        TOTAL FREE ENERGY PREDICTED BY IDOCK:   -9.50 KCAL/MOL
REMARK 923 INTER-LIGAND FREE ENERGY PREDICTED BY IDOCK:   -7.25 KCAL/MOL
REMARK 924 INTRA-LIGAND FREE ENERGY PREDICTED BY IDOCK:   -2.25 KCAL/MOL
REMARK 927      BINDING AFFINITY PREDICTED BY RF-SCORE:    0.00 PKD
ROOT
HETATM    1  C   UNL     1      -6.107  10.825  70.365  1.00  0.00    -0.135 C  
HETATM    2  C   UNL     1      -6.913  11.332  69.183  1.00  0.00    -0.114 C  
ENDROOT
BRANCH   2   3
HETATM    3  C   UNL     1      -6.642  10.504  67.928  1.00  0.00    -0.061 C  
BRANCH   3   4
HETATM    4  C   UNL     1      -7.721   9.443  67.754  1.00  0.00    -0.088 C  
BRANCH   4   5
HETATM    5  C   UNL     1      -7.259   8.071  68.239  1.00  0.00    -0.093 C  
BRANCH   5   6
HETATM    6  C   UNL     1      -8.032   7.695  69.501  1.00  0.00    -0.125 C  
BRANCH   6   7
HETATM    7  C   UNL     1      -8.754   6.354  69.344  1.00  0.00    -0.129 C  
BRANCH   7   8
HETATM    8  N   UNL     1     -10.221   6.484  69.299  1.00  0.00    -0.177 NA 
BRANCH   8   9
HETATM    9  C   UNL     1     -10.802   6.289  67.958  1.00  0.00    -0.326 C  
HETATM   10  C   UNL     1     -10.828   7.512  67.046  1.00  0.00    -0.264 C  
ENDBRANCH   8   9
BRANCH   8  11
HETATM   11  C   UNL     1     -10.885   5.632  70.301  1.00  0.00    -0.266 C  
BRANCH  11  12
HETATM   12  C   UNL     1     -11.298   6.364  71.588  1.00  0.00    -0.339 C  
BRANCH  12  13
HETATM   13  C   UNL     1     -12.182   7.585  71.311  1.00  0.00    -0.357 C  
BRANCH  13  14
HETATM   14  C   UNL     1     -11.635   8.860  71.968  1.00  0.00    -0.364 C  
HETATM   15  H   UNL     1      -9.969   9.435  72.846  1.00  0.00     0.000 HD 
HETATM   16  O   UNL     1     -10.307   8.646  72.439  1.00  0.00    -0.319 OA 
BRANCH  14  17
HETATM   17  C   UNL     1     -11.662  10.039  71.013  1.00  0.00    -0.479 A  
HETATM   18  C   UNL     1     -10.738  10.102  69.960  1.00  0.00    -0.356 A  
HETATM   19  C   UNL     1     -10.694  11.212  69.113  1.00  0.00    -0.262 A  
HETATM   20  C   UNL     1     -11.573  12.274  69.313  1.00  0.00    -0.324 A  
HETATM   21  C   UNL     1     -12.575  11.098  71.168  1.00  0.00    -0.513 A  
HETATM   22  C   UNL     1     -12.533  12.209  70.320  1.00  0.00    -0.164 A  
BRANCH  20  23
HETATM   23  N   UNL     1     -11.484  13.418  68.471  1.00  0.00    -0.287 N  
HETATM   24  H   UNL     1     -11.290  14.342  68.857  1.00  0.00     0.000 HD 
BRANCH  23  25
HETATM   25  S   UNL     1     -11.709  13.197  66.813  1.00  0.00    -0.395 S  
HETATM   26  C   UNL     1     -10.050  13.412  66.203  1.00  0.00    -0.302 C  
HETATM   27  O   UNL     1     -12.486  14.336  66.375  1.00  0.00    -0.441 OA 
HETATM   28  O   UNL     1     -12.147  11.845  66.544  1.00  0.00    -0.568 OA 
ENDBRANCH  23  25
ENDBRANCH  20  23
ENDBRANCH  14  17
ENDBRANCH  13  14
ENDBRANCH  12  13
ENDBRANCH  11  12
ENDBRANCH   8  11
ENDBRANCH   7   8
ENDBRANCH   6   7
ENDBRANCH   5   6
ENDBRANCH   4   5
ENDBRANCH   3   4
ENDBRANCH   2   3
TORSDOF 14
ENDMDL
MODEL      107
REMARK 921   NORMALIZED FREE ENERGY PREDICTED BY IDOCK:   -4.20 KCAL/MOL
REMARK 922        TOTAL FREE ENERGY PREDICTED BY IDOCK:   -9.49 KCAL/MOL
REMARK 923 INTER-LIGAND FREE ENERGY PREDICTED BY IDOCK:   -7.09 KCAL/MOL
REMARK 924 INTRA-LIGAND FREE ENERGY PREDICTED BY IDOCK:   -2.40 KCAL/MOL
REMARK 927      BINDING AFFINITY PREDICTED BY RF-SCORE:    0.00 PKD
ROOT
HETATM    1  C   UNL     1     -12.251  14.592  64.509  1.00  0.00    -0.483 C  
HETATM    2  C   UNL     1     -12.014  13.461  63.525  1.00  0.00    -0.467 C  
ENDROOT
BRANCH   2   3
HETATM    3  C   UNL     1     -12.250  12.099  64.175  1.00  0.00    -0.509 C  
BRANCH   3   4
HETATM    4  C   UNL     1     -11.403  11.962  65.433  1.00  0.00    -0.334 C  
BRANCH   4   5
HETATM    5  C   UNL     1      -9.958  11.587  65.112  1.00  0.00    -0.304 C  
BRANCH   5   6
HETATM    6  C   UNL     1      -9.897  10.117  64.703  1.00  0.00    -0.361 C  
BRANCH   6   7
HETATM    7  C   UNL     1      -9.354   9.237  65.831  1.00  0.00    -0.236 C  
BRANCH   7   8
HETATM    8  N   UNL     1     -10.411   8.542  66.589  1.00  0.00    -0.284 NA 
BRANCH   8   9
HETATM    9  C   UNL     1     -10.225   7.083  66.684  1.00  0.00    -0.148 C  
HETATM   10  C   UNL     1      -8.785   6.580  66.653  1.00  0.00    -0.128 C  
ENDBRANCH   8   9
BRANCH   8  11
HETATM   11  C   UNL     1     -10.627   9.144  67.917  1.00  0.00    -0.214 C  
BRANCH  11  12
HETATM   12  C   UNL     1      -9.360   9.718  68.571  1.00  0.00    -0.142 C  
BRANCH  12  13
HETATM   13  C   UNL     1      -9.512  11.197  68.947  1.00  0.00    -0.136 C  
BRANCH  13  14
HETATM   14  C   UNL     1      -8.282  12.026  68.555  1.00  0.00    -0.113 C  
HETATM   15  H   UNL     1      -6.736  11.841  67.349  1.00  0.00     0.000 HD 
HETATM   16  O   UNL     1      -7.498  11.327  67.592  1.00  0.00    -0.094 OA 
BRANCH  14  17
HETATM   17  C   UNL     1      -8.674  13.388  68.014  1.00  0.00    -0.178 A  
HETATM   18  C   UNL     1      -9.986  13.855  68.188  1.00  0.00    -0.240 A  
HETATM   19  C   UNL     1     -10.391  15.071  67.635  1.00  0.00    -0.243 A  
HETATM   20  C   UNL     1      -9.490  15.834  66.896  1.00  0.00    -0.228 A  
HETATM   21  C   UNL     1      -7.764  14.196  67.307  1.00  0.00    -0.132 A  
HETATM   22  C   UNL     1      -8.169  15.414  66.754  1.00  0.00    -0.252 A  
BRANCH  20  23
HETATM   23  N   UNL     1      -9.932  17.048  66.299  1.00  0.00    -0.301 N  
HETATM   24  H   UNL     1     -10.623  17.045  65.549  1.00  0.00     0.000 HD 
BRANCH  23  25
HETATM   25  S   UNL     1      -9.275  18.494  66.871  1.00  0.00    -0.299 S  
HETATM   26  C   UNL     1     -10.610  19.630  66.562  1.00  0.00    -0.482 C  
HETATM   27  O   UNL     1      -8.204  18.819  65.955  1.00  0.00    -0.488 OA 
HETATM   28  O   UNL     1      -9.040  18.407  68.296  1.00  0.00    -0.295 OA 
ENDBRANCH  23  25
ENDBRANCH  20  23
ENDBRANCH  14  17
ENDBRANCH  13  14
ENDBRANCH  12  13
ENDBRANCH  11  12
ENDBRANCH   8  11
ENDBRANCH   7   8
ENDBRANCH   6   7
ENDBRANCH   5   6
ENDBRANCH   4   5
ENDBRANCH   3   4
ENDBRANCH   2   3
TORSDOF 14
ENDMDL
MODEL      108
REMARK 921   NORMALIZED FREE ENERGY PREDICTED BY IDOCK:   -4.18 KCAL/MOL
REMARK 922        TOTAL FREE ENERGY PREDICTED BY IDOCK:   -9.46 KCAL/MOL
REMARK 923 INTER-LIGAND FREE ENERGY PREDICTED BY IDOCK:   -8.67 KCAL/MOL
REMARK 924 INTRA-LIGAND FREE ENERGY PREDICTED BY IDOCK:   -0.79 KCAL/MOL
REMARK 927      BINDING AFFINITY PREDICTED BY RF-SCORE:    0.00 PKD
ROOT
HETATM    1  C   UNL     1      -9.540  19.855  66.097  1.00  0.00    -0.492 C  
HETATM    2  C   UNL     1      -9.839  20.585  67.393  1.00  0.00    -0.574 C  
ENDROOT
BRANCH   2   3
HETATM    3  C   UNL     1     -10.526  19.668  68.403  1.00  0.00    -0.401 C  
BRANCH   3   4
HETATM    4  C   UNL     1      -9.817  18.320  68.459  1.00  0.00    -0.400 C  
BRANCH   4   5
HETATM    5  C   UNL     1     -10.803  17.155  68.487  1.00  0.00    -0.281 C  
BRANCH   5   6
HETATM    6  C   UNL     1     -10.353  16.138  69.533  1.00  0.00    -0.282 C  
BRANCH   6   7
HETATM    7  C   UNL     1     -11.358  16.022  70.680  1.00  0.00    -0.399 C  
BRANCH   7   8
HETATM    8  N   UNL     1     -11.762  14.632  70.964  1.00  0.00    -0.303 NA 
BRANCH   8   9
HETATM    9  C   UNL     1     -12.835  14.509  71.967  1.00  0.00    -0.337 C  
HETATM   10  C   UNL     1     -14.215  15.008  71.548  1.00  0.00    -0.633 C  
ENDBRANCH   8   9
BRANCH   8  11
HETATM   11  C   UNL     1     -12.088  13.888  69.734  1.00  0.00    -0.345 C  
BRANCH  11  12
HETATM   12  C   UNL     1     -11.412  12.512  69.623  1.00  0.00    -0.255 C  
BRANCH  12  13
HETATM   13  C   UNL     1     -12.384  11.357  69.888  1.00  0.00    -0.280 C  
BRANCH  13  14
HETATM   14  C   UNL     1     -12.288  10.833  71.328  1.00  0.00    -0.365 C  
HETATM   15  H   UNL     1     -13.467  10.695  72.899  1.00  0.00     0.000 HD 
HETATM   16  O   UNL     1     -13.526  11.019  72.007  1.00  0.00    -0.378 OA 
BRANCH  14  17
HETATM   17  C   UNL     1     -11.889   9.370  71.366  1.00  0.00    -0.447 A  
HETATM   18  C   UNL     1     -10.562   9.004  71.098  1.00  0.00    -0.361 A  
HETATM   19  C   UNL     1     -10.187   7.659  71.054  1.00  0.00    -0.200 A  
HETATM   20  C   UNL     1     -11.137   6.665  71.273  1.00  0.00    -0.267 A  
HETATM   21  C   UNL     1     -12.824   8.353  71.634  1.00  0.00    -0.355 A  
HETATM   22  C   UNL     1     -12.449   7.008  71.590  1.00  0.00    -0.413 A  
BRANCH  20  23
HETATM   23  N   UNL     1     -10.749   5.299  71.177  1.00  0.00    -0.171 N  
HETATM   24  H   UNL     1     -10.930   4.758  70.331  1.00  0.00     0.000 HD 
BRANCH  23  25
HETATM   25  S   UNL     1      -9.978   4.602  72.507  1.00  0.00    -0.174 S  
HETATM   26  C   UNL     1     -10.626   5.588  73.841  1.00  0.00    -0.270 C  
HETATM   27  O   UNL     1      -8.578   4.936  72.359  1.00  0.00    -0.121 OA 
HETATM   28  O   UNL     1     -10.407   3.231  72.673  1.00  0.00    -0.164 OA 
ENDBRANCH  23  25
ENDBRANCH  20  23
ENDBRANCH  14  17
ENDBRANCH  13  14
ENDBRANCH  12  13
ENDBRANCH  11  12
ENDBRANCH   8  11
ENDBRANCH   7   8
ENDBRANCH   6   7
ENDBRANCH   5   6
ENDBRANCH   4   5
ENDBRANCH   3   4
ENDBRANCH   2   3
TORSDOF 14
ENDMDL
MODEL      109
REMARK 921   NORMALIZED FREE ENERGY PREDICTED BY IDOCK:   -4.18 KCAL/MOL
REMARK 922        TOTAL FREE ENERGY PREDICTED BY IDOCK:   -9.46 KCAL/MOL
REMARK 923 INTER-LIGAND FREE ENERGY PREDICTED BY IDOCK:   -8.26 KCAL/MOL
REMARK 924 INTRA-LIGAND FREE ENERGY PREDICTED BY IDOCK:   -1.19 KCAL/MOL
REMARK 927      BINDING AFFINITY PREDICTED BY RF-SCORE:    0.00 PKD
ROOT
HETATM    1  C   UNL     1     -14.047   7.444  71.581  1.00  0.00    -0.552 C  
HETATM    2  C   UNL     1     -13.863   8.858  72.099  1.00  0.00    -0.531 C  
ENDROOT
BRANCH   2   3
HETATM    3  C   UNL     1     -12.627   9.519  71.490  1.00  0.00    -0.462 C  
BRANCH   3   4
HETATM    4  C   UNL     1     -11.370   8.759  71.896  1.00  0.00    -0.431 C  
BRANCH   4   5
HETATM    5  C   UNL     1     -10.122   9.313  71.214  1.00  0.00    -0.361 C  
BRANCH   5   6
HETATM    6  C   UNL     1     -10.537  10.179  70.027  1.00  0.00    -0.338 C  
BRANCH   6   7
HETATM    7  C   UNL     1      -9.333  10.589  69.176  1.00  0.00    -0.187 C  
BRANCH   7   8
HETATM    8  N   UNL     1      -9.679  10.861  67.769  1.00  0.00    -0.166 NA 
BRANCH   8   9
HETATM    9  C   UNL     1      -8.965  10.012  66.798  1.00  0.00    -0.135 C  
HETATM   10  C   UNL     1      -7.899   9.079  67.367  1.00  0.00    -0.100 C  
ENDBRANCH   8   9
BRANCH   8  11
HETATM   11  C   UNL     1     -11.134  10.831  67.540  1.00  0.00    -0.308 C  
BRANCH  11  12
HETATM   12  C   UNL     1     -11.679  12.024  66.739  1.00  0.00    -0.339 C  
BRANCH  12  13
HETATM   13  C   UNL     1     -10.828  13.287  66.915  1.00  0.00    -0.286 C  
BRANCH  13  14
HETATM   14  C   UNL     1     -11.627  14.447  67.524  1.00  0.00    -0.373 C  
HETATM   15  H   UNL     1     -12.530  14.845  69.229  1.00  0.00     0.000 HD 
HETATM   16  O   UNL     1     -12.035  14.127  68.851  1.00  0.00    -0.333 OA 
BRANCH  14  17
HETATM   17  C   UNL     1     -10.829  15.737  67.525  1.00  0.00    -0.315 A  
HETATM   18  C   UNL     1     -10.654  16.447  68.723  1.00  0.00    -0.310 A  
HETATM   19  C   UNL     1      -9.988  17.674  68.736  1.00  0.00    -0.358 A  
HETATM   20  C   UNL     1      -9.492  18.209  67.549  1.00  0.00    -0.262 A  
HETATM   21  C   UNL     1     -10.277  16.269  66.345  1.00  0.00    -0.322 A  
HETATM   22  C   UNL     1      -9.610  17.497  66.358  1.00  0.00    -0.283 A  
BRANCH  20  23
HETATM   23  N   UNL     1      -8.858  19.483  67.572  1.00  0.00    -0.299 N  
HETATM   24  H   UNL     1      -9.349  20.321  67.262  1.00  0.00     0.000 HD 
BRANCH  23  25
HETATM   25  S   UNL     1      -7.266  19.562  68.128  1.00  0.00    -0.305 S  
HETATM   26  C   UNL     1      -6.708  21.076  67.377  1.00  0.00    -0.383 C  
HETATM   27  O   UNL     1      -6.576  18.471  67.475  1.00  0.00    -0.194 OA 
HETATM   28  O   UNL     1      -7.246  19.705  69.568  1.00  0.00    -0.328 OA 
ENDBRANCH  23  25
ENDBRANCH  20  23
ENDBRANCH  14  17
ENDBRANCH  13  14
ENDBRANCH  12  13
ENDBRANCH  11  12
ENDBRANCH   8  11
ENDBRANCH   7   8
ENDBRANCH   6   7
ENDBRANCH   5   6
ENDBRANCH   4   5
ENDBRANCH   3   4
ENDBRANCH   2   3
TORSDOF 14
ENDMDL
MODEL      110
REMARK 921   NORMALIZED FREE ENERGY PREDICTED BY IDOCK:   -4.18 KCAL/MOL
REMARK 922        TOTAL FREE ENERGY PREDICTED BY IDOCK:   -9.45 KCAL/MOL
REMARK 923 INTER-LIGAND FREE ENERGY PREDICTED BY IDOCK:   -7.79 KCAL/MOL
REMARK 924 INTRA-LIGAND FREE ENERGY PREDICTED BY IDOCK:   -1.66 KCAL/MOL
REMARK 927      BINDING AFFINITY PREDICTED BY RF-SCORE:    0.00 PKD
ROOT
HETATM    1  C   UNL     1     -10.311   4.363  65.579  1.00  0.00    -0.247 C  
HETATM    2  C   UNL     1     -10.434   5.551  66.515  1.00  0.00    -0.331 C  
ENDROOT
BRANCH   2   3
HETATM    3  C   UNL     1      -9.116   5.833  67.234  1.00  0.00    -0.110 C  
BRANCH   3   4
HETATM    4  C   UNL     1      -9.082   7.275  67.725  1.00  0.00    -0.124 C  
BRANCH   4   5
HETATM    5  C   UNL     1     -10.482   7.874  67.837  1.00  0.00    -0.261 C  
BRANCH   5   6
HETATM    6  C   UNL     1     -10.382   9.285  68.413  1.00  0.00    -0.244 C  
BRANCH   6   7
HETATM    7  C   UNL     1      -9.027   9.927  68.109  1.00  0.00    -0.118 C  
BRANCH   7   8
HETATM    8  N   UNL     1      -9.077  10.894  66.997  1.00  0.00    -0.148 NA 
BRANCH   8   9
HETATM    9  C   UNL     1      -8.184  12.054  67.166  1.00  0.00    -0.181 C  
HETATM   10  C   UNL     1      -8.610  13.091  68.202  1.00  0.00    -0.188 C  
ENDBRANCH   8   9
BRANCH   8  11
HETATM   11  C   UNL     1      -8.872  10.245  65.689  1.00  0.00    -0.168 C  
BRANCH  11  12
HETATM   12  C   UNL     1     -10.056  10.378  64.719  1.00  0.00    -0.387 C  
BRANCH  12  13
HETATM   13  C   UNL     1     -11.277  11.038  65.369  1.00  0.00     0.113 C  
BRANCH  13  14
HETATM   14  C   UNL     1     -11.697  12.325  64.645  1.00  0.00    -0.356 C  
HETATM   15  H   UNL     1     -13.371  13.155  64.023  1.00  0.00     0.000 HD 
HETATM   16  O   UNL     1     -13.111  12.359  64.471  1.00  0.00    -0.823 OA 
BRANCH  14  17
HETATM   17  C   UNL     1     -11.237  13.563  65.392  1.00  0.00    -0.301 A  
HETATM   18  C   UNL     1     -11.884  13.940  66.579  1.00  0.00    -0.440 A  
HETATM   19  C   UNL     1     -11.529  15.115  67.244  1.00  0.00    -0.284 A  
HETATM   20  C   UNL     1     -10.525  15.930  66.728  1.00  0.00    -0.309 A  
HETATM   21  C   UNL     1     -10.192  14.374  64.913  1.00  0.00    -0.357 A  
HETATM   22  C   UNL     1      -9.835  15.549  65.579  1.00  0.00    -0.348 A  
BRANCH  20  23
HETATM   23  N   UNL     1     -10.208  17.149  67.392  1.00  0.00    -0.312 N  
HETATM   24  H   UNL     1      -9.930  17.157  68.373  1.00  0.00     0.000 HD 
BRANCH  23  25
HETATM   25  S   UNL     1     -10.307  18.580  66.503  1.00  0.00    -0.413 S  
HETATM   26  C   UNL     1      -8.587  19.018  66.353  1.00  0.00    -0.315 C  
HETATM   27  O   UNL     1     -10.925  19.542  67.389  1.00  0.00    -0.477 OA 
HETATM   28  O   UNL     1     -10.850  18.317  65.188  1.00  0.00    -0.656 OA 
ENDBRANCH  23  25
ENDBRANCH  20  23
ENDBRANCH  14  17
ENDBRANCH  13  14
ENDBRANCH  12  13
ENDBRANCH  11  12
ENDBRANCH   8  11
ENDBRANCH   7   8
ENDBRANCH   6   7
ENDBRANCH   5   6
ENDBRANCH   4   5
ENDBRANCH   3   4
ENDBRANCH   2   3
TORSDOF 14
ENDMDL
MODEL      111
REMARK 921   NORMALIZED FREE ENERGY PREDICTED BY IDOCK:   -4.17 KCAL/MOL
REMARK 922        TOTAL FREE ENERGY PREDICTED BY IDOCK:   -9.44 KCAL/MOL
REMARK 923 INTER-LIGAND FREE ENERGY PREDICTED BY IDOCK:   -8.14 KCAL/MOL
REMARK 924 INTRA-LIGAND FREE ENERGY PREDICTED BY IDOCK:   -1.31 KCAL/MOL
REMARK 927      BINDING AFFINITY PREDICTED BY RF-SCORE:    0.00 PKD
ROOT
HETATM    1  C   UNL     1     -12.520  15.597  74.189  1.00  0.00    -0.804 C  
HETATM    2  C   UNL     1     -12.900  14.771  72.974  1.00  0.00    -0.583 C  
ENDROOT
BRANCH   2   3
HETATM    3  C   UNL     1     -11.862  14.905  71.862  1.00  0.00    -0.416 C  
BRANCH   3   4
HETATM    4  C   UNL     1     -12.363  14.234  70.589  1.00  0.00    -0.431 C  
BRANCH   4   5
HETATM    5  C   UNL     1     -11.576  14.678  69.360  1.00  0.00    -0.342 C  
BRANCH   5   6
HETATM    6  C   UNL     1     -11.949  13.793  68.173  1.00  0.00    -0.394 C  
BRANCH   6   7
HETATM    7  C   UNL     1     -11.562  14.437  66.841  1.00  0.00    -0.388 C  
BRANCH   7   8
HETATM    8  N   UNL     1     -12.397  13.988  65.712  1.00  0.00    -0.457 NA 
BRANCH   8   9
HETATM    9  C   UNL     1     -12.219  14.777  64.479  1.00  0.00    -0.428 C  
HETATM   10  C   UNL     1     -11.275  15.973  64.571  1.00  0.00    -0.309 C  
ENDBRANCH   8   9
BRANCH   8  11
HETATM   11  C   UNL     1     -12.248  12.545  65.452  1.00  0.00    -0.412 C  
BRANCH  11  12
HETATM   12  C   UNL     1     -10.854  12.126  64.959  1.00  0.00    -0.344 C  
BRANCH  12  13
HETATM   13  C   UNL     1     -10.496  10.690  65.360  1.00  0.00    -0.254 C  
BRANCH  13  14
HETATM   14  C   UNL     1      -9.270  10.630  66.280  1.00  0.00    -0.170 C  
HETATM   15  H   UNL     1      -8.042  11.908  67.140  1.00  0.00     0.000 HD 
HETATM   16  O   UNL     1      -8.802  11.945  66.570  1.00  0.00    -0.194 OA 
BRANCH  14  17
HETATM   17  C   UNL     1      -9.573   9.892  67.570  1.00  0.00    -0.183 A  
HETATM   18  C   UNL     1      -9.432  10.553  68.800  1.00  0.00    -0.181 A  
HETATM   19  C   UNL     1      -9.633   9.874  70.003  1.00  0.00    -0.260 A  
HETATM   20  C   UNL     1      -9.973   8.524  69.991  1.00  0.00    -0.188 A  
HETATM   21  C   UNL     1      -9.965   8.541  67.578  1.00  0.00    -0.258 A  
HETATM   22  C   UNL     1     -10.167   7.861  68.782  1.00  0.00    -0.218 A  
BRANCH  20  23
HETATM   23  N   UNL     1     -10.127   7.834  71.227  1.00  0.00    -0.179 N  
HETATM   24  H   UNL     1     -11.050   7.564  71.568  1.00  0.00     0.000 HD 
BRANCH  23  25
HETATM   25  S   UNL     1      -8.733   7.478  72.111  1.00  0.00    -0.118 S  
HETATM   26  C   UNL     1      -9.297   6.124  73.121  1.00  0.00    -0.138 C  
HETATM   27  O   UNL     1      -8.528   8.615  72.981  1.00  0.00    -0.398 OA 
HETATM   28  O   UNL     1      -7.686   7.013  71.228  1.00  0.00    -0.089 OA 
ENDBRANCH  23  25
ENDBRANCH  20  23
ENDBRANCH  14  17
ENDBRANCH  13  14
ENDBRANCH  12  13
ENDBRANCH  11  12
ENDBRANCH   8  11
ENDBRANCH   7   8
ENDBRANCH   6   7
ENDBRANCH   5   6
ENDBRANCH   4   5
ENDBRANCH   3   4
ENDBRANCH   2   3
TORSDOF 14
ENDMDL
MODEL      112
REMARK 921   NORMALIZED FREE ENERGY PREDICTED BY IDOCK:   -4.17 KCAL/MOL
REMARK 922        TOTAL FREE ENERGY PREDICTED BY IDOCK:   -9.44 KCAL/MOL
REMARK 923 INTER-LIGAND FREE ENERGY PREDICTED BY IDOCK:   -7.99 KCAL/MOL
REMARK 924 INTRA-LIGAND FREE ENERGY PREDICTED BY IDOCK:   -1.45 KCAL/MOL
REMARK 927      BINDING AFFINITY PREDICTED BY RF-SCORE:    0.00 PKD
ROOT
HETATM    1  C   UNL     1     -13.140  10.940  71.855  1.00  0.00    -0.537 C  
HETATM    2  C   UNL     1     -13.267   9.430  71.780  1.00  0.00    -0.487 C  
ENDROOT
BRANCH   2   3
HETATM    3  C   UNL     1     -11.960   8.741  72.170  1.00  0.00    -0.436 C  
BRANCH   3   4
HETATM    4  C   UNL     1     -11.409   7.950  70.989  1.00  0.00    -0.292 C  
BRANCH   4   5
HETATM    5  C   UNL     1      -9.894   7.785  71.069  1.00  0.00    -0.186 C  
BRANCH   5   6
HETATM    6  C   UNL     1      -9.224   9.132  70.809  1.00  0.00    -0.321 C  
BRANCH   6   7
HETATM    7  C   UNL     1      -8.625   9.207  69.403  1.00  0.00    -0.138 C  
BRANCH   7   8
HETATM    8  N   UNL     1      -8.953  10.457  68.695  1.00  0.00    -0.139 NA 
BRANCH   8   9
HETATM    9  C   UNL     1      -7.831  11.029  67.930  1.00  0.00    -0.110 C  
HETATM   10  C   UNL     1      -7.038  12.138  68.617  1.00  0.00    -0.103 C  
ENDBRANCH   8   9
BRANCH   8  11
HETATM   11  C   UNL     1     -10.160  10.321  67.859  1.00  0.00    -0.170 C  
BRANCH  11  12
HETATM   12  C   UNL     1     -11.465  10.747  68.549  1.00  0.00    -0.362 C  
BRANCH  12  13
HETATM   13  C   UNL     1     -12.008  12.076  68.011  1.00  0.00    -0.214 C  
BRANCH  13  14
HETATM   14  C   UNL     1     -11.472  12.399  66.609  1.00  0.00    -0.370 C  
HETATM   15  H   UNL     1     -12.178  12.475  64.773  1.00  0.00     0.000 HD 
HETATM   16  O   UNL     1     -12.509  12.275  65.641  1.00  0.00    -0.591 OA 
BRANCH  14  17
HETATM   17  C   UNL     1     -10.867  13.789  66.547  1.00  0.00    -0.287 A  
HETATM   18  C   UNL     1     -11.211  14.651  65.495  1.00  0.00    -0.343 A  
HETATM   19  C   UNL     1     -10.612  15.906  65.375  1.00  0.00    -0.439 A  
HETATM   20  C   UNL     1      -9.657  16.313  66.304  1.00  0.00    -0.308 A  
HETATM   21  C   UNL     1      -9.938  14.237  67.504  1.00  0.00    -0.235 A  
HETATM   22  C   UNL     1      -9.338  15.494  67.385  1.00  0.00    -0.211 A  
BRANCH  20  23
HETATM   23  N   UNL     1      -9.021  17.575  66.140  1.00  0.00    -0.179 N  
HETATM   24  H   UNL     1      -8.027  17.640  65.919  1.00  0.00     0.000 HD 
BRANCH  23  25
HETATM   25  S   UNL     1      -9.964  18.964  66.323  1.00  0.00    -0.373 S  
HETATM   26  C   UNL     1     -10.895  18.563  67.787  1.00  0.00    -0.247 C  
HETATM   27  O   UNL     1     -10.883  18.954  65.206  1.00  0.00    -0.559 OA 
HETATM   28  O   UNL     1      -9.122  20.109  66.589  1.00  0.00    -0.346 OA 
ENDBRANCH  23  25
ENDBRANCH  20  23
ENDBRANCH  14  17
ENDBRANCH  13  14
ENDBRANCH  12  13
ENDBRANCH  11  12
ENDBRANCH   8  11
ENDBRANCH   7   8
ENDBRANCH   6   7
ENDBRANCH   5   6
ENDBRANCH   4   5
ENDBRANCH   3   4
ENDBRANCH   2   3
TORSDOF 14
ENDMDL
MODEL      113
REMARK 921   NORMALIZED FREE ENERGY PREDICTED BY IDOCK:   -4.17 KCAL/MOL
REMARK 922        TOTAL FREE ENERGY PREDICTED BY IDOCK:   -9.43 KCAL/MOL
REMARK 923 INTER-LIGAND FREE ENERGY PREDICTED BY IDOCK:   -8.03 KCAL/MOL
REMARK 924 INTRA-LIGAND FREE ENERGY PREDICTED BY IDOCK:   -1.40 KCAL/MOL
REMARK 927      BINDING AFFINITY PREDICTED BY RF-SCORE:    0.00 PKD
ROOT
HETATM    1  C   UNL     1     -10.085   6.246  72.354  1.00  0.00    -0.195 C  
HETATM    2  C   UNL     1     -11.528   5.922  72.013  1.00  0.00    -0.311 C  
ENDROOT
BRANCH   2   3
HETATM    3  C   UNL     1     -12.204   7.086  71.290  1.00  0.00    -0.419 C  
BRANCH   3   4
HETATM    4  C   UNL     1     -12.121   8.350  72.137  1.00  0.00    -0.435 C  
BRANCH   4   5
HETATM    5  C   UNL     1     -11.287   9.436  71.462  1.00  0.00    -0.464 C  
BRANCH   5   6
HETATM    6  C   UNL     1     -11.150   9.118  69.975  1.00  0.00    -0.208 C  
BRANCH   6   7
HETATM    7  C   UNL     1      -9.684   9.007  69.552  1.00  0.00    -0.170 C  
BRANCH   7   8
HETATM    8  N   UNL     1      -9.490   8.210  68.327  1.00  0.00    -0.141 NA 
BRANCH   8   9
HETATM    9  C   UNL     1      -9.432   6.755  68.557  1.00  0.00    -0.131 C  
HETATM   10  C   UNL     1     -10.634   5.945  68.078  1.00  0.00    -0.321 C  
ENDBRANCH   8   9
BRANCH   8  11
HETATM   11  C   UNL     1     -10.473   8.549  67.283  1.00  0.00    -0.296 C  
BRANCH  11  12
HETATM   12  C   UNL     1     -10.104   9.776  66.434  1.00  0.00    -0.313 C  
BRANCH  12  13
HETATM   13  C   UNL     1     -10.974  10.996  66.756  1.00  0.00    -0.279 C  
BRANCH  13  14
HETATM   14  C   UNL     1     -11.133  11.933  65.551  1.00  0.00    -0.304 C  
HETATM   15  H   UNL     1     -12.610  12.690  64.491  1.00  0.00     0.000 HD 
HETATM   16  O   UNL     1     -12.512  12.110  65.237  1.00  0.00    -0.520 OA 
BRANCH  14  17
HETATM   17  C   UNL     1     -10.480  13.280  65.798  1.00  0.00    -0.289 A  
HETATM   18  C   UNL     1     -10.850  14.386  65.018  1.00  0.00    -0.420 A  
HETATM   19  C   UNL     1     -10.211  15.618  65.176  1.00  0.00    -0.297 A  
HETATM   20  C   UNL     1      -9.190  15.756  66.113  1.00  0.00    -0.350 A  
HETATM   21  C   UNL     1      -9.481  13.452  66.773  1.00  0.00    -0.263 A  
HETATM   22  C   UNL     1      -8.841  14.684  66.932  1.00  0.00    -0.267 A  
BRANCH  20  23
HETATM   23  N   UNL     1      -8.516  17.004  66.228  1.00  0.00    -0.277 N  
HETATM   24  H   UNL     1      -7.551  17.113  65.915  1.00  0.00     0.000 HD 
BRANCH  23  25
HETATM   25  S   UNL     1      -9.364  18.300  66.900  1.00  0.00    -0.295 S  
HETATM   26  C   UNL     1      -8.138  18.994  67.988  1.00  0.00    -0.295 C  
HETATM   27  O   UNL     1     -10.390  17.701  67.725  1.00  0.00    -0.333 OA 
HETATM   28  O   UNL     1      -9.697  19.265  65.875  1.00  0.00    -0.435 OA 
ENDBRANCH  23  25
ENDBRANCH  20  23
ENDBRANCH  14  17
ENDBRANCH  13  14
ENDBRANCH  12  13
ENDBRANCH  11  12
ENDBRANCH   8  11
ENDBRANCH   7   8
ENDBRANCH   6   7
ENDBRANCH   5   6
ENDBRANCH   4   5
ENDBRANCH   3   4
ENDBRANCH   2   3
TORSDOF 14
ENDMDL
MODEL      114
REMARK 921   NORMALIZED FREE ENERGY PREDICTED BY IDOCK:   -4.16 KCAL/MOL
REMARK 922        TOTAL FREE ENERGY PREDICTED BY IDOCK:   -9.41 KCAL/MOL
REMARK 923 INTER-LIGAND FREE ENERGY PREDICTED BY IDOCK:   -8.16 KCAL/MOL
REMARK 924 INTRA-LIGAND FREE ENERGY PREDICTED BY IDOCK:   -1.26 KCAL/MOL
REMARK 927      BINDING AFFINITY PREDICTED BY RF-SCORE:    0.00 PKD
ROOT
HETATM    1  C   UNL     1      -8.629  19.726  66.237  1.00  0.00    -0.397 C  
HETATM    2  C   UNL     1     -10.128  19.869  66.046  1.00  0.00    -0.589 C  
ENDROOT
BRANCH   2   3
HETATM    3  C   UNL     1     -10.897  19.334  67.252  1.00  0.00    -0.554 C  
BRANCH   3   4
HETATM    4  C   UNL     1      -9.929  18.944  68.363  1.00  0.00    -0.447 C  
BRANCH   4   5
HETATM    5  C   UNL     1     -10.256  17.574  68.952  1.00  0.00    -0.353 C  
BRANCH   5   6
HETATM    6  C   UNL     1     -10.700  16.635  67.832  1.00  0.00    -0.344 C  
BRANCH   6   7
HETATM    7  C   UNL     1     -11.564  15.489  68.362  1.00  0.00    -0.357 C  
BRANCH   7   8
HETATM    8  N   UNL     1     -11.984  14.542  67.313  1.00  0.00    -0.394 NA 
BRANCH   8   9
HETATM    9  C   UNL     1     -11.318  14.747  66.015  1.00  0.00    -0.332 C  
HETATM   10  C   UNL     1     -11.953  14.056  64.811  1.00  0.00    -0.432 C  
ENDBRANCH   8   9
BRANCH   8  11
HETATM   11  C   UNL     1     -11.878  13.141  67.757  1.00  0.00    -0.348 C  
BRANCH  11  12
HETATM   12  C   UNL     1     -10.549  12.787  68.442  1.00  0.00    -0.262 C  
BRANCH  12  13
HETATM   13  C   UNL     1      -9.742  11.746  67.658  1.00  0.00    -0.186 C  
BRANCH  13  14
HETATM   14  C   UNL     1     -10.638  10.675  67.021  1.00  0.00    -0.262 C  
HETATM   15  H   UNL     1     -10.792   9.766  65.281  1.00  0.00     0.000 HD 
HETATM   16  O   UNL     1     -10.238  10.429  65.676  1.00  0.00    -0.267 OA 
BRANCH  14  17
HETATM   17  C   UNL     1     -10.615   9.382  67.813  1.00  0.00    -0.317 A  
HETATM   18  C   UNL     1     -10.593   8.152  67.138  1.00  0.00    -0.355 A  
HETATM   19  C   UNL     1     -10.647   6.948  67.844  1.00  0.00    -0.286 A  
HETATM   20  C   UNL     1     -10.729   6.960  69.234  1.00  0.00    -0.238 A  
HETATM   21  C   UNL     1     -10.647   9.373  69.220  1.00  0.00    -0.239 A  
HETATM   22  C   UNL     1     -10.700   8.169  69.927  1.00  0.00    -0.241 A  
BRANCH  20  23
HETATM   23  N   UNL     1     -10.832   5.726  69.935  1.00  0.00    -0.347 N  
HETATM   24  H   UNL     1     -11.725   5.406  70.310  1.00  0.00     0.000 HD 
BRANCH  23  25
HETATM   25  S   UNL     1      -9.428   4.809  70.127  1.00  0.00    -0.195 S  
HETATM   26  C   UNL     1      -9.857   3.804  71.533  1.00  0.00    -0.165 C  
HETATM   27  O   UNL     1      -8.412   5.745  70.555  1.00  0.00    -0.122 OA 
HETATM   28  O   UNL     1      -9.224   3.959  68.975  1.00  0.00    -0.126 OA 
ENDBRANCH  23  25
ENDBRANCH  20  23
ENDBRANCH  14  17
ENDBRANCH  13  14
ENDBRANCH  12  13
ENDBRANCH  11  12
ENDBRANCH   8  11
ENDBRANCH   7   8
ENDBRANCH   6   7
ENDBRANCH   5   6
ENDBRANCH   4   5
ENDBRANCH   3   4
ENDBRANCH   2   3
TORSDOF 14
ENDMDL
MODEL      115
REMARK 921   NORMALIZED FREE ENERGY PREDICTED BY IDOCK:   -4.14 KCAL/MOL
REMARK 922        TOTAL FREE ENERGY PREDICTED BY IDOCK:   -9.38 KCAL/MOL
REMARK 923 INTER-LIGAND FREE ENERGY PREDICTED BY IDOCK:   -7.85 KCAL/MOL
REMARK 924 INTRA-LIGAND FREE ENERGY PREDICTED BY IDOCK:   -1.53 KCAL/MOL
REMARK 927      BINDING AFFINITY PREDICTED BY RF-SCORE:    0.00 PKD
ROOT
HETATM    1  C   UNL     1      -8.285  16.143  67.424  1.00  0.00    -0.185 C  
HETATM    2  C   UNL     1      -9.249  16.496  66.307  1.00  0.00    -0.345 C  
ENDROOT
BRANCH   2   3
HETATM    3  C   UNL     1     -10.180  15.329  65.986  1.00  0.00    -0.335 C  
BRANCH   3   4
HETATM    4  C   UNL     1     -10.331  14.425  67.203  1.00  0.00    -0.262 C  
BRANCH   4   5
HETATM    5  C   UNL     1     -11.794  14.221  67.587  1.00  0.00    -0.420 C  
BRANCH   5   6
HETATM    6  C   UNL     1     -12.157  15.179  68.719  1.00  0.00    -0.199 C  
BRANCH   6   7
HETATM    7  C   UNL     1     -11.254  14.984  69.938  1.00  0.00    -0.276 C  
BRANCH   7   8
HETATM    8  N   UNL     1     -11.994  14.614  71.158  1.00  0.00    -0.337 NA 
BRANCH   8   9
HETATM    9  C   UNL     1     -12.692  15.739  71.805  1.00  0.00    -0.456 C  
HETATM   10  C   UNL     1     -14.188  15.560  72.047  1.00  0.00    -0.606 C  
ENDBRANCH   8   9
BRANCH   8  11
HETATM   11  C   UNL     1     -12.904  13.477  70.931  1.00  0.00    -0.226 C  
BRANCH  11  12
HETATM   12  C   UNL     1     -12.767  12.337  71.952  1.00  0.00    -0.197 C  
BRANCH  12  13
HETATM   13  C   UNL     1     -13.031  10.959  71.333  1.00  0.00    -0.527 C  
BRANCH  13  14
HETATM   14  C   UNL     1     -11.802  10.042  71.409  1.00  0.00    -0.363 C  
HETATM   15  H   UNL     1     -11.376   8.250  72.104  1.00  0.00     0.000 HD 
HETATM   16  O   UNL     1     -12.136   8.818  72.057  1.00  0.00    -0.331 OA 
BRANCH  14  17
HETATM   17  C   UNL     1     -11.228   9.761  70.034  1.00  0.00    -0.297 A  
HETATM   18  C   UNL     1     -11.515  10.629  68.969  1.00  0.00    -0.342 A  
HETATM   19  C   UNL     1     -11.060  10.351  67.678  1.00  0.00    -0.361 A  
HETATM   20  C   UNL     1     -10.316   9.199  67.436  1.00  0.00    -0.264 A  
HETATM   21  C   UNL     1     -10.432   8.628  69.779  1.00  0.00    -0.220 A  
HETATM   22  C   UNL     1      -9.976   8.351  68.487  1.00  0.00    -0.203 A  
BRANCH  20  23
HETATM   23  N   UNL     1      -9.900   8.906  66.107  1.00  0.00    -0.360 N  
HETATM   24  H   UNL     1     -10.260   8.091  65.610  1.00  0.00     0.000 HD 
BRANCH  23  25
HETATM   25  S   UNL     1      -8.793   9.952  65.378  1.00  0.00    -0.183 S  
HETATM   26  C   UNL     1      -9.880  11.044  64.485  1.00  0.00    -0.290 C  
HETATM   27  O   UNL     1      -8.088   9.148  64.404  1.00  0.00    -0.129 OA 
HETATM   28  O   UNL     1      -8.079  10.705  66.385  1.00  0.00    -0.136 OA 
ENDBRANCH  23  25
ENDBRANCH  20  23
ENDBRANCH  14  17
ENDBRANCH  13  14
ENDBRANCH  12  13
ENDBRANCH  11  12
ENDBRANCH   8  11
ENDBRANCH   7   8
ENDBRANCH   6   7
ENDBRANCH   5   6
ENDBRANCH   4   5
ENDBRANCH   3   4
ENDBRANCH   2   3
TORSDOF 14
ENDMDL
MODEL      116
REMARK 921   NORMALIZED FREE ENERGY PREDICTED BY IDOCK:   -4.13 KCAL/MOL
REMARK 922        TOTAL FREE ENERGY PREDICTED BY IDOCK:   -9.37 KCAL/MOL
REMARK 923 INTER-LIGAND FREE ENERGY PREDICTED BY IDOCK:   -7.81 KCAL/MOL
REMARK 924 INTRA-LIGAND FREE ENERGY PREDICTED BY IDOCK:   -1.56 KCAL/MOL
REMARK 927      BINDING AFFINITY PREDICTED BY RF-SCORE:    0.00 PKD
ROOT
HETATM    1  C   UNL     1     -10.432  14.208  64.796  1.00  0.00    -0.432 C  
HETATM    2  C   UNL     1     -11.898  13.867  64.603  1.00  0.00    -0.428 C  
ENDROOT
BRANCH   2   3
HETATM    3  C   UNL     1     -12.384  12.879  65.662  1.00  0.00    -0.482 C  
BRANCH   3   4
HETATM    4  C   UNL     1     -11.890  13.298  67.041  1.00  0.00    -0.442 C  
BRANCH   4   5
HETATM    5  C   UNL     1     -11.101  12.188  67.728  1.00  0.00    -0.302 C  
BRANCH   5   6
HETATM    6  C   UNL     1     -11.923  11.626  68.886  1.00  0.00    -0.355 C  
BRANCH   6   7
HETATM    7  C   UNL     1     -11.898  12.554  70.102  1.00  0.00    -0.258 C  
BRANCH   7   8
HETATM    8  N   UNL     1     -12.489  11.948  71.310  1.00  0.00    -0.274 NA 
BRANCH   8   9
HETATM    9  C   UNL     1     -13.466  12.810  71.999  1.00  0.00    -0.444 C  
HETATM   10  C   UNL     1     -13.146  14.302  72.038  1.00  0.00    -0.456 C  
ENDBRANCH   8   9
BRANCH   8  11
HETATM   11  C   UNL     1     -13.045  10.610  71.043  1.00  0.00    -0.286 C  
BRANCH  11  12
HETATM   12  C   UNL     1     -13.248   9.742  72.295  1.00  0.00    -0.468 C  
BRANCH  12  13
HETATM   13  C   UNL     1     -12.710   8.318  72.116  1.00  0.00    -0.366 C  
BRANCH  13  14
HETATM   14  C   UNL     1     -11.220   8.210  72.469  1.00  0.00    -0.391 C  
HETATM   15  H   UNL     1     -10.054   6.968  73.456  1.00  0.00     0.000 HD 
HETATM   16  O   UNL     1     -10.976   7.035  73.238  1.00  0.00    -0.303 OA 
BRANCH  14  17
HETATM   17  C   UNL     1     -10.349   8.206  71.227  1.00  0.00    -0.243 A  
HETATM   18  C   UNL     1      -9.583   9.338  70.911  1.00  0.00    -0.339 A  
HETATM   19  C   UNL     1      -8.832   9.388  69.734  1.00  0.00    -0.193 A  
HETATM   20  C   UNL     1      -8.843   8.306  68.857  1.00  0.00    -0.140 A  
HETATM   21  C   UNL     1     -10.307   7.104  70.353  1.00  0.00    -0.216 A  
HETATM   22  C   UNL     1      -9.555   7.153  69.176  1.00  0.00    -0.154 A  
BRANCH  20  23
HETATM   23  N   UNL     1      -8.110   8.391  67.639  1.00  0.00    -0.117 N  
HETATM   24  H   UNL     1      -7.116   8.621  67.638  1.00  0.00     0.000 HD 
BRANCH  23  25
HETATM   25  S   UNL     1      -8.939   8.100  66.198  1.00  0.00    -0.172 S  
HETATM   26  C   UNL     1      -7.779   8.716  64.997  1.00  0.00    -0.103 C  
HETATM   27  O   UNL     1     -10.069   9.003  66.215  1.00  0.00    -0.295 OA 
HETATM   28  O   UNL     1      -9.120   6.678  66.004  1.00  0.00    -0.148 OA 
ENDBRANCH  23  25
ENDBRANCH  20  23
ENDBRANCH  14  17
ENDBRANCH  13  14
ENDBRANCH  12  13
ENDBRANCH  11  12
ENDBRANCH   8  11
ENDBRANCH   7   8
ENDBRANCH   6   7
ENDBRANCH   5   6
ENDBRANCH   4   5
ENDBRANCH   3   4
ENDBRANCH   2   3
TORSDOF 14
ENDMDL
MODEL      117
REMARK 921   NORMALIZED FREE ENERGY PREDICTED BY IDOCK:   -4.12 KCAL/MOL
REMARK 922        TOTAL FREE ENERGY PREDICTED BY IDOCK:   -9.35 KCAL/MOL
REMARK 923 INTER-LIGAND FREE ENERGY PREDICTED BY IDOCK:   -7.25 KCAL/MOL
REMARK 924 INTRA-LIGAND FREE ENERGY PREDICTED BY IDOCK:   -2.11 KCAL/MOL
REMARK 927      BINDING AFFINITY PREDICTED BY RF-SCORE:    0.00 PKD
ROOT
HETATM    1  C   UNL     1     -10.348   8.539  66.685  1.00  0.00    -0.303 C  
HETATM    2  C   UNL     1      -9.989   7.159  67.204  1.00  0.00    -0.270 C  
ENDROOT
BRANCH   2   3
HETATM    3  C   UNL     1      -8.477   6.937  67.194  1.00  0.00    -0.121 C  
BRANCH   3   4
HETATM    4  C   UNL     1      -8.100   5.841  68.183  1.00  0.00    -0.104 C  
BRANCH   4   5
HETATM    5  C   UNL     1      -9.309   5.335  68.966  1.00  0.00    -0.171 C  
BRANCH   5   6
HETATM    6  C   UNL     1      -9.011   5.412  70.461  1.00  0.00    -0.156 C  
BRANCH   6   7
HETATM    7  C   UNL     1      -9.978   4.551  71.277  1.00  0.00    -0.188 C  
BRANCH   7   8
HETATM    8  N   UNL     1     -10.877   5.340  72.139  1.00  0.00    -0.214 NA 
BRANCH   8   9
HETATM    9  C   UNL     1     -11.231   4.677  73.407  1.00  0.00    -0.338 C  
HETATM   10  C   UNL     1     -10.962   3.177  73.485  1.00  0.00    -0.323 C  
ENDBRANCH   8   9
BRANCH   8  11
HETATM   11  C   UNL     1     -10.367   6.704  72.370  1.00  0.00    -0.195 C  
BRANCH  11  12
HETATM   12  C   UNL     1     -11.356   7.824  72.010  1.00  0.00    -0.332 C  
BRANCH  12  13
HETATM   13  C   UNL     1     -11.118   8.388  70.605  1.00  0.00    -0.278 C  
BRANCH  13  14
HETATM   14  C   UNL     1      -9.999   9.439  70.582  1.00  0.00    -0.284 C  
HETATM   15  H   UNL     1      -8.088   9.507  70.114  1.00  0.00     0.000 HD 
HETATM   16  O   UNL     1      -8.780   8.857  70.129  1.00  0.00    -0.138 OA 
BRANCH  14  17
HETATM   17  C   UNL     1     -10.363  10.625  69.708  1.00  0.00    -0.146 A  
HETATM   18  C   UNL     1     -11.654  11.171  69.778  1.00  0.00    -0.409 A  
HETATM   19  C   UNL     1     -12.036  12.214  68.932  1.00  0.00    -0.296 A  
HETATM   20  C   UNL     1     -11.132  12.720  68.001  1.00  0.00    -0.250 A  
HETATM   21  C   UNL     1      -9.449  11.183  68.796  1.00  0.00    -0.173 A  
HETATM   22  C   UNL     1      -9.830  12.227  67.949  1.00  0.00    -0.201 A  
BRANCH  20  23
HETATM   23  N   UNL     1     -11.552  13.750  67.113  1.00  0.00    -0.343 N  
HETATM   24  H   UNL     1     -11.542  14.729  67.400  1.00  0.00     0.000 HD 
BRANCH  23  25
HETATM   25  S   UNL     1     -12.067  13.299  65.569  1.00  0.00    -0.463 S  
HETATM   26  C   UNL     1     -10.669  13.786  64.580  1.00  0.00    -0.390 C  
HETATM   27  O   UNL     1     -13.158  14.193  65.252  1.00  0.00    -0.763 OA 
HETATM   28  O   UNL     1     -12.229  11.864  65.495  1.00  0.00    -0.399 OA 
ENDBRANCH  23  25
ENDBRANCH  20  23
ENDBRANCH  14  17
ENDBRANCH  13  14
ENDBRANCH  12  13
ENDBRANCH  11  12
ENDBRANCH   8  11
ENDBRANCH   7   8
ENDBRANCH   6   7
ENDBRANCH   5   6
ENDBRANCH   4   5
ENDBRANCH   3   4
ENDBRANCH   2   3
TORSDOF 14
ENDMDL
MODEL      118
REMARK 921   NORMALIZED FREE ENERGY PREDICTED BY IDOCK:   -4.12 KCAL/MOL
REMARK 922        TOTAL FREE ENERGY PREDICTED BY IDOCK:   -9.35 KCAL/MOL
REMARK 923 INTER-LIGAND FREE ENERGY PREDICTED BY IDOCK:   -7.83 KCAL/MOL
REMARK 924 INTRA-LIGAND FREE ENERGY PREDICTED BY IDOCK:   -1.52 KCAL/MOL
REMARK 927      BINDING AFFINITY PREDICTED BY RF-SCORE:    0.00 PKD
ROOT
HETATM    1  C   UNL     1     -12.894   8.620  72.127  1.00  0.00    -0.442 C  
HETATM    2  C   UNL     1     -11.556   8.124  72.644  1.00  0.00    -0.441 C  
ENDROOT
BRANCH   2   3
HETATM    3  C   UNL     1     -11.031   6.960  71.805  1.00  0.00    -0.259 C  
BRANCH   3   4
HETATM    4  C   UNL     1     -11.924   6.742  70.590  1.00  0.00    -0.418 C  
BRANCH   4   5
HETATM    5  C   UNL     1     -11.140   6.217  69.391  1.00  0.00    -0.479 C  
BRANCH   5   6
HETATM    6  C   UNL     1      -9.654   6.498  69.596  1.00  0.00    -0.155 C  
BRANCH   6   7
HETATM    7  C   UNL     1      -9.149   7.596  68.657  1.00  0.00    -0.135 C  
BRANCH   7   8
HETATM    8  N   UNL     1      -9.075   8.922  69.297  1.00  0.00    -0.143 NA 
BRANCH   8   9
HETATM    9  C   UNL     1      -7.719   9.498  69.336  1.00  0.00    -0.094 C  
HETATM   10  C   UNL     1      -7.609  10.994  69.057  1.00  0.00    -0.134 C  
ENDBRANCH   8   9
BRANCH   8  11
HETATM   11  C   UNL     1     -10.045   9.871  68.720  1.00  0.00    -0.174 C  
BRANCH  11  12
HETATM   12  C   UNL     1     -11.021  10.483  69.737  1.00  0.00    -0.350 C  
BRANCH  12  13
HETATM   13  C   UNL     1     -11.966  11.508  69.100  1.00  0.00    -0.386 C  
BRANCH  13  14
HETATM   14  C   UNL     1     -11.349  12.181  67.867  1.00  0.00    -0.300 C  
HETATM   15  H   UNL     1     -11.743  12.314  65.942  1.00  0.00     0.000 HD 
HETATM   16  O   UNL     1     -12.124  11.897  66.706  1.00  0.00    -0.593 OA 
BRANCH  14  17
HETATM   17  C   UNL     1     -11.223  13.681  68.052  1.00  0.00    -0.295 A  
HETATM   18  C   UNL     1     -11.050  14.509  66.932  1.00  0.00    -0.325 A  
HETATM   19  C   UNL     1     -10.857  15.884  67.082  1.00  0.00    -0.267 A  
HETATM   20  C   UNL     1     -10.830  16.447  68.355  1.00  0.00    -0.342 A  
HETATM   21  C   UNL     1     -11.243  14.276  69.327  1.00  0.00    -0.309 A  
HETATM   22  C   UNL     1     -11.051  15.652  69.478  1.00  0.00    -0.298 A  
BRANCH  20  23
HETATM   23  N   UNL     1     -10.585  17.842  68.494  1.00  0.00    -0.324 N  
HETATM   24  H   UNL     1     -11.345  18.494  68.688  1.00  0.00     0.000 HD 
BRANCH  23  25
HETATM   25  S   UNL     1      -8.995  18.384  68.325  1.00  0.00    -0.317 S  
HETATM   26  C   UNL     1      -8.985  18.916  66.626  1.00  0.00    -0.323 C  
HETATM   27  O   UNL     1      -8.173  17.197  68.415  1.00  0.00    -0.234 OA 
HETATM   28  O   UNL     1      -8.761  19.523  69.185  1.00  0.00    -0.294 OA 
ENDBRANCH  23  25
ENDBRANCH  20  23
ENDBRANCH  14  17
ENDBRANCH  13  14
ENDBRANCH  12  13
ENDBRANCH  11  12
ENDBRANCH   8  11
ENDBRANCH   7   8
ENDBRANCH   6   7
ENDBRANCH   5   6
ENDBRANCH   4   5
ENDBRANCH   3   4
ENDBRANCH   2   3
TORSDOF 14
ENDMDL
MODEL      119
REMARK 921   NORMALIZED FREE ENERGY PREDICTED BY IDOCK:   -4.08 KCAL/MOL
REMARK 922        TOTAL FREE ENERGY PREDICTED BY IDOCK:   -9.28 KCAL/MOL
REMARK 923 INTER-LIGAND FREE ENERGY PREDICTED BY IDOCK:   -7.82 KCAL/MOL
REMARK 924 INTRA-LIGAND FREE ENERGY PREDICTED BY IDOCK:   -1.46 KCAL/MOL
REMARK 927      BINDING AFFINITY PREDICTED BY RF-SCORE:    0.00 PKD
ROOT
HETATM    1  C   UNL     1      -7.047  15.369  67.518  1.00  0.00    -0.221 C  
HETATM    2  C   UNL     1      -7.623  16.432  66.601  1.00  0.00    -0.288 C  
ENDROOT
BRANCH   2   3
HETATM    3  C   UNL     1      -9.147  16.352  66.543  1.00  0.00    -0.308 C  
BRANCH   3   4
HETATM    4  C   UNL     1      -9.737  16.508  67.939  1.00  0.00    -0.236 C  
BRANCH   4   5
HETATM    5  C   UNL     1     -11.101  15.835  68.063  1.00  0.00    -0.337 C  
BRANCH   5   6
HETATM    6  C   UNL     1     -11.285  14.850  66.911  1.00  0.00    -0.343 C  
BRANCH   6   7
HETATM    7  C   UNL     1     -12.122  13.639  67.329  1.00  0.00    -0.345 C  
BRANCH   7   8
HETATM    8  N   UNL     1     -11.309  12.469  67.706  1.00  0.00    -0.276 NA 
BRANCH   8   9
HETATM    9  C   UNL     1      -9.986  12.420  67.057  1.00  0.00    -0.212 C  
HETATM   10  C   UNL     1      -9.948  11.852  65.640  1.00  0.00    -0.269 C  
ENDBRANCH   8   9
BRANCH   8  11
HETATM   11  C   UNL     1     -11.195  12.321  69.168  1.00  0.00    -0.242 C  
BRANCH  11  12
HETATM   12  C   UNL     1     -12.239  11.386  69.798  1.00  0.00    -0.332 C  
BRANCH  12  13
HETATM   13  C   UNL     1     -11.605  10.312  70.690  1.00  0.00    -0.435 C  
BRANCH  13  14
HETATM   14  C   UNL     1     -10.253   9.829  70.147  1.00  0.00    -0.275 C  
HETATM   15  H   UNL     1      -8.567   9.124  70.881  1.00  0.00     0.000 HD 
HETATM   16  O   UNL     1      -9.404   9.424  71.217  1.00  0.00    -0.246 OA 
BRANCH  14  17
HETATM   17  C   UNL     1     -10.422   8.689  69.160  1.00  0.00    -0.223 A  
HETATM   18  C   UNL     1     -10.305   8.938  67.784  1.00  0.00    -0.301 A  
HETATM   19  C   UNL     1     -10.530   7.921  66.852  1.00  0.00    -0.388 A  
HETATM   20  C   UNL     1     -10.879   6.645  67.287  1.00  0.00    -0.385 A  
HETATM   21  C   UNL     1     -10.726   7.381  69.581  1.00  0.00    -0.245 A  
HETATM   22  C   UNL     1     -10.950   6.364  68.649  1.00  0.00    -0.404 A  
BRANCH  20  23
HETATM   23  N   UNL     1     -11.151   5.633  66.323  1.00  0.00    -0.772 N  
HETATM   24  H   UNL     1     -12.086   5.518  65.930  1.00  0.00     0.000 HD 
BRANCH  23  25
HETATM   25  S   UNL     1      -9.878   4.630  65.852  1.00  0.00    -0.239 S  
HETATM   26  C   UNL     1     -10.620   3.737  64.502  1.00  0.00    -0.155 C  
HETATM   27  O   UNL     1      -9.698   3.698  66.944  1.00  0.00    -0.196 OA 
HETATM   28  O   UNL     1      -8.775   5.422  65.355  1.00  0.00    -0.150 OA 
ENDBRANCH  23  25
ENDBRANCH  20  23
ENDBRANCH  14  17
ENDBRANCH  13  14
ENDBRANCH  12  13
ENDBRANCH  11  12
ENDBRANCH   8  11
ENDBRANCH   7   8
ENDBRANCH   6   7
ENDBRANCH   5   6
ENDBRANCH   4   5
ENDBRANCH   3   4
ENDBRANCH   2   3
TORSDOF 14
ENDMDL
MODEL      120
REMARK 921   NORMALIZED FREE ENERGY PREDICTED BY IDOCK:   -4.08 KCAL/MOL
REMARK 922        TOTAL FREE ENERGY PREDICTED BY IDOCK:   -9.27 KCAL/MOL
REMARK 923 INTER-LIGAND FREE ENERGY PREDICTED BY IDOCK:   -8.05 KCAL/MOL
REMARK 924 INTRA-LIGAND FREE ENERGY PREDICTED BY IDOCK:   -1.22 KCAL/MOL
REMARK 927      BINDING AFFINITY PREDICTED BY RF-SCORE:    0.00 PKD
ROOT
HETATM    1  C   UNL     1      -9.419   5.653  66.163  1.00  0.00    -0.157 C  
HETATM    2  C   UNL     1      -7.967   5.742  66.596  1.00  0.00    -0.102 C  
ENDROOT
BRANCH   2   3
HETATM    3  C   UNL     1      -7.232   6.856  65.853  1.00  0.00    -0.074 C  
BRANCH   3   4
HETATM    4  C   UNL     1      -7.686   6.910  64.400  1.00  0.00    -0.113 C  
BRANCH   4   5
HETATM    5  C   UNL     1      -7.177   8.160  63.687  1.00  0.00    -0.089 C  
BRANCH   5   6
HETATM    6  C   UNL     1      -8.269   8.694  62.762  1.00  0.00    -0.188 C  
BRANCH   6   7
HETATM    7  C   UNL     1      -8.443  10.207  62.905  1.00  0.00    -0.178 C  
BRANCH   7   8
HETATM    8  N   UNL     1      -9.625  10.586  63.699  1.00  0.00    -0.298 NA 
BRANCH   8   9
HETATM    9  C   UNL     1      -9.370  10.695  65.147  1.00  0.00    -0.212 C  
HETATM   10  C   UNL     1      -9.918   9.568  66.019  1.00  0.00    -0.348 C  
ENDBRANCH   8   9
BRANCH   8  11
HETATM   11  C   UNL     1     -10.279  11.799  63.176  1.00  0.00    -0.337 C  
BRANCH  11  12
HETATM   12  C   UNL     1     -11.758  11.946  63.568  1.00  0.00    -0.550 C  
BRANCH  12  13
HETATM   13  C   UNL     1     -12.124  13.385  63.950  1.00  0.00    -0.514 C  
BRANCH  13  14
HETATM   14  C   UNL     1     -12.365  13.543  65.458  1.00  0.00    -0.481 C  
HETATM   15  H   UNL     1     -12.432  12.376  67.043  1.00  0.00     0.000 HD 
HETATM   16  O   UNL     1     -12.283  12.279  66.109  1.00  0.00    -0.647 OA 
BRANCH  14  17
HETATM   17  C   UNL     1     -11.380  14.513  66.084  1.00  0.00    -0.348 A  
HETATM   18  C   UNL     1     -11.558  14.925  67.413  1.00  0.00    -0.347 A  
HETATM   19  C   UNL     1     -10.709  15.873  67.987  1.00  0.00    -0.301 A  
HETATM   20  C   UNL     1      -9.674  16.425  67.237  1.00  0.00    -0.239 A  
HETATM   21  C   UNL     1     -10.298  15.045  65.357  1.00  0.00    -0.410 A  
HETATM   22  C   UNL     1      -9.448  15.993  65.932  1.00  0.00    -0.351 A  
BRANCH  20  23
HETATM   23  N   UNL     1      -8.848  17.425  67.822  1.00  0.00    -0.229 N  
HETATM   24  H   UNL     1      -8.192  17.196  68.570  1.00  0.00     0.000 HD 
BRANCH  23  25
HETATM   25  S   UNL     1      -8.986  19.003  67.238  1.00  0.00    -0.289 S  
HETATM   26  C   UNL     1     -10.755  19.190  67.151  1.00  0.00    -0.471 C  
HETATM   27  O   UNL     1      -8.486  18.957  65.881  1.00  0.00    -0.474 OA 
HETATM   28  O   UNL     1      -8.452  19.941  68.200  1.00  0.00    -0.309 OA 
ENDBRANCH  23  25
ENDBRANCH  20  23
ENDBRANCH  14  17
ENDBRANCH  13  14
ENDBRANCH  12  13
ENDBRANCH  11  12
ENDBRANCH   8  11
ENDBRANCH   7   8
ENDBRANCH   6   7
ENDBRANCH   5   6
ENDBRANCH   4   5
ENDBRANCH   3   4
ENDBRANCH   2   3
TORSDOF 14
ENDMDL
MODEL      121
REMARK 921   NORMALIZED FREE ENERGY PREDICTED BY IDOCK:   -4.08 KCAL/MOL
REMARK 922        TOTAL FREE ENERGY PREDICTED BY IDOCK:   -9.27 KCAL/MOL
REMARK 923 INTER-LIGAND FREE ENERGY PREDICTED BY IDOCK:   -7.92 KCAL/MOL
REMARK 924 INTRA-LIGAND FREE ENERGY PREDICTED BY IDOCK:   -1.35 KCAL/MOL
REMARK 927      BINDING AFFINITY PREDICTED BY RF-SCORE:    0.00 PKD
ROOT
HETATM    1  C   UNL     1     -11.212  11.949  63.510  1.00  0.00    -0.501 C  
HETATM    2  C   UNL     1     -11.174  12.590  64.884  1.00  0.00    -0.344 C  
ENDROOT
BRANCH   2   3
HETATM    3  C   UNL     1     -10.697  11.601  65.947  1.00  0.00    -0.328 C  
BRANCH   3   4
HETATM    4  C   UNL     1      -9.884  10.486  65.302  1.00  0.00    -0.345 C  
BRANCH   4   5
HETATM    5  C   UNL     1      -9.197   9.604  66.341  1.00  0.00    -0.205 C  
BRANCH   5   6
HETATM    6  C   UNL     1      -9.857   8.227  66.351  1.00  0.00    -0.283 C  
BRANCH   6   7
HETATM    7  C   UNL     1     -10.393   7.864  67.738  1.00  0.00    -0.226 C  
BRANCH   7   8
HETATM    8  N   UNL     1     -11.115   6.580  67.766  1.00  0.00    -0.310 NA 
BRANCH   8   9
HETATM    9  C   UNL     1     -10.681   5.621  66.734  1.00  0.00    -0.284 C  
HETATM   10  C   UNL     1      -9.938   4.383  67.229  1.00  0.00    -0.164 C  
ENDBRANCH   8   9
BRANCH   8  11
HETATM   11  C   UNL     1     -11.104   5.967  69.107  1.00  0.00    -0.335 C  
BRANCH  11  12
HETATM   12  C   UNL     1     -10.580   6.884  70.223  1.00  0.00    -0.246 C  
BRANCH  12  13
HETATM   13  C   UNL     1     -11.703   7.424  71.116  1.00  0.00    -0.322 C  
BRANCH  13  14
HETATM   14  C   UNL     1     -11.265   8.655  71.922  1.00  0.00    -0.343 C  
HETATM   15  H   UNL     1      -9.587   9.386  72.648  1.00  0.00     0.000 HD 
HETATM   16  O   UNL     1      -9.859   8.625  72.149  1.00  0.00    -0.297 OA 
BRANCH  14  17
HETATM   17  C   UNL     1     -11.650   9.946  71.226  1.00  0.00    -0.456 A  
HETATM   18  C   UNL     1     -10.917  10.382  70.112  1.00  0.00    -0.365 A  
HETATM   19  C   UNL     1     -11.204  11.604  69.500  1.00  0.00    -0.282 A  
HETATM   20  C   UNL     1     -12.227  12.407  69.998  1.00  0.00    -0.194 A  
HETATM   21  C   UNL     1     -12.712  10.748  71.684  1.00  0.00    -0.520 A  
HETATM   22  C   UNL     1     -13.001  11.970  71.071  1.00  0.00    -0.175 A  
BRANCH  20  23
HETATM   23  N   UNL     1     -12.476  13.671  69.393  1.00  0.00    -0.249 N  
HETATM   24  H   UNL     1     -12.824  13.738  68.436  1.00  0.00     0.000 HD 
BRANCH  23  25
HETATM   25  S   UNL     1     -12.178  15.057  70.310  1.00  0.00    -0.356 S  
HETATM   26  C   UNL     1     -13.780  15.352  71.028  1.00  0.00    -0.342 C  
HETATM   27  O   UNL     1     -11.931  16.108  69.348  1.00  0.00    -0.249 OA 
HETATM   28  O   UNL     1     -11.228  14.766  71.361  1.00  0.00    -0.196 OA 
ENDBRANCH  23  25
ENDBRANCH  20  23
ENDBRANCH  14  17
ENDBRANCH  13  14
ENDBRANCH  12  13
ENDBRANCH  11  12
ENDBRANCH   8  11
ENDBRANCH   7   8
ENDBRANCH   6   7
ENDBRANCH   5   6
ENDBRANCH   4   5
ENDBRANCH   3   4
ENDBRANCH   2   3
TORSDOF 14
ENDMDL
MODEL      122
REMARK 921   NORMALIZED FREE ENERGY PREDICTED BY IDOCK:   -4.08 KCAL/MOL
REMARK 922        TOTAL FREE ENERGY PREDICTED BY IDOCK:   -9.27 KCAL/MOL
REMARK 923 INTER-LIGAND FREE ENERGY PREDICTED BY IDOCK:   -7.63 KCAL/MOL
REMARK 924 INTRA-LIGAND FREE ENERGY PREDICTED BY IDOCK:   -1.64 KCAL/MOL
REMARK 927      BINDING AFFINITY PREDICTED BY RF-SCORE:    0.00 PKD
ROOT
HETATM    1  C   UNL     1     -12.783  11.805  63.678  1.00  0.00    -0.407 C  
HETATM    2  C   UNL     1     -11.320  12.117  63.429  1.00  0.00    -0.495 C  
ENDROOT
BRANCH   2   3
HETATM    3  C   UNL     1     -10.865  13.336  64.230  1.00  0.00    -0.414 C  
BRANCH   3   4
HETATM    4  C   UNL     1     -12.073  14.134  64.705  1.00  0.00    -0.469 C  
BRANCH   4   5
HETATM    5  C   UNL     1     -11.676  15.267  65.647  1.00  0.00     0.056 C  
BRANCH   5   6
HETATM    6  C   UNL     1     -10.182  15.547  65.498  1.00  0.00    -0.415 C  
BRANCH   6   7
HETATM    7  C   UNL     1      -9.505  15.751  66.855  1.00  0.00    -0.228 C  
BRANCH   7   8
HETATM    8  N   UNL     1      -8.245  14.999  66.997  1.00  0.00    -0.217 NA 
BRANCH   8   9
HETATM    9  C   UNL     1      -7.092  15.825  67.398  1.00  0.00    -0.203 C  
HETATM   10  C   UNL     1      -6.792  17.041  66.525  1.00  0.00    -0.281 C  
ENDBRANCH   8   9
BRANCH   8  11
HETATM   11  C   UNL     1      -8.396  13.825  67.875  1.00  0.00    -0.172 C  
BRANCH  11  12
HETATM   12  C   UNL     1      -8.875  12.552  67.160  1.00  0.00    -0.202 C  
BRANCH  12  13
HETATM   13  C   UNL     1     -10.346  12.233  67.450  1.00  0.00    -0.219 C  
BRANCH  13  14
HETATM   14  C   UNL     1     -10.757  12.627  68.875  1.00  0.00    -0.164 C  
HETATM   15  H   UNL     1     -12.151  13.727  69.727  1.00  0.00     0.000 HD 
HETATM   16  O   UNL     1     -11.896  13.483  68.845  1.00  0.00    -0.309 OA 
BRANCH  14  17
HETATM   17  C   UNL     1     -11.048  11.409  69.731  1.00  0.00    -0.198 A  
HETATM   18  C   UNL     1     -12.295  11.282  70.361  1.00  0.00    -0.415 A  
HETATM   19  C   UNL     1     -12.559  10.208  71.213  1.00  0.00    -0.508 A  
HETATM   20  C   UNL     1     -11.577   9.250  71.449  1.00  0.00    -0.367 A  
HETATM   21  C   UNL     1     -10.085  10.404  69.943  1.00  0.00    -0.144 A  
HETATM   22  C   UNL     1     -10.350   9.329  70.795  1.00  0.00    -0.348 A  
BRANCH  20  23
HETATM   23  N   UNL     1     -11.846   8.188  72.358  1.00  0.00    -0.375 N  
HETATM   24  H   UNL     1     -11.691   8.300  73.360  1.00  0.00     0.000 HD 
BRANCH  23  25
HETATM   25  S   UNL     1     -12.429   6.736  71.724  1.00  0.00    -0.293 S  
HETATM   26  C   UNL     1     -14.188   6.994  71.823  1.00  0.00    -0.261 C  
HETATM   27  O   UNL     1     -12.082   5.724  72.697  1.00  0.00    -0.212 OA 
HETATM   28  O   UNL     1     -12.042   6.604  70.337  1.00  0.00    -0.374 OA 
ENDBRANCH  23  25
ENDBRANCH  20  23
ENDBRANCH  14  17
ENDBRANCH  13  14
ENDBRANCH  12  13
ENDBRANCH  11  12
ENDBRANCH   8  11
ENDBRANCH   7   8
ENDBRANCH   6   7
ENDBRANCH   5   6
ENDBRANCH   4   5
ENDBRANCH   3   4
ENDBRANCH   2   3
TORSDOF 14
ENDMDL
MODEL      123
REMARK 921   NORMALIZED FREE ENERGY PREDICTED BY IDOCK:   -4.07 KCAL/MOL
REMARK 922        TOTAL FREE ENERGY PREDICTED BY IDOCK:   -9.26 KCAL/MOL
REMARK 923 INTER-LIGAND FREE ENERGY PREDICTED BY IDOCK:   -7.25 KCAL/MOL
REMARK 924 INTRA-LIGAND FREE ENERGY PREDICTED BY IDOCK:   -2.01 KCAL/MOL
REMARK 927      BINDING AFFINITY PREDICTED BY RF-SCORE:    0.00 PKD
ROOT
HETATM    1  C   UNL     1      -7.305  10.288  68.901  1.00  0.00    -0.090 C  
HETATM    2  C   UNL     1      -6.919   9.922  70.322  1.00  0.00    -0.147 C  
ENDROOT
BRANCH   2   3
HETATM    3  C   UNL     1      -8.008   9.092  70.999  1.00  0.00    -0.186 C  
BRANCH   3   4
HETATM    4  C   UNL     1      -7.424   8.309  72.169  1.00  0.00    -0.146 C  
BRANCH   4   5
HETATM    5  C   UNL     1      -8.466   7.417  72.838  1.00  0.00    -0.145 C  
BRANCH   5   6
HETATM    6  C   UNL     1      -9.814   8.134  72.847  1.00  0.00    -0.339 C  
BRANCH   6   7
HETATM    7  C   UNL     1     -10.976   7.159  72.646  1.00  0.00    -0.288 C  
BRANCH   7   8
HETATM    8  N   UNL     1     -11.957   7.619  71.646  1.00  0.00    -0.287 NA 
BRANCH   8   9
HETATM    9  C   UNL     1     -11.784   9.023  71.234  1.00  0.00    -0.313 C  
HETATM   10  C   UNL     1     -12.862  10.002  71.692  1.00  0.00    -0.543 C  
ENDBRANCH   8   9
BRANCH   8  11
HETATM   11  C   UNL     1     -12.023   6.720  70.480  1.00  0.00    -0.328 C  
BRANCH  11  12
HETATM   12  C   UNL     1     -10.754   6.705  69.614  1.00  0.00    -0.306 C  
BRANCH  12  13
HETATM   13  C   UNL     1     -11.025   7.133  68.167  1.00  0.00    -0.114 C  
BRANCH  13  14
HETATM   14  C   UNL     1      -9.833   7.875  67.547  1.00  0.00    -0.170 C  
HETATM   15  H   UNL     1      -8.531   7.568  66.101  1.00  0.00     0.000 HD 
HETATM   16  O   UNL     1      -9.269   7.109  66.486  1.00  0.00    -0.154 OA 
BRANCH  14  17
HETATM   17  C   UNL     1     -10.231   9.249  67.040  1.00  0.00    -0.331 A  
HETATM   18  C   UNL     1     -10.947  10.118  67.876  1.00  0.00    -0.335 A  
HETATM   19  C   UNL     1     -11.388  11.358  67.408  1.00  0.00    -0.359 A  
HETATM   20  C   UNL     1     -11.123  11.740  66.095  1.00  0.00    -0.307 A  
HETATM   21  C   UNL     1      -9.930   9.673  65.732  1.00  0.00    -0.342 A  
HETATM   22  C   UNL     1     -10.371  10.914  65.264  1.00  0.00    -0.334 A  
BRANCH  20  23
HETATM   23  N   UNL     1     -11.622  12.985  65.619  1.00  0.00    -0.337 N  
HETATM   24  H   UNL     1     -12.393  13.023  64.952  1.00  0.00     0.000 HD 
BRANCH  23  25
HETATM   25  S   UNL     1     -10.897  14.397  66.194  1.00  0.00    -0.317 S  
HETATM   26  C   UNL     1     -11.179  15.513  64.836  1.00  0.00    -0.389 C  
HETATM   27  O   UNL     1      -9.480  14.112  66.237  1.00  0.00    -0.283 OA 
HETATM   28  O   UNL     1     -11.599  14.879  67.364  1.00  0.00    -0.355 OA 
ENDBRANCH  23  25
ENDBRANCH  20  23
ENDBRANCH  14  17
ENDBRANCH  13  14
ENDBRANCH  12  13
ENDBRANCH  11  12
ENDBRANCH   8  11
ENDBRANCH   7   8
ENDBRANCH   6   7
ENDBRANCH   5   6
ENDBRANCH   4   5
ENDBRANCH   3   4
ENDBRANCH   2   3
TORSDOF 14
ENDMDL
MODEL      124
REMARK 921   NORMALIZED FREE ENERGY PREDICTED BY IDOCK:   -4.07 KCAL/MOL
REMARK 922        TOTAL FREE ENERGY PREDICTED BY IDOCK:   -9.26 KCAL/MOL
REMARK 923 INTER-LIGAND FREE ENERGY PREDICTED BY IDOCK:   -8.65 KCAL/MOL
REMARK 924 INTRA-LIGAND FREE ENERGY PREDICTED BY IDOCK:   -0.61 KCAL/MOL
REMARK 927      BINDING AFFINITY PREDICTED BY RF-SCORE:    0.00 PKD
ROOT
HETATM    1  C   UNL     1      -9.684  10.620  63.466  1.00  0.00    -0.389 C  
HETATM    2  C   UNL     1     -10.925  11.492  63.436  1.00  0.00    -0.397 C  
ENDROOT
BRANCH   2   3
HETATM    3  C   UNL     1     -10.961  12.450  64.625  1.00  0.00    -0.344 C  
BRANCH   3   4
HETATM    4  C   UNL     1     -12.401  12.705  65.053  1.00  0.00    -0.561 C  
BRANCH   4   5
HETATM    5  C   UNL     1     -12.505  13.845  66.063  1.00  0.00    -0.501 C  
BRANCH   5   6
HETATM    6  C   UNL     1     -11.830  13.427  67.368  1.00  0.00    -0.418 C  
BRANCH   6   7
HETATM    7  C   UNL     1     -11.937  14.517  68.436  1.00  0.00    -0.274 C  
BRANCH   7   8
HETATM    8  N   UNL     1     -11.710  14.017  69.804  1.00  0.00    -0.297 NA 
BRANCH   8   9
HETATM    9  C   UNL     1     -12.559  14.654  70.827  1.00  0.00    -0.350 C  
HETATM   10  C   UNL     1     -11.939  15.821  71.591  1.00  0.00    -0.527 C  
ENDBRANCH   8   9
BRANCH   8  11
HETATM   11  C   UNL     1     -11.792  12.547  69.878  1.00  0.00    -0.303 C  
BRANCH  11  12
HETATM   12  C   UNL     1     -12.601  12.012  71.069  1.00  0.00    -0.370 C  
BRANCH  12  13
HETATM   13  C   UNL     1     -13.052  10.561  70.869  1.00  0.00    -0.390 C  
BRANCH  13  14
HETATM   14  C   UNL     1     -12.917   9.727  72.150  1.00  0.00    -0.394 C  
HETATM   15  H   UNL     1     -14.108   8.730  73.361  1.00  0.00     0.000 HD 
HETATM   16  O   UNL     1     -14.192   9.247  72.568  1.00  0.00    -0.464 OA 
BRANCH  14  17
HETATM   17  C   UNL     1     -11.961   8.564  71.963  1.00  0.00    -0.427 A  
HETATM   18  C   UNL     1     -12.460   7.305  71.596  1.00  0.00    -0.394 A  
HETATM   19  C   UNL     1     -11.610   6.202  71.490  1.00  0.00    -0.304 A  
HETATM   20  C   UNL     1     -10.251   6.344  71.755  1.00  0.00    -0.197 A  
HETATM   21  C   UNL     1     -10.577   8.698  72.178  1.00  0.00    -0.411 A  
HETATM   22  C   UNL     1      -9.726   7.595  72.071  1.00  0.00    -0.209 A  
BRANCH  20  23
HETATM   23  N   UNL     1      -9.406   5.201  71.690  1.00  0.00    -0.145 N  
HETATM   24  H   UNL     1      -9.102   4.820  70.793  1.00  0.00     0.000 HD 
BRANCH  23  25
HETATM   25  S   UNL     1      -8.922   4.493  73.144  1.00  0.00    -0.116 S  
HETATM   26  C   UNL     1     -10.414   4.618  74.106  1.00  0.00    -0.278 C  
HETATM   27  O   UNL     1      -7.958   5.408  73.715  1.00  0.00    -0.107 OA 
HETATM   28  O   UNL     1      -8.599   3.098  72.939  1.00  0.00    -0.079 OA 
ENDBRANCH  23  25
ENDBRANCH  20  23
ENDBRANCH  14  17
ENDBRANCH  13  14
ENDBRANCH  12  13
ENDBRANCH  11  12
ENDBRANCH   8  11
ENDBRANCH   7   8
ENDBRANCH   6   7
ENDBRANCH   5   6
ENDBRANCH   4   5
ENDBRANCH   3   4
ENDBRANCH   2   3
TORSDOF 14
ENDMDL
MODEL      125
REMARK 921   NORMALIZED FREE ENERGY PREDICTED BY IDOCK:   -4.07 KCAL/MOL
REMARK 922        TOTAL FREE ENERGY PREDICTED BY IDOCK:   -9.25 KCAL/MOL
REMARK 923 INTER-LIGAND FREE ENERGY PREDICTED BY IDOCK:   -8.39 KCAL/MOL
REMARK 924 INTRA-LIGAND FREE ENERGY PREDICTED BY IDOCK:   -0.87 KCAL/MOL
REMARK 927      BINDING AFFINITY PREDICTED BY RF-SCORE:    0.00 PKD
ROOT
HETATM    1  C   UNL     1      -9.165  19.646  66.114  1.00  0.00    -0.397 C  
HETATM    2  C   UNL     1      -9.651  20.480  67.285  1.00  0.00    -0.580 C  
ENDROOT
BRANCH   2   3
HETATM    3  C   UNL     1     -10.430  19.633  68.288  1.00  0.00    -0.453 C  
BRANCH   3   4
HETATM    4  C   UNL     1      -9.721  18.304  68.518  1.00  0.00    -0.379 C  
BRANCH   4   5
HETATM    5  C   UNL     1     -10.641  17.112  68.262  1.00  0.00    -0.375 C  
BRANCH   5   6
HETATM    6  C   UNL     1     -10.282  15.982  69.223  1.00  0.00    -0.249 C  
BRANCH   6   7
HETATM    7  C   UNL     1     -11.363  15.779  70.287  1.00  0.00    -0.361 C  
BRANCH   7   8
HETATM    8  N   UNL     1     -11.739  14.366  70.475  1.00  0.00    -0.283 NA 
BRANCH   8   9
HETATM    9  C   UNL     1     -12.938  14.166  71.309  1.00  0.00    -0.356 C  
HETATM   10  C   UNL     1     -13.889  15.354  71.423  1.00  0.00    -0.577 C  
ENDBRANCH   8   9
BRANCH   8  11
HETATM   11  C   UNL     1     -11.851  13.647  69.193  1.00  0.00    -0.348 C  
BRANCH  11  12
HETATM   12  C   UNL     1     -10.948  12.409  69.075  1.00  0.00    -0.247 C  
BRANCH  12  13
HETATM   13  C   UNL     1     -11.632  11.133  69.577  1.00  0.00    -0.392 C  
BRANCH  13  14
HETATM   14  C   UNL     1     -10.621  10.058  69.999  1.00  0.00    -0.293 C  
HETATM   15  H   UNL     1     -10.176   9.051  71.632  1.00  0.00     0.000 HD 
HETATM   16  O   UNL     1     -10.802   9.717  71.371  1.00  0.00    -0.340 OA 
BRANCH  14  17
HETATM   17  C   UNL     1     -10.732   8.815  69.137  1.00  0.00    -0.150 A  
HETATM   18  C   UNL     1     -11.069   7.587  69.725  1.00  0.00    -0.143 A  
HETATM   19  C   UNL     1     -11.104   6.416  68.966  1.00  0.00    -0.424 A  
HETATM   20  C   UNL     1     -10.798   6.458  67.608  1.00  0.00    -0.339 A  
HETATM   21  C   UNL     1     -10.474   8.846  67.754  1.00  0.00    -0.300 A  
HETATM   22  C   UNL     1     -10.510   7.674  66.993  1.00  0.00    -0.419 A  
BRANCH  20  23
HETATM   23  N   UNL     1     -10.792   5.249  66.858  1.00  0.00    -0.376 N  
HETATM   24  H   UNL     1     -11.655   4.860  66.477  1.00  0.00     0.000 HD 
BRANCH  23  25
HETATM   25  S   UNL     1      -9.310   4.476  66.619  1.00  0.00    -0.163 S  
HETATM   26  C   UNL     1      -9.198   4.477  64.842  1.00  0.00    -0.156 C  
HETATM   27  O   UNL     1      -9.516   3.108  67.042  1.00  0.00    -0.178 OA 
HETATM   28  O   UNL     1      -8.236   5.275  67.167  1.00  0.00    -0.107 OA 
ENDBRANCH  23  25
ENDBRANCH  20  23
ENDBRANCH  14  17
ENDBRANCH  13  14
ENDBRANCH  12  13
ENDBRANCH  11  12
ENDBRANCH   8  11
ENDBRANCH   7   8
ENDBRANCH   6   7
ENDBRANCH   5   6
ENDBRANCH   4   5
ENDBRANCH   3   4
ENDBRANCH   2   3
TORSDOF 14
ENDMDL
MODEL      126
REMARK 921   NORMALIZED FREE ENERGY PREDICTED BY IDOCK:   -4.07 KCAL/MOL
REMARK 922        TOTAL FREE ENERGY PREDICTED BY IDOCK:   -9.25 KCAL/MOL
REMARK 923 INTER-LIGAND FREE ENERGY PREDICTED BY IDOCK:   -8.18 KCAL/MOL
REMARK 924 INTRA-LIGAND FREE ENERGY PREDICTED BY IDOCK:   -1.07 KCAL/MOL
REMARK 927      BINDING AFFINITY PREDICTED BY RF-SCORE:    0.00 PKD
ROOT
HETATM    1  C   UNL     1     -11.035   6.269  68.360  1.00  0.00    -0.409 C  
HETATM    2  C   UNL     1     -11.115   6.062  69.861  1.00  0.00    -0.469 C  
ENDROOT
BRANCH   2   3
HETATM    3  C   UNL     1     -10.486   7.230  70.618  1.00  0.00    -0.226 C  
BRANCH   3   4
HETATM    4  C   UNL     1     -11.153   8.540  70.215  1.00  0.00    -0.222 C  
BRANCH   4   5
HETATM    5  C   UNL     1     -10.191   9.722  70.300  1.00  0.00    -0.346 C  
BRANCH   5   6
HETATM    6  C   UNL     1     -10.256  10.521  69.001  1.00  0.00    -0.233 C  
BRANCH   6   7
HETATM    7  C   UNL     1      -8.861  10.871  68.480  1.00  0.00    -0.153 C  
BRANCH   7   8
HETATM    8  N   UNL     1      -8.561  10.272  67.167  1.00  0.00    -0.126 NA 
BRANCH   8   9
HETATM    9  C   UNL     1      -7.466   9.285  67.190  1.00  0.00    -0.091 C  
HETATM   10  C   UNL     1      -7.836   7.872  67.632  1.00  0.00    -0.122 C  
ENDBRANCH   8   9
BRANCH   8  11
HETATM   11  C   UNL     1      -9.766   9.721  66.521  1.00  0.00    -0.209 C  
BRANCH  11  12
HETATM   12  C   UNL     1     -10.178  10.435  65.224  1.00  0.00    -0.332 C  
BRANCH  12  13
HETATM   13  C   UNL     1      -9.923  11.946  65.279  1.00  0.00    -0.280 C  
BRANCH  13  14
HETATM   14  C   UNL     1     -11.217  12.748  65.474  1.00  0.00    -0.294 C  
HETATM   15  H   UNL     1     -12.893  12.564  66.491  1.00  0.00     0.000 HD 
HETATM   16  O   UNL     1     -12.092  12.068  66.370  1.00  0.00    -0.610 OA 
BRANCH  14  17
HETATM   17  C   UNL     1     -10.937  14.148  65.986  1.00  0.00    -0.304 A  
HETATM   18  C   UNL     1     -11.274  14.488  67.304  1.00  0.00    -0.341 A  
HETATM   19  C   UNL     1     -11.095  15.790  67.775  1.00  0.00    -0.313 A  
HETATM   20  C   UNL     1     -10.580  16.770  66.930  1.00  0.00    -0.219 A  
HETATM   21  C   UNL     1     -10.371  15.139  65.162  1.00  0.00    -0.416 A  
HETATM   22  C   UNL     1     -10.191  16.443  65.633  1.00  0.00    -0.349 A  
BRANCH  20  23
HETATM   23  N   UNL     1     -10.448  18.104  67.411  1.00  0.00    -0.392 N  
HETATM   24  H   UNL     1     -10.701  18.346  68.369  1.00  0.00     0.000 HD 
BRANCH  23  25
HETATM   25  S   UNL     1      -9.859  19.272  66.344  1.00  0.00    -0.412 S  
HETATM   26  C   UNL     1      -9.830  20.714  67.387  1.00  0.00    -0.387 C  
HETATM   27  O   UNL     1     -10.908  19.463  65.366  1.00  0.00    -0.452 OA 
HETATM   28  O   UNL     1      -8.510  18.945  65.939  1.00  0.00    -0.474 OA 
ENDBRANCH  23  25
ENDBRANCH  20  23
ENDBRANCH  14  17
ENDBRANCH  13  14
ENDBRANCH  12  13
ENDBRANCH  11  12
ENDBRANCH   8  11
ENDBRANCH   7   8
ENDBRANCH   6   7
ENDBRANCH   5   6
ENDBRANCH   4   5
ENDBRANCH   3   4
ENDBRANCH   2   3
TORSDOF 14
ENDMDL
MODEL      127
REMARK 921   NORMALIZED FREE ENERGY PREDICTED BY IDOCK:   -4.04 KCAL/MOL
REMARK 922        TOTAL FREE ENERGY PREDICTED BY IDOCK:   -9.19 KCAL/MOL
REMARK 923 INTER-LIGAND FREE ENERGY PREDICTED BY IDOCK:   -7.45 KCAL/MOL
REMARK 924 INTRA-LIGAND FREE ENERGY PREDICTED BY IDOCK:   -1.74 KCAL/MOL
REMARK 927      BINDING AFFINITY PREDICTED BY RF-SCORE:    0.00 PKD
ROOT
HETATM    1  C   UNL     1     -10.340   5.216  66.627  1.00  0.00    -0.325 C  
HETATM    2  C   UNL     1     -10.980   6.505  67.109  1.00  0.00    -0.480 C  
ENDROOT
BRANCH   2   3
HETATM    3  C   UNL     1     -10.421   6.931  68.465  1.00  0.00    -0.229 C  
BRANCH   3   4
HETATM    4  C   UNL     1      -8.963   6.509  68.590  1.00  0.00    -0.126 C  
BRANCH   4   5
HETATM    5  C   UNL     1      -8.303   7.091  69.838  1.00  0.00    -0.139 C  
BRANCH   5   6
HETATM    6  C   UNL     1      -9.069   8.335  70.280  1.00  0.00    -0.150 C  
BRANCH   6   7
HETATM    7  C   UNL     1      -8.279   9.616  70.001  1.00  0.00    -0.184 C  
BRANCH   7   8
HETATM    8  N   UNL     1      -8.953  10.522  69.053  1.00  0.00    -0.175 NA 
BRANCH   8   9
HETATM    9  C   UNL     1      -8.740  10.178  67.636  1.00  0.00    -0.121 C  
HETATM   10  C   UNL     1      -7.723  11.028  66.878  1.00  0.00    -0.140 C  
ENDBRANCH   8   9
BRANCH   8  11
HETATM   11  C   UNL     1     -10.386  10.678  69.359  1.00  0.00    -0.208 C  
BRANCH  11  12
HETATM   12  C   UNL     1     -11.312  10.593  68.135  1.00  0.00    -0.354 C  
BRANCH  12  13
HETATM   13  C   UNL     1     -11.908  11.953  67.754  1.00  0.00    -0.289 C  
BRANCH  13  14
HETATM   14  C   UNL     1     -11.445  12.424  66.369  1.00  0.00    -0.373 C  
HETATM   15  H   UNL     1     -12.253  12.730  64.600  1.00  0.00     0.000 HD 
HETATM   16  O   UNL     1     -12.539  12.438  65.457  1.00  0.00    -0.616 OA 
BRANCH  14  17
HETATM   17  C   UNL     1     -10.804  13.798  66.431  1.00  0.00    -0.287 A  
HETATM   18  C   UNL     1     -11.170  14.779  65.497  1.00  0.00    -0.346 A  
HETATM   19  C   UNL     1     -10.541  16.026  65.487  1.00  0.00    -0.415 A  
HETATM   20  C   UNL     1      -9.534  16.304  66.407  1.00  0.00    -0.294 A  
HETATM   21  C   UNL     1      -9.819  14.115  67.384  1.00  0.00    -0.239 A  
HETATM   22  C   UNL     1      -9.190  15.363  67.375  1.00  0.00    -0.204 A  
BRANCH  20  23
HETATM   23  N   UNL     1      -8.869  17.561  66.352  1.00  0.00    -0.257 N  
HETATM   24  H   UNL     1      -7.935  17.647  65.951  1.00  0.00     0.000 HD 
BRANCH  23  25
HETATM   25  S   UNL     1      -9.678  18.908  66.971  1.00  0.00    -0.325 S  
HETATM   26  C   UNL     1      -8.453  19.571  68.080  1.00  0.00    -0.324 C  
HETATM   27  O   UNL     1     -10.753  18.374  67.777  1.00  0.00    -0.414 OA 
HETATM   28  O   UNL     1      -9.936  19.864  65.917  1.00  0.00    -0.437 OA 
ENDBRANCH  23  25
ENDBRANCH  20  23
ENDBRANCH  14  17
ENDBRANCH  13  14
ENDBRANCH  12  13
ENDBRANCH  11  12
ENDBRANCH   8  11
ENDBRANCH   7   8
ENDBRANCH   6   7
ENDBRANCH   5   6
ENDBRANCH   4   5
ENDBRANCH   3   4
ENDBRANCH   2   3
TORSDOF 14
ENDMDL
MODEL      128
REMARK 921   NORMALIZED FREE ENERGY PREDICTED BY IDOCK:   -4.03 KCAL/MOL
REMARK 922        TOTAL FREE ENERGY PREDICTED BY IDOCK:   -9.17 KCAL/MOL
REMARK 923 INTER-LIGAND FREE ENERGY PREDICTED BY IDOCK:   -7.41 KCAL/MOL
REMARK 924 INTRA-LIGAND FREE ENERGY PREDICTED BY IDOCK:   -1.76 KCAL/MOL
REMARK 927      BINDING AFFINITY PREDICTED BY RF-SCORE:    0.00 PKD
ROOT
HETATM    1  C   UNL     1      -7.866  11.042  66.982  1.00  0.00    -0.137 C  
HETATM    2  C   UNL     1      -8.449  10.933  68.379  1.00  0.00    -0.141 C  
ENDROOT
BRANCH   2   3
HETATM    3  C   UNL     1      -9.012   9.538  68.641  1.00  0.00    -0.132 C  
BRANCH   3   4
HETATM    4  C   UNL     1      -8.474   8.991  69.958  1.00  0.00    -0.149 C  
BRANCH   4   5
HETATM    5  C   UNL     1      -7.896   7.587  69.801  1.00  0.00    -0.108 C  
BRANCH   5   6
HETATM    6  C   UNL     1      -8.299   6.738  71.004  1.00  0.00    -0.127 C  
BRANCH   6   7
HETATM    7  C   UNL     1      -9.456   5.794  70.670  1.00  0.00    -0.164 C  
BRANCH   7   8
HETATM    8  N   UNL     1     -10.660   6.495  70.186  1.00  0.00    -0.212 NA 
BRANCH   8   9
HETATM    9  C   UNL     1     -11.128   6.047  68.863  1.00  0.00    -0.279 C  
HETATM   10  C   UNL     1     -10.057   5.534  67.903  1.00  0.00    -0.218 C  
ENDBRANCH   8   9
BRANCH   8  11
HETATM   11  C   UNL     1     -11.750   6.472  71.178  1.00  0.00    -0.335 C  
BRANCH  11  12
HETATM   12  C   UNL     1     -11.477   7.295  72.446  1.00  0.00    -0.327 C  
BRANCH  12  13
HETATM   13  C   UNL     1     -11.418   8.802  72.167  1.00  0.00    -0.421 C  
BRANCH  13  14
HETATM   14  C   UNL     1     -12.697   9.319  71.494  1.00  0.00    -0.350 C  
HETATM   15  H   UNL     1     -14.603   9.499  71.955  1.00  0.00     0.000 HD 
HETATM   16  O   UNL     1     -13.811   9.179  72.371  1.00  0.00    -0.469 OA 
BRANCH  14  17
HETATM   17  C   UNL     1     -12.556  10.767  71.063  1.00  0.00    -0.520 A  
HETATM   18  C   UNL     1     -13.087  11.787  71.867  1.00  0.00    -0.482 A  
HETATM   19  C   UNL     1     -13.036  13.121  71.455  1.00  0.00    -0.412 A  
HETATM   20  C   UNL     1     -12.456  13.449  70.232  1.00  0.00    -0.215 A  
HETATM   21  C   UNL     1     -11.930  11.124  69.854  1.00  0.00    -0.439 A  
HETATM   22  C   UNL     1     -11.878  12.458  69.443  1.00  0.00    -0.365 A  
BRANCH  20  23
HETATM   23  N   UNL     1     -12.455  14.807  69.806  1.00  0.00    -0.539 N  
HETATM   24  H   UNL     1     -13.204  15.176  69.219  1.00  0.00     0.000 HD 
BRANCH  23  25
HETATM   25  S   UNL     1     -11.174  15.789  70.302  1.00  0.00    -0.396 S  
HETATM   26  C   UNL     1     -11.739  16.314  71.907  1.00  0.00    -0.438 C  
HETATM   27  O   UNL     1     -11.212  16.941  69.428  1.00  0.00    -0.104 OA 
HETATM   28  O   UNL     1      -9.970  15.002  70.452  1.00  0.00     0.065 OA 
ENDBRANCH  23  25
ENDBRANCH  20  23
ENDBRANCH  14  17
ENDBRANCH  13  14
ENDBRANCH  12  13
ENDBRANCH  11  12
ENDBRANCH   8  11
ENDBRANCH   7   8
ENDBRANCH   6   7
ENDBRANCH   5   6
ENDBRANCH   4   5
ENDBRANCH   3   4
ENDBRANCH   2   3
TORSDOF 14
ENDMDL
MODEL      129
REMARK 921   NORMALIZED FREE ENERGY PREDICTED BY IDOCK:   -4.01 KCAL/MOL
REMARK 922        TOTAL FREE ENERGY PREDICTED BY IDOCK:   -9.15 KCAL/MOL
REMARK 923 INTER-LIGAND FREE ENERGY PREDICTED BY IDOCK:   -7.24 KCAL/MOL
REMARK 924 INTRA-LIGAND FREE ENERGY PREDICTED BY IDOCK:   -1.91 KCAL/MOL
REMARK 927      BINDING AFFINITY PREDICTED BY RF-SCORE:    0.00 PKD
ROOT
HETATM    1  C   UNL     1     -11.097  13.677  64.745  1.00  0.00    -0.375 C  
HETATM    2  C   UNL     1     -11.057  15.194  64.757  1.00  0.00    -0.395 C  
ENDROOT
BRANCH   2   3
HETATM    3  C   UNL     1      -9.871  15.713  65.569  1.00  0.00    -0.326 C  
BRANCH   3   4
HETATM    4  C   UNL     1     -10.298  15.991  67.005  1.00  0.00    -0.292 C  
BRANCH   4   5
HETATM    5  C   UNL     1      -9.172  15.718  68.000  1.00  0.00    -0.188 C  
BRANCH   5   6
HETATM    6  C   UNL     1      -7.995  15.079  67.267  1.00  0.00    -0.234 C  
BRANCH   6   7
HETATM    7  C   UNL     1      -7.786  13.624  67.692  1.00  0.00    -0.178 C  
BRANCH   7   8
HETATM    8  N   UNL     1      -6.533  13.041  67.179  1.00  0.00    -0.184 NA 
BRANCH   8   9
HETATM    9  C   UNL     1      -5.350  13.327  68.010  1.00  0.00    -0.109 C  
HETATM   10  C   UNL     1      -5.488  13.050  69.504  1.00  0.00    -0.083 C  
ENDBRANCH   8   9
BRANCH   8  11
HETATM   11  C   UNL     1      -6.662  11.598  66.908  1.00  0.00    -0.124 C  
BRANCH  11  12
HETATM   12  C   UNL     1      -8.053  11.163  66.420  1.00  0.00    -0.159 C  
BRANCH  12  13
HETATM   13  C   UNL     1      -8.777  10.268  67.433  1.00  0.00    -0.128 C  
BRANCH  13  14
HETATM   14  C   UNL     1     -10.303  10.324  67.272  1.00  0.00    -0.232 C  
HETATM   15  H   UNL     1     -11.799   9.045  67.206  1.00  0.00     0.000 HD 
HETATM   16  O   UNL     1     -10.854   9.011  67.305  1.00  0.00    -0.223 OA 
BRANCH  14  17
HETATM   17  C   UNL     1     -10.947  11.184  68.344  1.00  0.00    -0.277 A  
HETATM   18  C   UNL     1     -11.274  10.619  69.586  1.00  0.00    -0.351 A  
HETATM   19  C   UNL     1     -11.935  11.369  70.561  1.00  0.00    -0.451 A  
HETATM   20  C   UNL     1     -12.282  12.693  70.303  1.00  0.00    -0.271 A  
HETATM   21  C   UNL     1     -11.261  12.537  68.121  1.00  0.00    -0.312 A  
HETATM   22  C   UNL     1     -11.922  13.288  69.096  1.00  0.00    -0.343 A  
BRANCH  20  23
HETATM   23  N   UNL     1     -12.998  13.429  71.288  1.00  0.00    -0.318 N  
HETATM   24  H   UNL     1     -13.741  12.993  71.834  1.00  0.00     0.000 HD 
BRANCH  23  25
HETATM   25  S   UNL     1     -12.577  15.046  71.525  1.00  0.00    -0.374 S  
HETATM   26  C   UNL     1     -13.384  15.394  73.073  1.00  0.00    -0.527 C  
HETATM   27  O   UNL     1     -13.276  15.781  70.494  1.00  0.00    -0.449 OA 
HETATM   28  O   UNL     1     -11.145  15.171  71.693  1.00  0.00    -0.334 OA 
ENDBRANCH  23  25
ENDBRANCH  20  23
ENDBRANCH  14  17
ENDBRANCH  13  14
ENDBRANCH  12  13
ENDBRANCH  11  12
ENDBRANCH   8  11
ENDBRANCH   7   8
ENDBRANCH   6   7
ENDBRANCH   5   6
ENDBRANCH   4   5
ENDBRANCH   3   4
ENDBRANCH   2   3
TORSDOF 14
ENDMDL
MODEL      130
REMARK 921   NORMALIZED FREE ENERGY PREDICTED BY IDOCK:   -4.01 KCAL/MOL
REMARK 922        TOTAL FREE ENERGY PREDICTED BY IDOCK:   -9.14 KCAL/MOL
REMARK 923 INTER-LIGAND FREE ENERGY PREDICTED BY IDOCK:   -7.77 KCAL/MOL
REMARK 924 INTRA-LIGAND FREE ENERGY PREDICTED BY IDOCK:   -1.37 KCAL/MOL
REMARK 927      BINDING AFFINITY PREDICTED BY RF-SCORE:    0.00 PKD
ROOT
HETATM    1  C   UNL     1      -8.634   5.734  66.051  1.00  0.00    -0.139 C  
HETATM    2  C   UNL     1      -9.183   5.239  67.377  1.00  0.00    -0.116 C  
ENDROOT
BRANCH   2   3
HETATM    3  C   UNL     1      -8.172   5.433  68.505  1.00  0.00    -0.094 C  
BRANCH   3   4
HETATM    4  C   UNL     1      -8.853   6.044  69.724  1.00  0.00    -0.134 C  
BRANCH   4   5
HETATM    5  C   UNL     1      -8.500   7.518  69.897  1.00  0.00    -0.138 C  
BRANCH   5   6
HETATM    6  C   UNL     1      -9.737   8.370  69.618  1.00  0.00    -0.173 C  
BRANCH   6   7
HETATM    7  C   UNL     1     -11.024   7.650  70.024  1.00  0.00    -0.228 C  
BRANCH   7   8
HETATM    8  N   UNL     1     -11.748   8.322  71.119  1.00  0.00    -0.279 NA 
BRANCH   8   9
HETATM    9  C   UNL     1     -11.562   7.693  72.439  1.00  0.00    -0.336 C  
HETATM   10  C   UNL     1     -11.319   6.186  72.444  1.00  0.00    -0.340 C  
ENDBRANCH   8   9
BRANCH   8  11
HETATM   11  C   UNL     1     -11.462   9.767  71.167  1.00  0.00    -0.398 C  
BRANCH  11  12
HETATM   12  C   UNL     1     -12.573  10.657  70.588  1.00  0.00    -0.454 C  
BRANCH  12  13
HETATM   13  C   UNL     1     -12.085  12.075  70.272  1.00  0.00    -0.395 C  
BRANCH  13  14
HETATM   14  C   UNL     1     -11.380  12.158  68.910  1.00  0.00    -0.283 C  
HETATM   15  H   UNL     1     -11.807  11.742  67.033  1.00  0.00     0.000 HD 
HETATM   16  O   UNL     1     -12.242  11.691  67.876  1.00  0.00    -0.560 OA 
BRANCH  14  17
HETATM   17  C   UNL     1     -10.919  13.570  68.603  1.00  0.00    -0.289 A  
HETATM   18  C   UNL     1      -9.656  13.780  68.030  1.00  0.00    -0.214 A  
HETATM   19  C   UNL     1      -9.179  15.073  67.807  1.00  0.00    -0.181 A  
HETATM   20  C   UNL     1      -9.958  16.172  68.160  1.00  0.00    -0.230 A  
HETATM   21  C   UNL     1     -11.712  14.692  68.907  1.00  0.00    -0.343 A  
HETATM   22  C   UNL     1     -11.235  15.986  68.683  1.00  0.00    -0.366 A  
BRANCH  20  23
HETATM   23  N   UNL     1      -9.437  17.484  67.971  1.00  0.00    -0.272 N  
HETATM   24  H   UNL     1      -8.713  17.857  68.586  1.00  0.00     0.000 HD 
BRANCH  23  25
HETATM   25  S   UNL     1     -10.054  18.401  66.695  1.00  0.00    -0.401 S  
HETATM   26  C   UNL     1      -8.645  19.404  66.273  1.00  0.00    -0.345 C  
HETATM   27  O   UNL     1     -11.045  19.270  67.291  1.00  0.00    -0.442 OA 
HETATM   28  O   UNL     1     -10.386  17.545  65.578  1.00  0.00    -0.620 OA 
ENDBRANCH  23  25
ENDBRANCH  20  23
ENDBRANCH  14  17
ENDBRANCH  13  14
ENDBRANCH  12  13
ENDBRANCH  11  12
ENDBRANCH   8  11
ENDBRANCH   7   8
ENDBRANCH   6   7
ENDBRANCH   5   6
ENDBRANCH   4   5
ENDBRANCH   3   4
ENDBRANCH   2   3
TORSDOF 14
ENDMDL
MODEL      131
REMARK 921   NORMALIZED FREE ENERGY PREDICTED BY IDOCK:   -4.01 KCAL/MOL
REMARK 922        TOTAL FREE ENERGY PREDICTED BY IDOCK:   -9.14 KCAL/MOL
REMARK 923 INTER-LIGAND FREE ENERGY PREDICTED BY IDOCK:   -6.70 KCAL/MOL
REMARK 924 INTRA-LIGAND FREE ENERGY PREDICTED BY IDOCK:   -2.44 KCAL/MOL
REMARK 927      BINDING AFFINITY PREDICTED BY RF-SCORE:    0.00 PKD
ROOT
HETATM    1  C   UNL     1      -6.935  10.068  70.247  1.00  0.00    -0.153 C  
HETATM    2  C   UNL     1      -8.420  10.053  69.935  1.00  0.00    -0.171 C  
ENDROOT
BRANCH   2   3
HETATM    3  C   UNL     1      -9.176   9.107  70.866  1.00  0.00    -0.326 C  
BRANCH   3   4
HETATM    4  C   UNL     1     -10.678   9.320  70.727  1.00  0.00    -0.350 C  
BRANCH   4   5
HETATM    5  C   UNL     1     -11.443   8.815  71.947  1.00  0.00    -0.428 C  
BRANCH   5   6
HETATM    6  C   UNL     1     -10.777   7.544  72.470  1.00  0.00    -0.335 C  
BRANCH   6   7
HETATM    7  C   UNL     1     -11.189   6.313  71.659  1.00  0.00    -0.285 C  
BRANCH   7   8
HETATM    8  N   UNL     1     -10.042   5.548  71.138  1.00  0.00    -0.198 NA 
BRANCH   8   9
HETATM    9  C   UNL     1     -10.022   4.134  71.553  1.00  0.00    -0.160 C  
HETATM   10  C   UNL     1      -9.476   3.137  70.534  1.00  0.00    -0.236 C  
ENDBRANCH   8   9
BRANCH   8  11
HETATM   11  C   UNL     1      -9.905   5.681  69.676  1.00  0.00    -0.184 C  
BRANCH  11  12
HETATM   12  C   UNL     1     -11.153   6.229  68.966  1.00  0.00    -0.446 C  
BRANCH  12  13
HETATM   13  C   UNL     1     -10.910   6.499  67.476  1.00  0.00    -0.433 C  
BRANCH  13  14
HETATM   14  C   UNL     1      -9.469   6.946  67.194  1.00  0.00    -0.140 C  
HETATM   15  H   UNL     1      -8.038   6.495  65.919  1.00  0.00     0.000 HD 
HETATM   16  O   UNL     1      -8.929   6.218  66.094  1.00  0.00    -0.153 OA 
BRANCH  14  17
HETATM   17  C   UNL     1      -9.389   8.436  66.918  1.00  0.00    -0.221 A  
HETATM   18  C   UNL     1     -10.535   9.232  67.063  1.00  0.00    -0.303 A  
HETATM   19  C   UNL     1     -10.505  10.592  66.743  1.00  0.00    -0.302 A  
HETATM   20  C   UNL     1      -9.329  11.169  66.271  1.00  0.00    -0.195 A  
HETATM   21  C   UNL     1      -8.197   9.048  66.487  1.00  0.00    -0.114 A  
HETATM   22  C   UNL     1      -8.167  10.408  66.169  1.00  0.00    -0.144 A  
BRANCH  20  23
HETATM   23  N   UNL     1      -9.328  12.545  65.905  1.00  0.00    -0.435 N  
HETATM   24  H   UNL     1      -9.160  12.833  64.940  1.00  0.00     0.000 HD 
BRANCH  23  25
HETATM   25  S   UNL     1      -9.615  13.684  67.117  1.00  0.00    -0.249 S  
HETATM   26  C   UNL     1      -8.936  15.156  66.380  1.00  0.00    -0.279 C  
HETATM   27  O   UNL     1      -8.750  13.306  68.213  1.00  0.00    -0.176 OA 
HETATM   28  O   UNL     1     -11.038  13.859  67.312  1.00  0.00    -0.288 OA 
ENDBRANCH  23  25
ENDBRANCH  20  23
ENDBRANCH  14  17
ENDBRANCH  13  14
ENDBRANCH  12  13
ENDBRANCH  11  12
ENDBRANCH   8  11
ENDBRANCH   7   8
ENDBRANCH   6   7
ENDBRANCH   5   6
ENDBRANCH   4   5
ENDBRANCH   3   4
ENDBRANCH   2   3
TORSDOF 14
ENDMDL
MODEL      132
REMARK 921   NORMALIZED FREE ENERGY PREDICTED BY IDOCK:   -3.98 KCAL/MOL
REMARK 922        TOTAL FREE ENERGY PREDICTED BY IDOCK:   -9.08 KCAL/MOL
REMARK 923 INTER-LIGAND FREE ENERGY PREDICTED BY IDOCK:   -7.94 KCAL/MOL
REMARK 924 INTRA-LIGAND FREE ENERGY PREDICTED BY IDOCK:   -1.14 KCAL/MOL
REMARK 927      BINDING AFFINITY PREDICTED BY RF-SCORE:    0.00 PKD
ROOT
HETATM    1  C   UNL     1     -11.906  13.898  65.228  1.00  0.00    -0.365 C  
HETATM    2  C   UNL     1     -11.250  15.255  65.050  1.00  0.00    -0.409 C  
ENDROOT
BRANCH   2   3
HETATM    3  C   UNL     1     -10.296  15.568  66.201  1.00  0.00    -0.327 C  
BRANCH   3   4
HETATM    4  C   UNL     1     -10.226  17.072  66.433  1.00  0.00    -0.330 C  
BRANCH   4   5
HETATM    5  C   UNL     1     -10.669  17.455  67.842  1.00  0.00    -0.351 C  
BRANCH   5   6
HETATM    6  C   UNL     1     -10.672  16.211  68.727  1.00  0.00    -0.294 C  
BRANCH   6   7
HETATM    7  C   UNL     1     -10.970  16.554  70.188  1.00  0.00    -0.207 C  
BRANCH   7   8
HETATM    8  N   UNL     1     -11.506  15.416  70.957  1.00  0.00    -0.332 NA 
BRANCH   8   9
HETATM    9  C   UNL     1     -12.026  15.779  72.287  1.00  0.00    -0.493 C  
HETATM   10  C   UNL     1     -13.533  15.643  72.486  1.00  0.00    -0.630 C  
ENDBRANCH   8   9
BRANCH   8  11
HETATM   11  C   UNL     1     -12.497  14.644  70.186  1.00  0.00    -0.317 C  
BRANCH  11  12
HETATM   12  C   UNL     1     -12.420  13.123  70.390  1.00  0.00    -0.280 C  
BRANCH  12  13
HETATM   13  C   UNL     1     -11.449  12.448  69.415  1.00  0.00    -0.336 C  
BRANCH  13  14
HETATM   14  C   UNL     1     -11.956  11.077  68.945  1.00  0.00    -0.262 C  
HETATM   15  H   UNL     1     -12.167  10.120  67.237  1.00  0.00     0.000 HD 
HETATM   16  O   UNL     1     -11.854  10.969  67.528  1.00  0.00    -0.571 OA 
BRANCH  14  17
HETATM   17  C   UNL     1     -11.197   9.943  69.608  1.00  0.00    -0.251 A  
HETATM   18  C   UNL     1     -11.366   9.700  70.979  1.00  0.00    -0.444 A  
HETATM   19  C   UNL     1     -10.623   8.710  71.626  1.00  0.00    -0.374 A  
HETATM   20  C   UNL     1      -9.698   7.955  70.910  1.00  0.00    -0.164 A  
HETATM   21  C   UNL     1     -10.294   9.136  68.891  1.00  0.00    -0.232 A  
HETATM   22  C   UNL     1      -9.551   8.145  69.538  1.00  0.00    -0.168 A  
BRANCH  20  23
HETATM   23  N   UNL     1      -8.914   6.983  71.594  1.00  0.00    -0.135 N  
HETATM   24  H   UNL     1      -8.958   5.996  71.339  1.00  0.00     0.000 HD 
BRANCH  23  25
HETATM   25  S   UNL     1      -7.910   7.516  72.842  1.00  0.00    -0.107 S  
HETATM   26  C   UNL     1      -6.619   6.291  72.799  1.00  0.00    -0.065 C  
HETATM   27  O   UNL     1      -8.666   7.310  74.059  1.00  0.00    -0.172 OA 
HETATM   28  O   UNL     1      -7.353   8.811  72.518  1.00  0.00    -0.323 OA 
ENDBRANCH  23  25
ENDBRANCH  20  23
ENDBRANCH  14  17
ENDBRANCH  13  14
ENDBRANCH  12  13
ENDBRANCH  11  12
ENDBRANCH   8  11
ENDBRANCH   7   8
ENDBRANCH   6   7
ENDBRANCH   5   6
ENDBRANCH   4   5
ENDBRANCH   3   4
ENDBRANCH   2   3
TORSDOF 14
ENDMDL
MODEL      133
REMARK 921   NORMALIZED FREE ENERGY PREDICTED BY IDOCK:   -3.97 KCAL/MOL
REMARK 922        TOTAL FREE ENERGY PREDICTED BY IDOCK:   -9.08 KCAL/MOL
REMARK 923 INTER-LIGAND FREE ENERGY PREDICTED BY IDOCK:   -8.16 KCAL/MOL
REMARK 924 INTRA-LIGAND FREE ENERGY PREDICTED BY IDOCK:   -0.91 KCAL/MOL
REMARK 927      BINDING AFFINITY PREDICTED BY RF-SCORE:    0.00 PKD
ROOT
HETATM    1  C   UNL     1      -9.993  11.218  63.907  1.00  0.00    -0.368 C  
HETATM    2  C   UNL     1     -11.214  12.059  64.229  1.00  0.00    -0.421 C  
ENDROOT
BRANCH   2   3
HETATM    3  C   UNL     1     -10.950  12.997  65.406  1.00  0.00    -0.297 C  
BRANCH   3   4
HETATM    4  C   UNL     1     -12.264  13.405  66.059  1.00  0.00    -0.491 C  
BRANCH   4   5
HETATM    5  C   UNL     1     -12.047  14.341  67.246  1.00  0.00    -0.390 C  
BRANCH   5   6
HETATM    6  C   UNL     1     -11.918  13.515  68.523  1.00  0.00    -0.379 C  
BRANCH   6   7
HETATM    7  C   UNL     1     -12.249  14.341  69.768  1.00  0.00    -0.339 C  
BRANCH   7   8
HETATM    8  N   UNL     1     -12.366  13.529  70.993  1.00  0.00    -0.367 NA 
BRANCH   8   9
HETATM    9  C   UNL     1     -13.587  13.792  71.776  1.00  0.00    -0.368 C  
HETATM   10  C   UNL     1     -13.551  15.007  72.699  1.00  0.00    -0.566 C  
ENDBRANCH   8   9
BRANCH   8  11
HETATM   11  C   UNL     1     -12.202  12.090  70.721  1.00  0.00    -0.286 C  
BRANCH  11  12
HETATM   12  C   UNL     1     -13.020  11.170  71.641  1.00  0.00    -0.548 C  
BRANCH  12  13
HETATM   13  C   UNL     1     -13.147   9.746  71.086  1.00  0.00    -0.424 C  
BRANCH  13  14
HETATM   14  C   UNL     1     -12.876   8.679  72.155  1.00  0.00    -0.391 C  
HETATM   15  H   UNL     1     -13.397   6.811  72.498  1.00  0.00     0.000 HD 
HETATM   16  O   UNL     1     -13.565   7.472  71.837  1.00  0.00    -0.311 OA 
BRANCH  14  17
HETATM   17  C   UNL     1     -11.392   8.404  72.309  1.00  0.00    -0.448 A  
HETATM   18  C   UNL     1     -10.482   8.973  71.406  1.00  0.00    -0.395 A  
HETATM   19  C   UNL     1      -9.119   8.676  71.482  1.00  0.00    -0.308 A  
HETATM   20  C   UNL     1      -8.652   7.800  72.459  1.00  0.00    -0.136 A  
HETATM   21  C   UNL     1     -10.895   7.561  73.320  1.00  0.00    -0.409 A  
HETATM   22  C   UNL     1      -9.531   7.264  73.397  1.00  0.00    -0.252 A  
BRANCH  20  23
HETATM   23  N   UNL     1      -7.268   7.470  72.493  1.00  0.00    -0.071 N  
HETATM   24  H   UNL     1      -6.648   7.869  73.198  1.00  0.00     0.000 HD 
BRANCH  23  25
HETATM   25  S   UNL     1      -6.685   6.396  71.328  1.00  0.00    -0.059 S  
HETATM   26  C   UNL     1      -5.406   5.556  72.237  1.00  0.00    -0.017 C  
HETATM   27  O   UNL     1      -6.040   7.223  70.331  1.00  0.00    -0.027 OA 
HETATM   28  O   UNL     1      -7.714   5.448  70.962  1.00  0.00    -0.093 OA 
ENDBRANCH  23  25
ENDBRANCH  20  23
ENDBRANCH  14  17
ENDBRANCH  13  14
ENDBRANCH  12  13
ENDBRANCH  11  12
ENDBRANCH   8  11
ENDBRANCH   7   8
ENDBRANCH   6   7
ENDBRANCH   5   6
ENDBRANCH   4   5
ENDBRANCH   3   4
ENDBRANCH   2   3
TORSDOF 14
ENDMDL
MODEL      134
REMARK 921   NORMALIZED FREE ENERGY PREDICTED BY IDOCK:   -3.95 KCAL/MOL
REMARK 922        TOTAL FREE ENERGY PREDICTED BY IDOCK:   -9.04 KCAL/MOL
REMARK 923 INTER-LIGAND FREE ENERGY PREDICTED BY IDOCK:   -7.95 KCAL/MOL
REMARK 924 INTRA-LIGAND FREE ENERGY PREDICTED BY IDOCK:   -1.09 KCAL/MOL
REMARK 927      BINDING AFFINITY PREDICTED BY RF-SCORE:    0.00 PKD
ROOT
HETATM    1  C   UNL     1     -14.182   7.345  71.357  1.00  0.00    -0.508 C  
HETATM    2  C   UNL     1     -14.336   8.763  71.872  1.00  0.00    -0.441 C  
ENDROOT
BRANCH   2   3
HETATM    3  C   UNL     1     -13.002   9.508  71.860  1.00  0.00    -0.514 C  
BRANCH   3   4
HETATM    4  C   UNL     1     -11.851   8.530  72.064  1.00  0.00    -0.429 C  
BRANCH   4   5
HETATM    5  C   UNL     1     -10.584   8.979  71.343  1.00  0.00    -0.393 C  
BRANCH   5   6
HETATM    6  C   UNL     1     -10.951   9.990  70.258  1.00  0.00    -0.377 C  
BRANCH   6   7
HETATM    7  C   UNL     1      -9.902  10.032  69.145  1.00  0.00    -0.205 C  
BRANCH   7   8
HETATM    8  N   UNL     1     -10.455  10.433  67.838  1.00  0.00    -0.194 NA 
BRANCH   8   9
HETATM    9  C   UNL     1     -10.686   9.311  66.911  1.00  0.00    -0.094 C  
HETATM   10  C   UNL     1     -10.369   7.916  67.444  1.00  0.00    -0.349 C  
ENDBRANCH   8   9
BRANCH   8  11
HETATM   11  C   UNL     1     -11.660  11.270  67.979  1.00  0.00    -0.272 C  
BRANCH  11  12
HETATM   12  C   UNL     1     -11.403  12.781  67.877  1.00  0.00    -0.339 C  
BRANCH  12  13
HETATM   13  C   UNL     1     -10.352  13.128  66.816  1.00  0.00    -0.252 C  
BRANCH  13  14
HETATM   14  C   UNL     1      -8.990  13.468  67.435  1.00  0.00    -0.219 C  
HETATM   15  H   UNL     1      -7.126  12.858  67.255  1.00  0.00     0.000 HD 
HETATM   16  O   UNL     1      -7.970  12.648  66.872  1.00  0.00    -0.101 OA 
BRANCH  14  17
HETATM   17  C   UNL     1      -8.640  14.932  67.248  1.00  0.00    -0.232 A  
HETATM   18  C   UNL     1      -9.609  15.823  66.762  1.00  0.00    -0.253 A  
HETATM   19  C   UNL     1      -9.289  17.159  66.510  1.00  0.00    -0.286 A  
HETATM   20  C   UNL     1      -7.995  17.619  66.738  1.00  0.00    -0.239 A  
HETATM   21  C   UNL     1      -7.351  15.428  67.519  1.00  0.00    -0.222 A  
HETATM   22  C   UNL     1      -7.031  16.765  67.268  1.00  0.00    -0.210 A  
BRANCH  20  23
HETATM   23  N   UNL     1      -7.674  18.971  66.431  1.00  0.00    -0.264 N  
HETATM   24  H   UNL     1      -7.316  19.233  65.512  1.00  0.00     0.000 HD 
BRANCH  23  25
HETATM   25  S   UNL     1      -7.903  20.130  67.638  1.00  0.00    -0.281 S  
HETATM   26  C   UNL     1      -9.596  20.603  67.350  1.00  0.00    -0.404 C  
HETATM   27  O   UNL     1      -7.068  21.249  67.261  1.00  0.00    -0.522 OA 
HETATM   28  O   UNL     1      -7.792  19.520  68.944  1.00  0.00    -0.356 OA 
ENDBRANCH  23  25
ENDBRANCH  20  23
ENDBRANCH  14  17
ENDBRANCH  13  14
ENDBRANCH  12  13
ENDBRANCH  11  12
ENDBRANCH   8  11
ENDBRANCH   7   8
ENDBRANCH   6   7
ENDBRANCH   5   6
ENDBRANCH   4   5
ENDBRANCH   3   4
ENDBRANCH   2   3
TORSDOF 14
ENDMDL
MODEL      135
REMARK 921   NORMALIZED FREE ENERGY PREDICTED BY IDOCK:   -3.95 KCAL/MOL
REMARK 922        TOTAL FREE ENERGY PREDICTED BY IDOCK:   -9.04 KCAL/MOL
REMARK 923 INTER-LIGAND FREE ENERGY PREDICTED BY IDOCK:   -8.10 KCAL/MOL
REMARK 924 INTRA-LIGAND FREE ENERGY PREDICTED BY IDOCK:   -0.93 KCAL/MOL
REMARK 927      BINDING AFFINITY PREDICTED BY RF-SCORE:    0.00 PKD
ROOT
HETATM    1  C   UNL     1      -9.137   4.234  64.868  1.00  0.00    -0.148 C  
HETATM    2  C   UNL     1      -9.124   4.806  66.273  1.00  0.00    -0.122 C  
ENDROOT
BRANCH   2   3
HETATM    3  C   UNL     1     -10.534   4.882  66.857  1.00  0.00    -0.202 C  
BRANCH   3   4
HETATM    4  C   UNL     1     -10.832   6.300  67.330  1.00  0.00    -0.457 C  
BRANCH   4   5
HETATM    5  C   UNL     1     -11.210   6.342  68.808  1.00  0.00    -0.357 C  
BRANCH   5   6
HETATM    6  C   UNL     1     -10.583   7.575  69.455  1.00  0.00    -0.225 C  
BRANCH   6   7
HETATM    7  C   UNL     1     -10.253   8.652  68.420  1.00  0.00    -0.200 C  
BRANCH   7   8
HETATM    8  N   UNL     1     -10.869   9.957  68.719  1.00  0.00    -0.221 NA 
BRANCH   8   9
HETATM    9  C   UNL     1     -11.277  10.123  70.126  1.00  0.00    -0.310 C  
HETATM   10  C   UNL     1     -12.322  11.199  70.407  1.00  0.00    -0.430 C  
ENDBRANCH   8   9
BRANCH   8  11
HETATM   11  C   UNL     1     -10.032  11.083  68.267  1.00  0.00    -0.179 C  
BRANCH  11  12
HETATM   12  C   UNL     1     -10.377  11.612  66.866  1.00  0.00    -0.253 C  
BRANCH  12  13
HETATM   13  C   UNL     1     -11.753  12.287  66.816  1.00  0.00    -0.411 C  
BRANCH  13  14
HETATM   14  C   UNL     1     -11.817  13.398  65.759  1.00  0.00    -0.377 C  
HETATM   15  H   UNL     1     -13.199  14.271  64.660  1.00  0.00     0.000 HD 
HETATM   16  O   UNL     1     -13.158  13.584  65.315  1.00  0.00    -0.713 OA 
BRANCH  14  17
HETATM   17  C   UNL     1     -11.260  14.707  66.287  1.00  0.00    -0.340 A  
HETATM   18  C   UNL     1     -11.349  14.999  67.656  1.00  0.00    -0.342 A  
HETATM   19  C   UNL     1     -10.912  16.228  68.155  1.00  0.00    -0.343 A  
HETATM   20  C   UNL     1     -10.384  17.182  67.288  1.00  0.00    -0.320 A  
HETATM   21  C   UNL     1     -10.679  15.664  65.434  1.00  0.00    -0.424 A  
HETATM   22  C   UNL     1     -10.240  16.893  65.933  1.00  0.00    -0.330 A  
BRANCH  20  23
HETATM   23  N   UNL     1      -9.987  18.447  67.805  1.00  0.00    -0.330 N  
HETATM   24  H   UNL     1     -10.671  19.186  67.972  1.00  0.00     0.000 HD 
BRANCH  23  25
HETATM   25  S   UNL     1      -8.349  18.687  68.132  1.00  0.00    -0.316 S  
HETATM   26  C   UNL     1      -7.725  19.090  66.514  1.00  0.00    -0.259 C  
HETATM   27  O   UNL     1      -7.832  17.383  68.486  1.00  0.00    -0.249 OA 
HETATM   28  O   UNL     1      -8.175  19.823  69.010  1.00  0.00    -0.244 OA 
ENDBRANCH  23  25
ENDBRANCH  20  23
ENDBRANCH  14  17
ENDBRANCH  13  14
ENDBRANCH  12  13
ENDBRANCH  11  12
ENDBRANCH   8  11
ENDBRANCH   7   8
ENDBRANCH   6   7
ENDBRANCH   5   6
ENDBRANCH   4   5
ENDBRANCH   3   4
ENDBRANCH   2   3
TORSDOF 14
ENDMDL
MODEL      136
REMARK 921   NORMALIZED FREE ENERGY PREDICTED BY IDOCK:   -3.95 KCAL/MOL
REMARK 922        TOTAL FREE ENERGY PREDICTED BY IDOCK:   -9.04 KCAL/MOL
REMARK 923 INTER-LIGAND FREE ENERGY PREDICTED BY IDOCK:   -7.36 KCAL/MOL
REMARK 924 INTRA-LIGAND FREE ENERGY PREDICTED BY IDOCK:   -1.68 KCAL/MOL
REMARK 927      BINDING AFFINITY PREDICTED BY RF-SCORE:    0.00 PKD
ROOT
HETATM    1  C   UNL     1     -10.779   6.864  66.824  1.00  0.00    -0.296 C  
HETATM    2  C   UNL     1     -10.017   8.152  66.574  1.00  0.00    -0.302 C  
ENDROOT
BRANCH   2   3
HETATM    3  C   UNL     1      -8.510   7.907  66.526  1.00  0.00    -0.134 C  
BRANCH   3   4
HETATM    4  C   UNL     1      -8.089   6.985  67.664  1.00  0.00    -0.114 C  
BRANCH   4   5
HETATM    5  C   UNL     1      -7.985   7.729  68.993  1.00  0.00    -0.123 C  
BRANCH   5   6
HETATM    6  C   UNL     1      -8.662   6.906  70.087  1.00  0.00    -0.141 C  
BRANCH   6   7
HETATM    7  C   UNL     1     -10.149   7.245  70.213  1.00  0.00    -0.192 C  
BRANCH   7   8
HETATM    8  N   UNL     1     -10.474   7.997  71.439  1.00  0.00    -0.211 NA 
BRANCH   8   9
HETATM    9  C   UNL     1      -9.520   7.790  72.543  1.00  0.00    -0.181 C  
HETATM   10  C   UNL     1     -10.112   7.325  73.871  1.00  0.00    -0.312 C  
ENDBRANCH   8   9
BRANCH   8  11
HETATM   11  C   UNL     1     -10.682   9.431  71.171  1.00  0.00    -0.347 C  
BRANCH  11  12
HETATM   12  C   UNL     1     -11.011   9.766  69.707  1.00  0.00    -0.287 C  
BRANCH  12  13
HETATM   13  C   UNL     1     -10.094  10.851  69.132  1.00  0.00    -0.198 C  
BRANCH  13  14
HETATM   14  C   UNL     1     -10.747  11.608  67.968  1.00  0.00    -0.208 C  
HETATM   15  H   UNL     1     -12.516  11.690  67.106  1.00  0.00     0.000 HD 
HETATM   16  O   UNL     1     -12.111  11.221  67.826  1.00  0.00    -0.631 OA 
BRANCH  14  17
HETATM   17  C   UNL     1     -10.651  13.111  68.153  1.00  0.00    -0.257 A  
HETATM   18  C   UNL     1     -11.821  13.868  68.316  1.00  0.00    -0.412 A  
HETATM   19  C   UNL     1     -11.764  15.260  68.413  1.00  0.00    -0.340 A  
HETATM   20  C   UNL     1     -10.536  15.912  68.343  1.00  0.00    -0.254 A  
HETATM   21  C   UNL     1      -9.416  13.784  68.134  1.00  0.00    -0.212 A  
HETATM   22  C   UNL     1      -9.358  15.177  68.232  1.00  0.00    -0.193 A  
BRANCH  20  23
HETATM   23  N   UNL     1     -10.499  17.334  68.396  1.00  0.00    -0.365 N  
HETATM   24  H   UNL     1     -10.608  17.832  69.280  1.00  0.00     0.000 HD 
BRANCH  23  25
HETATM   25  S   UNL     1     -10.270  18.171  66.948  1.00  0.00    -0.386 S  
HETATM   26  C   UNL     1      -8.546  18.604  67.064  1.00  0.00    -0.276 C  
HETATM   27  O   UNL     1     -11.036  19.390  67.083  1.00  0.00    -0.483 OA 
HETATM   28  O   UNL     1     -10.466  17.285  65.821  1.00  0.00    -0.502 OA 
ENDBRANCH  23  25
ENDBRANCH  20  23
ENDBRANCH  14  17
ENDBRANCH  13  14
ENDBRANCH  12  13
ENDBRANCH  11  12
ENDBRANCH   8  11
ENDBRANCH   7   8
ENDBRANCH   6   7
ENDBRANCH   5   6
ENDBRANCH   4   5
ENDBRANCH   3   4
ENDBRANCH   2   3
TORSDOF 14
ENDMDL
MODEL      137
REMARK 921   NORMALIZED FREE ENERGY PREDICTED BY IDOCK:   -3.94 KCAL/MOL
REMARK 922        TOTAL FREE ENERGY PREDICTED BY IDOCK:   -9.02 KCAL/MOL
REMARK 923 INTER-LIGAND FREE ENERGY PREDICTED BY IDOCK:   -6.86 KCAL/MOL
REMARK 924 INTRA-LIGAND FREE ENERGY PREDICTED BY IDOCK:   -2.16 KCAL/MOL
REMARK 927      BINDING AFFINITY PREDICTED BY RF-SCORE:    0.00 PKD
ROOT
HETATM    1  C   UNL     1     -11.840  12.011  63.175  1.00  0.00    -0.301 C  
HETATM    2  C   UNL     1     -10.942  11.489  64.282  1.00  0.00    -0.406 C  
ENDROOT
BRANCH   2   3
HETATM    3  C   UNL     1     -11.490  11.850  65.661  1.00  0.00    -0.314 C  
BRANCH   3   4
HETATM    4  C   UNL     1     -12.505  12.980  65.545  1.00  0.00    -0.496 C  
BRANCH   4   5
HETATM    5  C   UNL     1     -12.090  14.207  66.352  1.00  0.00    -0.475 C  
BRANCH   5   6
HETATM    6  C   UNL     1     -11.674  15.323  65.397  1.00  0.00    -0.013 C  
BRANCH   6   7
HETATM    7  C   UNL     1     -10.172  15.290  65.108  1.00  0.00    -0.339 C  
BRANCH   7   8
HETATM    8  N   UNL     1      -9.422  16.357  65.795  1.00  0.00    -0.499 NA 
BRANCH   8   9
HETATM    9  C   UNL     1     -10.273  17.356  66.467  1.00  0.00    -0.329 C  
HETATM   10  C   UNL     1      -9.856  18.816  66.311  1.00  0.00    -0.382 C  
ENDBRANCH   8   9
BRANCH   8  11
HETATM   11  C   UNL     1      -8.404  15.815  66.713  1.00  0.00    -0.274 C  
BRANCH  11  12
HETATM   12  C   UNL     1      -8.973  15.134  67.967  1.00  0.00    -0.172 C  
BRANCH  12  13
HETATM   13  C   UNL     1      -8.018  14.087  68.552  1.00  0.00    -0.141 C  
BRANCH  13  14
HETATM   14  C   UNL     1      -7.761  12.926  67.580  1.00  0.00    -0.174 C  
HETATM   15  H   UNL     1      -6.243  11.785  67.059  1.00  0.00     0.000 HD 
HETATM   16  O   UNL     1      -6.403  12.503  67.660  1.00  0.00    -0.107 OA 
BRANCH  14  17
HETATM   17  C   UNL     1      -8.686  11.755  67.850  1.00  0.00    -0.164 A  
HETATM   18  C   UNL     1      -9.720  11.887  68.789  1.00  0.00    -0.051 A  
HETATM   19  C   UNL     1     -10.537  10.800  69.109  1.00  0.00    -0.254 A  
HETATM   20  C   UNL     1     -10.327   9.568  68.497  1.00  0.00    -0.207 A  
HETATM   21  C   UNL     1      -8.521  10.515  67.205  1.00  0.00    -0.127 A  
HETATM   22  C   UNL     1      -9.339   9.428  67.524  1.00  0.00    -0.147 A  
BRANCH  20  23
HETATM   23  N   UNL     1     -11.137   8.458  68.869  1.00  0.00    -0.405 N  
HETATM   24  H   UNL     1     -11.839   8.081  68.232  1.00  0.00     0.000 HD 
BRANCH  23  25
HETATM   25  S   UNL     1     -10.900   7.787  70.400  1.00  0.00    -0.244 S  
HETATM   26  C   UNL     1     -11.066   6.050  70.049  1.00  0.00    -0.381 C  
HETATM   27  O   UNL     1     -12.053   8.187  71.178  1.00  0.00    -0.299 OA 
HETATM   28  O   UNL     1      -9.557   8.057  70.862  1.00  0.00    -0.160 OA 
ENDBRANCH  23  25
ENDBRANCH  20  23
ENDBRANCH  14  17
ENDBRANCH  13  14
ENDBRANCH  12  13
ENDBRANCH  11  12
ENDBRANCH   8  11
ENDBRANCH   7   8
ENDBRANCH   6   7
ENDBRANCH   5   6
ENDBRANCH   4   5
ENDBRANCH   3   4
ENDBRANCH   2   3
TORSDOF 14
ENDMDL
MODEL      138
REMARK 921   NORMALIZED FREE ENERGY PREDICTED BY IDOCK:   -3.94 KCAL/MOL
REMARK 922        TOTAL FREE ENERGY PREDICTED BY IDOCK:   -9.02 KCAL/MOL
REMARK 923 INTER-LIGAND FREE ENERGY PREDICTED BY IDOCK:   -8.20 KCAL/MOL
REMARK 924 INTRA-LIGAND FREE ENERGY PREDICTED BY IDOCK:   -0.82 KCAL/MOL
REMARK 927      BINDING AFFINITY PREDICTED BY RF-SCORE:    0.00 PKD
ROOT
HETATM    1  C   UNL     1      -9.179   3.191  64.253  1.00  0.00    -0.131 C  
HETATM    2  C   UNL     1      -9.273   3.463  65.743  1.00  0.00    -0.155 C  
ENDROOT
BRANCH   2   3
HETATM    3  C   UNL     1     -10.186   4.652  66.036  1.00  0.00    -0.306 C  
BRANCH   3   4
HETATM    4  C   UNL     1     -10.057   5.069  67.496  1.00  0.00    -0.201 C  
BRANCH   4   5
HETATM    5  C   UNL     1     -10.937   6.271  67.828  1.00  0.00    -0.427 C  
BRANCH   5   6
HETATM    6  C   UNL     1     -11.149   6.340  69.338  1.00  0.00    -0.477 C  
BRANCH   6   7
HETATM    7  C   UNL     1     -10.414   7.529  69.961  1.00  0.00    -0.228 C  
BRANCH   7   8
HETATM    8  N   UNL     1     -11.320   8.572  70.473  1.00  0.00    -0.249 NA 
BRANCH   8   9
HETATM    9  C   UNL     1     -11.580   8.487  71.921  1.00  0.00    -0.341 C  
HETATM   10  C   UNL     1     -10.496   7.823  72.766  1.00  0.00    -0.390 C  
ENDBRANCH   8   9
BRANCH   8  11
HETATM   11  C   UNL     1     -10.885   9.925  70.084  1.00  0.00    -0.304 C  
BRANCH  11  12
HETATM   12  C   UNL     1     -11.155  10.284  68.614  1.00  0.00    -0.290 C  
BRANCH  12  13
HETATM   13  C   UNL     1     -10.104  11.242  68.041  1.00  0.00    -0.192 C  
BRANCH  13  14
HETATM   14  C   UNL     1     -10.662  12.102  66.898  1.00  0.00    -0.236 C  
HETATM   15  H   UNL     1     -12.401  12.389  66.020  1.00  0.00     0.000 HD 
HETATM   16  O   UNL     1     -12.055  11.857  66.727  1.00  0.00    -0.593 OA 
BRANCH  14  17
HETATM   17  C   UNL     1     -10.421  13.580  67.141  1.00  0.00    -0.256 A  
HETATM   18  C   UNL     1      -9.285  14.198  66.598  1.00  0.00    -0.272 A  
HETATM   19  C   UNL     1      -9.002  15.538  66.869  1.00  0.00    -0.272 A  
HETATM   20  C   UNL     1      -9.851  16.275  67.691  1.00  0.00    -0.238 A  
HETATM   21  C   UNL     1     -11.293  14.354  67.928  1.00  0.00    -0.322 A  
HETATM   22  C   UNL     1     -11.011  15.696  68.199  1.00  0.00    -0.314 A  
BRANCH  20  23
HETATM   23  N   UNL     1      -9.523  17.626  67.996  1.00  0.00    -0.274 N  
HETATM   24  H   UNL     1      -9.114  17.879  68.896  1.00  0.00     0.000 HD 
BRANCH  23  25
HETATM   25  S   UNL     1      -9.832  18.798  66.821  1.00  0.00    -0.365 S  
HETATM   26  C   UNL     1      -8.183  19.351  66.438  1.00  0.00    -0.325 C  
HETATM   27  O   UNL     1     -10.502  19.874  67.517  1.00  0.00    -0.417 OA 
HETATM   28  O   UNL     1     -10.417  18.187  65.648  1.00  0.00    -0.626 OA 
ENDBRANCH  23  25
ENDBRANCH  20  23
ENDBRANCH  14  17
ENDBRANCH  13  14
ENDBRANCH  12  13
ENDBRANCH  11  12
ENDBRANCH   8  11
ENDBRANCH   7   8
ENDBRANCH   6   7
ENDBRANCH   5   6
ENDBRANCH   4   5
ENDBRANCH   3   4
ENDBRANCH   2   3
TORSDOF 14
ENDMDL
MODEL      139
REMARK 921   NORMALIZED FREE ENERGY PREDICTED BY IDOCK:   -3.94 KCAL/MOL
REMARK 922        TOTAL FREE ENERGY PREDICTED BY IDOCK:   -9.01 KCAL/MOL
REMARK 923 INTER-LIGAND FREE ENERGY PREDICTED BY IDOCK:   -7.20 KCAL/MOL
REMARK 924 INTRA-LIGAND FREE ENERGY PREDICTED BY IDOCK:   -1.81 KCAL/MOL
REMARK 927      BINDING AFFINITY PREDICTED BY RF-SCORE:    0.00 PKD
ROOT
HETATM    1  C   UNL     1      -6.031  12.185  69.942  1.00  0.00    -0.149 C  
HETATM    2  C   UNL     1      -6.088  13.697  70.060  1.00  0.00    -0.137 C  
ENDROOT
BRANCH   2   3
HETATM    3  C   UNL     1      -7.281  14.271  69.297  1.00  0.00    -0.083 C  
BRANCH   3   4
HETATM    4  C   UNL     1      -6.990  15.703  68.865  1.00  0.00    -0.130 C  
BRANCH   4   5
HETATM    5  C   UNL     1      -7.109  15.880  67.354  1.00  0.00    -0.230 C  
BRANCH   5   6
HETATM    6  C   UNL     1      -7.196  17.368  67.025  1.00  0.00    -0.214 C  
BRANCH   6   7
HETATM    7  C   UNL     1      -8.516  17.720  66.334  1.00  0.00    -0.239 C  
BRANCH   7   8
HETATM    8  N   UNL     1      -9.657  16.920  66.814  1.00  0.00    -0.251 NA 
BRANCH   8   9
HETATM    9  C   UNL     1     -10.608  17.669  67.654  1.00  0.00    -0.362 C  
HETATM   10  C   UNL     1     -10.452  19.188  67.664  1.00  0.00    -0.535 C  
ENDBRANCH   8   9
BRANCH   8  11
HETATM   11  C   UNL     1     -10.346  16.222  65.714  1.00  0.00    -0.374 C  
BRANCH  11  12
HETATM   12  C   UNL     1     -11.089  14.944  66.136  1.00  0.00    -0.335 C  
BRANCH  12  13
HETATM   13  C   UNL     1     -10.225  14.022  67.004  1.00  0.00    -0.261 C  
BRANCH  13  14
HETATM   14  C   UNL     1     -10.766  13.894  68.434  1.00  0.00    -0.257 C  
HETATM   15  H   UNL     1     -12.350  14.489  69.441  1.00  0.00     0.000 HD 
HETATM   16  O   UNL     1     -12.015  14.569  68.555  1.00  0.00    -0.327 OA 
BRANCH  14  17
HETATM   17  C   UNL     1     -10.919  12.442  68.847  1.00  0.00    -0.268 A  
HETATM   18  C   UNL     1     -12.030  12.049  69.609  1.00  0.00    -0.360 A  
HETATM   19  C   UNL     1     -12.155  10.734  70.065  1.00  0.00    -0.423 A  
HETATM   20  C   UNL     1     -11.168   9.798  69.766  1.00  0.00    -0.202 A  
HETATM   21  C   UNL     1      -9.958  11.470  68.514  1.00  0.00    -0.207 A  
HETATM   22  C   UNL     1     -10.083  10.154  68.968  1.00  0.00    -0.216 A  
BRANCH  20  23
HETATM   23  N   UNL     1     -11.286   8.475  70.278  1.00  0.00    -0.420 N  
HETATM   24  H   UNL     1     -11.583   7.704  69.680  1.00  0.00     0.000 HD 
BRANCH  23  25
HETATM   25  S   UNL     1     -10.921   8.224  71.907  1.00  0.00    -0.312 S  
HETATM   26  C   UNL     1     -10.761   6.452  71.959  1.00  0.00    -0.227 C  
HETATM   27  O   UNL     1     -12.124   8.574  72.630  1.00  0.00    -0.378 OA 
HETATM   28  O   UNL     1      -9.649   8.830  72.234  1.00  0.00    -0.301 OA 
ENDBRANCH  23  25
ENDBRANCH  20  23
ENDBRANCH  14  17
ENDBRANCH  13  14
ENDBRANCH  12  13
ENDBRANCH  11  12
ENDBRANCH   8  11
ENDBRANCH   7   8
ENDBRANCH   6   7
ENDBRANCH   5   6
ENDBRANCH   4   5
ENDBRANCH   3   4
ENDBRANCH   2   3
TORSDOF 14
ENDMDL
MODEL      140
REMARK 921   NORMALIZED FREE ENERGY PREDICTED BY IDOCK:   -3.93 KCAL/MOL
REMARK 922        TOTAL FREE ENERGY PREDICTED BY IDOCK:   -9.01 KCAL/MOL
REMARK 923 INTER-LIGAND FREE ENERGY PREDICTED BY IDOCK:   -8.31 KCAL/MOL
REMARK 924 INTRA-LIGAND FREE ENERGY PREDICTED BY IDOCK:   -0.70 KCAL/MOL
REMARK 927      BINDING AFFINITY PREDICTED BY RF-SCORE:    0.00 PKD
ROOT
HETATM    1  C   UNL     1      -9.222  20.292  67.039  1.00  0.00    -0.503 C  
HETATM    2  C   UNL     1     -10.533  19.810  66.446  1.00  0.00    -0.618 C  
ENDROOT
BRANCH   2   3
HETATM    3  C   UNL     1     -10.473  18.325  66.095  1.00  0.00    -0.403 C  
BRANCH   3   4
HETATM    4  C   UNL     1      -9.326  17.654  66.840  1.00  0.00    -0.268 C  
BRANCH   4   5
HETATM    5  C   UNL     1      -8.891  16.353  66.169  1.00  0.00    -0.349 C  
BRANCH   5   6
HETATM    6  C   UNL     1     -10.129  15.557  65.762  1.00  0.00    -0.388 C  
BRANCH   6   7
HETATM    7  C   UNL     1     -10.788  14.879  66.965  1.00  0.00    -0.315 C  
BRANCH   7   8
HETATM    8  N   UNL     1     -11.699  13.782  66.589  1.00  0.00    -0.372 NA 
BRANCH   8   9
HETATM    9  C   UNL     1     -11.345  13.110  65.326  1.00  0.00    -0.296 C  
HETATM   10  C   UNL     1     -12.489  12.436  64.573  1.00  0.00    -0.519 C  
ENDBRANCH   8   9
BRANCH   8  11
HETATM   11  C   UNL     1     -11.878  12.811  67.683  1.00  0.00    -0.339 C  
BRANCH  11  12
HETATM   12  C   UNL     1     -10.664  11.902  67.934  1.00  0.00    -0.239 C  
BRANCH  12  13
HETATM   13  C   UNL     1     -11.054  10.566  68.577  1.00  0.00    -0.329 C  
BRANCH  13  14
HETATM   14  C   UNL     1     -11.518  10.732  70.030  1.00  0.00    -0.331 C  
HETATM   15  H   UNL     1     -13.228  10.815  71.003  1.00  0.00     0.000 HD 
HETATM   16  O   UNL     1     -12.940  10.712  70.103  1.00  0.00    -0.225 OA 
BRANCH  14  17
HETATM   17  C   UNL     1     -10.937   9.658  70.930  1.00  0.00    -0.412 A  
HETATM   18  C   UNL     1     -11.777   8.957  71.808  1.00  0.00    -0.432 A  
HETATM   19  C   UNL     1     -11.255   8.016  72.699  1.00  0.00    -0.462 A  
HETATM   20  C   UNL     1      -9.885   7.769  72.724  1.00  0.00    -0.246 A  
HETATM   21  C   UNL     1      -9.562   9.358  70.936  1.00  0.00    -0.301 A  
HETATM   22  C   UNL     1      -9.039   8.416  71.826  1.00  0.00    -0.283 A  
BRANCH  20  23
HETATM   23  N   UNL     1      -9.363   6.842  73.670  1.00  0.00    -0.162 N  
HETATM   24  H   UNL     1      -9.322   7.071  74.664  1.00  0.00     0.000 HD 
BRANCH  23  25
HETATM   25  S   UNL     1      -8.812   5.354  73.096  1.00  0.00    -0.118 S  
HETATM   26  C   UNL     1     -10.224   4.795  72.165  1.00  0.00    -0.195 C  
HETATM   27  O   UNL     1      -8.699   4.508  74.264  1.00  0.00    -0.106 OA 
HETATM   28  O   UNL     1      -7.693   5.546  72.200  1.00  0.00    -0.098 OA 
ENDBRANCH  23  25
ENDBRANCH  20  23
ENDBRANCH  14  17
ENDBRANCH  13  14
ENDBRANCH  12  13
ENDBRANCH  11  12
ENDBRANCH   8  11
ENDBRANCH   7   8
ENDBRANCH   6   7
ENDBRANCH   5   6
ENDBRANCH   4   5
ENDBRANCH   3   4
ENDBRANCH   2   3
TORSDOF 14
ENDMDL
MODEL      141
REMARK 921   NORMALIZED FREE ENERGY PREDICTED BY IDOCK:   -3.93 KCAL/MOL
REMARK 922        TOTAL FREE ENERGY PREDICTED BY IDOCK:   -8.99 KCAL/MOL
REMARK 923 INTER-LIGAND FREE ENERGY PREDICTED BY IDOCK:   -7.62 KCAL/MOL
REMARK 924 INTRA-LIGAND FREE ENERGY PREDICTED BY IDOCK:   -1.37 KCAL/MOL
REMARK 927      BINDING AFFINITY PREDICTED BY RF-SCORE:    0.00 PKD
ROOT
HETATM    1  C   UNL     1      -9.767   7.883  72.822  1.00  0.00    -0.322 C  
HETATM    2  C   UNL     1     -11.253   7.616  72.973  1.00  0.00    -0.388 C  
ENDROOT
BRANCH   2   3
HETATM    3  C   UNL     1     -11.793   6.796  71.803  1.00  0.00    -0.371 C  
BRANCH   3   4
HETATM    4  C   UNL     1     -10.663   6.021  71.137  1.00  0.00    -0.323 C  
BRANCH   4   5
HETATM    5  C   UNL     1     -10.906   5.825  69.643  1.00  0.00    -0.418 C  
BRANCH   5   6
HETATM    6  C   UNL     1     -10.782   7.170  68.931  1.00  0.00    -0.199 C  
BRANCH   6   7
HETATM    7  C   UNL     1      -9.363   7.734  69.027  1.00  0.00    -0.150 C  
BRANCH   7   8
HETATM    8  N   UNL     1      -8.663   7.774  67.730  1.00  0.00    -0.124 NA 
BRANCH   8   9
HETATM    9  C   UNL     1      -7.706   6.671  67.528  1.00  0.00    -0.110 C  
HETATM   10  C   UNL     1      -8.234   5.442  66.792  1.00  0.00    -0.108 C  
ENDBRANCH   8   9
BRANCH   8  11
HETATM   11  C   UNL     1      -9.599   7.888  66.597  1.00  0.00    -0.226 C  
BRANCH  11  12
HETATM   12  C   UNL     1      -9.189   8.917  65.532  1.00  0.00    -0.242 C  
BRANCH  12  13
HETATM   13  C   UNL     1      -8.812  10.272  66.140  1.00  0.00    -0.166 C  
BRANCH  13  14
HETATM   14  C   UNL     1      -9.551  11.438  65.467  1.00  0.00    -0.228 C  
HETATM   15  H   UNL     1     -10.924  11.669  64.075  1.00  0.00     0.000 HD 
HETATM   16  O   UNL     1     -10.466  10.948  64.492  1.00  0.00    -0.346 OA 
BRANCH  14  17
HETATM   17  C   UNL     1     -10.283  12.296  66.481  1.00  0.00    -0.235 A  
HETATM   18  C   UNL     1     -11.275  11.723  67.291  1.00  0.00    -0.364 A  
HETATM   19  C   UNL     1     -12.014  12.508  68.178  1.00  0.00    -0.274 A  
HETATM   20  C   UNL     1     -11.773  13.877  68.263  1.00  0.00    -0.361 A  
HETATM   21  C   UNL     1     -10.019  13.672  66.617  1.00  0.00    -0.283 A  
HETATM   22  C   UNL     1     -10.758  14.457  67.506  1.00  0.00    -0.271 A  
BRANCH  20  23
HETATM   23  N   UNL     1     -12.568  14.670  69.137  1.00  0.00    -0.543 N  
HETATM   24  H   UNL     1     -13.248  15.337  68.772  1.00  0.00     0.000 HD 
BRANCH  23  25
HETATM   25  S   UNL     1     -12.350  14.471  70.800  1.00  0.00    -0.366 S  
HETATM   26  C   UNL     1     -13.748  15.367  71.444  1.00  0.00    -0.504 C  
HETATM   27  O   UNL     1     -11.161  15.227  71.125  1.00  0.00    -0.340 OA 
HETATM   28  O   UNL     1     -12.470  13.075  71.156  1.00  0.00    -0.361 OA 
ENDBRANCH  23  25
ENDBRANCH  20  23
ENDBRANCH  14  17
ENDBRANCH  13  14
ENDBRANCH  12  13
ENDBRANCH  11  12
ENDBRANCH   8  11
ENDBRANCH   7   8
ENDBRANCH   6   7
ENDBRANCH   5   6
ENDBRANCH   4   5
ENDBRANCH   3   4
ENDBRANCH   2   3
TORSDOF 14
ENDMDL
MODEL      142
REMARK 921   NORMALIZED FREE ENERGY PREDICTED BY IDOCK:   -3.93 KCAL/MOL
REMARK 922        TOTAL FREE ENERGY PREDICTED BY IDOCK:   -8.99 KCAL/MOL
REMARK 923 INTER-LIGAND FREE ENERGY PREDICTED BY IDOCK:   -7.31 KCAL/MOL
REMARK 924 INTRA-LIGAND FREE ENERGY PREDICTED BY IDOCK:   -1.68 KCAL/MOL
REMARK 927      BINDING AFFINITY PREDICTED BY RF-SCORE:    0.00 PKD
ROOT
HETATM    1  C   UNL     1      -8.806  16.564  66.211  1.00  0.00    -0.364 C  
HETATM    2  C   UNL     1     -10.314  16.406  66.264  1.00  0.00    -0.337 C  
ENDROOT
BRANCH   2   3
HETATM    3  C   UNL     1     -10.792  16.098  67.681  1.00  0.00    -0.297 C  
BRANCH   3   4
HETATM    4  C   UNL     1      -9.735  15.299  68.432  1.00  0.00    -0.213 C  
BRANCH   4   5
HETATM    5  C   UNL     1      -9.947  13.794  68.291  1.00  0.00    -0.243 C  
BRANCH   5   6
HETATM    6  C   UNL     1     -11.440  13.485  68.374  1.00  0.00    -0.346 C  
BRANCH   6   7
HETATM    7  C   UNL     1     -11.808  12.241  67.561  1.00  0.00    -0.261 C  
BRANCH   7   8
HETATM    8  N   UNL     1     -12.036  11.047  68.394  1.00  0.00    -0.581 NA 
BRANCH   8   9
HETATM    9  C   UNL     1     -11.030   9.985  68.213  1.00  0.00    -0.227 C  
HETATM   10  C   UNL     1      -9.845  10.003  69.175  1.00  0.00    -0.213 C  
ENDBRANCH   8   9
BRANCH   8  11
HETATM   11  C   UNL     1     -12.206  11.388  69.818  1.00  0.00    -0.265 C  
BRANCH  11  12
HETATM   12  C   UNL     1     -13.281  10.566  70.546  1.00  0.00    -0.075 C  
BRANCH  12  13
HETATM   13  C   UNL     1     -12.982  10.401  72.041  1.00  0.00    -0.499 C  
BRANCH  13  14
HETATM   14  C   UNL     1     -13.063   8.936  72.492  1.00  0.00    -0.364 C  
HETATM   15  H   UNL     1     -14.370   7.466  72.407  1.00  0.00     0.000 HD 
HETATM   16  O   UNL     1     -14.320   8.373  72.128  1.00  0.00    -0.427 OA 
BRANCH  14  17
HETATM   17  C   UNL     1     -11.935   8.107  71.909  1.00  0.00    -0.367 A  
HETATM   18  C   UNL     1     -12.210   7.166  70.906  1.00  0.00    -0.354 A  
HETATM   19  C   UNL     1     -11.202   6.339  70.406  1.00  0.00    -0.439 A  
HETATM   20  C   UNL     1      -9.907   6.440  70.907  1.00  0.00    -0.184 A  
HETATM   21  C   UNL     1     -10.610   8.230  72.367  1.00  0.00    -0.408 A  
HETATM   22  C   UNL     1      -9.600   7.403  71.866  1.00  0.00    -0.174 A  
BRANCH  20  23
HETATM   23  N   UNL     1      -8.901   5.557  70.421  1.00  0.00    -0.129 N  
HETATM   24  H   UNL     1      -8.018   5.915  70.056  1.00  0.00     0.000 HD 
BRANCH  23  25
HETATM   25  S   UNL     1      -9.217   3.900  70.469  1.00  0.00    -0.149 S  
HETATM   26  C   UNL     1      -7.579   3.238  70.687  1.00  0.00    -0.040 C  
HETATM   27  O   UNL     1      -9.653   3.553  69.134  1.00  0.00    -0.173 OA 
HETATM   28  O   UNL     1     -10.022   3.577  71.626  1.00  0.00    -0.175 OA 
ENDBRANCH  23  25
ENDBRANCH  20  23
ENDBRANCH  14  17
ENDBRANCH  13  14
ENDBRANCH  12  13
ENDBRANCH  11  12
ENDBRANCH   8  11
ENDBRANCH   7   8
ENDBRANCH   6   7
ENDBRANCH   5   6
ENDBRANCH   4   5
ENDBRANCH   3   4
ENDBRANCH   2   3
TORSDOF 14
ENDMDL
MODEL      143
REMARK 921   NORMALIZED FREE ENERGY PREDICTED BY IDOCK:   -3.92 KCAL/MOL
REMARK 922        TOTAL FREE ENERGY PREDICTED BY IDOCK:   -8.98 KCAL/MOL
REMARK 923 INTER-LIGAND FREE ENERGY PREDICTED BY IDOCK:   -8.34 KCAL/MOL
REMARK 924 INTRA-LIGAND FREE ENERGY PREDICTED BY IDOCK:   -0.64 KCAL/MOL
REMARK 927      BINDING AFFINITY PREDICTED BY RF-SCORE:    0.00 PKD
ROOT
HETATM    1  C   UNL     1     -10.239  19.809  68.743  1.00  0.00    -0.473 C  
HETATM    2  C   UNL     1      -9.260  20.585  67.882  1.00  0.00    -0.211 C  
ENDROOT
BRANCH   2   3
HETATM    3  C   UNL     1      -8.978  19.859  66.568  1.00  0.00    -0.442 C  
BRANCH   3   4
HETATM    4  C   UNL     1     -10.083  18.852  66.275  1.00  0.00    -0.460 C  
BRANCH   4   5
HETATM    5  C   UNL     1      -9.531  17.449  66.034  1.00  0.00    -0.122 C  
BRANCH   5   6
HETATM    6  C   UNL     1     -10.300  16.449  66.894  1.00  0.00    -0.300 C  
BRANCH   6   7
HETATM    7  C   UNL     1     -10.679  15.195  66.104  1.00  0.00    -0.325 C  
BRANCH   7   8
HETATM    8  N   UNL     1      -9.699  14.101  66.242  1.00  0.00    -0.295 NA 
BRANCH   8   9
HETATM    9  C   UNL     1      -8.913  14.150  67.487  1.00  0.00    -0.198 C  
HETATM   10  C   UNL     1      -7.416  14.405  67.334  1.00  0.00    -0.183 C  
ENDBRANCH   8   9
BRANCH   8  11
HETATM   11  C   UNL     1     -10.316  12.777  66.047  1.00  0.00    -0.276 C  
BRANCH  11  12
HETATM   12  C   UNL     1     -11.757  12.661  66.569  1.00  0.00    -0.463 C  
BRANCH  12  13
HETATM   13  C   UNL     1     -11.901  11.596  67.662  1.00  0.00    -0.216 C  
BRANCH  13  14
HETATM   14  C   UNL     1     -11.343  12.068  69.012  1.00  0.00    -0.275 C  
HETATM   15  H   UNL     1     -11.693  13.520  70.294  1.00  0.00     0.000 HD 
HETATM   16  O   UNL     1     -12.038  13.228  69.459  1.00  0.00    -0.303 OA 
BRANCH  14  17
HETATM   17  C   UNL     1     -11.424  10.977  70.063  1.00  0.00    -0.398 A  
HETATM   18  C   UNL     1     -10.296  10.187  70.334  1.00  0.00    -0.178 A  
HETATM   19  C   UNL     1     -10.367   9.129  71.243  1.00  0.00    -0.405 A  
HETATM   20  C   UNL     1     -11.568   8.846  71.888  1.00  0.00    -0.371 A  
HETATM   21  C   UNL     1     -12.615  10.707  70.762  1.00  0.00    -0.479 A  
HETATM   22  C   UNL     1     -12.686   9.649  71.672  1.00  0.00    -0.499 A  
BRANCH  20  23
HETATM   23  N   UNL     1     -11.636   7.735  72.775  1.00  0.00    -0.558 N  
HETATM   24  H   UNL     1     -11.925   7.853  73.747  1.00  0.00     0.000 HD 
BRANCH  23  25
HETATM   25  S   UNL     1     -11.223   6.215  72.168  1.00  0.00    -0.300 S  
HETATM   26  C   UNL     1     -11.543   6.434  70.431  1.00  0.00    -0.373 C  
HETATM   27  O   UNL     1     -12.226   5.309  72.685  1.00  0.00    -0.072 OA 
HETATM   28  O   UNL     1      -9.813   5.962  72.368  1.00  0.00    -0.163 OA 
ENDBRANCH  23  25
ENDBRANCH  20  23
ENDBRANCH  14  17
ENDBRANCH  13  14
ENDBRANCH  12  13
ENDBRANCH  11  12
ENDBRANCH   8  11
ENDBRANCH   7   8
ENDBRANCH   6   7
ENDBRANCH   5   6
ENDBRANCH   4   5
ENDBRANCH   3   4
ENDBRANCH   2   3
TORSDOF 14
ENDMDL
MODEL      144
REMARK 921   NORMALIZED FREE ENERGY PREDICTED BY IDOCK:   -3.91 KCAL/MOL
REMARK 922        TOTAL FREE ENERGY PREDICTED BY IDOCK:   -8.95 KCAL/MOL
REMARK 923 INTER-LIGAND FREE ENERGY PREDICTED BY IDOCK:   -8.05 KCAL/MOL
REMARK 924 INTRA-LIGAND FREE ENERGY PREDICTED BY IDOCK:   -0.90 KCAL/MOL
REMARK 927      BINDING AFFINITY PREDICTED BY RF-SCORE:    0.00 PKD
ROOT
HETATM    1  C   UNL     1      -9.374   6.055  65.749  1.00  0.00     0.013 C  
HETATM    2  C   UNL     1      -9.094   4.725  66.422  1.00  0.00    -0.119 C  
ENDROOT
BRANCH   2   3
HETATM    3  C   UNL     1      -8.665   4.915  67.876  1.00  0.00    -0.106 C  
BRANCH   3   4
HETATM    4  C   UNL     1      -9.760   4.424  68.816  1.00  0.00    -0.200 C  
BRANCH   4   5
HETATM    5  C   UNL     1     -10.315   5.549  69.685  1.00  0.00    -0.359 C  
BRANCH   5   6
HETATM    6  C   UNL     1      -9.686   5.470  71.075  1.00  0.00    -0.229 C  
BRANCH   6   7
HETATM    7  C   UNL     1      -9.675   6.834  71.770  1.00  0.00    -0.160 C  
BRANCH   7   8
HETATM    8  N   UNL     1     -10.768   7.001  72.744  1.00  0.00    -0.253 NA 
BRANCH   8   9
HETATM    9  C   UNL     1     -10.400   6.657  74.128  1.00  0.00    -0.321 C  
HETATM   10  C   UNL     1      -8.945   6.895  74.522  1.00  0.00    -0.222 C  
ENDBRANCH   8   9
BRANCH   8  11
HETATM   11  C   UNL     1     -11.378   8.341  72.667  1.00  0.00    -0.350 C  
BRANCH  11  12
HETATM   12  C   UNL     1     -12.271   8.566  71.437  1.00  0.00    -0.343 C  
BRANCH  12  13
HETATM   13  C   UNL     1     -12.267  10.026  70.968  1.00  0.00    -0.462 C  
BRANCH  13  14
HETATM   14  C   UNL     1     -11.055  10.350  70.084  1.00  0.00    -0.314 C  
HETATM   15  H   UNL     1      -9.851   9.378  68.867  1.00  0.00     0.000 HD 
HETATM   16  O   UNL     1     -10.601   9.177  69.414  1.00  0.00    -0.222 OA 
BRANCH  14  17
HETATM   17  C   UNL     1     -11.373  11.435  69.073  1.00  0.00    -0.345 A  
HETATM   18  C   UNL     1     -11.302  11.149  67.701  1.00  0.00    -0.356 A  
HETATM   19  C   UNL     1     -11.518  12.150  66.751  1.00  0.00    -0.418 A  
HETATM   20  C   UNL     1     -11.802  13.449  67.162  1.00  0.00    -0.382 A  
HETATM   21  C   UNL     1     -11.711  12.742  69.468  1.00  0.00    -0.383 A  
HETATM   22  C   UNL     1     -11.928  13.743  68.518  1.00  0.00    -0.402 A  
BRANCH  20  23
HETATM   23  N   UNL     1     -11.972  14.468  66.182  1.00  0.00    -0.350 N  
HETATM   24  H   UNL     1     -12.874  14.927  66.050  1.00  0.00     0.000 HD 
BRANCH  23  25
HETATM   25  S   UNL     1     -10.633  14.892  65.246  1.00  0.00    -0.429 S  
HETATM   26  C   UNL     1      -9.438  15.290  66.505  1.00  0.00    -0.283 C  
HETATM   27  O   UNL     1     -11.000  16.126  64.587  1.00  0.00    -0.642 OA 
HETATM   28  O   UNL     1     -10.169  13.750  64.489  1.00  0.00    -0.414 OA 
ENDBRANCH  23  25
ENDBRANCH  20  23
ENDBRANCH  14  17
ENDBRANCH  13  14
ENDBRANCH  12  13
ENDBRANCH  11  12
ENDBRANCH   8  11
ENDBRANCH   7   8
ENDBRANCH   6   7
ENDBRANCH   5   6
ENDBRANCH   4   5
ENDBRANCH   3   4
ENDBRANCH   2   3
TORSDOF 14
ENDMDL
MODEL      145
REMARK 921   NORMALIZED FREE ENERGY PREDICTED BY IDOCK:   -3.90 KCAL/MOL
REMARK 922        TOTAL FREE ENERGY PREDICTED BY IDOCK:   -8.95 KCAL/MOL
REMARK 923 INTER-LIGAND FREE ENERGY PREDICTED BY IDOCK:   -7.31 KCAL/MOL
REMARK 924 INTRA-LIGAND FREE ENERGY PREDICTED BY IDOCK:   -1.64 KCAL/MOL
REMARK 927      BINDING AFFINITY PREDICTED BY RF-SCORE:    0.00 PKD
ROOT
HETATM    1  C   UNL     1      -9.306   2.723  67.938  1.00  0.00    -0.251 C  
HETATM    2  C   UNL     1      -8.948   4.176  67.689  1.00  0.00    -0.141 C  
ENDROOT
BRANCH   2   3
HETATM    3  C   UNL     1     -10.142   5.095  67.941  1.00  0.00    -0.193 C  
BRANCH   3   4
HETATM    4  C   UNL     1     -10.226   5.456  69.419  1.00  0.00    -0.334 C  
BRANCH   4   5
HETATM    5  C   UNL     1     -11.470   6.282  69.737  1.00  0.00    -0.449 C  
BRANCH   5   6
HETATM    6  C   UNL     1     -11.518   6.567  71.236  1.00  0.00    -0.371 C  
BRANCH   6   7
HETATM    7  C   UNL     1     -10.611   7.739  71.619  1.00  0.00    -0.214 C  
BRANCH   7   8
HETATM    8  N   UNL     1     -10.831   8.941  70.795  1.00  0.00    -0.227 NA 
BRANCH   8   9
HETATM    9  C   UNL     1     -11.690   9.957  71.430  1.00  0.00    -0.371 C  
HETATM   10  C   UNL     1     -12.191  11.081  70.527  1.00  0.00    -0.472 C  
ENDBRANCH   8   9
BRANCH   8  11
HETATM   11  C   UNL     1      -9.566   9.528  70.320  1.00  0.00    -0.265 C  
BRANCH  11  12
HETATM   12  C   UNL     1      -9.077   8.983  68.969  1.00  0.00    -0.143 C  
BRANCH  12  13
HETATM   13  C   UNL     1     -10.129   9.125  67.863  1.00  0.00    -0.246 C  
BRANCH  13  14
HETATM   14  C   UNL     1      -9.644  10.014  66.710  1.00  0.00    -0.181 C  
HETATM   15  H   UNL     1      -9.975  10.183  64.776  1.00  0.00     0.000 HD 
HETATM   16  O   UNL     1     -10.275   9.633  65.490  1.00  0.00    -0.228 OA 
BRANCH  14  17
HETATM   17  C   UNL     1      -9.899  11.483  66.989  1.00  0.00    -0.212 A  
HETATM   18  C   UNL     1     -11.213  11.937  67.181  1.00  0.00    -0.377 A  
HETATM   19  C   UNL     1     -11.480  13.295  67.365  1.00  0.00    -0.371 A  
HETATM   20  C   UNL     1     -10.436  14.217  67.354  1.00  0.00    -0.271 A  
HETATM   21  C   UNL     1      -8.853  12.423  67.031  1.00  0.00    -0.210 A  
HETATM   22  C   UNL     1      -9.120  13.782  67.216  1.00  0.00    -0.232 A  
BRANCH  20  23
HETATM   23  N   UNL     1     -10.730  15.602  67.495  1.00  0.00    -0.298 N  
HETATM   24  H   UNL     1     -11.167  16.128  66.737  1.00  0.00     0.000 HD 
BRANCH  23  25
HETATM   25  S   UNL     1     -10.333  16.348  68.956  1.00  0.00    -0.298 S  
HETATM   26  C   UNL     1     -11.654  15.783  70.007  1.00  0.00    -0.357 C  
HETATM   27  O   UNL     1     -10.530  17.764  68.732  1.00  0.00    -0.343 OA 
HETATM   28  O   UNL     1      -9.074  15.838  69.452  1.00  0.00    -0.253 OA 
ENDBRANCH  23  25
ENDBRANCH  20  23
ENDBRANCH  14  17
ENDBRANCH  13  14
ENDBRANCH  12  13
ENDBRANCH  11  12
ENDBRANCH   8  11
ENDBRANCH   7   8
ENDBRANCH   6   7
ENDBRANCH   5   6
ENDBRANCH   4   5
ENDBRANCH   3   4
ENDBRANCH   2   3
TORSDOF 14
ENDMDL
MODEL      146
REMARK 921   NORMALIZED FREE ENERGY PREDICTED BY IDOCK:   -3.89 KCAL/MOL
REMARK 922        TOTAL FREE ENERGY PREDICTED BY IDOCK:   -8.93 KCAL/MOL
REMARK 923 INTER-LIGAND FREE ENERGY PREDICTED BY IDOCK:   -6.79 KCAL/MOL
REMARK 924 INTRA-LIGAND FREE ENERGY PREDICTED BY IDOCK:   -2.14 KCAL/MOL
REMARK 927      BINDING AFFINITY PREDICTED BY RF-SCORE:    0.00 PKD
ROOT
HETATM    1  C   UNL     1      -7.319  11.172  68.944  1.00  0.00    -0.110 C  
HETATM    2  C   UNL     1      -7.220  11.396  67.447  1.00  0.00    -0.115 C  
ENDROOT
BRANCH   2   3
HETATM    3  C   UNL     1      -8.568  11.804  66.854  1.00  0.00    -0.177 C  
BRANCH   3   4
HETATM    4  C   UNL     1      -8.658  13.321  66.745  1.00  0.00    -0.041 C  
BRANCH   4   5
HETATM    5  C   UNL     1      -9.798  13.762  65.831  1.00  0.00    -0.279 C  
BRANCH   5   6
HETATM    6  C   UNL     1      -9.891  15.286  65.839  1.00  0.00    -0.385 C  
BRANCH   6   7
HETATM    7  C   UNL     1     -11.035  15.780  66.727  1.00  0.00    -0.192 C  
BRANCH   7   8
HETATM    8  N   UNL     1     -10.755  15.644  68.168  1.00  0.00    -0.277 NA 
BRANCH   8   9
HETATM    9  C   UNL     1      -9.879  16.696  68.714  1.00  0.00    -0.252 C  
HETATM   10  C   UNL     1      -8.405  16.332  68.880  1.00  0.00    -0.231 C  
ENDBRANCH   8   9
BRANCH   8  11
HETATM   11  C   UNL     1     -11.989  15.506  68.962  1.00  0.00    -0.301 C  
BRANCH  11  12
HETATM   12  C   UNL     1     -12.051  14.240  69.830  1.00  0.00    -0.404 C  
BRANCH  12  13
HETATM   13  C   UNL     1     -11.162  13.114  69.291  1.00  0.00    -0.266 C  
BRANCH  13  14
HETATM   14  C   UNL     1     -11.976  11.887  68.856  1.00  0.00    -0.254 C  
HETATM   15  H   UNL     1     -12.580  11.076  67.167  1.00  0.00     0.000 HD 
HETATM   16  O   UNL     1     -12.076  11.835  67.436  1.00  0.00    -0.595 OA 
BRANCH  14  17
HETATM   17  C   UNL     1     -11.370  10.599  69.381  1.00  0.00    -0.348 A  
HETATM   18  C   UNL     1     -11.423  10.314  70.753  1.00  0.00    -0.438 A  
HETATM   19  C   UNL     1     -10.807   9.171  71.270  1.00  0.00    -0.402 A  
HETATM   20  C   UNL     1     -10.128   8.303  70.420  1.00  0.00    -0.190 A  
HETATM   21  C   UNL     1     -10.722   9.683  68.531  1.00  0.00    -0.239 A  
HETATM   22  C   UNL     1     -10.107   8.540  69.047  1.00  0.00    -0.207 A  
BRANCH  20  23
HETATM   23  N   UNL     1      -9.465   7.169  70.969  1.00  0.00    -0.159 N  
HETATM   24  H   UNL     1      -8.516   7.240  71.337  1.00  0.00     0.000 HD 
BRANCH  23  25
HETATM   25  S   UNL     1     -10.300   5.702  70.991  1.00  0.00    -0.244 S  
HETATM   26  C   UNL     1     -10.955   5.698  72.647  1.00  0.00    -0.270 C  
HETATM   27  O   UNL     1      -9.281   4.678  70.924  1.00  0.00    -0.128 OA 
HETATM   28  O   UNL     1     -11.393   5.734  70.044  1.00  0.00    -0.285 OA 
ENDBRANCH  23  25
ENDBRANCH  20  23
ENDBRANCH  14  17
ENDBRANCH  13  14
ENDBRANCH  12  13
ENDBRANCH  11  12
ENDBRANCH   8  11
ENDBRANCH   7   8
ENDBRANCH   6   7
ENDBRANCH   5   6
ENDBRANCH   4   5
ENDBRANCH   3   4
ENDBRANCH   2   3
TORSDOF 14
ENDMDL
MODEL      147
REMARK 921   NORMALIZED FREE ENERGY PREDICTED BY IDOCK:   -3.87 KCAL/MOL
REMARK 922        TOTAL FREE ENERGY PREDICTED BY IDOCK:   -8.88 KCAL/MOL
REMARK 923 INTER-LIGAND FREE ENERGY PREDICTED BY IDOCK:   -6.73 KCAL/MOL
REMARK 924 INTRA-LIGAND FREE ENERGY PREDICTED BY IDOCK:   -2.15 KCAL/MOL
REMARK 927      BINDING AFFINITY PREDICTED BY RF-SCORE:    0.00 PKD
ROOT
HETATM    1  C   UNL     1     -12.845  13.091  65.043  1.00  0.00    -0.365 C  
HETATM    2  C   UNL     1     -11.891  12.977  63.869  1.00  0.00    -0.542 C  
ENDROOT
BRANCH   2   3
HETATM    3  C   UNL     1     -10.439  13.147  64.312  1.00  0.00    -0.410 C  
BRANCH   3   4
HETATM    4  C   UNL     1     -10.372  13.982  65.585  1.00  0.00    -0.342 C  
BRANCH   4   5
HETATM    5  C   UNL     1      -9.708  15.336  65.348  1.00  0.00    -0.243 C  
BRANCH   5   6
HETATM    6  C   UNL     1     -10.785  16.398  65.143  1.00  0.00    -0.309 C  
BRANCH   6   7
HETATM    7  C   UNL     1     -10.506  17.655  65.970  1.00  0.00    -0.278 C  
BRANCH   7   8
HETATM    8  N   UNL     1      -9.633  17.407  67.132  1.00  0.00    -0.258 NA 
BRANCH   8   9
HETATM    9  C   UNL     1      -8.418  18.240  67.163  1.00  0.00    -0.250 C  
HETATM   10  C   UNL     1      -8.465  19.537  66.358  1.00  0.00    -0.373 C  
ENDBRANCH   8   9
BRANCH   8  11
HETATM   11  C   UNL     1     -10.371  17.486  68.406  1.00  0.00    -0.378 C  
BRANCH  11  12
HETATM   12  C   UNL     1     -11.237  16.256  68.718  1.00  0.00    -0.343 C  
BRANCH  12  13
HETATM   13  C   UNL     1     -10.403  15.044  69.149  1.00  0.00    -0.249 C  
BRANCH  13  14
HETATM   14  C   UNL     1     -11.259  13.781  69.325  1.00  0.00    -0.242 C  
HETATM   15  H   UNL     1     -13.120  13.235  68.983  1.00  0.00     0.000 HD 
HETATM   16  O   UNL     1     -12.590  14.017  68.874  1.00  0.00    -0.034 OA 
BRANCH  14  17
HETATM   17  C   UNL     1     -10.664  12.595  68.589  1.00  0.00    -0.269 A  
HETATM   18  C   UNL     1      -9.293  12.578  68.291  1.00  0.00    -0.193 A  
HETATM   19  C   UNL     1      -8.737  11.533  67.550  1.00  0.00    -0.145 A  
HETATM   20  C   UNL     1      -9.546  10.495  67.095  1.00  0.00    -0.168 A  
HETATM   21  C   UNL     1     -11.456  11.513  68.164  1.00  0.00    -0.385 A  
HETATM   22  C   UNL     1     -10.900  10.467  67.423  1.00  0.00    -0.344 A  
BRANCH  20  23
HETATM   23  N   UNL     1      -8.972   9.463  66.300  1.00  0.00    -0.149 N  
HETATM   24  H   UNL     1      -9.000   9.505  65.281  1.00  0.00     0.000 HD 
BRANCH  23  25
HETATM   25  S   UNL     1      -8.244   8.166  67.098  1.00  0.00    -0.121 S  
HETATM   26  C   UNL     1      -9.467   6.891  66.881  1.00  0.00    -0.158 C  
HETATM   27  O   UNL     1      -8.238   8.530  68.498  1.00  0.00    -0.120 OA 
HETATM   28  O   UNL     1      -7.026   7.782  66.420  1.00  0.00    -0.061 OA 
ENDBRANCH  23  25
ENDBRANCH  20  23
ENDBRANCH  14  17
ENDBRANCH  13  14
ENDBRANCH  12  13
ENDBRANCH  11  12
ENDBRANCH   8  11
ENDBRANCH   7   8
ENDBRANCH   6   7
ENDBRANCH   5   6
ENDBRANCH   4   5
ENDBRANCH   3   4
ENDBRANCH   2   3
TORSDOF 14
ENDMDL
MODEL      148
REMARK 921   NORMALIZED FREE ENERGY PREDICTED BY IDOCK:   -3.86 KCAL/MOL
REMARK 922        TOTAL FREE ENERGY PREDICTED BY IDOCK:   -8.87 KCAL/MOL
REMARK 923 INTER-LIGAND FREE ENERGY PREDICTED BY IDOCK:   -7.55 KCAL/MOL
REMARK 924 INTRA-LIGAND FREE ENERGY PREDICTED BY IDOCK:   -1.32 KCAL/MOL
REMARK 927      BINDING AFFINITY PREDICTED BY RF-SCORE:    0.00 PKD
ROOT
HETATM    1  C   UNL     1      -8.700   8.670  71.704  1.00  0.00    -0.270 C  
HETATM    2  C   UNL     1      -8.867   8.241  73.150  1.00  0.00    -0.292 C  
ENDROOT
BRANCH   2   3
HETATM    3  C   UNL     1     -10.185   7.499  73.362  1.00  0.00    -0.399 C  
BRANCH   3   4
HETATM    4  C   UNL     1     -11.303   8.176  72.580  1.00  0.00    -0.469 C  
BRANCH   4   5
HETATM    5  C   UNL     1     -12.153   7.170  71.808  1.00  0.00    -0.363 C  
BRANCH   5   6
HETATM    6  C   UNL     1     -11.240   6.147  71.138  1.00  0.00    -0.355 C  
BRANCH   6   7
HETATM    7  C   UNL     1     -11.220   6.315  69.617  1.00  0.00    -0.437 C  
BRANCH   7   8
HETATM    8  N   UNL     1      -9.860   6.440  69.062  1.00  0.00    -0.137 NA 
BRANCH   8   9
HETATM    9  C   UNL     1      -8.853   5.602  69.739  1.00  0.00    -0.124 C  
HETATM   10  C   UNL     1      -7.393   5.997  69.532  1.00  0.00    -0.076 C  
ENDBRANCH   8   9
BRANCH   8  11
HETATM   11  C   UNL     1      -9.835   6.235  67.603  1.00  0.00    -0.121 C  
BRANCH  11  12
HETATM   12  C   UNL     1     -10.625   7.280  66.799  1.00  0.00    -0.288 C  
BRANCH  12  13
HETATM   13  C   UNL     1     -10.505   8.689  67.390  1.00  0.00    -0.351 C  
BRANCH  13  14
HETATM   14  C   UNL     1      -9.463   9.542  66.653  1.00  0.00    -0.170 C  
HETATM   15  H   UNL     1      -8.625   9.584  64.872  1.00  0.00     0.000 HD 
HETATM   16  O   UNL     1      -9.270   9.056  65.328  1.00  0.00    -0.209 OA 
BRANCH  14  17
HETATM   17  C   UNL     1      -9.863  11.005  66.616  1.00  0.00    -0.235 A  
HETATM   18  C   UNL     1      -9.723  11.795  67.767  1.00  0.00    -0.185 A  
HETATM   19  C   UNL     1     -10.154  13.123  67.780  1.00  0.00    -0.226 A  
HETATM   20  C   UNL     1     -10.734  13.677  66.641  1.00  0.00    -0.280 A  
HETATM   21  C   UNL     1     -10.406  11.597  65.460  1.00  0.00    -0.309 A  
HETATM   22  C   UNL     1     -10.836  12.927  65.472  1.00  0.00    -0.298 A  
BRANCH  20  23
HETATM   23  N   UNL     1     -11.211  15.017  66.685  1.00  0.00    -0.332 N  
HETATM   24  H   UNL     1     -12.036  15.265  67.232  1.00  0.00     0.000 HD 
BRANCH  23  25
HETATM   25  S   UNL     1     -10.368  16.184  65.803  1.00  0.00    -0.377 S  
HETATM   26  C   UNL     1     -10.644  17.637  66.793  1.00  0.00    -0.224 C  
HETATM   27  O   UNL     1     -11.111  16.347  64.573  1.00  0.00    -0.742 OA 
HETATM   28  O   UNL     1      -8.955  15.875  65.788  1.00  0.00    -0.283 OA 
ENDBRANCH  23  25
ENDBRANCH  20  23
ENDBRANCH  14  17
ENDBRANCH  13  14
ENDBRANCH  12  13
ENDBRANCH  11  12
ENDBRANCH   8  11
ENDBRANCH   7   8
ENDBRANCH   6   7
ENDBRANCH   5   6
ENDBRANCH   4   5
ENDBRANCH   3   4
ENDBRANCH   2   3
TORSDOF 14
ENDMDL
MODEL      149
REMARK 921   NORMALIZED FREE ENERGY PREDICTED BY IDOCK:   -3.85 KCAL/MOL
REMARK 922        TOTAL FREE ENERGY PREDICTED BY IDOCK:   -8.85 KCAL/MOL
REMARK 923 INTER-LIGAND FREE ENERGY PREDICTED BY IDOCK:   -7.95 KCAL/MOL
REMARK 924 INTRA-LIGAND FREE ENERGY PREDICTED BY IDOCK:   -0.90 KCAL/MOL
REMARK 927      BINDING AFFINITY PREDICTED BY RF-SCORE:    0.00 PKD
ROOT
HETATM    1  C   UNL     1      -7.798  10.382  69.237  1.00  0.00    -0.147 C  
HETATM    2  C   UNL     1      -7.812  11.448  68.157  1.00  0.00    -0.130 C  
ENDROOT
BRANCH   2   3
HETATM    3  C   UNL     1      -9.237  11.770  67.710  1.00  0.00    -0.181 C  
BRANCH   3   4
HETATM    4  C   UNL     1      -9.407  13.274  67.538  1.00  0.00    -0.218 C  
BRANCH   4   5
HETATM    5  C   UNL     1      -9.687  13.656  66.087  1.00  0.00    -0.269 C  
BRANCH   5   6
HETATM    6  C   UNL     1      -9.542  15.167  65.925  1.00  0.00    -0.373 C  
BRANCH   6   7
HETATM    7  C   UNL     1     -10.751  15.917  66.487  1.00  0.00    -0.258 C  
BRANCH   7   8
HETATM    8  N   UNL     1     -10.388  16.967  67.455  1.00  0.00    -0.321 NA 
BRANCH   8   9
HETATM    9  C   UNL     1     -10.498  18.339  66.927  1.00  0.00    -0.373 C  
HETATM   10  C   UNL     1      -9.204  18.982  66.436  1.00  0.00    -0.350 C  
ENDBRANCH   8   9
BRANCH   8  11
HETATM   11  C   UNL     1     -11.114  16.823  68.730  1.00  0.00    -0.220 C  
BRANCH  11  12
HETATM   12  C   UNL     1     -11.383  15.369  69.150  1.00  0.00    -0.323 C  
BRANCH  12  13
HETATM   13  C   UNL     1     -12.718  15.207  69.885  1.00  0.00    -0.128 C  
BRANCH  13  14
HETATM   14  C   UNL     1     -12.548  14.555  71.264  1.00  0.00    -0.345 C  
HETATM   15  H   UNL     1     -13.442  14.623  73.017  1.00  0.00     0.000 HD 
HETATM   16  O   UNL     1     -13.547  15.027  72.163  1.00  0.00    -0.353 OA 
BRANCH  14  17
HETATM   17  C   UNL     1     -12.601  13.041  71.178  1.00  0.00    -0.388 A  
HETATM   18  C   UNL     1     -11.990  12.384  70.099  1.00  0.00    -0.376 A  
HETATM   19  C   UNL     1     -12.089  10.998  69.958  1.00  0.00    -0.441 A  
HETATM   20  C   UNL     1     -12.805  10.254  70.892  1.00  0.00    -0.374 A  
HETATM   21  C   UNL     1     -13.276  12.267  72.138  1.00  0.00    -0.466 A  
HETATM   22  C   UNL     1     -13.375  10.880  71.998  1.00  0.00    -0.394 A  
BRANCH  20  23
HETATM   23  N   UNL     1     -12.936   8.848  70.708  1.00  0.00    -0.435 N  
HETATM   24  H   UNL     1     -13.841   8.428  70.493  1.00  0.00     0.000 HD 
BRANCH  23  25
HETATM   25  S   UNL     1     -11.548   7.900  70.855  1.00  0.00    -0.244 S  
HETATM   26  C   UNL     1     -10.571   8.882  71.974  1.00  0.00    -0.318 C  
HETATM   27  O   UNL     1     -10.908   7.950  69.559  1.00  0.00    -0.221 OA 
HETATM   28  O   UNL     1     -11.869   6.637  71.483  1.00  0.00    -0.306 OA 
ENDBRANCH  23  25
ENDBRANCH  20  23
ENDBRANCH  14  17
ENDBRANCH  13  14
ENDBRANCH  12  13
ENDBRANCH  11  12
ENDBRANCH   8  11
ENDBRANCH   7   8
ENDBRANCH   6   7
ENDBRANCH   5   6
ENDBRANCH   4   5
ENDBRANCH   3   4
ENDBRANCH   2   3
TORSDOF 14
ENDMDL
MODEL      150
REMARK 921   NORMALIZED FREE ENERGY PREDICTED BY IDOCK:   -3.85 KCAL/MOL
REMARK 922        TOTAL FREE ENERGY PREDICTED BY IDOCK:   -8.85 KCAL/MOL
REMARK 923 INTER-LIGAND FREE ENERGY PREDICTED BY IDOCK:   -6.56 KCAL/MOL
REMARK 924 INTRA-LIGAND FREE ENERGY PREDICTED BY IDOCK:   -2.29 KCAL/MOL
REMARK 927      BINDING AFFINITY PREDICTED BY RF-SCORE:    0.00 PKD
ROOT
HETATM    1  C   UNL     1     -12.011  10.918  69.448  1.00  0.00    -0.393 C  
HETATM    2  C   UNL     1     -11.797  12.245  70.151  1.00  0.00    -0.352 C  
ENDROOT
BRANCH   2   3
HETATM    3  C   UNL     1     -11.848  13.412  69.166  1.00  0.00    -0.383 C  
BRANCH   3   4
HETATM    4  C   UNL     1     -11.886  14.736  69.920  1.00  0.00    -0.364 C  
BRANCH   4   5
HETATM    5  C   UNL     1     -10.574  15.505  69.792  1.00  0.00    -0.301 C  
BRANCH   5   6
HETATM    6  C   UNL     1     -10.842  16.856  69.134  1.00  0.00    -0.237 C  
BRANCH   6   7
HETATM    7  C   UNL     1     -10.754  16.772  67.609  1.00  0.00    -0.305 C  
BRANCH   7   8
HETATM    8  N   UNL     1     -10.257  18.011  66.984  1.00  0.00    -0.346 NA 
BRANCH   8   9
HETATM    9  C   UNL     1     -10.241  19.176  67.886  1.00  0.00    -0.406 C  
HETATM   10  C   UNL     1     -10.020  20.538  67.231  1.00  0.00    -0.528 C  
ENDBRANCH   8   9
BRANCH   8  11
HETATM   11  C   UNL     1      -8.949  17.818  66.333  1.00  0.00    -0.229 C  
BRANCH  11  12
HETATM   12  C   UNL     1      -7.760  17.730  67.302  1.00  0.00    -0.222 C  
BRANCH  12  13
HETATM   13  C   UNL     1      -6.856  16.526  67.015  1.00  0.00    -0.248 C  
BRANCH  13  14
HETATM   14  C   UNL     1      -6.843  15.519  68.174  1.00  0.00    -0.124 C  
HETATM   15  H   UNL     1      -7.314  15.507  70.086  1.00  0.00     0.000 HD 
HETATM   16  O   UNL     1      -7.321  16.130  69.369  1.00  0.00    -0.227 OA 
BRANCH  14  17
HETATM   17  C   UNL     1      -7.669  14.287  67.855  1.00  0.00    -0.157 A  
HETATM   18  C   UNL     1      -7.462  13.103  68.578  1.00  0.00    -0.117 A  
HETATM   19  C   UNL     1      -8.157  11.936  68.254  1.00  0.00    -0.154 A  
HETATM   20  C   UNL     1      -9.065  11.938  67.198  1.00  0.00    -0.178 A  
HETATM   21  C   UNL     1      -8.627  14.283  66.824  1.00  0.00    -0.113 A  
HETATM   22  C   UNL     1      -9.324  13.115  66.499  1.00  0.00    -0.222 A  
BRANCH  20  23
HETATM   23  N   UNL     1      -9.729  10.729  66.849  1.00  0.00    -0.175 N  
HETATM   24  H   UNL     1     -10.552  10.413  67.363  1.00  0.00     0.000 HD 
BRANCH  23  25
HETATM   25  S   UNL     1      -9.111   9.833  65.558  1.00  0.00    -0.214 S  
HETATM   26  C   UNL     1      -9.333   8.169  66.151  1.00  0.00    -0.166 C  
HETATM   27  O   UNL     1      -7.691  10.106  65.546  1.00  0.00    -0.133 OA 
HETATM   28  O   UNL     1      -9.922  10.034  64.377  1.00  0.00    -0.265 OA 
ENDBRANCH  23  25
ENDBRANCH  20  23
ENDBRANCH  14  17
ENDBRANCH  13  14
ENDBRANCH  12  13
ENDBRANCH  11  12
ENDBRANCH   8  11
ENDBRANCH   7   8
ENDBRANCH   6   7
ENDBRANCH   5   6
ENDBRANCH   4   5
ENDBRANCH   3   4
ENDBRANCH   2   3
TORSDOF 14
ENDMDL
MODEL      151
REMARK 921   NORMALIZED FREE ENERGY PREDICTED BY IDOCK:   -3.84 KCAL/MOL
REMARK 922        TOTAL FREE ENERGY PREDICTED BY IDOCK:   -8.84 KCAL/MOL
REMARK 923 INTER-LIGAND FREE ENERGY PREDICTED BY IDOCK:   -7.97 KCAL/MOL
REMARK 924 INTRA-LIGAND FREE ENERGY PREDICTED BY IDOCK:   -0.86 KCAL/MOL
REMARK 927      BINDING AFFINITY PREDICTED BY RF-SCORE:    0.00 PKD
ROOT
HETATM    1  C   UNL     1     -11.331  14.393  64.747  1.00  0.00    -0.388 C  
HETATM    2  C   UNL     1     -10.301  15.485  64.966  1.00  0.00    -0.327 C  
ENDROOT
BRANCH   2   3
HETATM    3  C   UNL     1     -10.317  15.984  66.410  1.00  0.00    -0.312 C  
BRANCH   3   4
HETATM    4  C   UNL     1     -10.057  17.485  66.452  1.00  0.00    -0.346 C  
BRANCH   4   5
HETATM    5  C   UNL     1     -10.604  18.125  67.725  1.00  0.00    -0.407 C  
BRANCH   5   6
HETATM    6  C   UNL     1     -10.029  17.401  68.941  1.00  0.00    -0.308 C  
BRANCH   6   7
HETATM    7  C   UNL     1     -11.130  16.788  69.809  1.00  0.00    -0.013 C  
BRANCH   7   8
HETATM    8  N   UNL     1     -10.771  15.468  70.360  1.00  0.00    -0.328 NA 
BRANCH   8   9
HETATM    9  C   UNL     1     -11.361  15.186  71.680  1.00  0.00    -0.328 C  
HETATM   10  C   UNL     1     -12.093  16.342  72.357  1.00  0.00    -0.598 C  
ENDBRANCH   8   9
BRANCH   8  11
HETATM   11  C   UNL     1     -11.040  14.377  69.406  1.00  0.00    -0.261 C  
BRANCH  11  12
HETATM   12  C   UNL     1      -9.793  13.828  68.696  1.00  0.00    -0.158 C  
BRANCH  12  13
HETATM   13  C   UNL     1     -10.134  12.751  67.660  1.00  0.00    -0.220 C  
BRANCH  13  14
HETATM   14  C   UNL     1     -11.427  11.999  68.005  1.00  0.00    -0.328 C  
HETATM   15  H   UNL     1     -12.955  11.227  67.032  1.00  0.00     0.000 HD 
HETATM   16  O   UNL     1     -12.154  11.693  66.819  1.00  0.00    -0.472 OA 
BRANCH  14  17
HETATM   17  C   UNL     1     -11.144  10.728  68.783  1.00  0.00    -0.312 A  
HETATM   18  C   UNL     1     -11.371  10.695  70.167  1.00  0.00    -0.402 A  
HETATM   19  C   UNL     1     -11.049   9.562  70.917  1.00  0.00    -0.406 A  
HETATM   20  C   UNL     1     -10.491   8.450  70.292  1.00  0.00    -0.218 A  
HETATM   21  C   UNL     1     -10.626   9.577  68.162  1.00  0.00    -0.265 A  
HETATM   22  C   UNL     1     -10.305   8.442  68.912  1.00  0.00    -0.231 A  
BRANCH  20  23
HETATM   23  N   UNL     1     -10.124   7.321  71.078  1.00  0.00    -0.192 N  
HETATM   24  H   UNL     1      -9.233   6.845  70.932  1.00  0.00     0.000 HD 
BRANCH  23  25
HETATM   25  S   UNL     1     -11.209   6.796  72.259  1.00  0.00    -0.269 S  
HETATM   26  C   UNL     1     -10.640   5.132  72.542  1.00  0.00    -0.220 C  
HETATM   27  O   UNL     1     -12.491   6.710  71.593  1.00  0.00    -0.352 OA 
HETATM   28  O   UNL     1     -11.045   7.570  73.469  1.00  0.00    -0.312 OA 
ENDBRANCH  23  25
ENDBRANCH  20  23
ENDBRANCH  14  17
ENDBRANCH  13  14
ENDBRANCH  12  13
ENDBRANCH  11  12
ENDBRANCH   8  11
ENDBRANCH   7   8
ENDBRANCH   6   7
ENDBRANCH   5   6
ENDBRANCH   4   5
ENDBRANCH   3   4
ENDBRANCH   2   3
TORSDOF 14
ENDMDL
MODEL      152
REMARK 921   NORMALIZED FREE ENERGY PREDICTED BY IDOCK:   -3.84 KCAL/MOL
REMARK 922        TOTAL FREE ENERGY PREDICTED BY IDOCK:   -8.84 KCAL/MOL
REMARK 923 INTER-LIGAND FREE ENERGY PREDICTED BY IDOCK:   -7.05 KCAL/MOL
REMARK 924 INTRA-LIGAND FREE ENERGY PREDICTED BY IDOCK:   -1.78 KCAL/MOL
REMARK 927      BINDING AFFINITY PREDICTED BY RF-SCORE:    0.00 PKD
ROOT
HETATM    1  C   UNL     1      -7.113   4.084  65.858  1.00  0.00    -0.067 C  
HETATM    2  C   UNL     1      -8.296   3.138  65.949  1.00  0.00    -0.097 C  
ENDROOT
BRANCH   2   3
HETATM    3  C   UNL     1      -9.585   3.890  66.277  1.00  0.00    -0.198 C  
BRANCH   3   4
HETATM    4  C   UNL     1      -9.290   5.064  67.202  1.00  0.00    -0.132 C  
BRANCH   4   5
HETATM    5  C   UNL     1      -9.952   6.352  66.720  1.00  0.00    -0.225 C  
BRANCH   5   6
HETATM    6  C   UNL     1     -11.203   6.620  67.553  1.00  0.00    -0.276 C  
BRANCH   6   7
HETATM    7  C   UNL     1     -10.980   6.294  69.031  1.00  0.00    -0.372 C  
BRANCH   7   8
HETATM    8  N   UNL     1     -10.525   7.452  69.822  1.00  0.00    -0.223 NA 
BRANCH   8   9
HETATM    9  C   UNL     1     -11.562   8.030  70.695  1.00  0.00    -0.196 C  
HETATM   10  C   UNL     1     -11.302   9.443  71.212  1.00  0.00    -0.436 C  
ENDBRANCH   8   9
BRANCH   8  11
HETATM   11  C   UNL     1      -9.291   7.160  70.573  1.00  0.00    -0.158 C  
BRANCH  11  12
HETATM   12  C   UNL     1      -8.069   7.982  70.135  1.00  0.00    -0.114 C  
BRANCH  12  13
HETATM   13  C   UNL     1      -8.344   8.825  68.885  1.00  0.00    -0.127 C  
BRANCH  13  14
HETATM   14  C   UNL     1      -8.232  10.331  69.161  1.00  0.00    -0.152 C  
HETATM   15  H   UNL     1      -6.835  11.716  69.082  1.00  0.00     0.000 HD 
HETATM   16  O   UNL     1      -6.905  10.784  68.911  1.00  0.00    -0.059 OA 
BRANCH  14  17
HETATM   17  C   UNL     1      -9.219  11.128  68.329  1.00  0.00    -0.169 A  
HETATM   18  C   UNL     1      -9.049  12.513  68.187  1.00  0.00    -0.204 A  
HETATM   19  C   UNL     1      -9.985  13.280  67.488  1.00  0.00    -0.223 A  
HETATM   20  C   UNL     1     -11.103  12.669  66.927  1.00  0.00    -0.273 A  
HETATM   21  C   UNL     1     -10.329  10.522  67.712  1.00  0.00    -0.248 A  
HETATM   22  C   UNL     1     -11.265  11.289  67.012  1.00  0.00    -0.324 A  
BRANCH  20  23
HETATM   23  N   UNL     1     -12.071  13.471  66.259  1.00  0.00    -0.419 N  
HETATM   24  H   UNL     1     -12.631  14.155  66.769  1.00  0.00     0.000 HD 
BRANCH  23  25
HETATM   25  S   UNL     1     -12.263  13.255  64.596  1.00  0.00    -0.408 S  
HETATM   26  C   UNL     1     -10.600  12.855  64.102  1.00  0.00    -0.416 C  
HETATM   27  O   UNL     1     -12.570  14.567  64.070  1.00  0.00    -0.797 OA 
HETATM   28  O   UNL     1     -13.126  12.124  64.335  1.00  0.00    -0.740 OA 
ENDBRANCH  23  25
ENDBRANCH  20  23
ENDBRANCH  14  17
ENDBRANCH  13  14
ENDBRANCH  12  13
ENDBRANCH  11  12
ENDBRANCH   8  11
ENDBRANCH   7   8
ENDBRANCH   6   7
ENDBRANCH   5   6
ENDBRANCH   4   5
ENDBRANCH   3   4
ENDBRANCH   2   3
TORSDOF 14
ENDMDL
MODEL      153
REMARK 921   NORMALIZED FREE ENERGY PREDICTED BY IDOCK:   -3.83 KCAL/MOL
REMARK 922        TOTAL FREE ENERGY PREDICTED BY IDOCK:   -8.82 KCAL/MOL
REMARK 923 INTER-LIGAND FREE ENERGY PREDICTED BY IDOCK:   -6.26 KCAL/MOL
REMARK 924 INTRA-LIGAND FREE ENERGY PREDICTED BY IDOCK:   -2.56 KCAL/MOL
REMARK 927      BINDING AFFINITY PREDICTED BY RF-SCORE:    0.00 PKD
ROOT
HETATM    1  C   UNL     1      -9.198  11.168  62.529  1.00  0.00    -0.317 C  
HETATM    2  C   UNL     1     -10.198  11.887  63.414  1.00  0.00    -0.478 C  
ENDROOT
BRANCH   2   3
HETATM    3  C   UNL     1     -10.626  11.015  64.593  1.00  0.00    -0.369 C  
BRANCH   3   4
HETATM    4  C   UNL     1     -11.501  11.815  65.550  1.00  0.00    -0.241 C  
BRANCH   4   5
HETATM    5  C   UNL     1     -12.180  12.993  64.856  1.00  0.00    -0.490 C  
BRANCH   5   6
HETATM    6  C   UNL     1     -12.535  14.055  65.894  1.00  0.00    -0.513 C  
BRANCH   6   7
HETATM    7  C   UNL     1     -12.118  13.631  67.304  1.00  0.00    -0.345 C  
BRANCH   7   8
HETATM    8  N   UNL     1     -11.551  14.735  68.100  1.00  0.00    -0.321 NA 
BRANCH   8   9
HETATM    9  C   UNL     1     -11.969  14.735  69.514  1.00  0.00    -0.311 C  
HETATM   10  C   UNL     1     -11.391  15.843  70.391  1.00  0.00    -0.399 C  
ENDBRANCH   8   9
BRANCH   8  11
HETATM   11  C   UNL     1     -10.085  14.815  67.973  1.00  0.00    -0.218 C  
BRANCH  11  12
HETATM   12  C   UNL     1      -9.348  13.496  68.254  1.00  0.00    -0.205 C  
BRANCH  12  13
HETATM   13  C   UNL     1      -8.456  13.061  67.085  1.00  0.00    -0.176 C  
BRANCH  13  14
HETATM   14  C   UNL     1      -7.434  11.994  67.498  1.00  0.00    -0.140 C  
HETATM   15  H   UNL     1      -6.665  11.299  69.172  1.00  0.00     0.000 HD 
HETATM   16  O   UNL     1      -7.298  11.960  68.916  1.00  0.00    -0.112 OA 
BRANCH  14  17
HETATM   17  C   UNL     1      -7.818  10.621  66.981  1.00  0.00    -0.117 A  
HETATM   18  C   UNL     1      -7.219  10.125  65.812  1.00  0.00    -0.128 A  
HETATM   19  C   UNL     1      -7.610   8.897  65.275  1.00  0.00    -0.098 A  
HETATM   20  C   UNL     1      -8.608   8.151  65.898  1.00  0.00    -0.151 A  
HETATM   21  C   UNL     1      -8.788   9.830  67.623  1.00  0.00    -0.127 A  
HETATM   22  C   UNL     1      -9.179   8.600  67.086  1.00  0.00    -0.175 A  
BRANCH  20  23
HETATM   23  N   UNL     1      -9.028   6.924  65.311  1.00  0.00    -0.356 N  
HETATM   24  H   UNL     1      -9.556   6.912  64.438  1.00  0.00     0.000 HD 
BRANCH  23  25
HETATM   25  S   UNL     1      -8.624   5.491  66.106  1.00  0.00    -0.134 S  
HETATM   26  C   UNL     1      -8.319   4.403  64.729  1.00  0.00    -0.109 C  
HETATM   27  O   UNL     1      -9.843   5.050  66.747  1.00  0.00    -0.155 OA 
HETATM   28  O   UNL     1      -7.402   5.664  66.859  1.00  0.00    -0.077 OA 
ENDBRANCH  23  25
ENDBRANCH  20  23
ENDBRANCH  14  17
ENDBRANCH  13  14
ENDBRANCH  12  13
ENDBRANCH  11  12
ENDBRANCH   8  11
ENDBRANCH   7   8
ENDBRANCH   6   7
ENDBRANCH   5   6
ENDBRANCH   4   5
ENDBRANCH   3   4
ENDBRANCH   2   3
TORSDOF 14
ENDMDL
MODEL      154
REMARK 921   NORMALIZED FREE ENERGY PREDICTED BY IDOCK:   -3.82 KCAL/MOL
REMARK 922        TOTAL FREE ENERGY PREDICTED BY IDOCK:   -8.81 KCAL/MOL
REMARK 923 INTER-LIGAND FREE ENERGY PREDICTED BY IDOCK:   -7.30 KCAL/MOL
REMARK 924 INTRA-LIGAND FREE ENERGY PREDICTED BY IDOCK:   -1.51 KCAL/MOL
REMARK 927      BINDING AFFINITY PREDICTED BY RF-SCORE:    0.00 PKD
ROOT
HETATM    1  C   UNL     1      -7.768   4.262  66.396  1.00  0.00    -0.094 C  
HETATM    2  C   UNL     1      -7.597   5.685  65.896  1.00  0.00    -0.086 C  
ENDROOT
BRANCH   2   3
HETATM    3  C   UNL     1      -8.867   6.507  66.110  1.00  0.00    -0.160 C  
BRANCH   3   4
HETATM    4  C   UNL     1      -9.913   5.678  66.844  1.00  0.00    -0.202 C  
BRANCH   4   5
HETATM    5  C   UNL     1     -11.052   6.540  67.382  1.00  0.00    -0.411 C  
BRANCH   5   6
HETATM    6  C   UNL     1     -11.224   6.274  68.876  1.00  0.00    -0.387 C  
BRANCH   6   7
HETATM    7  C   UNL     1      -9.876   6.170  69.593  1.00  0.00    -0.161 C  
BRANCH   7   8
HETATM    8  N   UNL     1      -9.657   7.240  70.582  1.00  0.00    -0.172 NA 
BRANCH   8   9
HETATM    9  C   UNL     1      -9.588   6.768  71.976  1.00  0.00    -0.147 C  
HETATM   10  C   UNL     1     -10.513   7.461  72.974  1.00  0.00    -0.373 C  
ENDBRANCH   8   9
BRANCH   8  11
HETATM   11  C   UNL     1      -8.496   8.081  70.241  1.00  0.00    -0.127 C  
BRANCH  11  12
HETATM   12  C   UNL     1      -8.649   8.885  68.940  1.00  0.00    -0.135 C  
BRANCH  12  13
HETATM   13  C   UNL     1      -9.378  10.216  69.155  1.00  0.00    -0.205 C  
BRANCH  13  14
HETATM   14  C   UNL     1     -10.846  10.154  68.710  1.00  0.00    -0.225 C  
HETATM   15  H   UNL     1     -12.605   9.903  69.558  1.00  0.00     0.000 HD 
HETATM   16  O   UNL     1     -11.697   9.941  69.833  1.00  0.00    -0.184 OA 
BRANCH  14  17
HETATM   17  C   UNL     1     -11.262  11.414  67.975  1.00  0.00    -0.346 A  
HETATM   18  C   UNL     1     -11.288  11.426  66.573  1.00  0.00    -0.195 A  
HETATM   19  C   UNL     1     -11.595  12.595  65.873  1.00  0.00    -0.443 A  
HETATM   20  C   UNL     1     -11.876  13.768  66.569  1.00  0.00    -0.407 A  
HETATM   21  C   UNL     1     -11.598  12.596  68.661  1.00  0.00    -0.356 A  
HETATM   22  C   UNL     1     -11.906  13.766  67.962  1.00  0.00    -0.408 A  
BRANCH  20  23
HETATM   23  N   UNL     1     -12.140  14.962  65.841  1.00  0.00    -0.076 N  
HETATM   24  H   UNL     1     -13.096  15.278  65.675  1.00  0.00     0.000 HD 
BRANCH  23  25
HETATM   25  S   UNL     1     -10.820  15.840  65.260  1.00  0.00    -0.374 S  
HETATM   26  C   UNL     1     -10.520  16.955  66.615  1.00  0.00    -0.257 C  
HETATM   27  O   UNL     1     -11.334  16.623  64.158  1.00  0.00    -1.141 OA 
HETATM   28  O   UNL     1      -9.676  14.971  65.092  1.00  0.00    -0.232 OA 
ENDBRANCH  23  25
ENDBRANCH  20  23
ENDBRANCH  14  17
ENDBRANCH  13  14
ENDBRANCH  12  13
ENDBRANCH  11  12
ENDBRANCH   8  11
ENDBRANCH   7   8
ENDBRANCH   6   7
ENDBRANCH   5   6
ENDBRANCH   4   5
ENDBRANCH   3   4
ENDBRANCH   2   3
TORSDOF 14
ENDMDL
MODEL      155
REMARK 921   NORMALIZED FREE ENERGY PREDICTED BY IDOCK:   -3.81 KCAL/MOL
REMARK 922        TOTAL FREE ENERGY PREDICTED BY IDOCK:   -8.77 KCAL/MOL
REMARK 923 INTER-LIGAND FREE ENERGY PREDICTED BY IDOCK:   -7.50 KCAL/MOL
REMARK 924 INTRA-LIGAND FREE ENERGY PREDICTED BY IDOCK:   -1.27 KCAL/MOL
REMARK 927      BINDING AFFINITY PREDICTED BY RF-SCORE:    0.00 PKD
ROOT
HETATM    1  C   UNL     1      -8.444  15.435  66.913  1.00  0.00    -0.287 C  
HETATM    2  C   UNL     1      -9.278  16.193  65.898  1.00  0.00    -0.296 C  
ENDROOT
BRANCH   2   3
HETATM    3  C   UNL     1     -10.380  15.311  65.313  1.00  0.00    -0.430 C  
BRANCH   3   4
HETATM    4  C   UNL     1     -10.249  13.887  65.838  1.00  0.00    -0.326 C  
BRANCH   4   5
HETATM    5  C   UNL     1     -11.592  13.316  66.286  1.00  0.00    -0.384 C  
BRANCH   5   6
HETATM    6  C   UNL     1     -11.944  13.873  67.664  1.00  0.00    -0.403 C  
BRANCH   6   7
HETATM    7  C   UNL     1     -10.934  13.435  68.727  1.00  0.00    -0.257 C  
BRANCH   7   8
HETATM    8  N   UNL     1     -11.561  12.800  69.900  1.00  0.00    -0.226 NA 
BRANCH   8   9
HETATM    9  C   UNL     1     -12.615  13.611  70.534  1.00  0.00    -0.267 C  
HETATM   10  C   UNL     1     -12.146  14.708  71.486  1.00  0.00    -0.413 C  
ENDBRANCH   8   9
BRANCH   8  11
HETATM   11  C   UNL     1     -12.037  11.437  69.603  1.00  0.00    -0.305 C  
BRANCH  11  12
HETATM   12  C   UNL     1     -12.545  10.658  70.827  1.00  0.00    -0.479 C  
BRANCH  12  13
HETATM   13  C   UNL     1     -11.497   9.686  71.381  1.00  0.00    -0.455 C  
BRANCH  13  14
HETATM   14  C   UNL     1     -10.287   9.542  70.448  1.00  0.00    -0.276 C  
HETATM   15  H   UNL     1      -8.338   9.323  70.631  1.00  0.00     0.000 HD 
HETATM   16  O   UNL     1      -9.088   9.412  71.208  1.00  0.00    -0.277 OA 
BRANCH  14  17
HETATM   17  C   UNL     1     -10.438   8.358  69.512  1.00  0.00    -0.225 A  
HETATM   18  C   UNL     1     -10.817   7.109  70.026  1.00  0.00    -0.276 A  
HETATM   19  C   UNL     1     -10.891   5.988  69.196  1.00  0.00    -0.422 A  
HETATM   20  C   UNL     1     -10.582   6.102  67.843  1.00  0.00    -0.263 A  
HETATM   21  C   UNL     1     -10.178   8.465  68.133  1.00  0.00    -0.253 A  
HETATM   22  C   UNL     1     -10.253   7.343  67.303  1.00  0.00    -0.330 A  
BRANCH  20  23
HETATM   23  N   UNL     1     -10.615   4.941  67.021  1.00  0.00    -0.150 N  
HETATM   24  H   UNL     1     -11.460   4.680  66.512  1.00  0.00     0.000 HD 
BRANCH  23  25
HETATM   25  S   UNL     1      -9.212   4.008  66.916  1.00  0.00    -0.180 S  
HETATM   26  C   UNL     1      -8.929   4.000  65.158  1.00  0.00    -0.133 C  
HETATM   27  O   UNL     1      -9.609   2.671  67.299  1.00  0.00    -0.087 OA 
HETATM   28  O   UNL     1      -8.114   4.681  67.575  1.00  0.00    -0.100 OA 
ENDBRANCH  23  25
ENDBRANCH  20  23
ENDBRANCH  14  17
ENDBRANCH  13  14
ENDBRANCH  12  13
ENDBRANCH  11  12
ENDBRANCH   8  11
ENDBRANCH   7   8
ENDBRANCH   6   7
ENDBRANCH   5   6
ENDBRANCH   4   5
ENDBRANCH   3   4
ENDBRANCH   2   3
TORSDOF 14
ENDMDL
MODEL      156
REMARK 921   NORMALIZED FREE ENERGY PREDICTED BY IDOCK:   -3.81 KCAL/MOL
REMARK 922        TOTAL FREE ENERGY PREDICTED BY IDOCK:   -8.77 KCAL/MOL
REMARK 923 INTER-LIGAND FREE ENERGY PREDICTED BY IDOCK:   -7.77 KCAL/MOL
REMARK 924 INTRA-LIGAND FREE ENERGY PREDICTED BY IDOCK:   -1.01 KCAL/MOL
REMARK 927      BINDING AFFINITY PREDICTED BY RF-SCORE:    0.00 PKD
ROOT
HETATM    1  C   UNL     1      -9.550  19.562  68.634  1.00  0.00    -0.483 C  
HETATM    2  C   UNL     1      -9.225  20.391  67.406  1.00  0.00    -0.513 C  
ENDROOT
BRANCH   2   3
HETATM    3  C   UNL     1      -9.924  19.844  66.163  1.00  0.00    -0.593 C  
BRANCH   3   4
HETATM    4  C   UNL     1     -10.896  18.736  66.550  1.00  0.00    -0.193 C  
BRANCH   4   5
HETATM    5  C   UNL     1     -10.753  17.510  65.653  1.00  0.00    -0.089 C  
BRANCH   5   6
HETATM    6  C   UNL     1     -10.196  16.347  66.471  1.00  0.00    -0.310 C  
BRANCH   6   7
HETATM    7  C   UNL     1     -10.132  15.056  65.651  1.00  0.00    -0.362 C  
BRANCH   7   8
HETATM    8  N   UNL     1     -11.371  14.262  65.716  1.00  0.00    -0.320 NA 
BRANCH   8   9
HETATM    9  C   UNL     1     -11.763  13.648  64.435  1.00  0.00    -0.411 C  
HETATM   10  C   UNL     1     -12.864  12.592  64.497  1.00  0.00    -0.356 C  
ENDBRANCH   8   9
BRANCH   8  11
HETATM   11  C   UNL     1     -11.333  13.263  66.800  1.00  0.00    -0.327 C  
BRANCH  11  12
HETATM   12  C   UNL     1      -9.952  13.075  67.446  1.00  0.00    -0.228 C  
BRANCH  12  13
HETATM   13  C   UNL     1      -9.207  11.855  66.894  1.00  0.00    -0.193 C  
BRANCH  13  14
HETATM   14  C   UNL     1     -10.158  10.705  66.535  1.00  0.00    -0.223 C  
HETATM   15  H   UNL     1     -10.300   9.328  65.135  1.00  0.00     0.000 HD 
HETATM   16  O   UNL     1      -9.712  10.040  65.357  1.00  0.00    -0.260 OA 
BRANCH  14  17
HETATM   17  C   UNL     1     -10.289   9.711  67.674  1.00  0.00    -0.290 A  
HETATM   18  C   UNL     1     -10.269  10.166  69.001  1.00  0.00    -0.221 A  
HETATM   19  C   UNL     1     -10.312   9.264  70.066  1.00  0.00    -0.245 A  
HETATM   20  C   UNL     1     -10.373   7.895  69.816  1.00  0.00    -0.219 A  
HETATM   21  C   UNL     1     -10.401   8.327  67.442  1.00  0.00    -0.350 A  
HETATM   22  C   UNL     1     -10.446   7.425  68.508  1.00  0.00    -0.215 A  
BRANCH  20  23
HETATM   23  N   UNL     1     -10.368   6.988  70.913  1.00  0.00    -0.198 N  
HETATM   24  H   UNL     1      -9.570   6.376  71.088  1.00  0.00     0.000 HD 
BRANCH  23  25
HETATM   25  S   UNL     1     -11.726   6.954  71.915  1.00  0.00    -0.313 S  
HETATM   26  C   UNL     1     -11.612   5.317  72.604  1.00  0.00    -0.154 C  
HETATM   27  O   UNL     1     -12.864   6.972  71.022  1.00  0.00    -0.349 OA 
HETATM   28  O   UNL     1     -11.591   7.930  72.974  1.00  0.00    -0.351 OA 
ENDBRANCH  23  25
ENDBRANCH  20  23
ENDBRANCH  14  17
ENDBRANCH  13  14
ENDBRANCH  12  13
ENDBRANCH  11  12
ENDBRANCH   8  11
ENDBRANCH   7   8
ENDBRANCH   6   7
ENDBRANCH   5   6
ENDBRANCH   4   5
ENDBRANCH   3   4
ENDBRANCH   2   3
TORSDOF 14
ENDMDL
MODEL      157
REMARK 921   NORMALIZED FREE ENERGY PREDICTED BY IDOCK:   -3.79 KCAL/MOL
REMARK 922        TOTAL FREE ENERGY PREDICTED BY IDOCK:   -8.74 KCAL/MOL
REMARK 923 INTER-LIGAND FREE ENERGY PREDICTED BY IDOCK:   -7.27 KCAL/MOL
REMARK 924 INTRA-LIGAND FREE ENERGY PREDICTED BY IDOCK:   -1.47 KCAL/MOL
REMARK 927      BINDING AFFINITY PREDICTED BY RF-SCORE:    0.00 PKD
ROOT
HETATM    1  C   UNL     1      -8.201   6.931  66.584  1.00  0.00    -0.115 C  
HETATM    2  C   UNL     1      -8.072   8.443  66.547  1.00  0.00    -0.101 C  
ENDROOT
BRANCH   2   3
HETATM    3  C   UNL     1      -9.246   9.083  65.808  1.00  0.00    -0.293 C  
BRANCH   3   4
HETATM    4  C   UNL     1      -8.869   9.358  64.358  1.00  0.00    -0.225 C  
BRANCH   4   5
HETATM    5  C   UNL     1      -9.802  10.377  63.707  1.00  0.00    -0.308 C  
BRANCH   5   6
HETATM    6  C   UNL     1     -10.393  11.282  64.786  1.00  0.00    -0.366 C  
BRANCH   6   7
HETATM    7  C   UNL     1     -10.522  12.728  64.304  1.00  0.00    -0.399 C  
BRANCH   7   8
HETATM    8  N   UNL     1     -11.180  13.612  65.283  1.00  0.00    -0.294 NA 
BRANCH   8   9
HETATM    9  C   UNL     1     -11.964  14.704  64.678  1.00  0.00    -0.462 C  
HETATM   10  C   UNL     1     -11.226  16.019  64.443  1.00  0.00    -0.218 C  
ENDBRANCH   8   9
BRANCH   8  11
HETATM   11  C   UNL     1     -11.980  12.856  66.263  1.00  0.00    -0.408 C  
BRANCH  11  12
HETATM   12  C   UNL     1     -11.749  13.265  67.726  1.00  0.00    -0.398 C  
BRANCH  12  13
HETATM   13  C   UNL     1     -11.966  12.103  68.702  1.00  0.00    -0.290 C  
BRANCH  13  14
HETATM   14  C   UNL     1     -10.863  11.040  68.596  1.00  0.00    -0.215 C  
HETATM   15  H   UNL     1      -8.918  10.940  68.883  1.00  0.00     0.000 HD 
HETATM   16  O   UNL     1      -9.601  11.598  68.949  1.00  0.00    -0.123 OA 
BRANCH  14  17
HETATM   17  C   UNL     1     -11.161   9.835  69.468  1.00  0.00    -0.226 A  
HETATM   18  C   UNL     1     -11.893   9.999  70.654  1.00  0.00    -0.411 A  
HETATM   19  C   UNL     1     -12.115   8.919  71.511  1.00  0.00    -0.395 A  
HETATM   20  C   UNL     1     -11.603   7.663  71.194  1.00  0.00    -0.280 A  
HETATM   21  C   UNL     1     -10.695   8.549  69.140  1.00  0.00    -0.128 A  
HETATM   22  C   UNL     1     -10.918   7.467  69.997  1.00  0.00    -0.252 A  
BRANCH  20  23
HETATM   23  N   UNL     1     -11.797   6.584  72.101  1.00  0.00    -0.368 N  
HETATM   24  H   UNL     1     -12.716   6.156  72.222  1.00  0.00     0.000 HD 
BRANCH  23  25
HETATM   25  S   UNL     1     -10.459   6.034  72.972  1.00  0.00    -0.238 S  
HETATM   26  C   UNL     1     -11.143   4.617  73.805  1.00  0.00    -0.258 C  
HETATM   27  O   UNL     1     -10.208   7.048  73.972  1.00  0.00    -0.349 OA 
HETATM   28  O   UNL     1      -9.417   5.601  72.067  1.00  0.00    -0.150 OA 
ENDBRANCH  23  25
ENDBRANCH  20  23
ENDBRANCH  14  17
ENDBRANCH  13  14
ENDBRANCH  12  13
ENDBRANCH  11  12
ENDBRANCH   8  11
ENDBRANCH   7   8
ENDBRANCH   6   7
ENDBRANCH   5   6
ENDBRANCH   4   5
ENDBRANCH   3   4
ENDBRANCH   2   3
TORSDOF 14
ENDMDL
MODEL      158
REMARK 921   NORMALIZED FREE ENERGY PREDICTED BY IDOCK:   -3.78 KCAL/MOL
REMARK 922        TOTAL FREE ENERGY PREDICTED BY IDOCK:   -8.73 KCAL/MOL
REMARK 923 INTER-LIGAND FREE ENERGY PREDICTED BY IDOCK:   -6.34 KCAL/MOL
REMARK 924 INTRA-LIGAND FREE ENERGY PREDICTED BY IDOCK:   -2.39 KCAL/MOL
REMARK 927      BINDING AFFINITY PREDICTED BY RF-SCORE:    0.00 PKD
ROOT
HETATM    1  C   UNL     1      -9.070   4.305  69.891  1.00  0.00    -0.173 C  
HETATM    2  C   UNL     1      -9.733   4.467  68.535  1.00  0.00    -0.198 C  
ENDROOT
BRANCH   2   3
HETATM    3  C   UNL     1      -8.959   5.442  67.650  1.00  0.00    -0.108 C  
BRANCH   3   4
HETATM    4  C   UNL     1      -9.364   6.877  67.966  1.00  0.00    -0.123 C  
BRANCH   4   5
HETATM    5  C   UNL     1     -10.608   7.304  67.191  1.00  0.00    -0.416 C  
BRANCH   5   6
HETATM    6  C   UNL     1     -10.380   8.691  66.594  1.00  0.00    -0.303 C  
BRANCH   6   7
HETATM    7  C   UNL     1      -9.135   8.728  65.706  1.00  0.00    -0.212 C  
BRANCH   7   8
HETATM    8  N   UNL     1      -8.907  10.041  65.076  1.00  0.00    -0.171 NA 
BRANCH   8   9
HETATM    9  C   UNL     1     -10.140  10.728  64.652  1.00  0.00    -0.344 C  
HETATM   10  C   UNL     1     -10.156  11.273  63.226  1.00  0.00    -0.428 C  
ENDBRANCH   8   9
BRANCH   8  11
HETATM   11  C   UNL     1      -8.063  10.916  65.908  1.00  0.00    -0.120 C  
BRANCH  11  12
HETATM   12  C   UNL     1      -8.811  12.086  66.567  1.00  0.00    -0.172 C  
BRANCH  12  13
HETATM   13  C   UNL     1      -8.569  12.162  68.078  1.00  0.00    -0.175 C  
BRANCH  13  14
HETATM   14  C   UNL     1      -7.999  10.853  68.643  1.00  0.00    -0.140 C  
HETATM   15  H   UNL     1      -6.379  10.276  69.602  1.00  0.00     0.000 HD 
HETATM   16  O   UNL     1      -6.732  11.085  69.252  1.00  0.00    -0.076 OA 
BRANCH  14  17
HETATM   17  C   UNL     1      -8.946  10.216  69.643  1.00  0.00    -0.190 A  
HETATM   18  C   UNL     1      -8.495   9.165  70.456  1.00  0.00    -0.236 A  
HETATM   19  C   UNL     1      -9.367   8.513  71.330  1.00  0.00    -0.261 A  
HETATM   20  C   UNL     1     -10.703   8.901  71.397  1.00  0.00    -0.312 A  
HETATM   21  C   UNL     1     -10.286  10.627  69.762  1.00  0.00    -0.146 A  
HETATM   22  C   UNL     1     -11.159   9.975  70.637  1.00  0.00    -0.408 A  
BRANCH  20  23
HETATM   23  N   UNL     1     -11.590   8.195  72.258  1.00  0.00    -0.348 N  
HETATM   24  H   UNL     1     -11.788   8.531  73.201  1.00  0.00     0.000 HD 
BRANCH  23  25
HETATM   25  S   UNL     1     -12.303   6.783  71.669  1.00  0.00    -0.337 S  
HETATM   26  C   UNL     1     -14.029   7.220  71.712  1.00  0.00    -0.321 C  
HETATM   27  O   UNL     1     -12.081   5.784  72.691  1.00  0.00    -0.212 OA 
HETATM   28  O   UNL     1     -11.901   6.554  70.298  1.00  0.00    -0.413 OA 
ENDBRANCH  23  25
ENDBRANCH  20  23
ENDBRANCH  14  17
ENDBRANCH  13  14
ENDBRANCH  12  13
ENDBRANCH  11  12
ENDBRANCH   8  11
ENDBRANCH   7   8
ENDBRANCH   6   7
ENDBRANCH   5   6
ENDBRANCH   4   5
ENDBRANCH   3   4
ENDBRANCH   2   3
TORSDOF 14
ENDMDL
MODEL      159
REMARK 921   NORMALIZED FREE ENERGY PREDICTED BY IDOCK:   -3.76 KCAL/MOL
REMARK 922        TOTAL FREE ENERGY PREDICTED BY IDOCK:   -8.69 KCAL/MOL
REMARK 923 INTER-LIGAND FREE ENERGY PREDICTED BY IDOCK:   -7.13 KCAL/MOL
REMARK 924 INTRA-LIGAND FREE ENERGY PREDICTED BY IDOCK:   -1.56 KCAL/MOL
REMARK 927      BINDING AFFINITY PREDICTED BY RF-SCORE:    0.00 PKD
ROOT
HETATM    1  C   UNL     1     -11.937  12.958  63.419  1.00  0.00    -0.612 C  
HETATM    2  C   UNL     1     -11.440  12.072  64.547  1.00  0.00    -0.385 C  
ENDROOT
BRANCH   2   3
HETATM    3  C   UNL     1     -12.035  12.493  65.889  1.00  0.00    -0.472 C  
BRANCH   3   4
HETATM    4  C   UNL     1     -12.288  13.995  65.906  1.00  0.00    -0.515 C  
BRANCH   4   5
HETATM    5  C   UNL     1     -11.779  14.647  67.189  1.00  0.00    -0.392 C  
BRANCH   5   6
HETATM    6  C   UNL     1     -10.839  15.797  66.834  1.00  0.00    -0.265 C  
BRANCH   6   7
HETATM    7  C   UNL     1      -9.652  15.320  65.994  1.00  0.00    -0.338 C  
BRANCH   7   8
HETATM    8  N   UNL     1      -8.377  15.955  66.375  1.00  0.00    -0.296 NA 
BRANCH   8   9
HETATM    9  C   UNL     1      -8.516  17.335  66.874  1.00  0.00    -0.226 C  
HETATM   10  C   UNL     1      -7.597  17.734  68.026  1.00  0.00    -0.236 C  
ENDBRANCH   8   9
BRANCH   8  11
HETATM   11  C   UNL     1      -7.600  15.121  67.309  1.00  0.00    -0.203 C  
BRANCH  11  12
HETATM   12  C   UNL     1      -8.381  13.946  67.917  1.00  0.00    -0.167 C  
BRANCH  12  13
HETATM   13  C   UNL     1      -7.775  12.586  67.551  1.00  0.00    -0.165 C  
BRANCH  13  14
HETATM   14  C   UNL     1      -8.846  11.559  67.158  1.00  0.00    -0.168 C  
HETATM   15  H   UNL     1      -9.028  10.079  65.872  1.00  0.00     0.000 HD 
HETATM   16  O   UNL     1      -8.366  10.715  66.116  1.00  0.00    -0.146 OA 
BRANCH  14  17
HETATM   17  C   UNL     1      -9.280  10.720  68.346  1.00  0.00    -0.164 A  
HETATM   18  C   UNL     1      -8.426   9.725  68.844  1.00  0.00    -0.129 A  
HETATM   19  C   UNL     1      -8.833   8.890  69.887  1.00  0.00    -0.154 A  
HETATM   20  C   UNL     1     -10.101   9.039  70.442  1.00  0.00    -0.207 A  
HETATM   21  C   UNL     1     -10.539  10.887  68.952  1.00  0.00    -0.241 A  
HETATM   22  C   UNL     1     -10.946  10.053  69.997  1.00  0.00    -0.352 A  
BRANCH  20  23
HETATM   23  N   UNL     1     -10.519   8.149  71.472  1.00  0.00    -0.213 N  
HETATM   24  H   UNL     1     -10.644   8.475  72.430  1.00  0.00     0.000 HD 
BRANCH  23  25
HETATM   25  S   UNL     1     -10.799   6.537  71.056  1.00  0.00    -0.266 S  
HETATM   26  C   UNL     1     -11.714   5.966  72.473  1.00  0.00    -0.236 C  
HETATM   27  O   UNL     1      -9.501   5.900  71.089  1.00  0.00    -0.159 OA 
HETATM   28  O   UNL     1     -11.640   6.463  69.881  1.00  0.00    -0.429 OA 
ENDBRANCH  23  25
ENDBRANCH  20  23
ENDBRANCH  14  17
ENDBRANCH  13  14
ENDBRANCH  12  13
ENDBRANCH  11  12
ENDBRANCH   8  11
ENDBRANCH   7   8
ENDBRANCH   6   7
ENDBRANCH   5   6
ENDBRANCH   4   5
ENDBRANCH   3   4
ENDBRANCH   2   3
TORSDOF 14
ENDMDL
MODEL      160
REMARK 921   NORMALIZED FREE ENERGY PREDICTED BY IDOCK:   -3.75 KCAL/MOL
REMARK 922        TOTAL FREE ENERGY PREDICTED BY IDOCK:   -8.68 KCAL/MOL
REMARK 923 INTER-LIGAND FREE ENERGY PREDICTED BY IDOCK:   -7.55 KCAL/MOL
REMARK 924 INTRA-LIGAND FREE ENERGY PREDICTED BY IDOCK:   -1.13 KCAL/MOL
REMARK 927      BINDING AFFINITY PREDICTED BY RF-SCORE:    0.00 PKD
ROOT
HETATM    1  C   UNL     1     -11.768  15.594  69.052  1.00  0.00    -0.408 C  
HETATM    2  C   UNL     1     -11.674  14.294  69.829  1.00  0.00    -0.367 C  
ENDROOT
BRANCH   2   3
HETATM    3  C   UNL     1     -11.115  13.167  68.964  1.00  0.00    -0.282 C  
BRANCH   3   4
HETATM    4  C   UNL     1     -11.751  11.838  69.354  1.00  0.00    -0.405 C  
BRANCH   4   5
HETATM    5  C   UNL     1     -10.718  10.721  69.469  1.00  0.00    -0.268 C  
BRANCH   5   6
HETATM    6  C   UNL     1     -11.016   9.883  70.710  1.00  0.00    -0.407 C  
BRANCH   6   7
HETATM    7  C   UNL     1     -11.251   8.412  70.359  1.00  0.00    -0.213 C  
BRANCH   7   8
HETATM    8  N   UNL     1     -10.051   7.573  70.526  1.00  0.00    -0.188 NA 
BRANCH   8   9
HETATM    9  C   UNL     1     -10.269   6.363  71.338  1.00  0.00    -0.199 C  
HETATM   10  C   UNL     1     -11.500   6.366  72.241  1.00  0.00    -0.339 C  
ENDBRANCH   8   9
BRANCH   8  11
HETATM   11  C   UNL     1      -9.418   7.248  69.235  1.00  0.00    -0.153 C  
BRANCH  11  12
HETATM   12  C   UNL     1     -10.346   7.380  68.018  1.00  0.00    -0.247 C  
BRANCH  12  13
HETATM   13  C   UNL     1      -9.575   7.425  66.694  1.00  0.00    -0.251 C  
BRANCH  13  14
HETATM   14  C   UNL     1      -8.553   8.570  66.654  1.00  0.00    -0.115 C  
HETATM   15  H   UNL     1      -6.666   8.808  66.146  1.00  0.00     0.000 HD 
HETATM   16  O   UNL     1      -7.299   8.099  66.171  1.00  0.00    -0.069 OA 
BRANCH  14  17
HETATM   17  C   UNL     1      -9.039   9.725  65.799  1.00  0.00    -0.221 A  
HETATM   18  C   UNL     1      -9.079  11.020  66.336  1.00  0.00    -0.191 A  
HETATM   19  C   UNL     1      -9.592  12.086  65.593  1.00  0.00    -0.205 A  
HETATM   20  C   UNL     1     -10.075  11.868  64.306  1.00  0.00    -0.295 A  
HETATM   21  C   UNL     1      -9.485   9.533  64.478  1.00  0.00    -0.075 A  
HETATM   22  C   UNL     1      -9.997  10.600  63.734  1.00  0.00    -0.379 A  
BRANCH  20  23
HETATM   23  N   UNL     1     -10.638  12.955  63.580  1.00  0.00    -0.491 N  
HETATM   24  H   UNL     1     -10.502  13.044  62.573  1.00  0.00     0.000 HD 
BRANCH  23  25
HETATM   25  S   UNL     1     -11.538  14.095  64.440  1.00  0.00    -0.329 S  
HETATM   26  C   UNL     1     -12.487  13.046  65.522  1.00  0.00    -0.438 C  
HETATM   27  O   UNL     1     -12.452  14.669  63.478  1.00  0.00    -0.681 OA 
HETATM   28  O   UNL     1     -10.662  14.931  65.232  1.00  0.00    -0.336 OA 
ENDBRANCH  23  25
ENDBRANCH  20  23
ENDBRANCH  14  17
ENDBRANCH  13  14
ENDBRANCH  12  13
ENDBRANCH  11  12
ENDBRANCH   8  11
ENDBRANCH   7   8
ENDBRANCH   6   7
ENDBRANCH   5   6
ENDBRANCH   4   5
ENDBRANCH   3   4
ENDBRANCH   2   3
TORSDOF 14
ENDMDL
MODEL      161
REMARK 921   NORMALIZED FREE ENERGY PREDICTED BY IDOCK:   -3.74 KCAL/MOL
REMARK 922        TOTAL FREE ENERGY PREDICTED BY IDOCK:   -8.65 KCAL/MOL
REMARK 923 INTER-LIGAND FREE ENERGY PREDICTED BY IDOCK:   -6.59 KCAL/MOL
REMARK 924 INTRA-LIGAND FREE ENERGY PREDICTED BY IDOCK:   -2.05 KCAL/MOL
REMARK 927      BINDING AFFINITY PREDICTED BY RF-SCORE:    0.00 PKD
ROOT
HETATM    1  C   UNL     1     -11.964  12.240  64.431  1.00  0.00    -0.473 C  
HETATM    2  C   UNL     1     -12.330  13.161  65.580  1.00  0.00    -0.529 C  
ENDROOT
BRANCH   2   3
HETATM    3  C   UNL     1     -11.812  12.622  66.912  1.00  0.00    -0.425 C  
BRANCH   3   4
HETATM    4  C   UNL     1     -12.010  13.658  68.012  1.00  0.00    -0.385 C  
BRANCH   4   5
HETATM    5  C   UNL     1     -10.765  14.517  68.220  1.00  0.00    -0.243 C  
BRANCH   5   6
HETATM    6  C   UNL     1     -11.021  15.919  67.673  1.00  0.00    -0.298 C  
BRANCH   6   7
HETATM    7  C   UNL     1     -10.333  16.136  66.323  1.00  0.00    -0.328 C  
BRANCH   7   8
HETATM    8  N   UNL     1      -9.823  17.507  66.142  1.00  0.00    -0.464 NA 
BRANCH   8   9
HETATM    9  C   UNL     1     -10.389  18.490  67.083  1.00  0.00    -0.399 C  
HETATM   10  C   UNL     1     -10.259  19.959  66.688  1.00  0.00    -0.609 C  
ENDBRANCH   8   9
BRANCH   8  11
HETATM   11  C   UNL     1      -8.350  17.554  66.138  1.00  0.00    -0.165 C  
BRANCH  11  12
HETATM   12  C   UNL     1      -7.688  16.943  67.383  1.00  0.00    -0.193 C  
BRANCH  12  13
HETATM   13  C   UNL     1      -7.011  15.600  67.088  1.00  0.00    -0.169 C  
BRANCH  13  14
HETATM   14  C   UNL     1      -6.658  14.833  68.370  1.00  0.00    -0.101 C  
HETATM   15  H   UNL     1      -7.058  14.967  70.294  1.00  0.00     0.000 HD 
HETATM   16  O   UNL     1      -7.276  15.442  69.500  1.00  0.00    -0.182 OA 
BRANCH  14  17
HETATM   17  C   UNL     1      -7.064  13.374  68.280  1.00  0.00    -0.109 A  
HETATM   18  C   UNL     1      -7.825  12.930  67.188  1.00  0.00    -0.084 A  
HETATM   19  C   UNL     1      -8.274  11.609  67.120  1.00  0.00    -0.165 A  
HETATM   20  C   UNL     1      -7.972  10.718  68.147  1.00  0.00    -0.114 A  
HETATM   21  C   UNL     1      -6.727  12.446  69.283  1.00  0.00    -0.067 A  
HETATM   22  C   UNL     1      -7.175  11.124  69.215  1.00  0.00    -0.112 A  
BRANCH  20  23
HETATM   23  N   UNL     1      -8.478   9.389  68.086  1.00  0.00    -0.120 N  
HETATM   24  H   UNL     1      -7.866   8.602  67.868  1.00  0.00     0.000 HD 
BRANCH  23  25
HETATM   25  S   UNL     1     -10.123   9.157  68.385  1.00  0.00    -0.203 S  
HETATM   26  C   UNL     1     -10.114   7.551  69.154  1.00  0.00    -0.192 C  
HETATM   27  O   UNL     1     -10.735   9.014  67.083  1.00  0.00    -0.259 OA 
HETATM   28  O   UNL     1     -10.602  10.139  69.333  1.00  0.00    -0.206 OA 
ENDBRANCH  23  25
ENDBRANCH  20  23
ENDBRANCH  14  17
ENDBRANCH  13  14
ENDBRANCH  12  13
ENDBRANCH  11  12
ENDBRANCH   8  11
ENDBRANCH   7   8
ENDBRANCH   6   7
ENDBRANCH   5   6
ENDBRANCH   4   5
ENDBRANCH   3   4
ENDBRANCH   2   3
TORSDOF 14
ENDMDL
MODEL      162
REMARK 921   NORMALIZED FREE ENERGY PREDICTED BY IDOCK:   -3.73 KCAL/MOL
REMARK 922        TOTAL FREE ENERGY PREDICTED BY IDOCK:   -8.63 KCAL/MOL
REMARK 923 INTER-LIGAND FREE ENERGY PREDICTED BY IDOCK:   -7.68 KCAL/MOL
REMARK 924 INTRA-LIGAND FREE ENERGY PREDICTED BY IDOCK:   -0.95 KCAL/MOL
REMARK 927      BINDING AFFINITY PREDICTED BY RF-SCORE:    0.00 PKD
ROOT
HETATM    1  C   UNL     1     -14.118  14.002  72.183  1.00  0.00    -0.641 C  
HETATM    2  C   UNL     1     -13.363  15.169  72.790  1.00  0.00    -0.596 C  
ENDROOT
BRANCH   2   3
HETATM    3  C   UNL     1     -12.417  15.809  71.775  1.00  0.00    -0.524 C  
BRANCH   3   4
HETATM    4  C   UNL     1     -12.472  15.051  70.454  1.00  0.00    -0.407 C  
BRANCH   4   5
HETATM    5  C   UNL     1     -12.039  15.922  69.277  1.00  0.00    -0.166 C  
BRANCH   5   6
HETATM    6  C   UNL     1     -10.755  15.357  68.676  1.00  0.00    -0.246 C  
BRANCH   6   7
HETATM    7  C   UNL     1     -10.776  15.405  67.147  1.00  0.00    -0.314 C  
BRANCH   7   8
HETATM    8  N   UNL     1     -11.223  14.143  66.530  1.00  0.00    -0.322 NA 
BRANCH   8   9
HETATM    9  C   UNL     1     -10.868  14.009  65.105  1.00  0.00    -0.369 C  
HETATM   10  C   UNL     1     -11.997  13.605  64.161  1.00  0.00    -0.488 C  
ENDBRANCH   8   9
BRANCH   8  11
HETATM   11  C   UNL     1     -10.793  12.964  67.303  1.00  0.00    -0.255 C  
BRANCH  11  12
HETATM   12  C   UNL     1      -9.541  12.263  66.754  1.00  0.00    -0.220 C  
BRANCH  12  13
HETATM   13  C   UNL     1      -9.309  10.889  67.393  1.00  0.00    -0.166 C  
BRANCH  13  14
HETATM   14  C   UNL     1     -10.189   9.799  66.766  1.00  0.00    -0.233 C  
HETATM   15  H   UNL     1     -10.177   8.684  65.143  1.00  0.00     0.000 HD 
HETATM   16  O   UNL     1      -9.632   9.359  65.531  1.00  0.00    -0.268 OA 
BRANCH  14  17
HETATM   17  C   UNL     1     -10.372   8.620  67.703  1.00  0.00    -0.317 A  
HETATM   18  C   UNL     1     -10.428   8.833  69.088  1.00  0.00    -0.230 A  
HETATM   19  C   UNL     1     -10.520   7.758  69.974  1.00  0.00    -0.230 A  
HETATM   20  C   UNL     1     -10.552   6.454  69.484  1.00  0.00    -0.253 A  
HETATM   21  C   UNL     1     -10.456   7.299  67.225  1.00  0.00    -0.380 A  
HETATM   22  C   UNL     1     -10.549   6.222  68.111  1.00  0.00    -0.318 A  
BRANCH  20  23
HETATM   23  N   UNL     1     -10.598   5.367  70.402  1.00  0.00    -0.276 N  
HETATM   24  H   UNL     1     -11.488   4.996  70.735  1.00  0.00     0.000 HD 
BRANCH  23  25
HETATM   25  S   UNL     1      -9.131   4.713  70.923  1.00  0.00    -0.138 S  
HETATM   26  C   UNL     1      -8.792   3.541  69.626  1.00  0.00    -0.091 C  
HETATM   27  O   UNL     1      -9.448   3.961  72.117  1.00  0.00    -0.119 OA 
HETATM   28  O   UNL     1      -8.104   5.731  70.930  1.00  0.00    -0.114 OA 
ENDBRANCH  23  25
ENDBRANCH  20  23
ENDBRANCH  14  17
ENDBRANCH  13  14
ENDBRANCH  12  13
ENDBRANCH  11  12
ENDBRANCH   8  11
ENDBRANCH   7   8
ENDBRANCH   6   7
ENDBRANCH   5   6
ENDBRANCH   4   5
ENDBRANCH   3   4
ENDBRANCH   2   3
TORSDOF 14
ENDMDL
MODEL      163
REMARK 921   NORMALIZED FREE ENERGY PREDICTED BY IDOCK:   -3.71 KCAL/MOL
REMARK 922        TOTAL FREE ENERGY PREDICTED BY IDOCK:   -8.60 KCAL/MOL
REMARK 923 INTER-LIGAND FREE ENERGY PREDICTED BY IDOCK:   -7.81 KCAL/MOL
REMARK 924 INTRA-LIGAND FREE ENERGY PREDICTED BY IDOCK:   -0.79 KCAL/MOL
REMARK 927      BINDING AFFINITY PREDICTED BY RF-SCORE:    0.00 PKD
ROOT
HETATM    1  C   UNL     1      -8.558   6.624  70.834  1.00  0.00    -0.134 C  
HETATM    2  C   UNL     1      -9.855   5.907  71.159  1.00  0.00    -0.222 C  
ENDROOT
BRANCH   2   3
HETATM    3  C   UNL     1     -10.473   5.281  69.910  1.00  0.00    -0.351 C  
BRANCH   3   4
HETATM    4  C   UNL     1     -11.231   6.336  69.112  1.00  0.00    -0.439 C  
BRANCH   4   5
HETATM    5  C   UNL     1     -10.927   6.251  67.619  1.00  0.00    -0.438 C  
BRANCH   5   6
HETATM    6  C   UNL     1     -10.571   7.641  67.096  1.00  0.00    -0.410 C  
BRANCH   6   7
HETATM    7  C   UNL     1     -10.321   8.629  68.237  1.00  0.00    -0.207 C  
BRANCH   7   8
HETATM    8  N   UNL     1      -9.649   9.866  67.800  1.00  0.00    -0.140 NA 
BRANCH   8   9
HETATM    9  C   UNL     1      -8.394   9.642  67.060  1.00  0.00    -0.117 C  
HETATM   10  C   UNL     1      -8.297  10.286  65.679  1.00  0.00    -0.159 C  
ENDBRANCH   8   9
BRANCH   8  11
HETATM   11  C   UNL     1     -10.558  10.758  67.058  1.00  0.00    -0.260 C  
BRANCH  11  12
HETATM   12  C   UNL     1     -11.697  11.353  67.901  1.00  0.00    -0.300 C  
BRANCH  12  13
HETATM   13  C   UNL     1     -11.616  12.880  68.005  1.00  0.00    -0.385 C  
BRANCH  13  14
HETATM   14  C   UNL     1     -11.411  13.546  66.638  1.00  0.00    -0.322 C  
HETATM   15  H   UNL     1     -12.448  13.804  64.984  1.00  0.00     0.000 HD 
HETATM   16  O   UNL     1     -12.575  13.392  65.831  1.00  0.00    -0.426 OA 
BRANCH  14  17
HETATM   17  C   UNL     1     -11.068  15.017  66.777  1.00  0.00    -0.326 A  
HETATM   18  C   UNL     1     -10.713  15.760  65.641  1.00  0.00    -0.360 A  
HETATM   19  C   UNL     1     -10.321  17.096  65.754  1.00  0.00    -0.253 A  
HETATM   20  C   UNL     1     -10.275  17.703  67.006  1.00  0.00    -0.332 A  
HETATM   21  C   UNL     1     -11.063  15.663  68.028  1.00  0.00    -0.335 A  
HETATM   22  C   UNL     1     -10.672  17.000  68.141  1.00  0.00    -0.374 A  
BRANCH  20  23
HETATM   23  N   UNL     1      -9.828  19.051  67.110  1.00  0.00    -0.312 N  
HETATM   24  H   UNL     1     -10.464  19.831  66.946  1.00  0.00     0.000 HD 
BRANCH  23  25
HETATM   25  S   UNL     1      -8.210  19.316  67.512  1.00  0.00    -0.295 S  
HETATM   26  C   UNL     1      -7.380  18.300  66.308  1.00  0.00    -0.260 C  
HETATM   27  O   UNL     1      -8.028  18.694  68.806  1.00  0.00    -0.324 OA 
HETATM   28  O   UNL     1      -7.861  20.702  67.292  1.00  0.00    -0.332 OA 
ENDBRANCH  23  25
ENDBRANCH  20  23
ENDBRANCH  14  17
ENDBRANCH  13  14
ENDBRANCH  12  13
ENDBRANCH  11  12
ENDBRANCH   8  11
ENDBRANCH   7   8
ENDBRANCH   6   7
ENDBRANCH   5   6
ENDBRANCH   4   5
ENDBRANCH   3   4
ENDBRANCH   2   3
TORSDOF 14
ENDMDL
MODEL      164
REMARK 921   NORMALIZED FREE ENERGY PREDICTED BY IDOCK:   -3.71 KCAL/MOL
REMARK 922        TOTAL FREE ENERGY PREDICTED BY IDOCK:   -8.60 KCAL/MOL
REMARK 923 INTER-LIGAND FREE ENERGY PREDICTED BY IDOCK:   -6.87 KCAL/MOL
REMARK 924 INTRA-LIGAND FREE ENERGY PREDICTED BY IDOCK:   -1.73 KCAL/MOL
REMARK 927      BINDING AFFINITY PREDICTED BY RF-SCORE:    0.00 PKD
ROOT
HETATM    1  C   UNL     1      -7.121  10.728  66.758  1.00  0.00    -0.127 C  
HETATM    2  C   UNL     1      -8.296  11.605  67.151  1.00  0.00    -0.164 C  
ENDROOT
BRANCH   2   3
HETATM    3  C   UNL     1      -7.926  12.557  68.287  1.00  0.00    -0.153 C  
BRANCH   3   4
HETATM    4  C   UNL     1      -7.844  13.987  67.769  1.00  0.00    -0.176 C  
BRANCH   4   5
HETATM    5  C   UNL     1      -8.457  14.986  68.747  1.00  0.00    -0.180 C  
BRANCH   5   6
HETATM    6  C   UNL     1      -9.534  15.798  68.031  1.00  0.00    -0.202 C  
BRANCH   6   7
HETATM    7  C   UNL     1     -10.761  16.019  68.919  1.00  0.00    -0.275 C  
BRANCH   7   8
HETATM    8  N   UNL     1     -11.151  14.820  69.684  1.00  0.00    -0.268 NA 
BRANCH   8   9
HETATM    9  C   UNL     1     -11.643  15.107  71.043  1.00  0.00    -0.347 C  
HETATM   10  C   UNL     1     -13.150  15.305  71.191  1.00  0.00    -0.546 C  
ENDBRANCH   8   9
BRANCH   8  11
HETATM   11  C   UNL     1     -12.096  13.969  68.939  1.00  0.00    -0.316 C  
BRANCH  11  12
HETATM   12  C   UNL     1     -11.489  12.666  68.396  1.00  0.00    -0.350 C  
BRANCH  12  13
HETATM   13  C   UNL     1     -12.142  11.418  69.000  1.00  0.00    -0.316 C  
BRANCH  13  14
HETATM   14  C   UNL     1     -11.917  11.319  70.515  1.00  0.00    -0.371 C  
HETATM   15  H   UNL     1     -13.019  11.365  72.147  1.00  0.00     0.000 HD 
HETATM   16  O   UNL     1     -13.157  11.426  71.209  1.00  0.00    -0.342 OA 
BRANCH  14  17
HETATM   17  C   UNL     1     -11.220  10.027  70.895  1.00  0.00    -0.415 A  
HETATM   18  C   UNL     1     -11.808   9.171  71.839  1.00  0.00    -0.439 A  
HETATM   19  C   UNL     1     -11.151   8.013  72.260  1.00  0.00    -0.393 A  
HETATM   20  C   UNL     1      -9.895   7.700  71.746  1.00  0.00    -0.165 A  
HETATM   21  C   UNL     1      -9.974   9.668  70.350  1.00  0.00    -0.330 A  
HETATM   22  C   UNL     1      -9.316   8.509  70.771  1.00  0.00    -0.206 A  
BRANCH  20  23
HETATM   23  N   UNL     1      -9.218   6.542  72.221  1.00  0.00    -0.139 N  
HETATM   24  H   UNL     1      -8.550   6.600  72.991  1.00  0.00     0.000 HD 
BRANCH  23  25
HETATM   25  S   UNL     1      -9.554   5.067  71.471  1.00  0.00    -0.165 S  
HETATM   26  C   UNL     1      -7.981   4.686  70.729  1.00  0.00    -0.076 C  
HETATM   27  O   UNL     1     -10.476   5.382  70.402  1.00  0.00    -0.266 OA 
HETATM   28  O   UNL     1      -9.872   4.063  72.462  1.00  0.00    -0.143 OA 
ENDBRANCH  23  25
ENDBRANCH  20  23
ENDBRANCH  14  17
ENDBRANCH  13  14
ENDBRANCH  12  13
ENDBRANCH  11  12
ENDBRANCH   8  11
ENDBRANCH   7   8
ENDBRANCH   6   7
ENDBRANCH   5   6
ENDBRANCH   4   5
ENDBRANCH   3   4
ENDBRANCH   2   3
TORSDOF 14
ENDMDL
MODEL      165
REMARK 921   NORMALIZED FREE ENERGY PREDICTED BY IDOCK:   -3.71 KCAL/MOL
REMARK 922        TOTAL FREE ENERGY PREDICTED BY IDOCK:   -8.60 KCAL/MOL
REMARK 923 INTER-LIGAND FREE ENERGY PREDICTED BY IDOCK:   -7.81 KCAL/MOL
REMARK 924 INTRA-LIGAND FREE ENERGY PREDICTED BY IDOCK:   -0.78 KCAL/MOL
REMARK 927      BINDING AFFINITY PREDICTED BY RF-SCORE:    0.00 PKD
ROOT
HETATM    1  C   UNL     1      -8.632  19.599  66.103  1.00  0.00    -0.357 C  
HETATM    2  C   UNL     1      -9.294  20.288  67.282  1.00  0.00    -0.538 C  
ENDROOT
BRANCH   2   3
HETATM    3  C   UNL     1     -10.281  19.360  67.987  1.00  0.00    -0.531 C  
BRANCH   3   4
HETATM    4  C   UNL     1      -9.733  17.939  68.024  1.00  0.00    -0.303 C  
BRANCH   4   5
HETATM    5  C   UNL     1     -10.831  16.908  68.271  1.00  0.00    -0.357 C  
BRANCH   5   6
HETATM    6  C   UNL     1     -10.415  15.991  69.419  1.00  0.00    -0.271 C  
BRANCH   6   7
HETATM    7  C   UNL     1     -11.296  16.192  70.653  1.00  0.00    -0.370 C  
BRANCH   7   8
HETATM    8  N   UNL     1     -12.192  15.053  70.922  1.00  0.00    -0.302 NA 
BRANCH   8   9
HETATM    9  C   UNL     1     -13.524  15.439  71.422  1.00  0.00    -0.522 C  
HETATM   10  C   UNL     1     -14.285  14.378  72.212  1.00  0.00    -0.580 C  
ENDBRANCH   8   9
BRANCH   8  11
HETATM   11  C   UNL     1     -12.294  14.143  69.768  1.00  0.00    -0.299 C  
BRANCH  11  12
HETATM   12  C   UNL     1     -12.023  12.666  70.093  1.00  0.00    -0.375 C  
BRANCH  12  13
HETATM   13  C   UNL     1     -10.946  12.054  69.191  1.00  0.00    -0.231 C  
BRANCH  13  14
HETATM   14  C   UNL     1     -11.510  10.961  68.271  1.00  0.00    -0.305 C  
HETATM   15  H   UNL     1     -12.069  10.800  66.390  1.00  0.00     0.000 HD 
HETATM   16  O   UNL     1     -11.721  11.476  66.960  1.00  0.00    -0.556 OA 
BRANCH  14  17
HETATM   17  C   UNL     1     -10.595   9.752  68.213  1.00  0.00    -0.271 A  
HETATM   18  C   UNL     1     -10.523   8.990  67.037  1.00  0.00    -0.316 A  
HETATM   19  C   UNL     1      -9.746   7.831  66.983  1.00  0.00    -0.259 A  
HETATM   20  C   UNL     1      -9.035   7.418  68.107  1.00  0.00    -0.129 A  
HETATM   21  C   UNL     1      -9.830   9.346  69.322  1.00  0.00    -0.176 A  
HETATM   22  C   UNL     1      -9.052   8.186  69.268  1.00  0.00    -0.151 A  
BRANCH  20  23
HETATM   23  N   UNL     1      -8.287   6.208  68.050  1.00  0.00    -0.117 N  
HETATM   24  H   UNL     1      -7.297   6.212  67.804  1.00  0.00     0.000 HD 
BRANCH  23  25
HETATM   25  S   UNL     1      -9.090   4.766  68.403  1.00  0.00    -0.123 S  
HETATM   26  C   UNL     1      -9.198   4.022  66.789  1.00  0.00    -0.165 C  
HETATM   27  O   UNL     1     -10.427   5.156  68.794  1.00  0.00    -0.148 OA 
HETATM   28  O   UNL     1      -8.273   3.935  69.260  1.00  0.00    -0.061 OA 
ENDBRANCH  23  25
ENDBRANCH  20  23
ENDBRANCH  14  17
ENDBRANCH  13  14
ENDBRANCH  12  13
ENDBRANCH  11  12
ENDBRANCH   8  11
ENDBRANCH   7   8
ENDBRANCH   6   7
ENDBRANCH   5   6
ENDBRANCH   4   5
ENDBRANCH   3   4
ENDBRANCH   2   3
TORSDOF 14
ENDMDL
MODEL      166
REMARK 921   NORMALIZED FREE ENERGY PREDICTED BY IDOCK:   -3.70 KCAL/MOL
REMARK 922        TOTAL FREE ENERGY PREDICTED BY IDOCK:   -8.57 KCAL/MOL
REMARK 923 INTER-LIGAND FREE ENERGY PREDICTED BY IDOCK:   -7.27 KCAL/MOL
REMARK 924 INTRA-LIGAND FREE ENERGY PREDICTED BY IDOCK:   -1.31 KCAL/MOL
REMARK 927      BINDING AFFINITY PREDICTED BY RF-SCORE:    0.00 PKD
ROOT
HETATM    1  C   UNL     1     -11.862  12.485  65.886  1.00  0.00    -0.489 C  
HETATM    2  C   UNL     1     -12.612  13.800  65.782  1.00  0.00    -0.525 C  
ENDROOT
BRANCH   2   3
HETATM    3  C   UNL     1     -12.170  14.598  64.557  1.00  0.00    -0.473 C  
BRANCH   3   4
HETATM    4  C   UNL     1     -10.708  15.006  64.693  1.00  0.00    -0.243 C  
BRANCH   4   5
HETATM    5  C   UNL     1     -10.499  16.023  65.812  1.00  0.00    -0.391 C  
BRANCH   5   6
HETATM    6  C   UNL     1      -9.102  15.845  66.402  1.00  0.00    -0.355 C  
BRANCH   6   7
HETATM    7  C   UNL     1      -9.016  16.388  67.830  1.00  0.00    -0.196 C  
BRANCH   7   8
HETATM    8  N   UNL     1      -9.367  15.389  68.856  1.00  0.00    -0.204 NA 
BRANCH   8   9
HETATM    9  C   UNL     1     -10.503  15.776  69.711  1.00  0.00    -0.317 C  
HETATM   10  C   UNL     1     -11.855  15.161  69.362  1.00  0.00    -0.357 C  
ENDBRANCH   8   9
BRANCH   8  11
HETATM   11  C   UNL     1      -9.563  14.047  68.279  1.00  0.00    -0.224 C  
BRANCH  11  12
HETATM   12  C   UNL     1      -8.334  13.129  68.367  1.00  0.00    -0.122 C  
BRANCH  12  13
HETATM   13  C   UNL     1      -8.182  12.230  67.134  1.00  0.00    -0.179 C  
BRANCH  13  14
HETATM   14  C   UNL     1      -8.277  10.739  67.485  1.00  0.00    -0.112 C  
HETATM   15  H   UNL     1      -7.068   9.324  68.128  1.00  0.00     0.000 HD 
HETATM   16  O   UNL     1      -7.010  10.247  67.910  1.00  0.00    -0.080 OA 
BRANCH  14  17
HETATM   17  C   UNL     1      -9.320  10.482  68.557  1.00  0.00    -0.168 A  
HETATM   18  C   UNL     1      -8.932   9.922  69.784  1.00  0.00    -0.242 A  
HETATM   19  C   UNL     1      -9.883   9.607  70.757  1.00  0.00    -0.224 A  
HETATM   20  C   UNL     1     -11.233   9.843  70.513  1.00  0.00    -0.330 A  
HETATM   21  C   UNL     1     -10.683  10.760  68.348  1.00  0.00    -0.255 A  
HETATM   22  C   UNL     1     -11.635  10.445  69.322  1.00  0.00    -0.246 A  
BRANCH  20  23
HETATM   23  N   UNL     1     -12.193   9.472  71.496  1.00  0.00    -0.361 N  
HETATM   24  H   UNL     1     -12.707  10.178  72.023  1.00  0.00     0.000 HD 
BRANCH  23  25
HETATM   25  S   UNL     1     -12.455   7.826  71.761  1.00  0.00    -0.325 S  
HETATM   26  C   UNL     1     -14.229   7.771  71.895  1.00  0.00    -0.390 C  
HETATM   27  O   UNL     1     -11.910   7.556  73.073  1.00  0.00    -0.119 OA 
HETATM   28  O   UNL     1     -12.038   7.061  70.606  1.00  0.00    -0.341 OA 
ENDBRANCH  23  25
ENDBRANCH  20  23
ENDBRANCH  14  17
ENDBRANCH  13  14
ENDBRANCH  12  13
ENDBRANCH  11  12
ENDBRANCH   8  11
ENDBRANCH   7   8
ENDBRANCH   6   7
ENDBRANCH   5   6
ENDBRANCH   4   5
ENDBRANCH   3   4
ENDBRANCH   2   3
TORSDOF 14
ENDMDL
MODEL      167
REMARK 921   NORMALIZED FREE ENERGY PREDICTED BY IDOCK:   -3.69 KCAL/MOL
REMARK 922        TOTAL FREE ENERGY PREDICTED BY IDOCK:   -8.57 KCAL/MOL
REMARK 923 INTER-LIGAND FREE ENERGY PREDICTED BY IDOCK:   -7.75 KCAL/MOL
REMARK 924 INTRA-LIGAND FREE ENERGY PREDICTED BY IDOCK:   -0.82 KCAL/MOL
REMARK 927      BINDING AFFINITY PREDICTED BY RF-SCORE:    0.00 PKD
ROOT
HETATM    1  C   UNL     1      -8.724   2.613  64.321  1.00  0.00    -0.093 C  
HETATM    2  C   UNL     1      -9.127   3.028  65.724  1.00  0.00    -0.145 C  
ENDROOT
BRANCH   2   3
HETATM    3  C   UNL     1      -8.851   4.510  65.968  1.00  0.00    -0.119 C  
BRANCH   3   4
HETATM    4  C   UNL     1      -9.534   4.970  67.250  1.00  0.00    -0.149 C  
BRANCH   4   5
HETATM    5  C   UNL     1      -9.463   6.484  67.426  1.00  0.00    -0.135 C  
BRANCH   5   6
HETATM    6  C   UNL     1     -10.686   6.960  68.206  1.00  0.00    -0.265 C  
BRANCH   6   7
HETATM    7  C   UNL     1     -10.400   8.252  68.975  1.00  0.00    -0.221 C  
BRANCH   7   8
HETATM    8  N   UNL     1     -11.121   8.338  70.259  1.00  0.00    -0.247 NA 
BRANCH   8   9
HETATM    9  C   UNL     1     -10.835   7.229  71.186  1.00  0.00    -0.242 C  
HETATM   10  C   UNL     1     -12.044   6.476  71.735  1.00  0.00    -0.393 C  
ENDBRANCH   8   9
BRANCH   8  11
HETATM   11  C   UNL     1     -10.935   9.646  70.912  1.00  0.00    -0.342 C  
BRANCH  11  12
HETATM   12  C   UNL     1     -12.241  10.379  71.255  1.00  0.00    -0.491 C  
BRANCH  12  13
HETATM   13  C   UNL     1     -12.303  11.785  70.647  1.00  0.00    -0.421 C  
BRANCH  13  14
HETATM   14  C   UNL     1     -11.518  11.884  69.331  1.00  0.00    -0.302 C  
HETATM   15  H   UNL     1     -11.722  11.262  67.474  1.00  0.00     0.000 HD 
HETATM   16  O   UNL     1     -12.207  11.201  68.288  1.00  0.00    -0.613 OA 
BRANCH  14  17
HETATM   17  C   UNL     1     -11.274  13.328  68.933  1.00  0.00    -0.322 A  
HETATM   18  C   UNL     1     -11.798  14.364  69.719  1.00  0.00    -0.375 A  
HETATM   19  C   UNL     1     -11.651  15.699  69.333  1.00  0.00    -0.378 A  
HETATM   20  C   UNL     1     -10.983  16.011  68.152  1.00  0.00    -0.339 A  
HETATM   21  C   UNL     1     -10.559  13.665  67.769  1.00  0.00    -0.247 A  
HETATM   22  C   UNL     1     -10.411  15.000  67.383  1.00  0.00    -0.238 A  
BRANCH  20  23
HETATM   23  N   UNL     1     -10.883  17.372  67.748  1.00  0.00    -0.327 N  
HETATM   24  H   UNL     1     -11.589  17.796  67.145  1.00  0.00     0.000 HD 
BRANCH  23  25
HETATM   25  S   UNL     1      -9.560  18.264  68.298  1.00  0.00    -0.334 S  
HETATM   26  C   UNL     1      -8.909  18.902  66.769  1.00  0.00    -0.309 C  
HETATM   27  O   UNL     1      -8.618  17.286  68.798  1.00  0.00    -0.274 OA 
HETATM   28  O   UNL     1     -10.006  19.363  69.125  1.00  0.00    -0.435 OA 
ENDBRANCH  23  25
ENDBRANCH  20  23
ENDBRANCH  14  17
ENDBRANCH  13  14
ENDBRANCH  12  13
ENDBRANCH  11  12
ENDBRANCH   8  11
ENDBRANCH   7   8
ENDBRANCH   6   7
ENDBRANCH   5   6
ENDBRANCH   4   5
ENDBRANCH   3   4
ENDBRANCH   2   3
TORSDOF 14
ENDMDL
MODEL      168
REMARK 921   NORMALIZED FREE ENERGY PREDICTED BY IDOCK:   -3.68 KCAL/MOL
REMARK 922        TOTAL FREE ENERGY PREDICTED BY IDOCK:   -8.55 KCAL/MOL
REMARK 923 INTER-LIGAND FREE ENERGY PREDICTED BY IDOCK:   -7.92 KCAL/MOL
REMARK 924 INTRA-LIGAND FREE ENERGY PREDICTED BY IDOCK:   -0.63 KCAL/MOL
REMARK 927      BINDING AFFINITY PREDICTED BY RF-SCORE:    0.00 PKD
ROOT
HETATM    1  C   UNL     1      -8.589   2.740  72.830  1.00  0.00    -0.072 C  
HETATM    2  C   UNL     1      -9.737   2.995  71.872  1.00  0.00    -0.234 C  
ENDROOT
BRANCH   2   3
HETATM    3  C   UNL     1     -10.196   4.451  71.927  1.00  0.00    -0.216 C  
BRANCH   3   4
HETATM    4  C   UNL     1      -9.623   5.228  70.748  1.00  0.00    -0.234 C  
BRANCH   4   5
HETATM    5  C   UNL     1     -10.715   5.909  69.927  1.00  0.00    -0.406 C  
BRANCH   5   6
HETATM    6  C   UNL     1     -11.668   6.646  70.865  1.00  0.00    -0.431 C  
BRANCH   6   7
HETATM    7  C   UNL     1     -11.117   8.016  71.269  1.00  0.00    -0.247 C  
BRANCH   7   8
HETATM    8  N   UNL     1     -11.930   9.141  70.774  1.00  0.00    -0.239 NA 
BRANCH   8   9
HETATM    9  C   UNL     1     -13.035   9.527  71.670  1.00  0.00    -0.396 C  
HETATM   10  C   UNL     1     -13.221  11.023  71.910  1.00  0.00    -0.503 C  
ENDBRANCH   8   9
BRANCH   8  11
HETATM   11  C   UNL     1     -11.103  10.304  70.408  1.00  0.00    -0.319 C  
BRANCH  11  12
HETATM   12  C   UNL     1     -11.444  10.928  69.046  1.00  0.00    -0.371 C  
BRANCH  12  13
HETATM   13  C   UNL     1     -10.642  12.204  68.766  1.00  0.00    -0.230 C  
BRANCH  13  14
HETATM   14  C   UNL     1     -11.535  13.451  68.704  1.00  0.00    -0.310 C  
HETATM   15  H   UNL     1     -12.935  14.284  69.810  1.00  0.00     0.000 HD 
HETATM   16  O   UNL     1     -12.382  13.512  69.848  1.00  0.00    -0.298 OA 
BRANCH  14  17
HETATM   17  C   UNL     1     -10.715  14.722  68.598  1.00  0.00    -0.253 A  
HETATM   18  C   UNL     1     -11.280  15.949  68.977  1.00  0.00    -0.327 A  
HETATM   19  C   UNL     1     -10.572  17.142  68.818  1.00  0.00    -0.336 A  
HETATM   20  C   UNL     1      -9.290  17.122  68.274  1.00  0.00    -0.265 A  
HETATM   21  C   UNL     1      -9.400  14.717  68.097  1.00  0.00    -0.197 A  
HETATM   22  C   UNL     1      -8.690  15.911  67.939  1.00  0.00    -0.168 A  
BRANCH  20  23
HETATM   23  N   UNL     1      -8.600  18.351  68.074  1.00  0.00    -0.266 N  
HETATM   24  H   UNL     1      -7.796  18.603  68.649  1.00  0.00     0.000 HD 
BRANCH  23  25
HETATM   25  S   UNL     1      -9.156  19.379  66.856  1.00  0.00    -0.336 S  
HETATM   26  C   UNL     1      -7.633  19.815  66.044  1.00  0.00    -0.330 C  
HETATM   27  O   UNL     1      -9.639  20.559  67.539  1.00  0.00    -0.418 OA 
HETATM   28  O   UNL     1      -9.999  18.651  65.934  1.00  0.00    -0.517 OA 
ENDBRANCH  23  25
ENDBRANCH  20  23
ENDBRANCH  14  17
ENDBRANCH  13  14
ENDBRANCH  12  13
ENDBRANCH  11  12
ENDBRANCH   8  11
ENDBRANCH   7   8
ENDBRANCH   6   7
ENDBRANCH   5   6
ENDBRANCH   4   5
ENDBRANCH   3   4
ENDBRANCH   2   3
TORSDOF 14
ENDMDL
MODEL      169
REMARK 921   NORMALIZED FREE ENERGY PREDICTED BY IDOCK:   -3.68 KCAL/MOL
REMARK 922        TOTAL FREE ENERGY PREDICTED BY IDOCK:   -8.54 KCAL/MOL
REMARK 923 INTER-LIGAND FREE ENERGY PREDICTED BY IDOCK:   -7.03 KCAL/MOL
REMARK 924 INTRA-LIGAND FREE ENERGY PREDICTED BY IDOCK:   -1.51 KCAL/MOL
REMARK 927      BINDING AFFINITY PREDICTED BY RF-SCORE:    0.00 PKD
ROOT
HETATM    1  C   UNL     1     -10.792   7.118  72.768  1.00  0.00    -0.337 C  
HETATM    2  C   UNL     1     -11.689   7.867  71.801  1.00  0.00    -0.329 C  
ENDROOT
BRANCH   2   3
HETATM    3  C   UNL     1     -10.889   8.843  70.941  1.00  0.00    -0.308 C  
BRANCH   3   4
HETATM    4  C   UNL     1      -9.474   8.990  71.488  1.00  0.00    -0.316 C  
BRANCH   4   5
HETATM    5  C   UNL     1      -8.472   9.351  70.395  1.00  0.00    -0.247 C  
BRANCH   5   6
HETATM    6  C   UNL     1      -8.031   8.080  69.673  1.00  0.00    -0.117 C  
BRANCH   6   7
HETATM    7  C   UNL     1      -7.907   8.299  68.164  1.00  0.00    -0.118 C  
BRANCH   7   8
HETATM    8  N   UNL     1      -9.006   7.689  67.393  1.00  0.00    -0.126 NA 
BRANCH   8   9
HETATM    9  C   UNL     1      -9.929   6.874  68.202  1.00  0.00    -0.155 C  
HETATM   10  C   UNL     1     -10.929   6.016  67.431  1.00  0.00    -0.344 C  
ENDBRANCH   8   9
BRANCH   8  11
HETATM   11  C   UNL     1      -9.735   8.683  66.585  1.00  0.00    -0.247 C  
BRANCH  11  12
HETATM   12  C   UNL     1     -10.573   9.679  67.402  1.00  0.00    -0.333 C  
BRANCH  12  13
HETATM   13  C   UNL     1     -10.291  11.136  67.021  1.00  0.00    -0.263 C  
BRANCH  13  14
HETATM   14  C   UNL     1      -9.602  11.911  68.153  1.00  0.00    -0.195 C  
HETATM   15  H   UNL     1      -7.767  12.178  68.815  1.00  0.00     0.000 HD 
HETATM   16  O   UNL     1      -8.194  11.698  68.115  1.00  0.00    -0.136 OA 
BRANCH  14  17
HETATM   17  C   UNL     1      -9.904  13.396  68.079  1.00  0.00    -0.229 A  
HETATM   18  C   UNL     1      -8.893  14.326  68.364  1.00  0.00    -0.187 A  
HETATM   19  C   UNL     1      -9.166  15.696  68.376  1.00  0.00    -0.191 A  
HETATM   20  C   UNL     1     -10.454  16.151  68.109  1.00  0.00    -0.279 A  
HETATM   21  C   UNL     1     -11.188  13.877  67.763  1.00  0.00    -0.316 A  
HETATM   22  C   UNL     1     -11.461  15.248  67.774  1.00  0.00    -0.312 A  
BRANCH  20  23
HETATM   23  N   UNL     1     -10.726  17.547  68.173  1.00  0.00    -0.368 N  
HETATM   24  H   UNL     1     -11.155  17.963  69.000  1.00  0.00     0.000 HD 
BRANCH  23  25
HETATM   25  S   UNL     1     -10.318  18.492  66.835  1.00  0.00    -0.407 S  
HETATM   26  C   UNL     1      -8.677  19.026  67.274  1.00  0.00    -0.278 C  
HETATM   27  O   UNL     1     -11.184  19.648  66.901  1.00  0.00    -0.299 OA 
HETATM   28  O   UNL     1     -10.252  17.673  65.645  1.00  0.00    -0.593 OA 
ENDBRANCH  23  25
ENDBRANCH  20  23
ENDBRANCH  14  17
ENDBRANCH  13  14
ENDBRANCH  12  13
ENDBRANCH  11  12
ENDBRANCH   8  11
ENDBRANCH   7   8
ENDBRANCH   6   7
ENDBRANCH   5   6
ENDBRANCH   4   5
ENDBRANCH   3   4
ENDBRANCH   2   3
TORSDOF 14
ENDMDL
MODEL      170
REMARK 921   NORMALIZED FREE ENERGY PREDICTED BY IDOCK:   -3.67 KCAL/MOL
REMARK 922        TOTAL FREE ENERGY PREDICTED BY IDOCK:   -8.53 KCAL/MOL
REMARK 923 INTER-LIGAND FREE ENERGY PREDICTED BY IDOCK:   -6.92 KCAL/MOL
REMARK 924 INTRA-LIGAND FREE ENERGY PREDICTED BY IDOCK:   -1.61 KCAL/MOL
REMARK 927      BINDING AFFINITY PREDICTED BY RF-SCORE:    0.00 PKD
ROOT
HETATM    1  C   UNL     1      -9.286   5.825  66.552  1.00  0.00    -0.150 C  
HETATM    2  C   UNL     1      -8.852   7.198  66.074  1.00  0.00    -0.154 C  
ENDROOT
BRANCH   2   3
HETATM    3  C   UNL     1      -7.543   7.629  66.733  1.00  0.00    -0.098 C  
BRANCH   3   4
HETATM    4  C   UNL     1      -7.332   9.128  66.555  1.00  0.00    -0.089 C  
BRANCH   4   5
HETATM    5  C   UNL     1      -6.973   9.815  67.870  1.00  0.00    -0.078 C  
BRANCH   5   6
HETATM    6  C   UNL     1      -7.765   9.174  69.008  1.00  0.00    -0.078 C  
BRANCH   6   7
HETATM    7  C   UNL     1      -9.108   9.872  69.227  1.00  0.00    -0.189 C  
BRANCH   7   8
HETATM    8  N   UNL     1     -10.267   9.029  68.880  1.00  0.00    -0.203 NA 
BRANCH   8   9
HETATM    9  C   UNL     1     -11.168   8.747  70.011  1.00  0.00    -0.106 C  
HETATM   10  C   UNL     1     -11.451   9.910  70.959  1.00  0.00    -0.466 C  
ENDBRANCH   8   9
BRANCH   8  11
HETATM   11  C   UNL     1     -11.009   9.558  67.721  1.00  0.00    -0.100 C  
BRANCH  11  12
HETATM   12  C   UNL     1     -10.910  11.081  67.540  1.00  0.00    -0.314 C  
BRANCH  12  13
HETATM   13  C   UNL     1     -10.213  11.473  66.232  1.00  0.00    -0.268 C  
BRANCH  13  14
HETATM   14  C   UNL     1     -10.997  12.538  65.452  1.00  0.00    -0.294 C  
HETATM   15  H   UNL     1     -12.874  13.100  65.258  1.00  0.00     0.000 HD 
HETATM   16  O   UNL     1     -12.389  12.441  65.741  1.00  0.00    -0.644 OA 
BRANCH  14  17
HETATM   17  C   UNL     1     -10.500  13.937  65.761  1.00  0.00    -0.313 A  
HETATM   18  C   UNL     1     -11.136  15.045  65.183  1.00  0.00    -0.408 A  
HETATM   19  C   UNL     1     -10.651  16.338  65.392  1.00  0.00    -0.371 A  
HETATM   20  C   UNL     1      -9.520  16.537  66.179  1.00  0.00    -0.315 A  
HETATM   21  C   UNL     1      -9.388  14.163  66.594  1.00  0.00    -0.299 A  
HETATM   22  C   UNL     1      -8.903  15.456  66.805  1.00  0.00    -0.300 A  
BRANCH  20  23
HETATM   23  N   UNL     1      -9.010  17.856  66.344  1.00  0.00    -0.254 N  
HETATM   24  H   UNL     1      -8.226  18.191  65.784  1.00  0.00     0.000 HD 
BRANCH  23  25
HETATM   25  S   UNL     1      -9.746  18.848  67.494  1.00  0.00    -0.324 S  
HETATM   26  C   UNL     1      -8.569  20.180  67.611  1.00  0.00    -0.303 C  
HETATM   27  O   UNL     1      -9.689  18.107  68.735  1.00  0.00    -0.335 OA 
HETATM   28  O   UNL     1     -10.999  19.360  66.986  1.00  0.00    -0.467 OA 
ENDBRANCH  23  25
ENDBRANCH  20  23
ENDBRANCH  14  17
ENDBRANCH  13  14
ENDBRANCH  12  13
ENDBRANCH  11  12
ENDBRANCH   8  11
ENDBRANCH   7   8
ENDBRANCH   6   7
ENDBRANCH   5   6
ENDBRANCH   4   5
ENDBRANCH   3   4
ENDBRANCH   2   3
TORSDOF 14
ENDMDL
MODEL      171
REMARK 921   NORMALIZED FREE ENERGY PREDICTED BY IDOCK:   -3.67 KCAL/MOL
REMARK 922        TOTAL FREE ENERGY PREDICTED BY IDOCK:   -8.53 KCAL/MOL
REMARK 923 INTER-LIGAND FREE ENERGY PREDICTED BY IDOCK:   -7.36 KCAL/MOL
REMARK 924 INTRA-LIGAND FREE ENERGY PREDICTED BY IDOCK:   -1.17 KCAL/MOL
REMARK 927      BINDING AFFINITY PREDICTED BY RF-SCORE:    0.00 PKD
ROOT
HETATM    1  C   UNL     1     -12.657   6.967  71.294  1.00  0.00    -0.418 C  
HETATM    2  C   UNL     1     -11.360   6.312  71.730  1.00  0.00    -0.346 C  
ENDROOT
BRANCH   2   3
HETATM    3  C   UNL     1     -10.573   5.783  70.533  1.00  0.00    -0.359 C  
BRANCH   3   4
HETATM    4  C   UNL     1     -11.232   6.224  69.232  1.00  0.00    -0.458 C  
BRANCH   4   5
HETATM    5  C   UNL     1     -10.602   5.553  68.015  1.00  0.00    -0.213 C  
BRANCH   5   6
HETATM    6  C   UNL     1      -9.248   6.199  67.728  1.00  0.00    -0.111 C  
BRANCH   6   7
HETATM    7  C   UNL     1      -9.333   7.210  66.582  1.00  0.00    -0.166 C  
BRANCH   7   8
HETATM    8  N   UNL     1      -8.872   8.558  66.960  1.00  0.00    -0.130 NA 
BRANCH   8   9
HETATM    9  C   UNL     1      -7.668   9.007  66.237  1.00  0.00    -0.095 C  
HETATM   10  C   UNL     1      -7.001   7.979  65.327  1.00  0.00    -0.063 C  
ENDBRANCH   8   9
BRANCH   8  11
HETATM   11  C   UNL     1      -9.952   9.557  66.877  1.00  0.00    -0.216 C  
BRANCH  11  12
HETATM   12  C   UNL     1     -10.701   9.798  68.197  1.00  0.00    -0.280 C  
BRANCH  12  13
HETATM   13  C   UNL     1     -11.446  11.138  68.213  1.00  0.00    -0.373 C  
BRANCH  13  14
HETATM   14  C   UNL     1     -11.101  12.011  66.999  1.00  0.00    -0.298 C  
HETATM   15  H   UNL     1     -11.976  12.576  65.327  1.00  0.00     0.000 HD 
HETATM   16  O   UNL     1     -12.189  12.035  66.079  1.00  0.00    -0.546 OA 
BRANCH  14  17
HETATM   17  C   UNL     1     -10.739  13.425  67.411  1.00  0.00    -0.269 A  
HETATM   18  C   UNL     1     -11.500  14.504  66.936  1.00  0.00    -0.375 A  
HETATM   19  C   UNL     1     -11.141  15.820  67.241  1.00  0.00    -0.211 A  
HETATM   20  C   UNL     1     -10.015  16.071  68.020  1.00  0.00    -0.229 A  
HETATM   21  C   UNL     1      -9.633  13.697  68.238  1.00  0.00    -0.215 A  
HETATM   22  C   UNL     1      -9.275  15.013  68.543  1.00  0.00    -0.192 A  
BRANCH  20  23
HETATM   23  N   UNL     1      -9.636  17.418  68.281  1.00  0.00    -0.280 N  
HETATM   24  H   UNL     1      -9.515  17.755  69.236  1.00  0.00     0.000 HD 
BRANCH  23  25
HETATM   25  S   UNL     1      -9.392  18.439  66.959  1.00  0.00    -0.289 S  
HETATM   26  C   UNL     1      -8.214  19.596  67.624  1.00  0.00    -0.300 C  
HETATM   27  O   UNL     1     -10.643  19.144  66.782  1.00  0.00    -0.408 OA 
HETATM   28  O   UNL     1      -8.784  17.709  65.868  1.00  0.00    -0.520 OA 
ENDBRANCH  23  25
ENDBRANCH  20  23
ENDBRANCH  14  17
ENDBRANCH  13  14
ENDBRANCH  12  13
ENDBRANCH  11  12
ENDBRANCH   8  11
ENDBRANCH   7   8
ENDBRANCH   6   7
ENDBRANCH   5   6
ENDBRANCH   4   5
ENDBRANCH   3   4
ENDBRANCH   2   3
TORSDOF 14
ENDMDL
MODEL      172
REMARK 921   NORMALIZED FREE ENERGY PREDICTED BY IDOCK:   -3.67 KCAL/MOL
REMARK 922        TOTAL FREE ENERGY PREDICTED BY IDOCK:   -8.52 KCAL/MOL
REMARK 923 INTER-LIGAND FREE ENERGY PREDICTED BY IDOCK:   -7.47 KCAL/MOL
REMARK 924 INTRA-LIGAND FREE ENERGY PREDICTED BY IDOCK:   -1.05 KCAL/MOL
REMARK 927      BINDING AFFINITY PREDICTED BY RF-SCORE:    0.00 PKD
ROOT
HETATM    1  C   UNL     1      -9.669   6.601  73.185  1.00  0.00    -0.178 C  
HETATM    2  C   UNL     1      -9.314   8.061  72.977  1.00  0.00    -0.344 C  
ENDROOT
BRANCH   2   3
HETATM    3  C   UNL     1     -10.173   8.693  71.883  1.00  0.00    -0.404 C  
BRANCH   3   4
HETATM    4  C   UNL     1      -9.288   9.271  70.786  1.00  0.00    -0.322 C  
BRANCH   4   5
HETATM    5  C   UNL     1      -8.493   8.188  70.062  1.00  0.00    -0.128 C  
BRANCH   5   6
HETATM    6  C   UNL     1      -8.843   8.212  68.576  1.00  0.00    -0.134 C  
BRANCH   6   7
HETATM    7  C   UNL     1      -8.407   9.520  67.912  1.00  0.00    -0.115 C  
BRANCH   7   8
HETATM    8  N   UNL     1      -9.404  10.055  66.967  1.00  0.00    -0.152 NA 
BRANCH   8   9
HETATM    9  C   UNL     1      -9.218   9.606  65.576  1.00  0.00    -0.234 C  
HETATM   10  C   UNL     1      -9.845  10.480  64.492  1.00  0.00    -0.401 C  
ENDBRANCH   8   9
BRANCH   8  11
HETATM   11  C   UNL     1     -10.785   9.821  67.427  1.00  0.00    -0.249 C  
BRANCH  11  12
HETATM   12  C   UNL     1     -11.415  11.002  68.181  1.00  0.00    -0.374 C  
BRANCH  12  13
HETATM   13  C   UNL     1     -11.320  12.317  67.398  1.00  0.00    -0.389 C  
BRANCH  13  14
HETATM   14  C   UNL     1     -12.018  13.477  68.122  1.00  0.00    -0.341 C  
HETATM   15  H   UNL     1     -12.351  14.031  69.982  1.00  0.00     0.000 HD 
HETATM   16  O   UNL     1     -11.919  13.313  69.534  1.00  0.00    -0.307 OA 
BRANCH  14  17
HETATM   17  C   UNL     1     -11.441  14.819  67.714  1.00  0.00    -0.363 A  
HETATM   18  C   UNL     1     -10.792  14.951  66.477  1.00  0.00    -0.322 A  
HETATM   19  C   UNL     1     -10.188  16.156  66.112  1.00  0.00    -0.351 A  
HETATM   20  C   UNL     1     -10.222  17.242  66.982  1.00  0.00    -0.320 A  
HETATM   21  C   UNL     1     -11.508  15.943  68.558  1.00  0.00    -0.377 A  
HETATM   22  C   UNL     1     -10.904  17.149  68.193  1.00  0.00    -0.316 A  
BRANCH  20  23
HETATM   23  N   UNL     1      -9.560  18.448  66.615  1.00  0.00    -0.308 N  
HETATM   24  H   UNL     1      -9.892  19.014  65.834  1.00  0.00     0.000 HD 
BRANCH  23  25
HETATM   25  S   UNL     1      -8.208  18.911  67.514  1.00  0.00    -0.271 S  
HETATM   26  C   UNL     1      -7.403  17.343  67.765  1.00  0.00    -0.177 C  
HETATM   27  O   UNL     1      -8.726  19.344  68.793  1.00  0.00    -0.364 OA 
HETATM   28  O   UNL     1      -7.352  19.768  66.724  1.00  0.00    -0.226 OA 
ENDBRANCH  23  25
ENDBRANCH  20  23
ENDBRANCH  14  17
ENDBRANCH  13  14
ENDBRANCH  12  13
ENDBRANCH  11  12
ENDBRANCH   8  11
ENDBRANCH   7   8
ENDBRANCH   6   7
ENDBRANCH   5   6
ENDBRANCH   4   5
ENDBRANCH   3   4
ENDBRANCH   2   3
TORSDOF 14
ENDMDL
MODEL      173
REMARK 921   NORMALIZED FREE ENERGY PREDICTED BY IDOCK:   -3.66 KCAL/MOL
REMARK 922        TOTAL FREE ENERGY PREDICTED BY IDOCK:   -8.50 KCAL/MOL
REMARK 923 INTER-LIGAND FREE ENERGY PREDICTED BY IDOCK:   -7.09 KCAL/MOL
REMARK 924 INTRA-LIGAND FREE ENERGY PREDICTED BY IDOCK:   -1.41 KCAL/MOL
REMARK 927      BINDING AFFINITY PREDICTED BY RF-SCORE:    0.00 PKD
ROOT
HETATM    1  C   UNL     1     -11.027  11.503  63.493  1.00  0.00    -0.453 C  
HETATM    2  C   UNL     1     -11.036  12.376  64.734  1.00  0.00    -0.340 C  
ENDROOT
BRANCH   2   3
HETATM    3  C   UNL     1     -12.425  12.953  64.999  1.00  0.00    -0.553 C  
BRANCH   3   4
HETATM    4  C   UNL     1     -12.315  14.238  65.811  1.00  0.00    -0.420 C  
BRANCH   4   5
HETATM    5  C   UNL     1     -10.863  14.648  66.041  1.00  0.00    -0.318 C  
BRANCH   5   6
HETATM    6  C   UNL     1     -10.699  15.146  67.474  1.00  0.00    -0.284 C  
BRANCH   6   7
HETATM    7  C   UNL     1      -9.629  14.355  68.231  1.00  0.00    -0.211 C  
BRANCH   7   8
HETATM    8  N   UNL     1      -9.430  12.993  67.705  1.00  0.00    -0.194 NA 
BRANCH   8   9
HETATM    9  C   UNL     1      -8.033  12.677  67.361  1.00  0.00    -0.177 C  
HETATM   10  C   UNL     1      -7.253  11.852  68.382  1.00  0.00    -0.091 C  
ENDBRANCH   8   9
BRANCH   8  11
HETATM   11  C   UNL     1     -10.010  11.967  68.591  1.00  0.00    -0.154 C  
BRANCH  11  12
HETATM   12  C   UNL     1     -11.533  12.067  68.771  1.00  0.00    -0.355 C  
BRANCH  12  13
HETATM   13  C   UNL     1     -12.141  10.787  69.356  1.00  0.00    -0.315 C  
BRANCH  13  14
HETATM   14  C   UNL     1     -11.984  10.713  70.881  1.00  0.00    -0.363 C  
HETATM   15  H   UNL     1     -13.148  10.846  72.463  1.00  0.00     0.000 HD 
HETATM   16  O   UNL     1     -13.245  10.892  71.519  1.00  0.00    -0.386 OA 
BRANCH  14  17
HETATM   17  C   UNL     1     -11.364   9.398  71.317  1.00  0.00    -0.436 A  
HETATM   18  C   UNL     1      -9.972   9.300  71.464  1.00  0.00    -0.281 A  
HETATM   19  C   UNL     1      -9.372   8.082  71.792  1.00  0.00    -0.218 A  
HETATM   20  C   UNL     1     -10.158   6.947  71.971  1.00  0.00    -0.185 A  
HETATM   21  C   UNL     1     -12.145   8.251  71.551  1.00  0.00    -0.335 A  
HETATM   22  C   UNL     1     -11.545   7.033  71.880  1.00  0.00    -0.320 A  
BRANCH  20  23
HETATM   23  N   UNL     1      -9.527   5.703  72.257  1.00  0.00    -0.145 N  
HETATM   24  H   UNL     1      -9.336   5.418  73.218  1.00  0.00     0.000 HD 
BRANCH  23  25
HETATM   25  S   UNL     1      -9.104   4.715  70.955  1.00  0.00    -0.139 S  
HETATM   26  C   UNL     1      -9.445   3.098  71.619  1.00  0.00    -0.144 C  
HETATM   27  O   UNL     1      -7.669   4.840  70.828  1.00  0.00    -0.066 OA 
HETATM   28  O   UNL     1      -9.980   4.966  69.832  1.00  0.00    -0.211 OA 
ENDBRANCH  23  25
ENDBRANCH  20  23
ENDBRANCH  14  17
ENDBRANCH  13  14
ENDBRANCH  12  13
ENDBRANCH  11  12
ENDBRANCH   8  11
ENDBRANCH   7   8
ENDBRANCH   6   7
ENDBRANCH   5   6
ENDBRANCH   4   5
ENDBRANCH   3   4
ENDBRANCH   2   3
TORSDOF 14
ENDMDL
MODEL      174
REMARK 921   NORMALIZED FREE ENERGY PREDICTED BY IDOCK:   -3.65 KCAL/MOL
REMARK 922        TOTAL FREE ENERGY PREDICTED BY IDOCK:   -8.50 KCAL/MOL
REMARK 923 INTER-LIGAND FREE ENERGY PREDICTED BY IDOCK:   -7.42 KCAL/MOL
REMARK 924 INTRA-LIGAND FREE ENERGY PREDICTED BY IDOCK:   -1.08 KCAL/MOL
REMARK 927      BINDING AFFINITY PREDICTED BY RF-SCORE:    0.00 PKD
ROOT
HETATM    1  C   UNL     1      -9.213   8.601  71.989  1.00  0.00    -0.338 C  
HETATM    2  C   UNL     1     -10.636   8.967  71.608  1.00  0.00    -0.434 C  
ENDROOT
BRANCH   2   3
HETATM    3  C   UNL     1     -10.911   8.674  70.134  1.00  0.00    -0.242 C  
BRANCH   3   4
HETATM    4  C   UNL     1     -10.346   7.311  69.754  1.00  0.00    -0.227 C  
BRANCH   4   5
HETATM    5  C   UNL     1      -9.359   7.403  68.594  1.00  0.00    -0.139 C  
BRANCH   5   6
HETATM    6  C   UNL     1      -9.887   8.394  67.559  1.00  0.00    -0.235 C  
BRANCH   6   7
HETATM    7  C   UNL     1      -8.932   9.575  67.366  1.00  0.00    -0.131 C  
BRANCH   7   8
HETATM    8  N   UNL     1      -8.426   9.696  65.987  1.00  0.00    -0.122 NA 
BRANCH   8   9
HETATM    9  C   UNL     1      -8.572   8.470  65.181  1.00  0.00    -0.152 C  
HETATM   10  C   UNL     1      -7.790   8.423  63.872  1.00  0.00    -0.151 C  
ENDBRANCH   8   9
BRANCH   8  11
HETATM   11  C   UNL     1      -8.988  10.867  65.290  1.00  0.00    -0.186 C  
BRANCH  11  12
HETATM   12  C   UNL     1     -10.490  10.766  64.983  1.00  0.00    -0.307 C  
BRANCH  12  13
HETATM   13  C   UNL     1     -11.305  11.871  65.666  1.00  0.00    -0.339 C  
BRANCH  13  14
HETATM   14  C   UNL     1     -11.680  13.000  64.697  1.00  0.00    -0.361 C  
HETATM   15  H   UNL     1     -13.321  13.725  63.885  1.00  0.00     0.000 HD 
HETATM   16  O   UNL     1     -13.089  13.025  64.485  1.00  0.00    -0.693 OA 
BRANCH  14  17
HETATM   17  C   UNL     1     -11.207  14.351  65.201  1.00  0.00    -0.359 A  
HETATM   18  C   UNL     1     -10.678  14.464  66.495  1.00  0.00    -0.306 A  
HETATM   19  C   UNL     1     -10.306  15.708  67.009  1.00  0.00    -0.289 A  
HETATM   20  C   UNL     1     -10.463  16.855  66.235  1.00  0.00    -0.262 A  
HETATM   21  C   UNL     1     -11.312  15.514  64.416  1.00  0.00    -0.260 A  
HETATM   22  C   UNL     1     -10.939  16.759  64.929  1.00  0.00    -0.099 A  
BRANCH  20  23
HETATM   23  N   UNL     1     -10.124  18.121  66.791  1.00  0.00    -0.343 N  
HETATM   24  H   UNL     1     -10.808  18.667  67.315  1.00  0.00     0.000 HD 
BRANCH  23  25
HETATM   25  S   UNL     1      -8.552  18.690  66.555  1.00  0.00    -0.281 S  
HETATM   26  C   UNL     1      -7.984  18.852  68.235  1.00  0.00    -0.310 C  
HETATM   27  O   UNL     1      -8.703  20.023  66.015  1.00  0.00    -0.342 OA 
HETATM   28  O   UNL     1      -7.756  17.693  65.874  1.00  0.00    -0.508 OA 
ENDBRANCH  23  25
ENDBRANCH  20  23
ENDBRANCH  14  17
ENDBRANCH  13  14
ENDBRANCH  12  13
ENDBRANCH  11  12
ENDBRANCH   8  11
ENDBRANCH   7   8
ENDBRANCH   6   7
ENDBRANCH   5   6
ENDBRANCH   4   5
ENDBRANCH   3   4
ENDBRANCH   2   3
TORSDOF 14
ENDMDL
MODEL      175
REMARK 921   NORMALIZED FREE ENERGY PREDICTED BY IDOCK:   -3.65 KCAL/MOL
REMARK 922        TOTAL FREE ENERGY PREDICTED BY IDOCK:   -8.50 KCAL/MOL
REMARK 923 INTER-LIGAND FREE ENERGY PREDICTED BY IDOCK:   -7.25 KCAL/MOL
REMARK 924 INTRA-LIGAND FREE ENERGY PREDICTED BY IDOCK:   -1.25 KCAL/MOL
REMARK 927      BINDING AFFINITY PREDICTED BY RF-SCORE:    0.00 PKD
ROOT
HETATM    1  C   UNL     1      -9.285   4.939  65.275  1.00  0.00    -0.144 C  
HETATM    2  C   UNL     1      -8.652   6.069  66.065  1.00  0.00    -0.147 C  
ENDROOT
BRANCH   2   3
HETATM    3  C   UNL     1      -9.430   6.356  67.348  1.00  0.00    -0.123 C  
BRANCH   3   4
HETATM    4  C   UNL     1     -10.663   7.196  67.040  1.00  0.00    -0.420 C  
BRANCH   4   5
HETATM    5  C   UNL     1     -10.406   8.686  67.246  1.00  0.00    -0.366 C  
BRANCH   5   6
HETATM    6  C   UNL     1      -9.419   8.874  68.395  1.00  0.00    -0.147 C  
BRANCH   6   7
HETATM    7  C   UNL     1      -9.883   9.958  69.370  1.00  0.00    -0.217 C  
BRANCH   7   8
HETATM    8  N   UNL     1     -11.340   9.953  69.597  1.00  0.00    -0.206 NA 
BRANCH   8   9
HETATM    9  C   UNL     1     -11.739   9.505  70.943  1.00  0.00    -0.317 C  
HETATM   10  C   UNL     1     -12.801  10.343  71.649  1.00  0.00    -0.579 C  
ENDBRANCH   8   9
BRANCH   8  11
HETATM   11  C   UNL     1     -11.959  11.246  69.256  1.00  0.00    -0.342 C  
BRANCH  11  12
HETATM   12  C   UNL     1     -10.969  12.321  68.780  1.00  0.00    -0.277 C  
BRANCH  12  13
HETATM   13  C   UNL     1     -11.449  13.043  67.516  1.00  0.00    -0.375 C  
BRANCH  13  14
HETATM   14  C   UNL     1     -11.761  14.524  67.774  1.00  0.00    -0.374 C  
HETATM   15  H   UNL     1     -12.528  15.609  69.228  1.00  0.00     0.000 HD 
HETATM   16  O   UNL     1     -12.335  14.692  69.068  1.00  0.00    -0.203 OA 
BRANCH  14  17
HETATM   17  C   UNL     1     -10.522  15.389  67.641  1.00  0.00    -0.272 A  
HETATM   18  C   UNL     1      -9.932  15.942  68.787  1.00  0.00    -0.220 A  
HETATM   19  C   UNL     1      -8.837  16.802  68.684  1.00  0.00    -0.255 A  
HETATM   20  C   UNL     1      -8.320  17.122  67.431  1.00  0.00    -0.190 A  
HETATM   21  C   UNL     1      -9.955  15.684  66.387  1.00  0.00    -0.298 A  
HETATM   22  C   UNL     1      -8.858  16.544  66.283  1.00  0.00    -0.364 A  
BRANCH  20  23
HETATM   23  N   UNL     1      -7.234  18.037  67.340  1.00  0.00    -0.192 N  
HETATM   24  H   UNL     1      -6.296  17.773  67.642  1.00  0.00     0.000 HD 
BRANCH  23  25
HETATM   25  S   UNL     1      -7.547  19.573  66.715  1.00  0.00    -0.261 S  
HETATM   26  C   UNL     1      -6.222  20.520  67.435  1.00  0.00    -0.229 C  
HETATM   27  O   UNL     1      -8.778  20.000  67.342  1.00  0.00    -0.323 OA 
HETATM   28  O   UNL     1      -7.403  19.567  65.276  1.00  0.00    -0.410 OA 
ENDBRANCH  23  25
ENDBRANCH  20  23
ENDBRANCH  14  17
ENDBRANCH  13  14
ENDBRANCH  12  13
ENDBRANCH  11  12
ENDBRANCH   8  11
ENDBRANCH   7   8
ENDBRANCH   6   7
ENDBRANCH   5   6
ENDBRANCH   4   5
ENDBRANCH   3   4
ENDBRANCH   2   3
TORSDOF 14
ENDMDL
MODEL      176
REMARK 921   NORMALIZED FREE ENERGY PREDICTED BY IDOCK:   -3.64 KCAL/MOL
REMARK 922        TOTAL FREE ENERGY PREDICTED BY IDOCK:   -8.48 KCAL/MOL
REMARK 923 INTER-LIGAND FREE ENERGY PREDICTED BY IDOCK:   -7.59 KCAL/MOL
REMARK 924 INTRA-LIGAND FREE ENERGY PREDICTED BY IDOCK:   -0.89 KCAL/MOL
REMARK 927      BINDING AFFINITY PREDICTED BY RF-SCORE:    0.00 PKD
ROOT
HETATM    1  C   UNL     1     -10.776   2.943  63.325  1.00  0.00    -0.235 C  
HETATM    2  C   UNL     1     -10.009   3.385  64.557  1.00  0.00    -0.145 C  
ENDROOT
BRANCH   2   3
HETATM    3  C   UNL     1     -10.683   4.575  65.237  1.00  0.00    -0.145 C  
BRANCH   3   4
HETATM    4  C   UNL     1      -9.981   4.899  66.550  1.00  0.00    -0.256 C  
BRANCH   4   5
HETATM    5  C   UNL     1      -9.481   6.341  66.591  1.00  0.00    -0.178 C  
BRANCH   5   6
HETATM    6  C   UNL     1     -10.575   7.239  67.161  1.00  0.00    -0.416 C  
BRANCH   6   7
HETATM    7  C   UNL     1     -10.459   7.380  68.680  1.00  0.00    -0.189 C  
BRANCH   7   8
HETATM    8  N   UNL     1     -10.756   8.741  69.164  1.00  0.00    -0.180 NA 
BRANCH   8   9
HETATM    9  C   UNL     1     -10.765   8.870  70.632  1.00  0.00    -0.234 C  
HETATM   10  C   UNL     1     -12.016   9.489  71.251  1.00  0.00    -0.445 C  
ENDBRANCH   8   9
BRANCH   8  11
HETATM   11  C   UNL     1      -9.886   9.754  68.541  1.00  0.00    -0.156 C  
BRANCH  11  12
HETATM   12  C   UNL     1     -10.635  10.938  67.910  1.00  0.00    -0.246 C  
BRANCH  12  13
HETATM   13  C   UNL     1     -10.187  11.217  66.471  1.00  0.00    -0.269 C  
BRANCH  13  14
HETATM   14  C   UNL     1     -11.095  12.234  65.766  1.00  0.00    -0.323 C  
HETATM   15  H   UNL     1     -12.951  12.873  65.928  1.00  0.00     0.000 HD 
HETATM   16  O   UNL     1     -12.388  12.244  66.364  1.00  0.00    -0.531 OA 
BRANCH  14  17
HETATM   17  C   UNL     1     -10.501  13.629  65.792  1.00  0.00    -0.296 A  
HETATM   18  C   UNL     1      -9.410  13.905  66.631  1.00  0.00    -0.282 A  
HETATM   19  C   UNL     1      -8.893  15.198  66.729  1.00  0.00    -0.302 A  
HETATM   20  C   UNL     1      -9.464  16.233  65.992  1.00  0.00    -0.334 A  
HETATM   21  C   UNL     1     -11.032  14.677  65.018  1.00  0.00    -0.415 A  
HETATM   22  C   UNL     1     -10.514  15.972  65.115  1.00  0.00    -0.331 A  
BRANCH  20  23
HETATM   23  N   UNL     1      -8.956  17.554  66.140  1.00  0.00    -0.179 N  
HETATM   24  H   UNL     1      -8.164  17.879  65.585  1.00  0.00     0.000 HD 
BRANCH  23  25
HETATM   25  S   UNL     1      -9.707  18.567  67.262  1.00  0.00    -0.311 S  
HETATM   26  C   UNL     1     -10.521  19.733  66.191  1.00  0.00    -0.509 C  
HETATM   27  O   UNL     1      -8.631  19.267  67.930  1.00  0.00    -0.296 OA 
HETATM   28  O   UNL     1     -10.701  17.832  68.013  1.00  0.00    -0.382 OA 
ENDBRANCH  23  25
ENDBRANCH  20  23
ENDBRANCH  14  17
ENDBRANCH  13  14
ENDBRANCH  12  13
ENDBRANCH  11  12
ENDBRANCH   8  11
ENDBRANCH   7   8
ENDBRANCH   6   7
ENDBRANCH   5   6
ENDBRANCH   4   5
ENDBRANCH   3   4
ENDBRANCH   2   3
TORSDOF 14
ENDMDL
MODEL      177
REMARK 921   NORMALIZED FREE ENERGY PREDICTED BY IDOCK:   -3.64 KCAL/MOL
REMARK 922        TOTAL FREE ENERGY PREDICTED BY IDOCK:   -8.47 KCAL/MOL
REMARK 923 INTER-LIGAND FREE ENERGY PREDICTED BY IDOCK:   -6.16 KCAL/MOL
REMARK 924 INTRA-LIGAND FREE ENERGY PREDICTED BY IDOCK:   -2.32 KCAL/MOL
REMARK 927      BINDING AFFINITY PREDICTED BY RF-SCORE:    0.00 PKD
ROOT
HETATM    1  C   UNL     1     -12.331  13.974  66.642  1.00  0.00    -0.408 C  
HETATM    2  C   UNL     1     -11.891  14.454  65.272  1.00  0.00    -0.373 C  
ENDROOT
BRANCH   2   3
HETATM    3  C   UNL     1     -10.820  13.539  64.679  1.00  0.00    -0.416 C  
BRANCH   3   4
HETATM    4  C   UNL     1     -11.151  12.081  64.974  1.00  0.00    -0.368 C  
BRANCH   4   5
HETATM    5  C   UNL     1     -11.113  11.220  63.715  1.00  0.00    -0.313 C  
BRANCH   5   6
HETATM    6  C   UNL     1      -9.742  11.349  63.055  1.00  0.00    -0.393 C  
BRANCH   6   7
HETATM    7  C   UNL     1      -9.172   9.985  62.659  1.00  0.00    -0.295 C  
BRANCH   7   8
HETATM    8  N   UNL     1      -8.503   9.288  63.772  1.00  0.00    -0.185 NA 
BRANCH   8   9
HETATM    9  C   UNL     1      -7.687   8.133  63.356  1.00  0.00    -0.143 C  
HETATM   10  C   UNL     1      -7.653   6.946  64.316  1.00  0.00    -0.108 C  
ENDBRANCH   8   9
BRANCH   8  11
HETATM   11  C   UNL     1      -7.731  10.212  64.622  1.00  0.00    -0.141 C  
BRANCH  11  12
HETATM   12  C   UNL     1      -8.149  10.220  66.100  1.00  0.00    -0.133 C  
BRANCH  12  13
HETATM   13  C   UNL     1      -7.752  11.516  66.816  1.00  0.00    -0.136 C  
BRANCH  13  14
HETATM   14  C   UNL     1      -8.808  11.965  67.837  1.00  0.00    -0.172 C  
HETATM   15  H   UNL     1      -9.209  11.646  69.738  1.00  0.00     0.000 HD 
HETATM   16  O   UNL     1      -8.556  11.368  69.106  1.00  0.00     0.006 OA 
BRANCH  14  17
HETATM   17  C   UNL     1      -8.849  13.475  67.972  1.00  0.00    -0.181 A  
HETATM   18  C   UNL     1      -8.177  14.276  67.037  1.00  0.00    -0.116 A  
HETATM   19  C   UNL     1      -8.139  15.665  67.182  1.00  0.00    -0.247 A  
HETATM   20  C   UNL     1      -8.768  16.268  68.269  1.00  0.00    -0.190 A  
HETATM   21  C   UNL     1      -9.521  14.106  69.035  1.00  0.00     0.062 A  
HETATM   22  C   UNL     1      -9.483  15.496  69.181  1.00  0.00    -0.246 A  
BRANCH  20  23
HETATM   23  N   UNL     1      -8.678  17.679  68.428  1.00  0.00    -0.279 N  
HETATM   24  H   UNL     1      -8.108  18.091  69.168  1.00  0.00     0.000 HD 
BRANCH  23  25
HETATM   25  S   UNL     1      -9.545  18.651  67.355  1.00  0.00    -0.303 S  
HETATM   26  C   UNL     1     -10.195  19.892  68.454  1.00  0.00    -0.433 C  
HETATM   27  O   UNL     1     -10.656  17.838  66.910  1.00  0.00    -0.323 OA 
HETATM   28  O   UNL     1      -8.647  19.274  66.407  1.00  0.00    -0.322 OA 
ENDBRANCH  23  25
ENDBRANCH  20  23
ENDBRANCH  14  17
ENDBRANCH  13  14
ENDBRANCH  12  13
ENDBRANCH  11  12
ENDBRANCH   8  11
ENDBRANCH   7   8
ENDBRANCH   6   7
ENDBRANCH   5   6
ENDBRANCH   4   5
ENDBRANCH   3   4
ENDBRANCH   2   3
TORSDOF 14
ENDMDL
MODEL      178
REMARK 921   NORMALIZED FREE ENERGY PREDICTED BY IDOCK:   -3.64 KCAL/MOL
REMARK 922        TOTAL FREE ENERGY PREDICTED BY IDOCK:   -8.47 KCAL/MOL
REMARK 923 INTER-LIGAND FREE ENERGY PREDICTED BY IDOCK:   -7.61 KCAL/MOL
REMARK 924 INTRA-LIGAND FREE ENERGY PREDICTED BY IDOCK:   -0.86 KCAL/MOL
REMARK 927      BINDING AFFINITY PREDICTED BY RF-SCORE:    0.00 PKD
ROOT
HETATM    1  C   UNL     1     -13.804  13.953  72.337  1.00  0.00    -0.668 C  
HETATM    2  C   UNL     1     -12.844  14.738  73.212  1.00  0.00    -0.621 C  
ENDROOT
BRANCH   2   3
HETATM    3  C   UNL     1     -12.026  15.731  72.390  1.00  0.00    -0.600 C  
BRANCH   3   4
HETATM    4  C   UNL     1     -12.449  15.678  70.927  1.00  0.00    -0.497 C  
BRANCH   4   5
HETATM    5  C   UNL     1     -11.494  16.457  70.026  1.00  0.00    -0.097 C  
BRANCH   5   6
HETATM    6  C   UNL     1     -10.405  15.518  69.513  1.00  0.00    -0.271 C  
BRANCH   6   7
HETATM    7  C   UNL     1     -10.255  15.600  67.993  1.00  0.00    -0.227 C  
BRANCH   7   8
HETATM    8  N   UNL     1     -11.437  15.108  67.263  1.00  0.00    -0.322 NA 
BRANCH   8   9
HETATM    9  C   UNL     1     -11.262  15.051  65.800  1.00  0.00    -0.318 C  
HETATM   10  C   UNL     1      -9.858  15.336  65.274  1.00  0.00    -0.250 C  
ENDBRANCH   8   9
BRANCH   8  11
HETATM   11  C   UNL     1     -11.923  13.823  67.796  1.00  0.00    -0.356 C  
BRANCH  11  12
HETATM   12  C   UNL     1     -11.054  12.610  67.428  1.00  0.00    -0.315 C  
BRANCH  12  13
HETATM   13  C   UNL     1     -10.354  11.997  68.646  1.00  0.00    -0.211 C  
BRANCH  13  14
HETATM   14  C   UNL     1     -11.319  11.197  69.531  1.00  0.00    -0.290 C  
HETATM   15  H   UNL     1     -13.078  10.333  69.341  1.00  0.00     0.000 HD 
HETATM   16  O   UNL     1     -12.480  10.828  68.793  1.00  0.00    -0.366 OA 
BRANCH  14  17
HETATM   17  C   UNL     1     -10.656   9.960  70.107  1.00  0.00    -0.350 A  
HETATM   18  C   UNL     1      -9.577   9.371  69.432  1.00  0.00    -0.177 A  
HETATM   19  C   UNL     1      -8.998   8.190  69.902  1.00  0.00    -0.143 A  
HETATM   20  C   UNL     1      -9.496   7.582  71.052  1.00  0.00    -0.160 A  
HETATM   21  C   UNL     1     -11.113   9.358  71.294  1.00  0.00    -0.446 A  
HETATM   22  C   UNL     1     -10.534   8.177  71.766  1.00  0.00    -0.304 A  
BRANCH  20  23
HETATM   23  N   UNL     1      -8.927   6.353  71.491  1.00  0.00    -0.144 N  
HETATM   24  H   UNL     1      -8.379   6.304  72.350  1.00  0.00     0.000 HD 
BRANCH  23  25
HETATM   25  S   UNL     1      -9.188   4.980  70.544  1.00  0.00    -0.153 S  
HETATM   26  C   UNL     1     -10.128   3.960  71.661  1.00  0.00    -0.097 C  
HETATM   27  O   UNL     1      -7.887   4.369  70.386  1.00  0.00    -0.052 OA 
HETATM   28  O   UNL     1     -10.004   5.311  69.397  1.00  0.00    -0.178 OA 
ENDBRANCH  23  25
ENDBRANCH  20  23
ENDBRANCH  14  17
ENDBRANCH  13  14
ENDBRANCH  12  13
ENDBRANCH  11  12
ENDBRANCH   8  11
ENDBRANCH   7   8
ENDBRANCH   6   7
ENDBRANCH   5   6
ENDBRANCH   4   5
ENDBRANCH   3   4
ENDBRANCH   2   3
TORSDOF 14
ENDMDL
MODEL      179
REMARK 921   NORMALIZED FREE ENERGY PREDICTED BY IDOCK:   -3.64 KCAL/MOL
REMARK 922        TOTAL FREE ENERGY PREDICTED BY IDOCK:   -8.47 KCAL/MOL
REMARK 923 INTER-LIGAND FREE ENERGY PREDICTED BY IDOCK:   -7.72 KCAL/MOL
REMARK 924 INTRA-LIGAND FREE ENERGY PREDICTED BY IDOCK:   -0.75 KCAL/MOL
REMARK 927      BINDING AFFINITY PREDICTED BY RF-SCORE:    0.00 PKD
ROOT
HETATM    1  C   UNL     1      -8.872  20.338  67.101  1.00  0.00    -0.446 C  
HETATM    2  C   UNL     1     -10.048  19.910  66.242  1.00  0.00    -0.613 C  
ENDROOT
BRANCH   2   3
HETATM    3  C   UNL     1     -10.569  18.535  66.656  1.00  0.00    -0.383 C  
BRANCH   3   4
HETATM    4  C   UNL     1      -9.405  17.590  66.924  1.00  0.00    -0.275 C  
BRANCH   4   5
HETATM    5  C   UNL     1      -9.514  16.304  66.109  1.00  0.00    -0.373 C  
BRANCH   5   6
HETATM    6  C   UNL     1     -10.566  15.394  66.738  1.00  0.00    -0.309 C  
BRANCH   6   7
HETATM    7  C   UNL     1     -10.303  15.169  68.229  1.00  0.00    -0.231 C  
BRANCH   7   8
HETATM    8  N   UNL     1     -11.211  14.181  68.839  1.00  0.00    -0.253 NA 
BRANCH   8   9
HETATM    9  C   UNL     1     -12.103  14.739  69.871  1.00  0.00    -0.332 C  
HETATM   10  C   UNL     1     -12.541  13.782  70.977  1.00  0.00    -0.446 C  
ENDBRANCH   8   9
BRANCH   8  11
HETATM   11  C   UNL     1     -11.969  13.426  67.826  1.00  0.00    -0.324 C  
BRANCH  11  12
HETATM   12  C   UNL     1     -11.880  11.898  67.970  1.00  0.00    -0.323 C  
BRANCH  12  13
HETATM   13  C   UNL     1     -10.794  11.286  67.077  1.00  0.00    -0.332 C  
BRANCH  13  14
HETATM   14  C   UNL     1      -9.644  10.679  67.892  1.00  0.00    -0.162 C  
HETATM   15  H   UNL     1      -8.210  11.327  69.075  1.00  0.00     0.000 HD 
HETATM   16  O   UNL     1      -8.922  11.703  68.571  1.00  0.00    -0.172 OA 
BRANCH  14  17
HETATM   17  C   UNL     1     -10.146   9.652  68.889  1.00  0.00    -0.198 A  
HETATM   18  C   UNL     1     -10.385   8.334  68.469  1.00  0.00    -0.230 A  
HETATM   19  C   UNL     1     -10.917   7.389  69.349  1.00  0.00    -0.126 A  
HETATM   20  C   UNL     1     -11.222   7.753  70.659  1.00  0.00    -0.268 A  
HETATM   21  C   UNL     1     -10.413   9.986  70.230  1.00  0.00    -0.331 A  
HETATM   22  C   UNL     1     -10.945   9.041  71.111  1.00  0.00    -0.371 A  
BRANCH  20  23
HETATM   23  N   UNL     1     -11.808   6.791  71.529  1.00  0.00    -0.314 N  
HETATM   24  H   UNL     1     -12.809   6.804  71.730  1.00  0.00     0.000 HD 
BRANCH  23  25
HETATM   25  S   UNL     1     -10.796   5.628  72.217  1.00  0.00    -0.249 S  
HETATM   26  C   UNL     1      -9.429   6.632  72.758  1.00  0.00    -0.142 C  
HETATM   27  O   UNL     1     -10.332   4.820  71.111  1.00  0.00    -0.196 OA 
HETATM   28  O   UNL     1     -11.434   5.027  73.367  1.00  0.00    -0.323 OA 
ENDBRANCH  23  25
ENDBRANCH  20  23
ENDBRANCH  14  17
ENDBRANCH  13  14
ENDBRANCH  12  13
ENDBRANCH  11  12
ENDBRANCH   8  11
ENDBRANCH   7   8
ENDBRANCH   6   7
ENDBRANCH   5   6
ENDBRANCH   4   5
ENDBRANCH   3   4
ENDBRANCH   2   3
TORSDOF 14
ENDMDL
MODEL      180
REMARK 921   NORMALIZED FREE ENERGY PREDICTED BY IDOCK:   -3.64 KCAL/MOL
REMARK 922        TOTAL FREE ENERGY PREDICTED BY IDOCK:   -8.47 KCAL/MOL
REMARK 923 INTER-LIGAND FREE ENERGY PREDICTED BY IDOCK:   -7.22 KCAL/MOL
REMARK 924 INTRA-LIGAND FREE ENERGY PREDICTED BY IDOCK:   -1.25 KCAL/MOL
REMARK 927      BINDING AFFINITY PREDICTED BY RF-SCORE:    0.00 PKD
ROOT
HETATM    1  C   UNL     1     -12.462  15.016  73.943  1.00  0.00    -0.660 C  
HETATM    2  C   UNL     1     -13.163  14.440  72.726  1.00  0.00    -0.611 C  
ENDROOT
BRANCH   2   3
HETATM    3  C   UNL     1     -13.108  15.405  71.543  1.00  0.00    -0.545 C  
BRANCH   3   4
HETATM    4  C   UNL     1     -12.169  14.869  70.470  1.00  0.00    -0.388 C  
BRANCH   4   5
HETATM    5  C   UNL     1     -12.234  13.348  70.360  1.00  0.00    -0.415 C  
BRANCH   5   6
HETATM    6  C   UNL     1     -11.314  12.883  69.233  1.00  0.00    -0.303 C  
BRANCH   6   7
HETATM    7  C   UNL     1     -11.810  13.355  67.865  1.00  0.00    -0.357 C  
BRANCH   7   8
HETATM    8  N   UNL     1     -11.899  12.271  66.870  1.00  0.00    -0.581 NA 
BRANCH   8   9
HETATM    9  C   UNL     1     -12.165  12.733  65.497  1.00  0.00    -0.463 C  
HETATM   10  C   UNL     1     -12.564  14.198  65.340  1.00  0.00    -0.485 C  
ENDBRANCH   8   9
BRANCH   8  11
HETATM   11  C   UNL     1     -10.729  11.377  66.919  1.00  0.00    -0.265 C  
BRANCH  11  12
HETATM   12  C   UNL     1      -9.442  11.978  66.333  1.00  0.00    -0.238 C  
BRANCH  12  13
HETATM   13  C   UNL     1      -8.319  10.943  66.195  1.00  0.00    -0.168 C  
BRANCH  13  14
HETATM   14  C   UNL     1      -7.451  10.854  67.458  1.00  0.00    -0.097 C  
HETATM   15  H   UNL     1      -7.190  11.893  69.110  1.00  0.00     0.000 HD 
HETATM   16  O   UNL     1      -7.728  11.948  68.328  1.00  0.00    -0.112 OA 
BRANCH  14  17
HETATM   17  C   UNL     1      -7.661   9.543  68.190  1.00  0.00    -0.079 A  
HETATM   18  C   UNL     1      -7.052   8.373  67.711  1.00  0.00    -0.083 A  
HETATM   19  C   UNL     1      -7.290   7.141  68.323  1.00  0.00    -0.100 A  
HETATM   20  C   UNL     1      -8.144   7.063  69.421  1.00  0.00    -0.130 A  
HETATM   21  C   UNL     1      -8.481   9.452  69.330  1.00  0.00    -0.142 A  
HETATM   22  C   UNL     1      -8.718   8.219  69.944  1.00  0.00    -0.134 A  
BRANCH  20  23
HETATM   23  N   UNL     1      -8.413   5.793  70.004  1.00  0.00    -0.122 N  
HETATM   24  H   UNL     1      -7.675   5.256  70.460  1.00  0.00     0.000 HD 
BRANCH  23  25
HETATM   25  S   UNL     1      -9.993   5.204  69.916  1.00  0.00    -0.266 S  
HETATM   26  C   UNL     1      -9.724   3.454  70.106  1.00  0.00    -0.055 C  
HETATM   27  O   UNL     1     -10.414   5.435  68.552  1.00  0.00    -0.177 OA 
HETATM   28  O   UNL     1     -10.771   5.693  71.033  1.00  0.00    -0.246 OA 
ENDBRANCH  23  25
ENDBRANCH  20  23
ENDBRANCH  14  17
ENDBRANCH  13  14
ENDBRANCH  12  13
ENDBRANCH  11  12
ENDBRANCH   8  11
ENDBRANCH   7   8
ENDBRANCH   6   7
ENDBRANCH   5   6
ENDBRANCH   4   5
ENDBRANCH   3   4
ENDBRANCH   2   3
TORSDOF 14
ENDMDL
MODEL      181
REMARK 921   NORMALIZED FREE ENERGY PREDICTED BY IDOCK:   -3.63 KCAL/MOL
REMARK 922        TOTAL FREE ENERGY PREDICTED BY IDOCK:   -8.46 KCAL/MOL
REMARK 923 INTER-LIGAND FREE ENERGY PREDICTED BY IDOCK:   -7.45 KCAL/MOL
REMARK 924 INTRA-LIGAND FREE ENERGY PREDICTED BY IDOCK:   -1.01 KCAL/MOL
REMARK 927      BINDING AFFINITY PREDICTED BY RF-SCORE:    0.00 PKD
ROOT
HETATM    1  C   UNL     1      -7.869   4.333  68.967  1.00  0.00    -0.061 C  
HETATM    2  C   UNL     1      -8.647   4.724  67.724  1.00  0.00    -0.103 C  
ENDROOT
BRANCH   2   3
HETATM    3  C   UNL     1     -10.152   4.712  67.981  1.00  0.00    -0.077 C  
BRANCH   3   4
HETATM    4  C   UNL     1     -10.609   6.071  68.498  1.00  0.00    -0.325 C  
BRANCH   4   5
HETATM    5  C   UNL     1     -11.186   5.983  69.908  1.00  0.00    -0.438 C  
BRANCH   5   6
HETATM    6  C   UNL     1     -10.081   6.263  70.924  1.00  0.00    -0.227 C  
BRANCH   6   7
HETATM    7  C   UNL     1     -10.479   7.370  71.903  1.00  0.00    -0.201 C  
BRANCH   7   8
HETATM    8  N   UNL     1      -9.743   8.629  71.688  1.00  0.00    -0.250 NA 
BRANCH   8   9
HETATM    9  C   UNL     1      -8.306   8.449  71.416  1.00  0.00    -0.145 C  
HETATM   10  C   UNL     1      -7.441   8.017  72.597  1.00  0.00    -0.141 C  
ENDBRANCH   8   9
BRANCH   8  11
HETATM   11  C   UNL     1     -10.381   9.478  70.666  1.00  0.00    -0.302 C  
BRANCH  11  12
HETATM   12  C   UNL     1     -11.693  10.141  71.115  1.00  0.00    -0.453 C  
BRANCH  12  13
HETATM   13  C   UNL     1     -11.961  11.463  70.387  1.00  0.00    -0.465 C  
BRANCH  13  14
HETATM   14  C   UNL     1     -11.335  11.494  68.986  1.00  0.00    -0.276 C  
HETATM   15  H   UNL     1     -11.826  10.917  67.169  1.00  0.00     0.000 HD 
HETATM   16  O   UNL     1     -12.214  10.897  68.036  1.00  0.00    -0.422 OA 
BRANCH  14  17
HETATM   17  C   UNL     1     -10.991  12.908  68.558  1.00  0.00    -0.288 A  
HETATM   18  C   UNL     1      -9.650  13.266  68.351  1.00  0.00    -0.185 A  
HETATM   19  C   UNL     1      -9.303  14.580  68.029  1.00  0.00    -0.201 A  
HETATM   20  C   UNL     1     -10.292  15.553  67.916  1.00  0.00    -0.250 A  
HETATM   21  C   UNL     1     -11.981  13.894  68.389  1.00  0.00    -0.391 A  
HETATM   22  C   UNL     1     -11.633  15.209  68.067  1.00  0.00    -0.345 A  
BRANCH  20  23
HETATM   23  N   UNL     1      -9.917  16.897  67.635  1.00  0.00    -0.263 N  
HETATM   24  H   UNL     1      -9.785  17.575  68.386  1.00  0.00     0.000 HD 
BRANCH  23  25
HETATM   25  S   UNL     1      -9.697  17.333  66.019  1.00  0.00    -0.106 S  
HETATM   26  C   UNL     1     -10.463  18.939  65.984  1.00  0.00    -0.446 C  
HETATM   27  O   UNL     1     -10.536  16.433  65.260  1.00  0.00    -0.548 OA 
HETATM   28  O   UNL     1      -8.287  17.468  65.725  1.00  0.00    -0.538 OA 
ENDBRANCH  23  25
ENDBRANCH  20  23
ENDBRANCH  14  17
ENDBRANCH  13  14
ENDBRANCH  12  13
ENDBRANCH  11  12
ENDBRANCH   8  11
ENDBRANCH   7   8
ENDBRANCH   6   7
ENDBRANCH   5   6
ENDBRANCH   4   5
ENDBRANCH   3   4
ENDBRANCH   2   3
TORSDOF 14
ENDMDL
MODEL      182
REMARK 921   NORMALIZED FREE ENERGY PREDICTED BY IDOCK:   -3.63 KCAL/MOL
REMARK 922        TOTAL FREE ENERGY PREDICTED BY IDOCK:   -8.46 KCAL/MOL
REMARK 923 INTER-LIGAND FREE ENERGY PREDICTED BY IDOCK:   -7.23 KCAL/MOL
REMARK 924 INTRA-LIGAND FREE ENERGY PREDICTED BY IDOCK:   -1.23 KCAL/MOL
REMARK 927      BINDING AFFINITY PREDICTED BY RF-SCORE:    0.00 PKD
ROOT
HETATM    1  C   UNL     1      -8.725   8.392  72.306  1.00  0.00    -0.277 C  
HETATM    2  C   UNL     1      -8.939   7.895  73.724  1.00  0.00    -0.324 C  
ENDROOT
BRANCH   2   3
HETATM    3  C   UNL     1     -10.168   6.993  73.817  1.00  0.00    -0.401 C  
BRANCH   3   4
HETATM    4  C   UNL     1     -11.250   7.475  72.858  1.00  0.00    -0.396 C  
BRANCH   4   5
HETATM    5  C   UNL     1     -11.925   6.317  72.129  1.00  0.00    -0.338 C  
BRANCH   5   6
HETATM    6  C   UNL     1     -10.861   5.454  71.456  1.00  0.00    -0.218 C  
BRANCH   6   7
HETATM    7  C   UNL     1     -10.860   5.635  69.936  1.00  0.00    -0.300 C  
BRANCH   7   8
HETATM    8  N   UNL     1      -9.553   6.055  69.399  1.00  0.00    -0.132 NA 
BRANCH   8   9
HETATM    9  C   UNL     1      -8.427   5.203  69.819  1.00  0.00    -0.096 C  
HETATM   10  C   UNL     1      -7.188   5.926  70.343  1.00  0.00    -0.072 C  
ENDBRANCH   8   9
BRANCH   8  11
HETATM   11  C   UNL     1      -9.583   6.223  67.935  1.00  0.00    -0.118 C  
BRANCH  11  12
HETATM   12  C   UNL     1     -10.643   7.214  67.428  1.00  0.00    -0.372 C  
BRANCH  12  13
HETATM   13  C   UNL     1     -10.628   8.537  68.202  1.00  0.00    -0.181 C  
BRANCH  13  14
HETATM   14  C   UNL     1     -10.120   9.706  67.346  1.00  0.00    -0.204 C  
HETATM   15  H   UNL     1     -10.072  10.187  65.437  1.00  0.00     0.000 HD 
HETATM   16  O   UNL     1     -10.386   9.464  65.967  1.00  0.00    -0.218 OA 
BRANCH  14  17
HETATM   17  C   UNL     1     -10.743  11.023  67.771  1.00  0.00    -0.270 A  
HETATM   18  C   UNL     1     -10.666  12.135  66.919  1.00  0.00    -0.271 A  
HETATM   19  C   UNL     1     -11.165  13.377  67.319  1.00  0.00    -0.319 A  
HETATM   20  C   UNL     1     -11.744  13.521  68.578  1.00  0.00    -0.357 A  
HETATM   21  C   UNL     1     -11.376  11.176  69.018  1.00  0.00    -0.343 A  
HETATM   22  C   UNL     1     -11.876  12.418  69.418  1.00  0.00    -0.365 A  
BRANCH  20  23
HETATM   23  N   UNL     1     -12.204  14.804  68.988  1.00  0.00    -0.564 N  
HETATM   24  H   UNL     1     -13.165  15.100  68.812  1.00  0.00     0.000 HD 
BRANCH  23  25
HETATM   25  S   UNL     1     -11.111  15.819  69.777  1.00  0.00    -0.355 S  
HETATM   26  C   UNL     1     -10.860  17.083  68.549  1.00  0.00    -0.310 C  
HETATM   27  O   UNL     1      -9.884  15.059  69.877  1.00  0.00    -0.110 OA 
HETATM   28  O   UNL     1     -11.726  16.404  70.948  1.00  0.00    -0.315 OA 
ENDBRANCH  23  25
ENDBRANCH  20  23
ENDBRANCH  14  17
ENDBRANCH  13  14
ENDBRANCH  12  13
ENDBRANCH  11  12
ENDBRANCH   8  11
ENDBRANCH   7   8
ENDBRANCH   6   7
ENDBRANCH   5   6
ENDBRANCH   4   5
ENDBRANCH   3   4
ENDBRANCH   2   3
TORSDOF 14
ENDMDL
MODEL      183
REMARK 921   NORMALIZED FREE ENERGY PREDICTED BY IDOCK:   -3.62 KCAL/MOL
REMARK 922        TOTAL FREE ENERGY PREDICTED BY IDOCK:   -8.44 KCAL/MOL
REMARK 923 INTER-LIGAND FREE ENERGY PREDICTED BY IDOCK:   -6.92 KCAL/MOL
REMARK 924 INTRA-LIGAND FREE ENERGY PREDICTED BY IDOCK:   -1.53 KCAL/MOL
REMARK 927      BINDING AFFINITY PREDICTED BY RF-SCORE:    0.00 PKD
ROOT
HETATM    1  C   UNL     1     -10.963   6.374  67.149  1.00  0.00    -0.476 C  
HETATM    2  C   UNL     1     -10.293   6.067  68.475  1.00  0.00    -0.254 C  
ENDROOT
BRANCH   2   3
HETATM    3  C   UNL     1      -8.782   6.279  68.398  1.00  0.00    -0.116 C  
BRANCH   3   4
HETATM    4  C   UNL     1      -8.050   4.996  68.772  1.00  0.00    -0.084 C  
BRANCH   4   5
HETATM    5  C   UNL     1      -9.004   3.811  68.906  1.00  0.00    -0.178 C  
BRANCH   5   6
HETATM    6  C   UNL     1      -8.582   2.954  70.097  1.00  0.00    -0.111 C  
BRANCH   6   7
HETATM    7  C   UNL     1      -9.741   2.724  71.069  1.00  0.00    -0.090 C  
BRANCH   7   8
HETATM    8  N   UNL     1      -9.640   3.530  72.299  1.00  0.00    -0.133 NA 
BRANCH   8   9
HETATM    9  C   UNL     1      -8.354   3.394  73.005  1.00  0.00    -0.081 C  
HETATM   10  C   UNL     1      -7.687   4.691  73.456  1.00  0.00    -0.091 C  
ENDBRANCH   8   9
BRANCH   8  11
HETATM   11  C   UNL     1      -9.975   4.946  72.062  1.00  0.00    -0.187 C  
BRANCH  11  12
HETATM   12  C   UNL     1     -11.334   5.383  72.632  1.00  0.00    -0.327 C  
BRANCH  12  13
HETATM   13  C   UNL     1     -11.932   6.575  71.876  1.00  0.00    -0.389 C  
BRANCH  13  14
HETATM   14  C   UNL     1     -11.897   7.867  72.704  1.00  0.00    -0.297 C  
HETATM   15  H   UNL     1     -10.785   8.638  74.134  1.00  0.00     0.000 HD 
HETATM   16  O   UNL     1     -10.807   7.839  73.621  1.00  0.00    -0.259 OA 
BRANCH  14  17
HETATM   17  C   UNL     1     -11.799   9.096  71.820  1.00  0.00    -0.453 A  
HETATM   18  C   UNL     1     -10.661   9.293  71.025  1.00  0.00    -0.386 A  
HETATM   19  C   UNL     1     -10.514  10.452  70.261  1.00  0.00    -0.110 A  
HETATM   20  C   UNL     1     -11.504  11.431  70.287  1.00  0.00    -0.151 A  
HETATM   21  C   UNL     1     -12.811  10.073  71.795  1.00  0.00    -0.546 A  
HETATM   22  C   UNL     1     -12.666  11.234  71.029  1.00  0.00    -0.457 A  
BRANCH  20  23
HETATM   23  N   UNL     1     -11.318  12.629  69.540  1.00  0.00    -0.448 N  
HETATM   24  H   UNL     1     -11.130  13.517  70.006  1.00  0.00     0.000 HD 
BRANCH  23  25
HETATM   25  S   UNL     1     -11.418  12.532  67.857  1.00  0.00    -0.335 S  
HETATM   26  C   UNL     1      -9.709  12.294  67.419  1.00  0.00    -0.185 C  
HETATM   27  O   UNL     1     -11.800  13.856  67.418  1.00  0.00    -0.360 OA 
HETATM   28  O   UNL     1     -12.180  11.366  67.468  1.00  0.00    -0.412 OA 
ENDBRANCH  23  25
ENDBRANCH  20  23
ENDBRANCH  14  17
ENDBRANCH  13  14
ENDBRANCH  12  13
ENDBRANCH  11  12
ENDBRANCH   8  11
ENDBRANCH   7   8
ENDBRANCH   6   7
ENDBRANCH   5   6
ENDBRANCH   4   5
ENDBRANCH   3   4
ENDBRANCH   2   3
TORSDOF 14
ENDMDL
MODEL      184
REMARK 921   NORMALIZED FREE ENERGY PREDICTED BY IDOCK:   -3.62 KCAL/MOL
REMARK 922        TOTAL FREE ENERGY PREDICTED BY IDOCK:   -8.44 KCAL/MOL
REMARK 923 INTER-LIGAND FREE ENERGY PREDICTED BY IDOCK:   -7.57 KCAL/MOL
REMARK 924 INTRA-LIGAND FREE ENERGY PREDICTED BY IDOCK:   -0.87 KCAL/MOL
REMARK 927      BINDING AFFINITY PREDICTED BY RF-SCORE:    0.00 PKD
ROOT
HETATM    1  C   UNL     1     -10.761  19.459  65.534  1.00  0.00    -0.244 C  
HETATM    2  C   UNL     1      -9.680  20.212  66.286  1.00  0.00    -0.515 C  
ENDROOT
BRANCH   2   3
HETATM    3  C   UNL     1     -10.027  20.355  67.767  1.00  0.00    -0.477 C  
BRANCH   3   4
HETATM    4  C   UNL     1      -9.306  19.289  68.582  1.00  0.00    -0.446 C  
BRANCH   4   5
HETATM    5  C   UNL     1     -10.243  18.163  69.010  1.00  0.00    -0.237 C  
BRANCH   5   6
HETATM    6  C   UNL     1     -10.040  16.961  68.092  1.00  0.00    -0.299 C  
BRANCH   6   7
HETATM    7  C   UNL     1     -11.213  15.981  68.173  1.00  0.00    -0.325 C  
BRANCH   7   8
HETATM    8  N   UNL     1     -11.167  14.929  67.141  1.00  0.00    -0.336 NA 
BRANCH   8   9
HETATM    9  C   UNL     1     -10.421  15.308  65.927  1.00  0.00    -0.331 C  
HETATM   10  C   UNL     1     -11.189  15.233  64.610  1.00  0.00    -0.366 C  
ENDBRANCH   8   9
BRANCH   8  11
HETATM   11  C   UNL     1     -10.693  13.642  67.683  1.00  0.00    -0.245 C  
BRANCH  11  12
HETATM   12  C   UNL     1      -9.199  13.611  68.039  1.00  0.00    -0.197 C  
BRANCH  12  13
HETATM   13  C   UNL     1      -8.644  12.185  68.119  1.00  0.00    -0.177 C  
BRANCH  13  14
HETATM   14  C   UNL     1      -9.747  11.124  68.006  1.00  0.00    -0.176 C  
HETATM   15  H   UNL     1     -10.109   9.522  66.918  1.00  0.00     0.000 HD 
HETATM   16  O   UNL     1      -9.426  10.179  66.988  1.00  0.00    -0.161 OA 
BRANCH  14  17
HETATM   17  C   UNL     1      -9.973  10.408  69.324  1.00  0.00    -0.246 A  
HETATM   18  C   UNL     1      -8.961   9.597  69.858  1.00  0.00    -0.243 A  
HETATM   19  C   UNL     1      -9.172   8.869  71.032  1.00  0.00    -0.307 A  
HETATM   20  C   UNL     1     -10.401   8.942  71.682  1.00  0.00    -0.345 A  
HETATM   21  C   UNL     1     -11.191  10.507  70.023  1.00  0.00    -0.386 A  
HETATM   22  C   UNL     1     -11.402   9.780  71.198  1.00  0.00    -0.459 A  
BRANCH  20  23
HETATM   23  N   UNL     1     -10.617   8.157  72.850  1.00  0.00    -0.327 N  
HETATM   24  H   UNL     1     -10.640   8.585  73.776  1.00  0.00     0.000 HD 
BRANCH  23  25
HETATM   25  S   UNL     1     -10.833   6.494  72.655  1.00  0.00    -0.258 S  
HETATM   26  C   UNL     1     -12.553   6.417  72.201  1.00  0.00    -0.054 C  
HETATM   27  O   UNL     1     -10.707   5.931  73.981  1.00  0.00    -0.239 OA 
HETATM   28  O   UNL     1     -10.026   6.011  71.556  1.00  0.00    -0.174 OA 
ENDBRANCH  23  25
ENDBRANCH  20  23
ENDBRANCH  14  17
ENDBRANCH  13  14
ENDBRANCH  12  13
ENDBRANCH  11  12
ENDBRANCH   8  11
ENDBRANCH   7   8
ENDBRANCH   6   7
ENDBRANCH   5   6
ENDBRANCH   4   5
ENDBRANCH   3   4
ENDBRANCH   2   3
TORSDOF 14
ENDMDL
MODEL      185
REMARK 921   NORMALIZED FREE ENERGY PREDICTED BY IDOCK:   -3.62 KCAL/MOL
REMARK 922        TOTAL FREE ENERGY PREDICTED BY IDOCK:   -8.43 KCAL/MOL
REMARK 923 INTER-LIGAND FREE ENERGY PREDICTED BY IDOCK:   -7.40 KCAL/MOL
REMARK 924 INTRA-LIGAND FREE ENERGY PREDICTED BY IDOCK:   -1.04 KCAL/MOL
REMARK 927      BINDING AFFINITY PREDICTED BY RF-SCORE:    0.00 PKD
ROOT
HETATM    1  C   UNL     1     -10.813   2.799  62.806  1.00  0.00    -0.189 C  
HETATM    2  C   UNL     1      -9.923   3.131  63.989  1.00  0.00    -0.169 C  
ENDROOT
BRANCH   2   3
HETATM    3  C   UNL     1     -10.442   4.350  64.750  1.00  0.00    -0.088 C  
BRANCH   3   4
HETATM    4  C   UNL     1     -10.043   4.262  66.218  1.00  0.00    -0.196 C  
BRANCH   4   5
HETATM    5  C   UNL     1      -9.610   5.615  66.776  1.00  0.00    -0.159 C  
BRANCH   5   6
HETATM    6  C   UNL     1     -10.831   6.353  67.317  1.00  0.00    -0.463 C  
BRANCH   6   7
HETATM    7  C   UNL     1     -11.113   5.989  68.777  1.00  0.00    -0.254 C  
BRANCH   7   8
HETATM    8  N   UNL     1     -11.234   7.165  69.658  1.00  0.00    -0.178 NA 
BRANCH   8   9
HETATM    9  C   UNL     1     -11.641   6.845  71.038  1.00  0.00    -0.328 C  
HETATM   10  C   UNL     1     -13.012   7.353  71.476  1.00  0.00    -0.421 C  
ENDBRANCH   8   9
BRANCH   8  11
HETATM   11  C   UNL     1     -10.021   8.002  69.635  1.00  0.00    -0.188 C  
BRANCH  11  12
HETATM   12  C   UNL     1     -10.290   9.512  69.540  1.00  0.00    -0.229 C  
BRANCH  12  13
HETATM   13  C   UNL     1     -10.166  10.042  68.107  1.00  0.00    -0.205 C  
BRANCH  13  14
HETATM   14  C   UNL     1     -11.402  10.840  67.673  1.00  0.00    -0.252 C  
HETATM   15  H   UNL     1     -13.123  11.384  68.460  1.00  0.00     0.000 HD 
HETATM   16  O   UNL     1     -12.358  10.890  68.728  1.00  0.00    -0.495 OA 
BRANCH  14  17
HETATM   17  C   UNL     1     -11.036  12.247  67.238  1.00  0.00    -0.326 A  
HETATM   18  C   UNL     1     -11.821  13.331  67.658  1.00  0.00    -0.400 A  
HETATM   19  C   UNL     1     -11.549  14.626  67.210  1.00  0.00    -0.404 A  
HETATM   20  C   UNL     1     -10.491  14.851  66.334  1.00  0.00    -0.299 A  
HETATM   21  C   UNL     1      -9.941  12.501  66.392  1.00  0.00    -0.262 A  
HETATM   22  C   UNL     1      -9.668  13.796  65.945  1.00  0.00    -0.217 A  
BRANCH  20  23
HETATM   23  N   UNL     1     -10.257  16.169  65.850  1.00  0.00    -0.341 N  
HETATM   24  H   UNL     1     -10.700  16.502  64.994  1.00  0.00     0.000 HD 
BRANCH  23  25
HETATM   25  S   UNL     1      -9.221  17.162  66.738  1.00  0.00    -0.264 S  
HETATM   26  C   UNL     1     -10.370  18.330  67.435  1.00  0.00    -0.392 C  
HETATM   27  O   UNL     1      -8.426  17.866  65.755  1.00  0.00    -0.513 OA 
HETATM   28  O   UNL     1      -8.597  16.410  67.804  1.00  0.00    -0.167 OA 
ENDBRANCH  23  25
ENDBRANCH  20  23
ENDBRANCH  14  17
ENDBRANCH  13  14
ENDBRANCH  12  13
ENDBRANCH  11  12
ENDBRANCH   8  11
ENDBRANCH   7   8
ENDBRANCH   6   7
ENDBRANCH   5   6
ENDBRANCH   4   5
ENDBRANCH   3   4
ENDBRANCH   2   3
TORSDOF 14
ENDMDL
MODEL      186
REMARK 921   NORMALIZED FREE ENERGY PREDICTED BY IDOCK:   -3.62 KCAL/MOL
REMARK 922        TOTAL FREE ENERGY PREDICTED BY IDOCK:   -8.43 KCAL/MOL
REMARK 923 INTER-LIGAND FREE ENERGY PREDICTED BY IDOCK:   -6.50 KCAL/MOL
REMARK 924 INTRA-LIGAND FREE ENERGY PREDICTED BY IDOCK:   -1.93 KCAL/MOL
REMARK 927      BINDING AFFINITY PREDICTED BY RF-SCORE:    0.00 PKD
ROOT
HETATM    1  C   UNL     1      -9.050  10.993  62.649  1.00  0.00    -0.375 C  
HETATM    2  C   UNL     1     -10.093  11.811  63.386  1.00  0.00    -0.470 C  
ENDROOT
BRANCH   2   3
HETATM    3  C   UNL     1     -10.727  11.012  64.522  1.00  0.00    -0.335 C  
BRANCH   3   4
HETATM    4  C   UNL     1     -11.624  11.912  65.363  1.00  0.00    -0.284 C  
BRANCH   4   5
HETATM    5  C   UNL     1     -11.898  13.248  64.678  1.00  0.00    -0.420 C  
BRANCH   5   6
HETATM    6  C   UNL     1     -12.282  14.286  65.730  1.00  0.00    -0.415 C  
BRANCH   6   7
HETATM    7  C   UNL     1     -12.119  13.741  67.150  1.00  0.00    -0.378 C  
BRANCH   7   8
HETATM    8  N   UNL     1     -11.713  14.768  68.126  1.00  0.00    -0.333 NA 
BRANCH   8   9
HETATM    9  C   UNL     1     -11.883  14.364  69.533  1.00  0.00    -0.329 C  
HETATM   10  C   UNL     1     -11.741  15.469  70.578  1.00  0.00    -0.377 C  
ENDBRANCH   8   9
BRANCH   8  11
HETATM   11  C   UNL     1     -10.349  15.267  67.872  1.00  0.00    -0.246 C  
BRANCH  11  12
HETATM   12  C   UNL     1      -9.228  14.314  68.317  1.00  0.00    -0.197 C  
BRANCH  12  13
HETATM   13  C   UNL     1      -8.605  13.552  67.142  1.00  0.00    -0.203 C  
BRANCH  13  14
HETATM   14  C   UNL     1      -7.431  12.666  67.581  1.00  0.00    -0.143 C  
HETATM   15  H   UNL     1      -6.036  12.696  68.971  1.00  0.00     0.000 HD 
HETATM   16  O   UNL     1      -6.763  13.245  68.699  1.00  0.00    -0.082 OA 
BRANCH  14  17
HETATM   17  C   UNL     1      -7.887  11.259  67.921  1.00  0.00    -0.116 A  
HETATM   18  C   UNL     1      -7.911  10.840  69.260  1.00  0.00    -0.124 A  
HETATM   19  C   UNL     1      -8.255   9.528  69.592  1.00  0.00    -0.143 A  
HETATM   20  C   UNL     1      -8.575   8.618  68.588  1.00  0.00    -0.131 A  
HETATM   21  C   UNL     1      -8.261  10.340  66.925  1.00  0.00    -0.123 A  
HETATM   22  C   UNL     1      -8.607   9.027  67.256  1.00  0.00    -0.115 A  
BRANCH  20  23
HETATM   23  N   UNL     1      -8.877   7.272  68.939  1.00  0.00    -0.128 N  
HETATM   24  H   UNL     1      -8.135   6.586  69.081  1.00  0.00     0.000 HD 
BRANCH  23  25
HETATM   25  S   UNL     1     -10.501   6.848  69.113  1.00  0.00    -0.217 S  
HETATM   26  C   UNL     1     -10.366   5.292  69.968  1.00  0.00    -0.295 C  
HETATM   27  O   UNL     1     -10.972   6.569  67.774  1.00  0.00    -0.296 OA 
HETATM   28  O   UNL     1     -11.180   7.803  69.961  1.00  0.00    -0.224 OA 
ENDBRANCH  23  25
ENDBRANCH  20  23
ENDBRANCH  14  17
ENDBRANCH  13  14
ENDBRANCH  12  13
ENDBRANCH  11  12
ENDBRANCH   8  11
ENDBRANCH   7   8
ENDBRANCH   6   7
ENDBRANCH   5   6
ENDBRANCH   4   5
ENDBRANCH   3   4
ENDBRANCH   2   3
TORSDOF 14
ENDMDL
MODEL      187
REMARK 921   NORMALIZED FREE ENERGY PREDICTED BY IDOCK:   -3.61 KCAL/MOL
REMARK 922        TOTAL FREE ENERGY PREDICTED BY IDOCK:   -8.41 KCAL/MOL
REMARK 923 INTER-LIGAND FREE ENERGY PREDICTED BY IDOCK:   -6.89 KCAL/MOL
REMARK 924 INTRA-LIGAND FREE ENERGY PREDICTED BY IDOCK:   -1.52 KCAL/MOL
REMARK 927      BINDING AFFINITY PREDICTED BY RF-SCORE:    0.00 PKD
ROOT
HETATM    1  C   UNL     1     -10.031   9.378  70.483  1.00  0.00    -0.328 C  
HETATM    2  C   UNL     1      -9.186  10.135  69.476  1.00  0.00    -0.223 C  
ENDROOT
BRANCH   2   3
HETATM    3  C   UNL     1      -7.696  10.009  69.792  1.00  0.00    -0.173 C  
BRANCH   3   4
HETATM    4  C   UNL     1      -7.299   8.540  69.877  1.00  0.00    -0.055 C  
BRANCH   4   5
HETATM    5  C   UNL     1      -6.764   8.015  68.547  1.00  0.00    -0.066 C  
BRANCH   5   6
HETATM    6  C   UNL     1      -7.661   6.881  68.055  1.00  0.00    -0.113 C  
BRANCH   6   7
HETATM    7  C   UNL     1      -7.835   6.915  66.535  1.00  0.00    -0.106 C  
BRANCH   7   8
HETATM    8  N   UNL     1      -9.105   7.531  66.107  1.00  0.00    -0.163 NA 
BRANCH   8   9
HETATM    9  C   UNL     1     -10.172   7.479  67.122  1.00  0.00    -0.280 C  
HETATM   10  C   UNL     1     -11.102   6.269  67.066  1.00  0.00    -0.379 C  
ENDBRANCH   8   9
BRANCH   8  11
HETATM   11  C   UNL     1      -8.913   8.902  65.600  1.00  0.00    -0.201 C  
BRANCH  11  12
HETATM   12  C   UNL     1     -10.104   9.843  65.839  1.00  0.00    -0.316 C  
BRANCH  12  13
HETATM   13  C   UNL     1      -9.671  11.301  66.032  1.00  0.00    -0.253 C  
BRANCH  13  14
HETATM   14  C   UNL     1     -10.587  12.283  65.288  1.00  0.00    -0.287 C  
HETATM   15  H   UNL     1     -12.520  12.530  65.008  1.00  0.00     0.000 HD 
HETATM   16  O   UNL     1     -11.953  11.922  65.468  1.00  0.00    -0.399 OA 
BRANCH  14  17
HETATM   17  C   UNL     1     -10.363  13.712  65.746  1.00  0.00    -0.304 A  
HETATM   18  C   UNL     1      -9.685  13.960  66.948  1.00  0.00    -0.268 A  
HETATM   19  C   UNL     1      -9.533  15.263  67.428  1.00  0.00    -0.200 A  
HETATM   20  C   UNL     1     -10.062  16.333  66.712  1.00  0.00    -0.278 A  
HETATM   21  C   UNL     1     -10.847  14.810  65.011  1.00  0.00    -0.440 A  
HETATM   22  C   UNL     1     -10.694  16.114  65.490  1.00  0.00    -0.355 A  
BRANCH  20  23
HETATM   23  N   UNL     1      -9.940  17.650  67.238  1.00  0.00    -0.310 N  
HETATM   24  H   UNL     1     -10.688  18.068  67.792  1.00  0.00     0.000 HD 
BRANCH  23  25
HETATM   25  S   UNL     1      -8.517  18.499  66.916  1.00  0.00    -0.281 S  
HETATM   26  C   UNL     1      -9.157  20.106  66.494  1.00  0.00    -0.307 C  
HETATM   27  O   UNL     1      -7.983  17.911  65.708  1.00  0.00    -0.540 OA 
HETATM   28  O   UNL     1      -7.715  18.604  68.115  1.00  0.00    -0.264 OA 
ENDBRANCH  23  25
ENDBRANCH  20  23
ENDBRANCH  14  17
ENDBRANCH  13  14
ENDBRANCH  12  13
ENDBRANCH  11  12
ENDBRANCH   8  11
ENDBRANCH   7   8
ENDBRANCH   6   7
ENDBRANCH   5   6
ENDBRANCH   4   5
ENDBRANCH   3   4
ENDBRANCH   2   3
TORSDOF 14
ENDMDL
MODEL      188
REMARK 921   NORMALIZED FREE ENERGY PREDICTED BY IDOCK:   -3.59 KCAL/MOL
REMARK 922        TOTAL FREE ENERGY PREDICTED BY IDOCK:   -8.38 KCAL/MOL
REMARK 923 INTER-LIGAND FREE ENERGY PREDICTED BY IDOCK:   -6.94 KCAL/MOL
REMARK 924 INTRA-LIGAND FREE ENERGY PREDICTED BY IDOCK:   -1.44 KCAL/MOL
REMARK 927      BINDING AFFINITY PREDICTED BY RF-SCORE:    0.00 PKD
ROOT
HETATM    1  C   UNL     1      -8.924   4.344  64.489  1.00  0.00    -0.151 C  
HETATM    2  C   UNL     1      -9.224   3.720  65.839  1.00  0.00    -0.159 C  
ENDROOT
BRANCH   2   3
HETATM    3  C   UNL     1      -8.024   3.820  66.778  1.00  0.00    -0.095 C  
BRANCH   3   4
HETATM    4  C   UNL     1      -7.369   5.191  66.652  1.00  0.00    -0.086 C  
BRANCH   4   5
HETATM    5  C   UNL     1      -7.060   5.805  68.014  1.00  0.00    -0.071 C  
BRANCH   5   6
HETATM    6  C   UNL     1      -7.501   4.842  69.114  1.00  0.00    -0.053 C  
BRANCH   6   7
HETATM    7  C   UNL     1      -8.241   5.568  70.240  1.00  0.00    -0.103 C  
BRANCH   7   8
HETATM    8  N   UNL     1      -9.212   6.564  69.752  1.00  0.00    -0.145 NA 
BRANCH   8   9
HETATM    9  C   UNL     1     -10.510   5.994  69.350  1.00  0.00    -0.267 C  
HETATM   10  C   UNL     1     -10.916   6.194  67.892  1.00  0.00    -0.399 C  
ENDBRANCH   8   9
BRANCH   8  11
HETATM   11  C   UNL     1      -9.386   7.680  70.700  1.00  0.00    -0.163 C  
BRANCH  11  12
HETATM   12  C   UNL     1     -10.787   7.773  71.325  1.00  0.00    -0.255 C  
BRANCH  12  13
HETATM   13  C   UNL     1     -11.130   9.194  71.787  1.00  0.00    -0.437 C  
BRANCH  13  14
HETATM   14  C   UNL     1     -12.515   9.645  71.304  1.00  0.00    -0.355 C  
HETATM   15  H   UNL     1     -14.311   9.883  72.076  1.00  0.00     0.000 HD 
HETATM   16  O   UNL     1     -13.453   9.603  72.375  1.00  0.00    -0.432 OA 
BRANCH  14  17
HETATM   17  C   UNL     1     -12.472  11.039  70.706  1.00  0.00    -0.491 A  
HETATM   18  C   UNL     1     -12.130  11.207  69.356  1.00  0.00    -0.396 A  
HETATM   19  C   UNL     1     -12.011  12.484  68.802  1.00  0.00    -0.283 A  
HETATM   20  C   UNL     1     -12.229  13.608  69.594  1.00  0.00    -0.270 A  
HETATM   21  C   UNL     1     -12.738  12.186  71.477  1.00  0.00    -0.348 A  
HETATM   22  C   UNL     1     -12.620  13.463  70.923  1.00  0.00    -0.406 A  
BRANCH  20  23
HETATM   23  N   UNL     1     -12.057  14.902  69.027  1.00  0.00    -0.533 N  
HETATM   24  H   UNL     1     -12.662  15.232  68.275  1.00  0.00     0.000 HD 
BRANCH  23  25
HETATM   25  S   UNL     1     -10.820  15.874  69.639  1.00  0.00    -0.344 S  
HETATM   26  C   UNL     1     -10.476  16.923  68.242  1.00  0.00    -0.352 C  
HETATM   27  O   UNL     1      -9.687  14.991  69.811  1.00  0.00    -0.124 OA 
HETATM   28  O   UNL     1     -11.313  16.680  70.734  1.00  0.00    -0.226 OA 
ENDBRANCH  23  25
ENDBRANCH  20  23
ENDBRANCH  14  17
ENDBRANCH  13  14
ENDBRANCH  12  13
ENDBRANCH  11  12
ENDBRANCH   8  11
ENDBRANCH   7   8
ENDBRANCH   6   7
ENDBRANCH   5   6
ENDBRANCH   4   5
ENDBRANCH   3   4
ENDBRANCH   2   3
TORSDOF 14
ENDMDL
MODEL      189
REMARK 921   NORMALIZED FREE ENERGY PREDICTED BY IDOCK:   -3.58 KCAL/MOL
REMARK 922        TOTAL FREE ENERGY PREDICTED BY IDOCK:   -8.37 KCAL/MOL
REMARK 923 INTER-LIGAND FREE ENERGY PREDICTED BY IDOCK:   -7.24 KCAL/MOL
REMARK 924 INTRA-LIGAND FREE ENERGY PREDICTED BY IDOCK:   -1.13 KCAL/MOL
REMARK 927      BINDING AFFINITY PREDICTED BY RF-SCORE:    0.00 PKD
ROOT
HETATM    1  C   UNL     1      -9.532  19.669  66.689  1.00  0.00    -0.467 C  
HETATM    2  C   UNL     1     -10.080  19.396  68.077  1.00  0.00    -0.516 C  
ENDROOT
BRANCH   2   3
HETATM    3  C   UNL     1     -10.105  17.899  68.382  1.00  0.00    -0.385 C  
BRANCH   3   4
HETATM    4  C   UNL     1     -10.458  17.112  67.126  1.00  0.00    -0.291 C  
BRANCH   4   5
HETATM    5  C   UNL     1     -10.018  15.654  67.221  1.00  0.00    -0.236 C  
BRANCH   5   6
HETATM    6  C   UNL     1     -11.199  14.798  67.675  1.00  0.00    -0.332 C  
BRANCH   6   7
HETATM    7  C   UNL     1     -11.968  14.218  66.487  1.00  0.00    -0.427 C  
BRANCH   7   8
HETATM    8  N   UNL     1     -12.139  12.755  66.561  1.00  0.00    -0.509 NA 
BRANCH   8   9
HETATM    9  C   UNL     1     -11.576  12.024  65.412  1.00  0.00    -0.286 C  
HETATM   10  C   UNL     1     -11.705  12.700  64.050  1.00  0.00    -0.496 C  
ENDBRANCH   8   9
BRANCH   8  11
HETATM   11  C   UNL     1     -11.653  12.204  67.839  1.00  0.00    -0.347 C  
BRANCH  11  12
HETATM   12  C   UNL     1     -11.241  10.725  67.780  1.00  0.00    -0.385 C  
BRANCH  12  13
HETATM   13  C   UNL     1      -9.942  10.446  68.545  1.00  0.00    -0.179 C  
BRANCH  13  14
HETATM   14  C   UNL     1      -9.954   9.072  69.230  1.00  0.00    -0.188 C  
HETATM   15  H   UNL     1     -11.133   8.076  70.453  1.00  0.00     0.000 HD 
HETATM   16  O   UNL     1     -11.125   8.926  70.029  1.00  0.00    -0.237 OA 
BRANCH  14  17
HETATM   17  C   UNL     1      -9.869   7.942  68.222  1.00  0.00    -0.187 A  
HETATM   18  C   UNL     1      -8.681   7.738  67.504  1.00  0.00    -0.125 A  
HETATM   19  C   UNL     1      -8.603   6.753  66.517  1.00  0.00    -0.128 A  
HETATM   20  C   UNL     1      -9.714   5.963  66.234  1.00  0.00    -0.096 A  
HETATM   21  C   UNL     1     -10.965   7.101  67.956  1.00  0.00    -0.127 A  
HETATM   22  C   UNL     1     -10.887   6.114  66.969  1.00  0.00    -0.435 A  
BRANCH  20  23
HETATM   23  N   UNL     1      -9.632   4.996  65.193  1.00  0.00    -0.353 N  
HETATM   24  H   UNL     1     -10.037   5.176  64.274  1.00  0.00     0.000 HD 
BRANCH  23  25
HETATM   25  S   UNL     1      -8.844   3.541  65.527  1.00  0.00    -0.133 S  
HETATM   26  C   UNL     1      -9.500   2.487  64.252  1.00  0.00    -0.138 C  
HETATM   27  O   UNL     1      -9.388   3.090  66.789  1.00  0.00    -0.161 OA 
HETATM   28  O   UNL     1      -7.418   3.691  65.338  1.00  0.00    -0.074 OA 
ENDBRANCH  23  25
ENDBRANCH  20  23
ENDBRANCH  14  17
ENDBRANCH  13  14
ENDBRANCH  12  13
ENDBRANCH  11  12
ENDBRANCH   8  11
ENDBRANCH   7   8
ENDBRANCH   6   7
ENDBRANCH   5   6
ENDBRANCH   4   5
ENDBRANCH   3   4
ENDBRANCH   2   3
TORSDOF 14
ENDMDL
MODEL      190
REMARK 921   NORMALIZED FREE ENERGY PREDICTED BY IDOCK:   -3.57 KCAL/MOL
REMARK 922        TOTAL FREE ENERGY PREDICTED BY IDOCK:   -8.35 KCAL/MOL
REMARK 923 INTER-LIGAND FREE ENERGY PREDICTED BY IDOCK:   -7.23 KCAL/MOL
REMARK 924 INTRA-LIGAND FREE ENERGY PREDICTED BY IDOCK:   -1.12 KCAL/MOL
REMARK 927      BINDING AFFINITY PREDICTED BY RF-SCORE:    0.00 PKD
ROOT
HETATM    1  C   UNL     1     -13.745  13.455  72.356  1.00  0.00    -0.698 C  
HETATM    2  C   UNL     1     -12.793  13.634  71.188  1.00  0.00    -0.399 C  
ENDROOT
BRANCH   2   3
HETATM    3  C   UNL     1     -12.762  15.085  70.712  1.00  0.00    -0.438 C  
BRANCH   3   4
HETATM    4  C   UNL     1     -11.566  15.312  69.796  1.00  0.00    -0.335 C  
BRANCH   4   5
HETATM    5  C   UNL     1     -11.991  15.759  68.399  1.00  0.00    -0.039 C  
BRANCH   5   6
HETATM    6  C   UNL     1     -12.140  14.533  67.501  1.00  0.00    -0.284 C  
BRANCH   6   7
HETATM    7  C   UNL     1     -11.008  13.527  67.723  1.00  0.00    -0.266 C  
BRANCH   7   8
HETATM    8  N   UNL     1      -9.786  13.847  66.964  1.00  0.00    -0.243 NA 
BRANCH   8   9
HETATM    9  C   UNL     1      -8.546  13.763  67.756  1.00  0.00    -0.184 C  
HETATM   10  C   UNL     1      -7.449  14.766  67.406  1.00  0.00    -0.221 C  
ENDBRANCH   8   9
BRANCH   8  11
HETATM   11  C   UNL     1      -9.683  13.062  65.721  1.00  0.00    -0.145 C  
BRANCH  11  12
HETATM   12  C   UNL     1      -9.114  11.647  65.905  1.00  0.00    -0.155 C  
BRANCH  12  13
HETATM   13  C   UNL     1     -10.050  10.562  65.358  1.00  0.00    -0.358 C  
BRANCH  13  14
HETATM   14  C   UNL     1      -9.841   9.209  66.052  1.00  0.00    -0.272 C  
HETATM   15  H   UNL     1      -8.419   7.852  66.179  1.00  0.00     0.000 HD 
HETATM   16  O   UNL     1      -8.549   8.690  65.749  1.00  0.00    -0.143 OA 
BRANCH  14  17
HETATM   17  C   UNL     1     -10.016   9.318  67.555  1.00  0.00    -0.254 A  
HETATM   18  C   UNL     1      -9.131   8.643  68.410  1.00  0.00    -0.138 A  
HETATM   19  C   UNL     1      -9.316   8.667  69.794  1.00  0.00    -0.165 A  
HETATM   20  C   UNL     1     -10.392   9.363  70.339  1.00  0.00    -0.262 A  
HETATM   21  C   UNL     1     -11.068  10.057  68.128  1.00  0.00    -0.252 A  
HETATM   22  C   UNL     1     -11.253  10.081  69.513  1.00  0.00    -0.254 A  
BRANCH  20  23
HETATM   23  N   UNL     1     -10.594   9.337  71.748  1.00  0.00    -0.315 N  
HETATM   24  H   UNL     1     -10.041   9.927  72.370  1.00  0.00     0.000 HD 
BRANCH  23  25
HETATM   25  S   UNL     1     -11.779   8.299  72.356  1.00  0.00    -0.381 S  
HETATM   26  C   UNL     1     -12.032   7.209  70.972  1.00  0.00    -0.347 C  
HETATM   27  O   UNL     1     -12.968   9.111  72.495  1.00  0.00    -0.407 OA 
HETATM   28  O   UNL     1     -11.255   7.543  73.472  1.00  0.00    -0.271 OA 
ENDBRANCH  23  25
ENDBRANCH  20  23
ENDBRANCH  14  17
ENDBRANCH  13  14
ENDBRANCH  12  13
ENDBRANCH  11  12
ENDBRANCH   8  11
ENDBRANCH   7   8
ENDBRANCH   6   7
ENDBRANCH   5   6
ENDBRANCH   4   5
ENDBRANCH   3   4
ENDBRANCH   2   3
TORSDOF 14
ENDMDL
MODEL      191
REMARK 921   NORMALIZED FREE ENERGY PREDICTED BY IDOCK:   -3.57 KCAL/MOL
REMARK 922        TOTAL FREE ENERGY PREDICTED BY IDOCK:   -8.34 KCAL/MOL
REMARK 923 INTER-LIGAND FREE ENERGY PREDICTED BY IDOCK:   -7.26 KCAL/MOL
REMARK 924 INTRA-LIGAND FREE ENERGY PREDICTED BY IDOCK:   -1.08 KCAL/MOL
REMARK 927      BINDING AFFINITY PREDICTED BY RF-SCORE:    0.00 PKD
ROOT
HETATM    1  C   UNL     1      -9.571   7.962  73.334  1.00  0.00    -0.331 C  
HETATM    2  C   UNL     1     -10.378   8.366  72.114  1.00  0.00    -0.397 C  
ENDROOT
BRANCH   2   3
HETATM    3  C   UNL     1      -9.489   8.986  71.038  1.00  0.00    -0.342 C  
BRANCH   3   4
HETATM    4  C   UNL     1      -8.022   8.698  71.337  1.00  0.00    -0.174 C  
BRANCH   4   5
HETATM    5  C   UNL     1      -7.187   8.600  70.063  1.00  0.00    -0.051 C  
BRANCH   5   6
HETATM    6  C   UNL     1      -7.523   7.299  69.337  1.00  0.00    -0.092 C  
BRANCH   6   7
HETATM    7  C   UNL     1      -7.504   7.476  67.818  1.00  0.00    -0.101 C  
BRANCH   7   8
HETATM    8  N   UNL     1      -8.655   6.849  67.143  1.00  0.00    -0.120 NA 
BRANCH   8   9
HETATM    9  C   UNL     1      -9.452   5.963  68.010  1.00  0.00    -0.108 C  
HETATM   10  C   UNL     1     -10.350   4.951  67.303  1.00  0.00    -0.154 C  
ENDBRANCH   8   9
BRANCH   8  11
HETATM   11  C   UNL     1      -9.506   7.840  66.461  1.00  0.00    -0.201 C  
BRANCH  11  12
HETATM   12  C   UNL     1     -10.365   8.699  67.403  1.00  0.00    -0.353 C  
BRANCH  12  13
HETATM   13  C   UNL     1     -10.105  10.199  67.231  1.00  0.00    -0.254 C  
BRANCH  13  14
HETATM   14  C   UNL     1     -11.401  11.022  67.262  1.00  0.00    -0.188 C  
HETATM   15  H   UNL     1     -12.748  11.549  68.597  1.00  0.00     0.000 HD 
HETATM   16  O   UNL     1     -11.946  11.040  68.578  1.00  0.00    -0.535 OA 
BRANCH  14  17
HETATM   17  C   UNL     1     -11.176  12.440  66.774  1.00  0.00    -0.363 A  
HETATM   18  C   UNL     1     -11.918  13.494  67.330  1.00  0.00    -0.408 A  
HETATM   19  C   UNL     1     -11.782  14.797  66.846  1.00  0.00    -0.316 A  
HETATM   20  C   UNL     1     -10.905  15.061  65.797  1.00  0.00    -0.350 A  
HETATM   21  C   UNL     1     -10.258  12.736  65.748  1.00  0.00    -0.302 A  
HETATM   22  C   UNL     1     -10.122  14.040  65.265  1.00  0.00    -0.345 A  
BRANCH  20  23
HETATM   23  N   UNL     1     -10.814  16.385  65.283  1.00  0.00    -0.325 N  
HETATM   24  H   UNL     1     -11.204  16.625  64.371  1.00  0.00     0.000 HD 
BRANCH  23  25
HETATM   25  S   UNL     1     -10.041  17.548  66.232  1.00  0.00    -0.315 S  
HETATM   26  C   UNL     1      -8.365  16.948  66.221  1.00  0.00    -0.296 C  
HETATM   27  O   UNL     1     -10.562  17.362  67.569  1.00  0.00    -0.356 OA 
HETATM   28  O   UNL     1     -10.092  18.839  65.583  1.00  0.00    -0.482 OA 
ENDBRANCH  23  25
ENDBRANCH  20  23
ENDBRANCH  14  17
ENDBRANCH  13  14
ENDBRANCH  12  13
ENDBRANCH  11  12
ENDBRANCH   8  11
ENDBRANCH   7   8
ENDBRANCH   6   7
ENDBRANCH   5   6
ENDBRANCH   4   5
ENDBRANCH   3   4
ENDBRANCH   2   3
TORSDOF 14
ENDMDL
MODEL      192
REMARK 921   NORMALIZED FREE ENERGY PREDICTED BY IDOCK:   -3.56 KCAL/MOL
REMARK 922        TOTAL FREE ENERGY PREDICTED BY IDOCK:   -8.32 KCAL/MOL
REMARK 923 INTER-LIGAND FREE ENERGY PREDICTED BY IDOCK:   -6.57 KCAL/MOL
REMARK 924 INTRA-LIGAND FREE ENERGY PREDICTED BY IDOCK:   -1.75 KCAL/MOL
REMARK 927      BINDING AFFINITY PREDICTED BY RF-SCORE:    0.00 PKD
ROOT
HETATM    1  C   UNL     1      -7.658   9.666  70.148  1.00  0.00    -0.165 C  
HETATM    2  C   UNL     1      -7.313  10.542  68.958  1.00  0.00    -0.103 C  
ENDROOT
BRANCH   2   3
HETATM    3  C   UNL     1      -6.657   9.731  67.841  1.00  0.00    -0.061 C  
BRANCH   3   4
HETATM    4  C   UNL     1      -6.492   8.279  68.272  1.00  0.00    -0.059 C  
BRANCH   4   5
HETATM    5  C   UNL     1      -7.155   7.313  67.294  1.00  0.00    -0.091 C  
BRANCH   5   6
HETATM    6  C   UNL     1      -8.041   6.340  68.067  1.00  0.00    -0.115 C  
BRANCH   6   7
HETATM    7  C   UNL     1      -9.327   6.014  67.305  1.00  0.00    -0.113 C  
BRANCH   7   8
HETATM    8  N   UNL     1     -10.447   6.911  67.641  1.00  0.00    -0.202 NA 
BRANCH   8   9
HETATM    9  C   UNL     1     -10.501   7.303  69.061  1.00  0.00    -0.211 C  
HETATM   10  C   UNL     1     -11.294   6.385  69.988  1.00  0.00    -0.496 C  
ENDBRANCH   8   9
BRANCH   8  11
HETATM   11  C   UNL     1     -10.499   8.090  66.757  1.00  0.00    -0.248 C  
BRANCH  11  12
HETATM   12  C   UNL     1     -10.385   9.438  67.484  1.00  0.00    -0.314 C  
BRANCH  12  13
HETATM   13  C   UNL     1     -10.275  10.621  66.515  1.00  0.00    -0.288 C  
BRANCH  13  14
HETATM   14  C   UNL     1     -11.350  11.686  66.772  1.00  0.00    -0.286 C  
HETATM   15  H   UNL     1     -12.728  12.053  68.130  1.00  0.00     0.000 HD 
HETATM   16  O   UNL     1     -12.063  11.394  67.971  1.00  0.00    -0.629 OA 
BRANCH  14  17
HETATM   17  C   UNL     1     -10.751  13.078  66.852  1.00  0.00    -0.273 A  
HETATM   18  C   UNL     1     -10.857  13.945  65.754  1.00  0.00    -0.289 A  
HETATM   19  C   UNL     1     -10.250  15.203  65.776  1.00  0.00    -0.365 A  
HETATM   20  C   UNL     1      -9.525  15.606  66.894  1.00  0.00    -0.229 A  
HETATM   21  C   UNL     1     -10.056  13.523  67.992  1.00  0.00    -0.244 A  
HETATM   22  C   UNL     1      -9.449  14.781  68.014  1.00  0.00    -0.204 A  
BRANCH  20  23
HETATM   23  N   UNL     1      -8.872  16.870  66.881  1.00  0.00    -0.215 N  
HETATM   24  H   UNL     1      -7.942  16.979  66.476  1.00  0.00     0.000 HD 
BRANCH  23  25
HETATM   25  S   UNL     1      -9.687  18.186  67.557  1.00  0.00    -0.313 S  
HETATM   26  C   UNL     1     -10.425  18.919  66.112  1.00  0.00    -0.457 C  
HETATM   27  O   UNL     1      -8.651  19.083  68.020  1.00  0.00    -0.285 OA 
HETATM   28  O   UNL     1     -10.730  17.725  68.446  1.00  0.00    -0.316 OA 
ENDBRANCH  23  25
ENDBRANCH  20  23
ENDBRANCH  14  17
ENDBRANCH  13  14
ENDBRANCH  12  13
ENDBRANCH  11  12
ENDBRANCH   8  11
ENDBRANCH   7   8
ENDBRANCH   6   7
ENDBRANCH   5   6
ENDBRANCH   4   5
ENDBRANCH   3   4
ENDBRANCH   2   3
TORSDOF 14
ENDMDL
MODEL      193
REMARK 921   NORMALIZED FREE ENERGY PREDICTED BY IDOCK:   -3.56 KCAL/MOL
REMARK 922        TOTAL FREE ENERGY PREDICTED BY IDOCK:   -8.32 KCAL/MOL
REMARK 923 INTER-LIGAND FREE ENERGY PREDICTED BY IDOCK:   -7.66 KCAL/MOL
REMARK 924 INTRA-LIGAND FREE ENERGY PREDICTED BY IDOCK:   -0.66 KCAL/MOL
REMARK 927      BINDING AFFINITY PREDICTED BY RF-SCORE:    0.00 PKD
ROOT
HETATM    1  C   UNL     1     -10.418  19.905  65.844  1.00  0.00    -0.567 C  
HETATM    2  C   UNL     1      -9.450  19.735  67.000  1.00  0.00    -0.476 C  
ENDROOT
BRANCH   2   3
HETATM    3  C   UNL     1     -10.187  19.454  68.307  1.00  0.00    -0.535 C  
BRANCH   3   4
HETATM    4  C   UNL     1      -9.949  18.014  68.747  1.00  0.00    -0.380 C  
BRANCH   4   5
HETATM    5  C   UNL     1     -10.889  17.038  68.043  1.00  0.00    -0.330 C  
BRANCH   5   6
HETATM    6  C   UNL     1     -10.081  15.861  67.502  1.00  0.00    -0.247 C  
BRANCH   6   7
HETATM    7  C   UNL     1     -10.831  14.537  67.664  1.00  0.00    -0.273 C  
BRANCH   7   8
HETATM    8  N   UNL     1     -11.594  14.149  66.463  1.00  0.00    -0.359 NA 
BRANCH   8   9
HETATM    9  C   UNL     1     -10.958  14.540  65.193  1.00  0.00    -0.379 C  
HETATM   10  C   UNL     1     -11.877  15.136  64.130  1.00  0.00    -0.164 C  
ENDBRANCH   8   9
BRANCH   8  11
HETATM   11  C   UNL     1     -11.946  12.717  66.469  1.00  0.00    -0.358 C  
BRANCH  11  12
HETATM   12  C   UNL     1     -11.496  11.955  67.725  1.00  0.00    -0.389 C  
BRANCH  12  13
HETATM   13  C   UNL     1     -10.281  11.057  67.463  1.00  0.00    -0.219 C  
BRANCH  13  14
HETATM   14  C   UNL     1     -10.645   9.566  67.476  1.00  0.00    -0.275 C  
HETATM   15  H   UNL     1     -10.381   8.001  66.311  1.00  0.00     0.000 HD 
HETATM   16  O   UNL     1     -10.156   8.924  66.302  1.00  0.00    -0.293 OA 
BRANCH  14  17
HETATM   17  C   UNL     1     -10.106   8.869  68.711  1.00  0.00    -0.215 A  
HETATM   18  C   UNL     1      -9.345   9.593  69.642  1.00  0.00    -0.226 A  
HETATM   19  C   UNL     1      -8.775   8.958  70.748  1.00  0.00    -0.245 A  
HETATM   20  C   UNL     1      -8.955   7.589  70.932  1.00  0.00    -0.149 A  
HETATM   21  C   UNL     1     -10.317   7.497  68.941  1.00  0.00    -0.220 A  
HETATM   22  C   UNL     1      -9.748   6.861  70.048  1.00  0.00    -0.170 A  
BRANCH  20  23
HETATM   23  N   UNL     1      -8.327   6.948  72.037  1.00  0.00    -0.110 N  
HETATM   24  H   UNL     1      -7.585   6.262  71.896  1.00  0.00     0.000 HD 
BRANCH  23  25
HETATM   25  S   UNL     1      -8.850   7.360  73.589  1.00  0.00    -0.223 S  
HETATM   26  C   UNL     1     -10.591   7.616  73.314  1.00  0.00    -0.352 C  
HETATM   27  O   UNL     1      -8.258   8.650  73.865  1.00  0.00    -0.379 OA 
HETATM   28  O   UNL     1      -8.667   6.244  74.490  1.00  0.00    -0.129 OA 
ENDBRANCH  23  25
ENDBRANCH  20  23
ENDBRANCH  14  17
ENDBRANCH  13  14
ENDBRANCH  12  13
ENDBRANCH  11  12
ENDBRANCH   8  11
ENDBRANCH   7   8
ENDBRANCH   6   7
ENDBRANCH   5   6
ENDBRANCH   4   5
ENDBRANCH   3   4
ENDBRANCH   2   3
TORSDOF 14
ENDMDL
MODEL      194
REMARK 921   NORMALIZED FREE ENERGY PREDICTED BY IDOCK:   -3.55 KCAL/MOL
REMARK 922        TOTAL FREE ENERGY PREDICTED BY IDOCK:   -8.32 KCAL/MOL
REMARK 923 INTER-LIGAND FREE ENERGY PREDICTED BY IDOCK:   -7.02 KCAL/MOL
REMARK 924 INTRA-LIGAND FREE ENERGY PREDICTED BY IDOCK:   -1.29 KCAL/MOL
REMARK 927      BINDING AFFINITY PREDICTED BY RF-SCORE:    0.00 PKD
ROOT
HETATM    1  C   UNL     1     -10.560  18.792  66.760  1.00  0.00    -0.458 C  
HETATM    2  C   UNL     1      -9.114  18.399  66.999  1.00  0.00    -0.274 C  
ENDROOT
BRANCH   2   3
HETATM    3  C   UNL     1      -8.921  17.802  68.392  1.00  0.00    -0.281 C  
BRANCH   3   4
HETATM    4  C   UNL     1      -8.148  16.492  68.301  1.00  0.00    -0.179 C  
BRANCH   4   5
HETATM    5  C   UNL     1      -8.889  15.342  68.978  1.00  0.00    -0.231 C  
BRANCH   5   6
HETATM    6  C   UNL     1      -9.179  14.252  67.949  1.00  0.00    -0.194 C  
BRANCH   6   7
HETATM    7  C   UNL     1     -10.566  13.638  68.148  1.00  0.00    -0.247 C  
BRANCH   7   8
HETATM    8  N   UNL     1     -11.501  13.938  67.049  1.00  0.00    -0.329 NA 
BRANCH   8   9
HETATM    9  C   UNL     1     -11.236  15.217  66.365  1.00  0.00    -0.277 C  
HETATM   10  C   UNL     1     -10.985  15.142  64.861  1.00  0.00    -0.434 C  
ENDBRANCH   8   9
BRANCH   8  11
HETATM   11  C   UNL     1     -11.601  12.826  66.087  1.00  0.00    -0.379 C  
BRANCH  11  12
HETATM   12  C   UNL     1     -11.036  11.490  66.595  1.00  0.00    -0.355 C  
BRANCH  12  13
HETATM   13  C   UNL     1      -9.797  11.041  65.813  1.00  0.00    -0.282 C  
BRANCH  13  14
HETATM   14  C   UNL     1      -9.649   9.513  65.783  1.00  0.00    -0.270 C  
HETATM   15  H   UNL     1      -8.298   8.201  65.209  1.00  0.00     0.000 HD 
HETATM   16  O   UNL     1      -8.390   9.147  65.227  1.00  0.00    -0.129 OA 
BRANCH  14  17
HETATM   17  C   UNL     1      -9.801   8.909  67.166  1.00  0.00    -0.267 A  
HETATM   18  C   UNL     1      -9.010   9.385  68.224  1.00  0.00    -0.128 A  
HETATM   19  C   UNL     1      -9.078   8.795  69.488  1.00  0.00    -0.146 A  
HETATM   20  C   UNL     1      -9.935   7.719  69.708  1.00  0.00    -0.189 A  
HETATM   21  C   UNL     1     -10.697   7.855  67.422  1.00  0.00    -0.278 A  
HETATM   22  C   UNL     1     -10.765   7.265  68.687  1.00  0.00    -0.172 A  
BRANCH  20  23
HETATM   23  N   UNL     1      -9.957   7.099  70.989  1.00  0.00    -0.188 N  
HETATM   24  H   UNL     1      -9.245   6.419  71.257  1.00  0.00     0.000 HD 
BRANCH  23  25
HETATM   25  S   UNL     1     -11.198   7.524  72.050  1.00  0.00    -0.270 S  
HETATM   26  C   UNL     1     -10.468   7.120  73.623  1.00  0.00    -0.370 C  
HETATM   27  O   UNL     1     -12.258   6.571  71.804  1.00  0.00    -0.344 OA 
HETATM   28  O   UNL     1     -11.444   8.948  71.988  1.00  0.00    -0.352 OA 
ENDBRANCH  23  25
ENDBRANCH  20  23
ENDBRANCH  14  17
ENDBRANCH  13  14
ENDBRANCH  12  13
ENDBRANCH  11  12
ENDBRANCH   8  11
ENDBRANCH   7   8
ENDBRANCH   6   7
ENDBRANCH   5   6
ENDBRANCH   4   5
ENDBRANCH   3   4
ENDBRANCH   2   3
TORSDOF 14
ENDMDL
MODEL      195
REMARK 921   NORMALIZED FREE ENERGY PREDICTED BY IDOCK:   -3.55 KCAL/MOL
REMARK 922        TOTAL FREE ENERGY PREDICTED BY IDOCK:   -8.30 KCAL/MOL
REMARK 923 INTER-LIGAND FREE ENERGY PREDICTED BY IDOCK:   -7.66 KCAL/MOL
REMARK 924 INTRA-LIGAND FREE ENERGY PREDICTED BY IDOCK:   -0.65 KCAL/MOL
REMARK 927      BINDING AFFINITY PREDICTED BY RF-SCORE:    0.00 PKD
ROOT
HETATM    1  C   UNL     1      -7.576   5.827  65.733  1.00  0.00    -0.090 C  
HETATM    2  C   UNL     1      -7.175   7.289  65.672  1.00  0.00    -0.070 C  
ENDROOT
BRANCH   2   3
HETATM    3  C   UNL     1      -8.252   8.134  64.993  1.00  0.00    -0.157 C  
BRANCH   3   4
HETATM    4  C   UNL     1      -7.995   8.208  63.493  1.00  0.00    -0.145 C  
BRANCH   4   5
HETATM    5  C   UNL     1      -8.731   9.378  62.844  1.00  0.00    -0.228 C  
BRANCH   5   6
HETATM    6  C   UNL     1      -8.732  10.568  63.801  1.00  0.00    -0.185 C  
BRANCH   6   7
HETATM    7  C   UNL     1      -9.943  11.475  63.576  1.00  0.00    -0.399 C  
BRANCH   7   8
HETATM    8  N   UNL     1     -10.520  11.999  64.827  1.00  0.00    -0.281 NA 
BRANCH   8   9
HETATM    9  C   UNL     1     -11.927  12.423  64.711  1.00  0.00    -0.398 C  
HETATM   10  C   UNL     1     -12.649  12.031  63.424  1.00  0.00    -0.592 C  
ENDBRANCH   8   9
BRANCH   8  11
HETATM   11  C   UNL     1     -10.331  11.070  65.956  1.00  0.00    -0.254 C  
BRANCH  11  12
HETATM   12  C   UNL     1     -11.087  11.459  67.236  1.00  0.00    -0.363 C  
BRANCH  12  13
HETATM   13  C   UNL     1     -10.494  10.806  68.490  1.00  0.00    -0.208 C  
BRANCH  13  14
HETATM   14  C   UNL     1     -11.394  10.985  69.720  1.00  0.00    -0.292 C  
HETATM   15  H   UNL     1     -13.319  11.167  70.091  1.00  0.00     0.000 HD 
HETATM   16  O   UNL     1     -12.762  11.056  69.329  1.00  0.00    -0.280 OA 
BRANCH  14  17
HETATM   17  C   UNL     1     -11.199   9.865  70.725  1.00  0.00    -0.427 A  
HETATM   18  C   UNL     1     -12.303   9.360  71.427  1.00  0.00    -0.439 A  
HETATM   19  C   UNL     1     -12.139   8.382  72.410  1.00  0.00    -0.443 A  
HETATM   20  C   UNL     1     -10.866   7.900  72.705  1.00  0.00    -0.364 A  
HETATM   21  C   UNL     1      -9.927   9.330  71.002  1.00  0.00    -0.364 A  
HETATM   22  C   UNL     1      -9.762   8.350  71.984  1.00  0.00    -0.353 A  
BRANCH  20  23
HETATM   23  N   UNL     1     -10.710   6.937  73.742  1.00  0.00    -0.520 N  
HETATM   24  H   UNL     1     -10.945   7.163  74.709  1.00  0.00     0.000 HD 
BRANCH  23  25
HETATM   25  S   UNL     1     -10.125   5.411  73.320  1.00  0.00    -0.189 S  
HETATM   26  C   UNL     1     -10.431   5.392  71.567  1.00  0.00    -0.223 C  
HETATM   27  O   UNL     1     -11.035   4.468  73.932  1.00  0.00    -0.280 OA 
HETATM   28  O   UNL     1      -8.700   5.339  73.559  1.00  0.00    -0.115 OA 
ENDBRANCH  23  25
ENDBRANCH  20  23
ENDBRANCH  14  17
ENDBRANCH  13  14
ENDBRANCH  12  13
ENDBRANCH  11  12
ENDBRANCH   8  11
ENDBRANCH   7   8
ENDBRANCH   6   7
ENDBRANCH   5   6
ENDBRANCH   4   5
ENDBRANCH   3   4
ENDBRANCH   2   3
TORSDOF 14
ENDMDL
MODEL      196
REMARK 921   NORMALIZED FREE ENERGY PREDICTED BY IDOCK:   -3.55 KCAL/MOL
REMARK 922        TOTAL FREE ENERGY PREDICTED BY IDOCK:   -8.30 KCAL/MOL
REMARK 923 INTER-LIGAND FREE ENERGY PREDICTED BY IDOCK:   -7.32 KCAL/MOL
REMARK 924 INTRA-LIGAND FREE ENERGY PREDICTED BY IDOCK:   -0.99 KCAL/MOL
REMARK 927      BINDING AFFINITY PREDICTED BY RF-SCORE:    0.00 PKD
ROOT
HETATM    1  C   UNL     1      -6.460   7.616  72.821  1.00  0.00    -0.062 C  
HETATM    2  C   UNL     1      -7.123   7.235  74.132  1.00  0.00    -0.098 C  
ENDROOT
BRANCH   2   3
HETATM    3  C   UNL     1      -8.483   7.914  74.286  1.00  0.00    -0.278 C  
BRANCH   3   4
HETATM    4  C   UNL     1      -9.601   6.885  74.167  1.00  0.00    -0.308 C  
BRANCH   4   5
HETATM    5  C   UNL     1     -10.728   7.367  73.258  1.00  0.00    -0.441 C  
BRANCH   5   6
HETATM    6  C   UNL     1     -10.139   8.196  72.119  1.00  0.00    -0.320 C  
BRANCH   6   7
HETATM    7  C   UNL     1     -10.125   7.419  70.801  1.00  0.00    -0.189 C  
BRANCH   7   8
HETATM    8  N   UNL     1      -9.504   8.165  69.691  1.00  0.00    -0.159 NA 
BRANCH   8   9
HETATM    9  C   UNL     1      -9.878   7.675  68.352  1.00  0.00    -0.166 C  
HETATM   10  C   UNL     1     -10.872   6.517  68.307  1.00  0.00    -0.359 C  
ENDBRANCH   8   9
BRANCH   8  11
HETATM   11  C   UNL     1      -9.720   9.618  69.811  1.00  0.00    -0.224 C  
BRANCH  11  12
HETATM   12  C   UNL     1     -11.011  10.128  69.151  1.00  0.00    -0.270 C  
BRANCH  12  13
HETATM   13  C   UNL     1     -10.806  11.448  68.400  1.00  0.00    -0.248 C  
BRANCH  13  14
HETATM   14  C   UNL     1     -11.905  12.473  68.713  1.00  0.00    -0.303 C  
HETATM   15  H   UNL     1     -12.767  13.227  70.316  1.00  0.00     0.000 HD 
HETATM   16  O   UNL     1     -12.086  12.593  70.121  1.00  0.00    -0.341 OA 
BRANCH  14  17
HETATM   17  C   UNL     1     -11.593  13.831  68.113  1.00  0.00    -0.370 A  
HETATM   18  C   UNL     1     -11.253  13.930  66.756  1.00  0.00    -0.328 A  
HETATM   19  C   UNL     1     -10.888  15.157  66.198  1.00  0.00    -0.330 A  
HETATM   20  C   UNL     1     -10.855  16.300  66.993  1.00  0.00    -0.173 A  
HETATM   21  C   UNL     1     -11.601  15.005  68.889  1.00  0.00    -0.349 A  
HETATM   22  C   UNL     1     -11.238  16.233  68.331  1.00  0.00    -0.349 A  
BRANCH  20  23
HETATM   23  N   UNL     1     -10.435  17.533  66.421  1.00  0.00    -0.315 N  
HETATM   24  H   UNL     1     -10.959  17.967  65.660  1.00  0.00     0.000 HD 
BRANCH  23  25
HETATM   25  S   UNL     1      -9.042  18.257  67.041  1.00  0.00    -0.278 S  
HETATM   26  C   UNL     1      -9.735  19.401  68.216  1.00  0.00    -0.397 C  
HETATM   27  O   UNL     1      -8.493  19.032  65.950  1.00  0.00    -0.464 OA 
HETATM   28  O   UNL     1      -8.239  17.278  67.741  1.00  0.00    -0.198 OA 
ENDBRANCH  23  25
ENDBRANCH  20  23
ENDBRANCH  14  17
ENDBRANCH  13  14
ENDBRANCH  12  13
ENDBRANCH  11  12
ENDBRANCH   8  11
ENDBRANCH   7   8
ENDBRANCH   6   7
ENDBRANCH   5   6
ENDBRANCH   4   5
ENDBRANCH   3   4
ENDBRANCH   2   3
TORSDOF 14
ENDMDL
MODEL      197
REMARK 921   NORMALIZED FREE ENERGY PREDICTED BY IDOCK:   -3.53 KCAL/MOL
REMARK 922        TOTAL FREE ENERGY PREDICTED BY IDOCK:   -8.27 KCAL/MOL
REMARK 923 INTER-LIGAND FREE ENERGY PREDICTED BY IDOCK:   -7.26 KCAL/MOL
REMARK 924 INTRA-LIGAND FREE ENERGY PREDICTED BY IDOCK:   -1.02 KCAL/MOL
REMARK 927      BINDING AFFINITY PREDICTED BY RF-SCORE:    0.00 PKD
ROOT
HETATM    1  C   UNL     1      -8.280   4.613  66.763  1.00  0.00    -0.106 C  
HETATM    2  C   UNL     1      -9.552   4.089  67.403  1.00  0.00    -0.222 C  
ENDROOT
BRANCH   2   3
HETATM    3  C   UNL     1      -9.245   3.222  68.622  1.00  0.00    -0.232 C  
BRANCH   3   4
HETATM    4  C   UNL     1      -9.715   3.917  69.894  1.00  0.00    -0.235 C  
BRANCH   4   5
HETATM    5  C   UNL     1      -8.643   4.837  70.473  1.00  0.00    -0.114 C  
BRANCH   5   6
HETATM    6  C   UNL     1      -9.288   6.148  70.916  1.00  0.00    -0.170 C  
BRANCH   6   7
HETATM    7  C   UNL     1     -10.811   6.107  70.773  1.00  0.00    -0.288 C  
BRANCH   7   8
HETATM    8  N   UNL     1     -11.523   6.504  72.002  1.00  0.00    -0.285 NA 
BRANCH   8   9
HETATM    9  C   UNL     1     -10.995   5.886  73.231  1.00  0.00    -0.233 C  
HETATM   10  C   UNL     1     -11.139   4.370  73.342  1.00  0.00    -0.394 C  
ENDBRANCH   8   9
BRANCH   8  11
HETATM   11  C   UNL     1     -11.621   7.969  72.137  1.00  0.00    -0.342 C  
BRANCH  11  12
HETATM   12  C   UNL     1     -11.765   8.724  70.806  1.00  0.00    -0.253 C  
BRANCH  12  13
HETATM   13  C   UNL     1     -11.170  10.135  70.864  1.00  0.00    -0.383 C  
BRANCH  13  14
HETATM   14  C   UNL     1     -12.157  11.204  70.374  1.00  0.00    -0.385 C  
HETATM   15  H   UNL     1     -13.547  12.358  71.157  1.00  0.00     0.000 HD 
HETATM   16  O   UNL     1     -12.936  11.697  71.461  1.00  0.00    -0.424 OA 
BRANCH  14  17
HETATM   17  C   UNL     1     -11.444  12.351  69.684  1.00  0.00    -0.264 A  
HETATM   18  C   UNL     1     -10.512  12.082  68.670  1.00  0.00    -0.238 A  
HETATM   19  C   UNL     1      -9.788  13.116  68.073  1.00  0.00    -0.231 A  
HETATM   20  C   UNL     1      -9.983  14.431  68.486  1.00  0.00    -0.237 A  
HETATM   21  C   UNL     1     -11.663  13.691  70.054  1.00  0.00    -0.319 A  
HETATM   22  C   UNL     1     -10.939  14.726  69.456  1.00  0.00    -0.287 A  
BRANCH  20  23
HETATM   23  N   UNL     1      -9.203  15.468  67.901  1.00  0.00    -0.186 N  
HETATM   24  H   UNL     1      -8.226  15.603  68.163  1.00  0.00     0.000 HD 
BRANCH  23  25
HETATM   25  S   UNL     1      -9.945  16.465  66.759  1.00  0.00    -0.283 S  
HETATM   26  C   UNL     1     -10.676  17.708  67.805  1.00  0.00    -0.332 C  
HETATM   27  O   UNL     1     -11.022  15.677  66.202  1.00  0.00    -0.298 OA 
HETATM   28  O   UNL     1      -8.949  17.080  65.909  1.00  0.00    -0.517 OA 
ENDBRANCH  23  25
ENDBRANCH  20  23
ENDBRANCH  14  17
ENDBRANCH  13  14
ENDBRANCH  12  13
ENDBRANCH  11  12
ENDBRANCH   8  11
ENDBRANCH   7   8
ENDBRANCH   6   7
ENDBRANCH   5   6
ENDBRANCH   4   5
ENDBRANCH   3   4
ENDBRANCH   2   3
TORSDOF 14
ENDMDL
MODEL      198
REMARK 921   NORMALIZED FREE ENERGY PREDICTED BY IDOCK:   -3.53 KCAL/MOL
REMARK 922        TOTAL FREE ENERGY PREDICTED BY IDOCK:   -8.27 KCAL/MOL
REMARK 923 INTER-LIGAND FREE ENERGY PREDICTED BY IDOCK:   -7.16 KCAL/MOL
REMARK 924 INTRA-LIGAND FREE ENERGY PREDICTED BY IDOCK:   -1.11 KCAL/MOL
REMARK 927      BINDING AFFINITY PREDICTED BY RF-SCORE:    0.00 PKD
ROOT
HETATM    1  C   UNL     1     -12.642  12.412  64.597  1.00  0.00    -0.459 C  
HETATM    2  C   UNL     1     -12.770  13.779  65.244  1.00  0.00    -0.481 C  
ENDROOT
BRANCH   2   3
HETATM    3  C   UNL     1     -12.092  14.859  64.402  1.00  0.00    -0.417 C  
BRANCH   3   4
HETATM    4  C   UNL     1     -10.659  15.073  64.875  1.00  0.00    -0.400 C  
BRANCH   4   5
HETATM    5  C   UNL     1     -10.579  15.274  66.385  1.00  0.00    -0.308 C  
BRANCH   5   6
HETATM    6  C   UNL     1      -9.907  14.060  67.022  1.00  0.00    -0.260 C  
BRANCH   6   7
HETATM    7  C   UNL     1     -10.028  14.080  68.547  1.00  0.00    -0.230 C  
BRANCH   7   8
HETATM    8  N   UNL     1     -11.120  13.230  69.056  1.00  0.00    -0.258 NA 
BRANCH   8   9
HETATM    9  C   UNL     1     -12.324  13.976  69.466  1.00  0.00    -0.229 C  
HETATM   10  C   UNL     1     -12.653  13.966  70.956  1.00  0.00    -0.444 C  
ENDBRANCH   8   9
BRANCH   8  11
HETATM   11  C   UNL     1     -11.456  12.140  68.123  1.00  0.00    -0.317 C  
BRANCH  11  12
HETATM   12  C   UNL     1     -10.721  10.818  68.396  1.00  0.00    -0.255 C  
BRANCH  12  13
HETATM   13  C   UNL     1     -10.628   9.930  67.150  1.00  0.00    -0.295 C  
BRANCH  13  14
HETATM   14  C   UNL     1      -9.423   8.980  67.201  1.00  0.00    -0.152 C  
HETATM   15  H   UNL     1      -7.474   9.128  67.438  1.00  0.00     0.000 HD 
HETATM   16  O   UNL     1      -8.220   9.716  67.406  1.00  0.00    -0.113 OA 
BRANCH  14  17
HETATM   17  C   UNL     1      -9.581   7.932  68.285  1.00  0.00    -0.164 A  
HETATM   18  C   UNL     1     -10.707   7.094  68.284  1.00  0.00    -0.202 A  
HETATM   19  C   UNL     1     -10.913   6.172  69.312  1.00  0.00    -0.450 A  
HETATM   20  C   UNL     1      -9.997   6.080  70.357  1.00  0.00    -0.184 A  
HETATM   21  C   UNL     1      -8.642   7.789  69.323  1.00  0.00    -0.138 A  
HETATM   22  C   UNL     1      -8.847   6.866  70.352  1.00  0.00    -0.152 A  
BRANCH  20  23
HETATM   23  N   UNL     1     -10.246   5.169  71.422  1.00  0.00    -0.209 N  
HETATM   24  H   UNL     1      -9.928   4.201  71.373  1.00  0.00     0.000 HD 
BRANCH  23  25
HETATM   25  S   UNL     1     -11.085   5.742  72.770  1.00  0.00    -0.287 S  
HETATM   26  C   UNL     1      -9.817   6.679  73.598  1.00  0.00    -0.225 C  
HETATM   27  O   UNL     1     -11.361   4.574  73.577  1.00  0.00    -0.314 OA 
HETATM   28  O   UNL     1     -12.147   6.634  72.357  1.00  0.00    -0.215 OA 
ENDBRANCH  23  25
ENDBRANCH  20  23
ENDBRANCH  14  17
ENDBRANCH  13  14
ENDBRANCH  12  13
ENDBRANCH  11  12
ENDBRANCH   8  11
ENDBRANCH   7   8
ENDBRANCH   6   7
ENDBRANCH   5   6
ENDBRANCH   4   5
ENDBRANCH   3   4
ENDBRANCH   2   3
TORSDOF 14
ENDMDL
MODEL      199
REMARK 921   NORMALIZED FREE ENERGY PREDICTED BY IDOCK:   -3.52 KCAL/MOL
REMARK 922        TOTAL FREE ENERGY PREDICTED BY IDOCK:   -8.25 KCAL/MOL
REMARK 923 INTER-LIGAND FREE ENERGY PREDICTED BY IDOCK:   -7.09 KCAL/MOL
REMARK 924 INTRA-LIGAND FREE ENERGY PREDICTED BY IDOCK:   -1.16 KCAL/MOL
REMARK 927      BINDING AFFINITY PREDICTED BY RF-SCORE:    0.00 PKD
ROOT
HETATM    1  C   UNL     1      -7.182   6.199  70.682  1.00  0.00    -0.077 C  
HETATM    2  C   UNL     1      -7.876   6.110  72.029  1.00  0.00    -0.105 C  
ENDROOT
BRANCH   2   3
HETATM    3  C   UNL     1      -9.064   5.151  71.981  1.00  0.00    -0.152 C  
BRANCH   3   4
HETATM    4  C   UNL     1     -10.335   5.905  71.610  1.00  0.00    -0.268 C  
BRANCH   4   5
HETATM    5  C   UNL     1     -10.785   5.601  70.183  1.00  0.00    -0.376 C  
BRANCH   5   6
HETATM    6  C   UNL     1     -10.875   6.904  69.393  1.00  0.00    -0.283 C  
BRANCH   6   7
HETATM    7  C   UNL     1     -10.901   8.126  70.314  1.00  0.00    -0.244 C  
BRANCH   7   8
HETATM    8  N   UNL     1     -10.306   9.329  69.704  1.00  0.00    -0.207 NA 
BRANCH   8   9
HETATM    9  C   UNL     1      -8.928   9.140  69.217  1.00  0.00    -0.145 C  
HETATM   10  C   UNL     1      -8.174  10.403  68.809  1.00  0.00    -0.128 C  
ENDBRANCH   8   9
BRANCH   8  11
HETATM   11  C   UNL     1     -11.171   9.905  68.659  1.00  0.00    -0.068 C  
BRANCH  11  12
HETATM   12  C   UNL     1     -12.141  10.988  69.158  1.00  0.00    -0.333 C  
BRANCH  12  13
HETATM   13  C   UNL     1     -11.604  12.406  68.935  1.00  0.00    -0.364 C  
BRANCH  13  14
HETATM   14  C   UNL     1     -11.211  12.656  67.472  1.00  0.00    -0.288 C  
HETATM   15  H   UNL     1     -12.030  12.431  65.695  1.00  0.00     0.000 HD 
HETATM   16  O   UNL     1     -12.272  12.276  66.601  1.00  0.00    -0.574 OA 
BRANCH  14  17
HETATM   17  C   UNL     1     -10.837  14.106  67.233  1.00  0.00    -0.288 A  
HETATM   18  C   UNL     1      -9.921  14.431  66.220  1.00  0.00    -0.320 A  
HETATM   19  C   UNL     1      -9.504  15.750  66.030  1.00  0.00    -0.392 A  
HETATM   20  C   UNL     1      -9.995  16.760  66.853  1.00  0.00    -0.273 A  
HETATM   21  C   UNL     1     -11.359  15.147  68.022  1.00  0.00    -0.346 A  
HETATM   22  C   UNL     1     -10.943  16.468  67.831  1.00  0.00    -0.288 A  
BRANCH  20  23
HETATM   23  N   UNL     1      -9.524  18.091  66.677  1.00  0.00    -0.288 N  
HETATM   24  H   UNL     1      -9.759  18.627  65.841  1.00  0.00     0.000 HD 
BRANCH  23  25
HETATM   25  S   UNL     1      -8.564  18.756  67.896  1.00  0.00    -0.303 S  
HETATM   26  C   UNL     1      -9.791  19.551  68.913  1.00  0.00    -0.445 C  
HETATM   27  O   UNL     1      -7.791  19.796  67.253  1.00  0.00    -0.256 OA 
HETATM   28  O   UNL     1      -7.920  17.706  68.655  1.00  0.00    -0.277 OA 
ENDBRANCH  23  25
ENDBRANCH  20  23
ENDBRANCH  14  17
ENDBRANCH  13  14
ENDBRANCH  12  13
ENDBRANCH  11  12
ENDBRANCH   8  11
ENDBRANCH   7   8
ENDBRANCH   6   7
ENDBRANCH   5   6
ENDBRANCH   4   5
ENDBRANCH   3   4
ENDBRANCH   2   3
TORSDOF 14
ENDMDL
MODEL      200
REMARK 921   NORMALIZED FREE ENERGY PREDICTED BY IDOCK:   -3.51 KCAL/MOL
REMARK 922        TOTAL FREE ENERGY PREDICTED BY IDOCK:   -8.24 KCAL/MOL
REMARK 923 INTER-LIGAND FREE ENERGY PREDICTED BY IDOCK:   -6.78 KCAL/MOL
REMARK 924 INTRA-LIGAND FREE ENERGY PREDICTED BY IDOCK:   -1.46 KCAL/MOL
REMARK 927      BINDING AFFINITY PREDICTED BY RF-SCORE:    0.00 PKD
ROOT
HETATM    1  C   UNL     1      -6.824  14.301  68.288  1.00  0.00    -0.109 C  
HETATM    2  C   UNL     1      -7.426  15.073  67.129  1.00  0.00    -0.145 C  
ENDROOT
BRANCH   2   3
HETATM    3  C   UNL     1      -8.816  14.550  66.772  1.00  0.00    -0.248 C  
BRANCH   3   4
HETATM    4  C   UNL     1      -9.831  15.000  67.816  1.00  0.00    -0.220 C  
BRANCH   4   5
HETATM    5  C   UNL     1     -11.176  15.357  67.189  1.00  0.00    -0.256 C  
BRANCH   5   6
HETATM    6  C   UNL     1     -11.273  14.722  65.804  1.00  0.00    -0.337 C  
BRANCH   6   7
HETATM    7  C   UNL     1     -12.606  13.999  65.603  1.00  0.00    -0.512 C  
BRANCH   7   8
HETATM    8  N   UNL     1     -12.455  12.554  65.352  1.00  0.00    -0.647 NA 
BRANCH   8   9
HETATM    9  C   UNL     1     -12.363  12.196  63.926  1.00  0.00    -0.487 C  
HETATM   10  C   UNL     1     -11.028  11.623  63.456  1.00  0.00    -0.485 C  
ENDBRANCH   8   9
BRANCH   8  11
HETATM   11  C   UNL     1     -11.343  11.971  66.125  1.00  0.00    -0.351 C  
BRANCH  11  12
HETATM   12  C   UNL     1     -11.630  11.801  67.625  1.00  0.00    -0.364 C  
BRANCH  12  13
HETATM   13  C   UNL     1     -10.737  10.739  68.277  1.00  0.00    -0.253 C  
BRANCH  13  14
HETATM   14  C   UNL     1      -9.620  10.262  67.338  1.00  0.00    -0.158 C  
HETATM   15  H   UNL     1      -7.659  10.400  67.235  1.00  0.00     0.000 HD 
HETATM   16  O   UNL     1      -8.350  10.695  67.816  1.00  0.00    -0.114 OA 
BRANCH  14  17
HETATM   17  C   UNL     1      -9.628   8.753  67.181  1.00  0.00    -0.228 A  
HETATM   18  C   UNL     1      -8.413   8.058  67.076  1.00  0.00    -0.120 A  
HETATM   19  C   UNL     1      -8.396   6.679  66.856  1.00  0.00    -0.114 A  
HETATM   20  C   UNL     1      -9.593   5.979  66.734  1.00  0.00    -0.149 A  
HETATM   21  C   UNL     1     -10.827   8.021  67.105  1.00  0.00    -0.150 A  
HETATM   22  C   UNL     1     -10.810   6.641  66.886  1.00  0.00    -0.415 A  
BRANCH  20  23
HETATM   23  N   UNL     1      -9.558   4.583  66.462  1.00  0.00    -0.172 N  
HETATM   24  H   UNL     1      -9.348   3.908  67.198  1.00  0.00     0.000 HD 
BRANCH  23  25
HETATM   25  S   UNL     1      -9.875   4.078  64.883  1.00  0.00    -0.203 S  
HETATM   26  C   UNL     1      -9.201   2.430  64.901  1.00  0.00    -0.133 C  
HETATM   27  O   UNL     1      -9.022   4.888  64.042  1.00  0.00    -0.127 OA 
HETATM   28  O   UNL     1     -11.302   4.010  64.657  1.00  0.00    -0.281 OA 
ENDBRANCH  23  25
ENDBRANCH  20  23
ENDBRANCH  14  17
ENDBRANCH  13  14
ENDBRANCH  12  13
ENDBRANCH  11  12
ENDBRANCH   8  11
ENDBRANCH   7   8
ENDBRANCH   6   7
ENDBRANCH   5   6
ENDBRANCH   4   5
ENDBRANCH   3   4
ENDBRANCH   2   3
TORSDOF 14
ENDMDL
MODEL      201
REMARK 921   NORMALIZED FREE ENERGY PREDICTED BY IDOCK:   -3.50 KCAL/MOL
REMARK 922        TOTAL FREE ENERGY PREDICTED BY IDOCK:   -8.23 KCAL/MOL
REMARK 923 INTER-LIGAND FREE ENERGY PREDICTED BY IDOCK:   -6.37 KCAL/MOL
REMARK 924 INTRA-LIGAND FREE ENERGY PREDICTED BY IDOCK:   -1.86 KCAL/MOL
REMARK 927      BINDING AFFINITY PREDICTED BY RF-SCORE:    0.00 PKD
ROOT
HETATM    1  C   UNL     1     -11.774  12.253  66.116  1.00  0.00    -0.440 C  
HETATM    2  C   UNL     1     -12.533  13.533  65.820  1.00  0.00    -0.514 C  
ENDROOT
BRANCH   2   3
HETATM    3  C   UNL     1     -12.154  14.103  64.454  1.00  0.00    -0.486 C  
BRANCH   3   4
HETATM    4  C   UNL     1     -10.772  14.741  64.514  1.00  0.00    -0.124 C  
BRANCH   4   5
HETATM    5  C   UNL     1     -10.748  15.969  65.420  1.00  0.00    -0.399 C  
BRANCH   5   6
HETATM    6  C   UNL     1      -9.370  16.094  66.066  1.00  0.00    -0.368 C  
BRANCH   6   7
HETATM    7  C   UNL     1      -9.403  16.995  67.302  1.00  0.00    -0.237 C  
BRANCH   7   8
HETATM    8  N   UNL     1      -9.502  16.245  68.568  1.00  0.00    -0.212 NA 
BRANCH   8   9
HETATM    9  C   UNL     1     -10.773  16.441  69.287  1.00  0.00    -0.325 C  
HETATM   10  C   UNL     1     -11.825  15.348  69.114  1.00  0.00    -0.357 C  
ENDBRANCH   8   9
BRANCH   8  11
HETATM   11  C   UNL     1      -9.202  14.813  68.389  1.00  0.00    -0.189 C  
BRANCH  11  12
HETATM   12  C   UNL     1      -7.731  14.436  68.624  1.00  0.00    -0.138 C  
BRANCH  12  13
HETATM   13  C   UNL     1      -7.182  13.506  67.536  1.00  0.00    -0.165 C  
BRANCH  13  14
HETATM   14  C   UNL     1      -6.815  12.120  68.086  1.00  0.00    -0.075 C  
HETATM   15  H   UNL     1      -6.339  11.334  69.827  1.00  0.00     0.000 HD 
HETATM   16  O   UNL     1      -6.566  12.191  69.487  1.00  0.00    -0.112 OA 
BRANCH  14  17
HETATM   17  C   UNL     1      -7.902  11.100  67.804  1.00  0.00    -0.114 A  
HETATM   18  C   UNL     1      -8.625  10.541  68.868  1.00  0.00    -0.153 A  
HETATM   19  C   UNL     1      -9.578   9.546  68.640  1.00  0.00    -0.151 A  
HETATM   20  C   UNL     1      -9.816   9.095  67.345  1.00  0.00    -0.184 A  
HETATM   21  C   UNL     1      -8.191  10.667  66.497  1.00  0.00    -0.138 A  
HETATM   22  C   UNL     1      -9.146   9.672  66.268  1.00  0.00    -0.197 A  
BRANCH  20  23
HETATM   23  N   UNL     1     -10.755   8.047  67.135  1.00  0.00    -0.471 N  
HETATM   24  H   UNL     1     -11.632   8.216  66.640  1.00  0.00     0.000 HD 
BRANCH  23  25
HETATM   25  S   UNL     1     -10.374   6.514  67.730  1.00  0.00    -0.222 S  
HETATM   26  C   UNL     1     -10.858   5.479  66.364  1.00  0.00    -0.122 C  
HETATM   27  O   UNL     1     -11.307   6.277  68.809  1.00  0.00    -0.356 OA 
HETATM   28  O   UNL     1      -8.947   6.399  67.936  1.00  0.00    -0.117 OA 
ENDBRANCH  23  25
ENDBRANCH  20  23
ENDBRANCH  14  17
ENDBRANCH  13  14
ENDBRANCH  12  13
ENDBRANCH  11  12
ENDBRANCH   8  11
ENDBRANCH   7   8
ENDBRANCH   6   7
ENDBRANCH   5   6
ENDBRANCH   4   5
ENDBRANCH   3   4
ENDBRANCH   2   3
TORSDOF 14
ENDMDL
MODEL      202
REMARK 921   NORMALIZED FREE ENERGY PREDICTED BY IDOCK:   -3.49 KCAL/MOL
REMARK 922        TOTAL FREE ENERGY PREDICTED BY IDOCK:   -8.20 KCAL/MOL
REMARK 923 INTER-LIGAND FREE ENERGY PREDICTED BY IDOCK:   -7.12 KCAL/MOL
REMARK 924 INTRA-LIGAND FREE ENERGY PREDICTED BY IDOCK:   -1.08 KCAL/MOL
REMARK 927      BINDING AFFINITY PREDICTED BY RF-SCORE:    0.00 PKD
ROOT
HETATM    1  C   UNL     1      -9.340  19.478  66.555  1.00  0.00    -0.437 C  
HETATM    2  C   UNL     1     -10.097  19.176  67.835  1.00  0.00    -0.472 C  
ENDROOT
BRANCH   2   3
HETATM    3  C   UNL     1     -10.659  17.755  67.827  1.00  0.00    -0.392 C  
BRANCH   3   4
HETATM    4  C   UNL     1     -10.367  17.080  66.493  1.00  0.00    -0.298 C  
BRANCH   4   5
HETATM    5  C   UNL     1     -10.146  15.578  66.647  1.00  0.00    -0.275 C  
BRANCH   5   6
HETATM    6  C   UNL     1     -11.377  14.951  67.298  1.00  0.00    -0.355 C  
BRANCH   6   7
HETATM    7  C   UNL     1     -12.249  14.219  66.276  1.00  0.00    -0.410 C  
BRANCH   7   8
HETATM    8  N   UNL     1     -12.145  12.751  66.366  1.00  0.00    -0.520 NA 
BRANCH   8   9
HETATM    9  C   UNL     1     -11.178  12.156  65.427  1.00  0.00    -0.333 C  
HETATM   10  C   UNL     1     -11.380  12.482  63.949  1.00  0.00    -0.504 C  
ENDBRANCH   8   9
BRANCH   8  11
HETATM   11  C   UNL     1     -11.902  12.296  67.747  1.00  0.00    -0.273 C  
BRANCH  11  12
HETATM   12  C   UNL     1     -10.649  11.423  67.920  1.00  0.00    -0.224 C  
BRANCH  12  13
HETATM   13  C   UNL     1     -10.889  10.230  68.853  1.00  0.00    -0.263 C  
BRANCH  13  14
HETATM   14  C   UNL     1     -10.492   8.896  68.206  1.00  0.00    -0.195 C  
HETATM   15  H   UNL     1      -8.991   8.192  67.144  1.00  0.00     0.000 HD 
HETATM   16  O   UNL     1      -9.236   9.018  67.544  1.00  0.00    -0.134 OA 
BRANCH  14  17
HETATM   17  C   UNL     1     -10.434   7.774  69.225  1.00  0.00    -0.221 A  
HETATM   18  C   UNL     1      -9.645   6.643  68.971  1.00  0.00    -0.133 A  
HETATM   19  C   UNL     1      -9.634   5.565  69.859  1.00  0.00    -0.217 A  
HETATM   20  C   UNL     1     -10.416   5.605  71.010  1.00  0.00    -0.250 A  
HETATM   21  C   UNL     1     -11.179   7.817  70.419  1.00  0.00    -0.246 A  
HETATM   22  C   UNL     1     -11.167   6.739  71.308  1.00  0.00    -0.319 A  
BRANCH  20  23
HETATM   23  N   UNL     1     -10.430   4.478  71.881  1.00  0.00    -0.126 N  
HETATM   24  H   UNL     1     -11.003   3.660  71.674  1.00  0.00     0.000 HD 
BRANCH  23  25
HETATM   25  S   UNL     1      -9.468   4.540  73.267  1.00  0.00    -0.119 S  
HETATM   26  C   UNL     1      -8.492   3.063  73.080  1.00  0.00    -0.080 C  
HETATM   27  O   UNL     1     -10.374   4.327  74.374  1.00  0.00    -0.203 OA 
HETATM   28  O   UNL     1      -8.600   5.696  73.222  1.00  0.00    -0.117 OA 
ENDBRANCH  23  25
ENDBRANCH  20  23
ENDBRANCH  14  17
ENDBRANCH  13  14
ENDBRANCH  12  13
ENDBRANCH  11  12
ENDBRANCH   8  11
ENDBRANCH   7   8
ENDBRANCH   6   7
ENDBRANCH   5   6
ENDBRANCH   4   5
ENDBRANCH   3   4
ENDBRANCH   2   3
TORSDOF 14
ENDMDL
MODEL      203
REMARK 921   NORMALIZED FREE ENERGY PREDICTED BY IDOCK:   -3.48 KCAL/MOL
REMARK 922        TOTAL FREE ENERGY PREDICTED BY IDOCK:   -8.18 KCAL/MOL
REMARK 923 INTER-LIGAND FREE ENERGY PREDICTED BY IDOCK:   -6.73 KCAL/MOL
REMARK 924 INTRA-LIGAND FREE ENERGY PREDICTED BY IDOCK:   -1.46 KCAL/MOL
REMARK 927      BINDING AFFINITY PREDICTED BY RF-SCORE:    0.00 PKD
ROOT
HETATM    1  C   UNL     1      -9.444   6.727  67.169  1.00  0.00    -0.167 C  
HETATM    2  C   UNL     1      -8.161   7.237  67.798  1.00  0.00    -0.115 C  
ENDROOT
BRANCH   2   3
HETATM    3  C   UNL     1      -7.343   8.061  66.806  1.00  0.00    -0.089 C  
BRANCH   3   4
HETATM    4  C   UNL     1      -7.713   7.684  65.377  1.00  0.00    -0.104 C  
BRANCH   4   5
HETATM    5  C   UNL     1      -7.290   8.755  64.375  1.00  0.00    -0.103 C  
BRANCH   5   6
HETATM    6  C   UNL     1      -8.450   9.045  63.426  1.00  0.00    -0.176 C  
BRANCH   6   7
HETATM    7  C   UNL     1      -8.779  10.539  63.373  1.00  0.00    -0.190 C  
BRANCH   7   8
HETATM    8  N   UNL     1      -9.970  10.901  64.162  1.00  0.00    -0.315 NA 
BRANCH   8   9
HETATM    9  C   UNL     1      -9.679  11.270  65.559  1.00  0.00    -0.229 C  
HETATM   10  C   UNL     1     -10.124  10.276  66.629  1.00  0.00    -0.281 C  
ENDBRANCH   8   9
BRANCH   8  11
HETATM   11  C   UNL     1     -10.786  11.931  63.494  1.00  0.00    -0.442 C  
BRANCH  11  12
HETATM   12  C   UNL     1     -11.965  12.452  64.329  1.00  0.00    -0.489 C  
BRANCH  12  13
HETATM   13  C   UNL     1     -11.894  13.965  64.567  1.00  0.00    -0.449 C  
BRANCH  13  14
HETATM   14  C   UNL     1     -12.163  14.338  66.031  1.00  0.00    -0.404 C  
HETATM   15  H   UNL     1     -12.348  13.399  67.753  1.00  0.00     0.000 HD 
HETATM   16  O   UNL     1     -12.181  13.169  66.846  1.00  0.00    -0.342 OA 
BRANCH  14  17
HETATM   17  C   UNL     1     -11.135  15.321  66.557  1.00  0.00    -0.271 A  
HETATM   18  C   UNL     1     -10.079  15.732  65.730  1.00  0.00    -0.399 A  
HETATM   19  C   UNL     1      -9.079  16.578  66.216  1.00  0.00    -0.348 A  
HETATM   20  C   UNL     1      -9.121  17.018  67.536  1.00  0.00    -0.223 A  
HETATM   21  C   UNL     1     -11.187  15.817  67.873  1.00  0.00    -0.313 A  
HETATM   22  C   UNL     1     -10.187  16.664  68.359  1.00  0.00    -0.284 A  
BRANCH  20  23
HETATM   23  N   UNL     1      -8.069  17.841  68.029  1.00  0.00    -0.236 N  
HETATM   24  H   UNL     1      -8.162  18.857  68.055  1.00  0.00     0.000 HD 
BRANCH  23  25
HETATM   25  S   UNL     1      -6.661  17.082  68.568  1.00  0.00    -0.180 S  
HETATM   26  C   UNL     1      -5.952  18.351  69.596  1.00  0.00    -0.257 C  
HETATM   27  O   UNL     1      -5.822  16.949  67.398  1.00  0.00    -0.128 OA 
HETATM   28  O   UNL     1      -6.993  15.935  69.385  1.00  0.00    -0.191 OA 
ENDBRANCH  23  25
ENDBRANCH  20  23
ENDBRANCH  14  17
ENDBRANCH  13  14
ENDBRANCH  12  13
ENDBRANCH  11  12
ENDBRANCH   8  11
ENDBRANCH   7   8
ENDBRANCH   6   7
ENDBRANCH   5   6
ENDBRANCH   4   5
ENDBRANCH   3   4
ENDBRANCH   2   3
TORSDOF 14
ENDMDL
MODEL      204
REMARK 921   NORMALIZED FREE ENERGY PREDICTED BY IDOCK:   -3.48 KCAL/MOL
REMARK 922        TOTAL FREE ENERGY PREDICTED BY IDOCK:   -8.18 KCAL/MOL
REMARK 923 INTER-LIGAND FREE ENERGY PREDICTED BY IDOCK:   -7.01 KCAL/MOL
REMARK 924 INTRA-LIGAND FREE ENERGY PREDICTED BY IDOCK:   -1.17 KCAL/MOL
REMARK 927      BINDING AFFINITY PREDICTED BY RF-SCORE:    0.00 PKD
ROOT
HETATM    1  C   UNL     1     -13.536  14.655  72.718  1.00  0.00    -0.538 C  
HETATM    2  C   UNL     1     -12.463  15.698  72.972  1.00  0.00    -0.566 C  
ENDROOT
BRANCH   2   3
HETATM    3  C   UNL     1     -11.839  16.185  71.666  1.00  0.00    -0.557 C  
BRANCH   3   4
HETATM    4  C   UNL     1     -12.474  15.470  70.480  1.00  0.00    -0.472 C  
BRANCH   4   5
HETATM    5  C   UNL     1     -11.695  15.702  69.188  1.00  0.00    -0.402 C  
BRANCH   5   6
HETATM    6  C   UNL     1     -10.587  14.658  69.072  1.00  0.00    -0.248 C  
BRANCH   6   7
HETATM    7  C   UNL     1     -10.584  13.985  67.697  1.00  0.00    -0.249 C  
BRANCH   7   8
HETATM    8  N   UNL     1     -11.763  13.131  67.463  1.00  0.00    -0.351 NA 
BRANCH   8   9
HETATM    9  C   UNL     1     -11.783  12.482  66.140  1.00  0.00    -0.409 C  
HETATM   10  C   UNL     1     -10.606  12.787  65.217  1.00  0.00    -0.312 C  
ENDBRANCH   8   9
BRANCH   8  11
HETATM   11  C   UNL     1     -11.961  12.151  68.545  1.00  0.00    -0.217 C  
BRANCH  11  12
HETATM   12  C   UNL     1     -11.288  10.790  68.305  1.00  0.00    -0.376 C  
BRANCH  12  13
HETATM   13  C   UNL     1     -10.167  10.504  69.311  1.00  0.00    -0.245 C  
BRANCH  13  14
HETATM   14  C   UNL     1     -10.696   9.877  70.608  1.00  0.00    -0.303 C  
HETATM   15  H   UNL     1     -12.223   8.762  71.159  1.00  0.00     0.000 HD 
HETATM   16  O   UNL     1     -11.896   9.150  70.356  1.00  0.00    -0.171 OA 
BRANCH  14  17
HETATM   17  C   UNL     1      -9.665   8.968  71.252  1.00  0.00    -0.371 A  
HETATM   18  C   UNL     1      -8.559   8.534  70.507  1.00  0.00    -0.155 A  
HETATM   19  C   UNL     1      -7.637   7.638  71.052  1.00  0.00    -0.083 A  
HETATM   20  C   UNL     1      -7.813   7.163  72.349  1.00  0.00    -0.093 A  
HETATM   21  C   UNL     1      -9.800   8.516  72.577  1.00  0.00    -0.324 A  
HETATM   22  C   UNL     1      -8.876   7.620  73.124  1.00  0.00    -0.231 A  
BRANCH  20  23
HETATM   23  N   UNL     1      -6.891   6.214  72.873  1.00  0.00    -0.074 N  
HETATM   24  H   UNL     1      -6.020   6.513  73.312  1.00  0.00     0.000 HD 
BRANCH  23  25
HETATM   25  S   UNL     1      -7.285   4.577  72.746  1.00  0.00    -0.083 S  
HETATM   26  C   UNL     1      -5.991   3.988  71.675  1.00  0.00    -0.013 C  
HETATM   27  O   UNL     1      -8.522   4.537  71.997  1.00  0.00    -0.109 OA 
HETATM   28  O   UNL     1      -7.170   3.933  74.036  1.00  0.00    -0.058 OA 
ENDBRANCH  23  25
ENDBRANCH  20  23
ENDBRANCH  14  17
ENDBRANCH  13  14
ENDBRANCH  12  13
ENDBRANCH  11  12
ENDBRANCH   8  11
ENDBRANCH   7   8
ENDBRANCH   6   7
ENDBRANCH   5   6
ENDBRANCH   4   5
ENDBRANCH   3   4
ENDBRANCH   2   3
TORSDOF 14
ENDMDL
MODEL      205
REMARK 921   NORMALIZED FREE ENERGY PREDICTED BY IDOCK:   -3.48 KCAL/MOL
REMARK 922        TOTAL FREE ENERGY PREDICTED BY IDOCK:   -8.17 KCAL/MOL
REMARK 923 INTER-LIGAND FREE ENERGY PREDICTED BY IDOCK:   -6.54 KCAL/MOL
REMARK 924 INTRA-LIGAND FREE ENERGY PREDICTED BY IDOCK:   -1.64 KCAL/MOL
REMARK 927      BINDING AFFINITY PREDICTED BY RF-SCORE:    0.00 PKD
ROOT
HETATM    1  C   UNL     1     -10.504   7.445  66.926  1.00  0.00    -0.379 C  
HETATM    2  C   UNL     1     -10.515   6.619  68.199  1.00  0.00    -0.257 C  
ENDROOT
BRANCH   2   3
HETATM    3  C   UNL     1      -9.162   6.670  68.907  1.00  0.00    -0.130 C  
BRANCH   3   4
HETATM    4  C   UNL     1      -8.422   5.350  68.726  1.00  0.00    -0.096 C  
BRANCH   4   5
HETATM    5  C   UNL     1      -9.124   4.198  69.439  1.00  0.00    -0.189 C  
BRANCH   5   6
HETATM    6  C   UNL     1      -8.858   4.296  70.940  1.00  0.00    -0.142 C  
BRANCH   6   7
HETATM    7  C   UNL     1     -10.111   3.980  71.759  1.00  0.00    -0.129 C  
BRANCH   7   8
HETATM    8  N   UNL     1     -10.702   5.169  72.401  1.00  0.00    -0.220 NA 
BRANCH   8   9
HETATM    9  C   UNL     1      -9.733   6.003  73.133  1.00  0.00    -0.162 C  
HETATM   10  C   UNL     1      -9.451   7.385  72.549  1.00  0.00    -0.192 C  
ENDBRANCH   8   9
BRANCH   8  11
HETATM   11  C   UNL     1     -11.496   5.972  71.454  1.00  0.00    -0.199 C  
BRANCH  11  12
HETATM   12  C   UNL     1     -12.722   6.661  72.073  1.00  0.00    -0.204 C  
BRANCH  12  13
HETATM   13  C   UNL     1     -13.419   7.612  71.093  1.00  0.00    -0.186 C  
BRANCH  13  14
HETATM   14  C   UNL     1     -13.501   9.047  71.633  1.00  0.00    -0.386 C  
HETATM   15  H   UNL     1     -13.270   9.956  73.364  1.00  0.00     0.000 HD 
HETATM   16  O   UNL     1     -13.220   9.068  73.030  1.00  0.00    -0.306 OA 
BRANCH  14  17
HETATM   17  C   UNL     1     -12.554   9.977  70.898  1.00  0.00    -0.424 A  
HETATM   18  C   UNL     1     -12.836  11.350  70.836  1.00  0.00    -0.323 A  
HETATM   19  C   UNL     1     -12.020  12.214  70.104  1.00  0.00    -0.394 A  
HETATM   20  C   UNL     1     -10.914  11.714  69.420  1.00  0.00    -0.152 A  
HETATM   21  C   UNL     1     -11.405   9.498  70.242  1.00  0.00    -0.284 A  
HETATM   22  C   UNL     1     -10.587  10.363  69.510  1.00  0.00    -0.274 A  
BRANCH  20  23
HETATM   23  N   UNL     1     -10.121  12.601  68.639  1.00  0.00    -0.379 N  
HETATM   24  H   UNL     1      -9.208  12.919  68.966  1.00  0.00     0.000 HD 
BRANCH  23  25
HETATM   25  S   UNL     1     -10.738  13.110  67.152  1.00  0.00    -0.257 S  
HETATM   26  C   UNL     1     -11.248  11.561  66.437  1.00  0.00    -0.243 C  
HETATM   27  O   UNL     1      -9.595  13.581  66.402  1.00  0.00    -0.270 OA 
HETATM   28  O   UNL     1     -11.898  13.950  67.354  1.00  0.00    -0.360 OA 
ENDBRANCH  23  25
ENDBRANCH  20  23
ENDBRANCH  14  17
ENDBRANCH  13  14
ENDBRANCH  12  13
ENDBRANCH  11  12
ENDBRANCH   8  11
ENDBRANCH   7   8
ENDBRANCH   6   7
ENDBRANCH   5   6
ENDBRANCH   4   5
ENDBRANCH   3   4
ENDBRANCH   2   3
TORSDOF 14
ENDMDL
MODEL      206
REMARK 921   NORMALIZED FREE ENERGY PREDICTED BY IDOCK:   -3.47 KCAL/MOL
REMARK 922        TOTAL FREE ENERGY PREDICTED BY IDOCK:   -8.16 KCAL/MOL
REMARK 923 INTER-LIGAND FREE ENERGY PREDICTED BY IDOCK:   -6.50 KCAL/MOL
REMARK 924 INTRA-LIGAND FREE ENERGY PREDICTED BY IDOCK:   -1.66 KCAL/MOL
REMARK 927      BINDING AFFINITY PREDICTED BY RF-SCORE:    0.00 PKD
ROOT
HETATM    1  C   UNL     1      -7.642   7.015  69.353  1.00  0.00    -0.099 C  
HETATM    2  C   UNL     1      -8.442   5.810  68.896  1.00  0.00    -0.104 C  
ENDROOT
BRANCH   2   3
HETATM    3  C   UNL     1      -8.235   5.535  67.408  1.00  0.00    -0.101 C  
BRANCH   3   4
HETATM    4  C   UNL     1      -9.001   6.553  66.572  1.00  0.00    -0.152 C  
BRANCH   4   5
HETATM    5  C   UNL     1      -8.148   7.127  65.445  1.00  0.00    -0.137 C  
BRANCH   5   6
HETATM    6  C   UNL     1      -8.374   8.635  65.357  1.00  0.00    -0.165 C  
BRANCH   6   7
HETATM    7  C   UNL     1      -9.611   9.069  66.146  1.00  0.00    -0.272 C  
BRANCH   7   8
HETATM    8  N   UNL     1      -9.403  10.306  66.921  1.00  0.00    -0.156 NA 
BRANCH   8   9
HETATM    9  C   UNL     1      -8.041  10.456  67.463  1.00  0.00    -0.107 C  
HETATM   10  C   UNL     1      -7.323  11.764  67.141  1.00  0.00    -0.146 C  
ENDBRANCH   8   9
BRANCH   8  11
HETATM   11  C   UNL     1      -9.818  11.506  66.172  1.00  0.00    -0.221 C  
BRANCH  11  12
HETATM   12  C   UNL     1     -10.888  12.357  66.874  1.00  0.00    -0.286 C  
BRANCH  12  13
HETATM   13  C   UNL     1     -11.685  11.560  67.912  1.00  0.00    -0.317 C  
BRANCH  13  14
HETATM   14  C   UNL     1     -11.422  12.043  69.345  1.00  0.00    -0.296 C  
HETATM   15  H   UNL     1     -12.200  13.348  70.598  1.00  0.00     0.000 HD 
HETATM   16  O   UNL     1     -12.363  13.049  69.710  1.00  0.00    -0.205 OA 
BRANCH  14  17
HETATM   17  C   UNL     1     -11.473  10.899  70.340  1.00  0.00    -0.367 A  
HETATM   18  C   UNL     1     -10.327  10.121  70.564  1.00  0.00    -0.108 A  
HETATM   19  C   UNL     1     -10.370   9.017  71.419  1.00  0.00    -0.396 A  
HETATM   20  C   UNL     1     -11.560   8.675  72.055  1.00  0.00    -0.370 A  
HETATM   21  C   UNL     1     -12.653  10.568  71.031  1.00  0.00    -0.499 A  
HETATM   22  C   UNL     1     -12.696   9.464  71.886  1.00  0.00    -0.484 A  
BRANCH  20  23
HETATM   23  N   UNL     1     -11.599   7.520  72.885  1.00  0.00    -0.590 N  
HETATM   24  H   UNL     1     -11.717   7.600  73.895  1.00  0.00     0.000 HD 
BRANCH  23  25
HETATM   25  S   UNL     1     -11.443   6.011  72.144  1.00  0.00    -0.282 S  
HETATM   26  C   UNL     1      -9.691   5.729  72.291  1.00  0.00    -0.154 C  
HETATM   27  O   UNL     1     -11.731   6.238  70.744  1.00  0.00    -0.340 OA 
HETATM   28  O   UNL     1     -12.155   5.006  72.901  1.00  0.00    -0.144 OA 
ENDBRANCH  23  25
ENDBRANCH  20  23
ENDBRANCH  14  17
ENDBRANCH  13  14
ENDBRANCH  12  13
ENDBRANCH  11  12
ENDBRANCH   8  11
ENDBRANCH   7   8
ENDBRANCH   6   7
ENDBRANCH   5   6
ENDBRANCH   4   5
ENDBRANCH   3   4
ENDBRANCH   2   3
TORSDOF 14
ENDMDL
MODEL      207
REMARK 921   NORMALIZED FREE ENERGY PREDICTED BY IDOCK:   -3.45 KCAL/MOL
REMARK 922        TOTAL FREE ENERGY PREDICTED BY IDOCK:   -8.12 KCAL/MOL
REMARK 923 INTER-LIGAND FREE ENERGY PREDICTED BY IDOCK:   -7.79 KCAL/MOL
REMARK 924 INTRA-LIGAND FREE ENERGY PREDICTED BY IDOCK:   -0.33 KCAL/MOL
REMARK 927      BINDING AFFINITY PREDICTED BY RF-SCORE:    0.00 PKD
ROOT
HETATM    1  C   UNL     1      -8.640  17.872  67.508  1.00  0.00    -0.239 C  
HETATM    2  C   UNL     1      -8.284  17.156  66.219  1.00  0.00    -0.306 C  
ENDROOT
BRANCH   2   3
HETATM    3  C   UNL     1      -9.311  16.078  65.878  1.00  0.00    -0.335 C  
BRANCH   3   4
HETATM    4  C   UNL     1     -10.491  16.152  66.839  1.00  0.00    -0.300 C  
BRANCH   4   5
HETATM    5  C   UNL     1     -10.564  14.930  67.751  1.00  0.00    -0.262 C  
BRANCH   5   6
HETATM    6  C   UNL     1     -11.884  14.201  67.515  1.00  0.00    -0.437 C  
BRANCH   6   7
HETATM    7  C   UNL     1     -11.691  12.931  66.684  1.00  0.00    -0.390 C  
BRANCH   7   8
HETATM    8  N   UNL     1     -11.823  11.693  67.472  1.00  0.00    -0.624 NA 
BRANCH   8   9
HETATM    9  C   UNL     1     -10.855  10.642  67.112  1.00  0.00    -0.270 C  
HETATM   10  C   UNL     1      -9.662  11.081  66.266  1.00  0.00    -0.244 C  
ENDBRANCH   8   9
BRANCH   8  11
HETATM   11  C   UNL     1     -11.817  11.955  68.923  1.00  0.00    -0.307 C  
BRANCH  11  12
HETATM   12  C   UNL     1     -11.910  10.697  69.799  1.00  0.00    -0.377 C  
BRANCH  12  13
HETATM   13  C   UNL     1     -12.489  10.990  71.188  1.00  0.00    -0.502 C  
BRANCH  13  14
HETATM   14  C   UNL     1     -12.879   9.709  71.939  1.00  0.00    -0.425 C  
HETATM   15  H   UNL     1     -14.388   8.445  71.957  1.00  0.00     0.000 HD 
HETATM   16  O   UNL     1     -14.147   9.238  71.493  1.00  0.00    -0.277 OA 
BRANCH  14  17
HETATM   17  C   UNL     1     -11.834   8.622  71.771  1.00  0.00    -0.404 A  
HETATM   18  C   UNL     1     -10.471   8.951  71.835  1.00  0.00    -0.415 A  
HETATM   19  C   UNL     1      -9.491   7.982  71.609  1.00  0.00    -0.213 A  
HETATM   20  C   UNL     1      -9.862   6.673  71.312  1.00  0.00    -0.177 A  
HETATM   21  C   UNL     1     -12.189   7.284  71.518  1.00  0.00    -0.387 A  
HETATM   22  C   UNL     1     -11.208   6.314  71.293  1.00  0.00    -0.355 A  
BRANCH  20  23
HETATM   23  N   UNL     1      -8.852   5.709  71.037  1.00  0.00    -0.136 N  
HETATM   24  H   UNL     1      -8.498   5.572  70.090  1.00  0.00     0.000 HD 
BRANCH  23  25
HETATM   25  S   UNL     1      -8.258   4.799  72.329  1.00  0.00    -0.116 S  
HETATM   26  C   UNL     1      -9.577   3.625  72.564  1.00  0.00    -0.135 C  
HETATM   27  O   UNL     1      -8.264   5.694  73.465  1.00  0.00    -0.112 OA 
HETATM   28  O   UNL     1      -7.057   4.096  71.935  1.00  0.00    -0.046 OA 
ENDBRANCH  23  25
ENDBRANCH  20  23
ENDBRANCH  14  17
ENDBRANCH  13  14
ENDBRANCH  12  13
ENDBRANCH  11  12
ENDBRANCH   8  11
ENDBRANCH   7   8
ENDBRANCH   6   7
ENDBRANCH   5   6
ENDBRANCH   4   5
ENDBRANCH   3   4
ENDBRANCH   2   3
TORSDOF 14
ENDMDL
MODEL      208
REMARK 921   NORMALIZED FREE ENERGY PREDICTED BY IDOCK:   -3.44 KCAL/MOL
REMARK 922        TOTAL FREE ENERGY PREDICTED BY IDOCK:   -8.12 KCAL/MOL
REMARK 923 INTER-LIGAND FREE ENERGY PREDICTED BY IDOCK:   -6.49 KCAL/MOL
REMARK 924 INTRA-LIGAND FREE ENERGY PREDICTED BY IDOCK:   -1.63 KCAL/MOL
REMARK 927      BINDING AFFINITY PREDICTED BY RF-SCORE:    0.00 PKD
ROOT
HETATM    1  C   UNL     1      -9.257   3.620  64.961  1.00  0.00    -0.149 C  
HETATM    2  C   UNL     1      -8.570   3.833  66.296  1.00  0.00    -0.113 C  
ENDROOT
BRANCH   2   3
HETATM    3  C   UNL     1      -9.577   3.846  67.445  1.00  0.00    -0.218 C  
BRANCH   3   4
HETATM    4  C   UNL     1      -8.878   4.197  68.753  1.00  0.00    -0.143 C  
BRANCH   4   5
HETATM    5  C   UNL     1      -9.775   3.952  69.964  1.00  0.00    -0.242 C  
BRANCH   5   6
HETATM    6  C   UNL     1      -9.219   4.711  71.166  1.00  0.00    -0.193 C  
BRANCH   6   7
HETATM    7  C   UNL     1      -9.549   6.204  71.096  1.00  0.00    -0.175 C  
BRANCH   7   8
HETATM    8  N   UNL     1     -10.928   6.476  70.651  1.00  0.00    -0.267 NA 
BRANCH   8   9
HETATM    9  C   UNL     1     -11.884   6.697  71.752  1.00  0.00    -0.335 C  
HETATM   10  C   UNL     1     -11.616   7.902  72.650  1.00  0.00    -0.435 C  
ENDBRANCH   8   9
BRANCH   8  11
HETATM   11  C   UNL     1     -10.987   7.566  69.661  1.00  0.00    -0.153 C  
BRANCH  11  12
HETATM   12  C   UNL     1      -9.702   7.752  68.840  1.00  0.00    -0.160 C  
BRANCH  12  13
HETATM   13  C   UNL     1      -9.912   7.466  67.348  1.00  0.00    -0.239 C  
BRANCH  13  14
HETATM   14  C   UNL     1      -8.788   8.048  66.480  1.00  0.00    -0.151 C  
HETATM   15  H   UNL     1      -7.922   7.629  64.762  1.00  0.00     0.000 HD 
HETATM   16  O   UNL     1      -8.618   7.269  65.300  1.00  0.00    -0.097 OA 
BRANCH  14  17
HETATM   17  C   UNL     1      -9.056   9.495  66.113  1.00  0.00    -0.207 A  
HETATM   18  C   UNL     1      -8.600  10.522  66.953  1.00  0.00    -0.125 A  
HETATM   19  C   UNL     1      -8.898  11.858  66.676  1.00  0.00    -0.191 A  
HETATM   20  C   UNL     1      -9.661  12.182  65.556  1.00  0.00    -0.181 A  
HETATM   21  C   UNL     1      -9.782   9.846  64.960  1.00  0.00    -0.359 A  
HETATM   22  C   UNL     1     -10.081  11.182  64.682  1.00  0.00    -0.358 A  
BRANCH  20  23
HETATM   23  N   UNL     1      -9.997  13.544  65.314  1.00  0.00    -0.516 N  
HETATM   24  H   UNL     1      -9.377  14.152  64.780  1.00  0.00     0.000 HD 
BRANCH  23  25
HETATM   25  S   UNL     1     -11.456  14.120  65.940  1.00  0.00    -0.347 S  
HETATM   26  C   UNL     1     -12.227  14.778  64.477  1.00  0.00    -0.428 C  
HETATM   27  O   UNL     1     -11.097  15.238  66.784  1.00  0.00    -0.320 OA 
HETATM   28  O   UNL     1     -12.250  13.023  66.448  1.00  0.00    -0.387 OA 
ENDBRANCH  23  25
ENDBRANCH  20  23
ENDBRANCH  14  17
ENDBRANCH  13  14
ENDBRANCH  12  13
ENDBRANCH  11  12
ENDBRANCH   8  11
ENDBRANCH   7   8
ENDBRANCH   6   7
ENDBRANCH   5   6
ENDBRANCH   4   5
ENDBRANCH   3   4
ENDBRANCH   2   3
TORSDOF 14
ENDMDL
MODEL      209
REMARK 921   NORMALIZED FREE ENERGY PREDICTED BY IDOCK:   -3.44 KCAL/MOL
REMARK 922        TOTAL FREE ENERGY PREDICTED BY IDOCK:   -8.11 KCAL/MOL
REMARK 923 INTER-LIGAND FREE ENERGY PREDICTED BY IDOCK:   -6.10 KCAL/MOL
REMARK 924 INTRA-LIGAND FREE ENERGY PREDICTED BY IDOCK:   -2.01 KCAL/MOL
REMARK 927      BINDING AFFINITY PREDICTED BY RF-SCORE:    0.00 PKD
ROOT
HETATM    1  C   UNL     1      -6.511  11.144  66.616  1.00  0.00    -0.134 C  
HETATM    2  C   UNL     1      -7.784  11.831  67.074  1.00  0.00    -0.158 C  
ENDROOT
BRANCH   2   3
HETATM    3  C   UNL     1      -7.566  12.599  68.377  1.00  0.00    -0.132 C  
BRANCH   3   4
HETATM    4  C   UNL     1      -7.510  14.096  68.102  1.00  0.00    -0.129 C  
BRANCH   4   5
HETATM    5  C   UNL     1      -8.091  14.911  69.255  1.00  0.00    -0.135 C  
BRANCH   5   6
HETATM    6  C   UNL     1      -8.997  16.005  68.694  1.00  0.00    -0.210 C  
BRANCH   6   7
HETATM    7  C   UNL     1     -10.280  16.155  69.515  1.00  0.00    -0.261 C  
BRANCH   7   8
HETATM    8  N   UNL     1     -11.085  14.921  69.570  1.00  0.00    -0.271 NA 
BRANCH   8   9
HETATM    9  C   UNL     1     -12.080  14.899  70.657  1.00  0.00    -0.307 C  
HETATM   10  C   UNL     1     -11.763  15.751  71.884  1.00  0.00    -0.572 C  
ENDBRANCH   8   9
BRANCH   8  11
HETATM   11  C   UNL     1     -11.703  14.604  68.270  1.00  0.00    -0.328 C  
BRANCH  11  12
HETATM   12  C   UNL     1     -11.139  13.349  67.585  1.00  0.00    -0.288 C  
BRANCH  12  13
HETATM   13  C   UNL     1     -11.823  12.063  68.062  1.00  0.00    -0.338 C  
BRANCH  13  14
HETATM   14  C   UNL     1     -10.992  11.318  69.116  1.00  0.00    -0.240 C  
HETATM   15  H   UNL     1     -11.081  10.981  71.054  1.00  0.00     0.000 HD 
HETATM   16  O   UNL     1     -11.595  11.442  70.401  1.00  0.00    -0.297 OA 
BRANCH  14  17
HETATM   17  C   UNL     1     -10.822   9.853  68.762  1.00  0.00    -0.240 A  
HETATM   18  C   UNL     1     -10.670   9.475  67.419  1.00  0.00    -0.297 A  
HETATM   19  C   UNL     1     -10.587   8.127  67.062  1.00  0.00    -0.346 A  
HETATM   20  C   UNL     1     -10.659   7.142  68.043  1.00  0.00    -0.196 A  
HETATM   21  C   UNL     1     -10.844   8.845  69.743  1.00  0.00    -0.207 A  
HETATM   22  C   UNL     1     -10.759   7.496  69.386  1.00  0.00    -0.200 A  
BRANCH  20  23
HETATM   23  N   UNL     1     -10.621   5.772  67.657  1.00  0.00    -0.241 N  
HETATM   24  H   UNL     1     -11.451   5.182  67.725  1.00  0.00     0.000 HD 
BRANCH  23  25
HETATM   25  S   UNL     1      -9.159   5.155  67.083  1.00  0.00    -0.114 S  
HETATM   26  C   UNL     1      -9.396   3.408  67.329  1.00  0.00    -0.201 C  
HETATM   27  O   UNL     1      -8.157   5.596  68.028  1.00  0.00    -0.097 OA 
HETATM   28  O   UNL     1      -9.023   5.425  65.668  1.00  0.00    -0.157 OA 
ENDBRANCH  23  25
ENDBRANCH  20  23
ENDBRANCH  14  17
ENDBRANCH  13  14
ENDBRANCH  12  13
ENDBRANCH  11  12
ENDBRANCH   8  11
ENDBRANCH   7   8
ENDBRANCH   6   7
ENDBRANCH   5   6
ENDBRANCH   4   5
ENDBRANCH   3   4
ENDBRANCH   2   3
TORSDOF 14
ENDMDL
MODEL      210
REMARK 921   NORMALIZED FREE ENERGY PREDICTED BY IDOCK:   -3.43 KCAL/MOL
REMARK 922        TOTAL FREE ENERGY PREDICTED BY IDOCK:   -8.09 KCAL/MOL
REMARK 923 INTER-LIGAND FREE ENERGY PREDICTED BY IDOCK:   -6.94 KCAL/MOL
REMARK 924 INTRA-LIGAND FREE ENERGY PREDICTED BY IDOCK:   -1.15 KCAL/MOL
REMARK 927      BINDING AFFINITY PREDICTED BY RF-SCORE:    0.00 PKD
ROOT
HETATM    1  C   UNL     1      -9.539  19.462  68.768  1.00  0.00    -0.495 C  
HETATM    2  C   UNL     1      -9.269  20.264  67.509  1.00  0.00    -0.491 C  
ENDROOT
BRANCH   2   3
HETATM    3  C   UNL     1     -10.080  19.735  66.327  1.00  0.00    -0.601 C  
BRANCH   3   4
HETATM    4  C   UNL     1     -10.784  18.438  66.710  1.00  0.00    -0.274 C  
BRANCH   4   5
HETATM    5  C   UNL     1     -10.299  17.256  65.875  1.00  0.00    -0.287 C  
BRANCH   5   6
HETATM    6  C   UNL     1     -10.008  16.073  66.795  1.00  0.00    -0.265 C  
BRANCH   6   7
HETATM    7  C   UNL     1      -9.523  14.851  66.012  1.00  0.00    -0.281 C  
BRANCH   7   8
HETATM    8  N   UNL     1     -10.570  13.832  65.815  1.00  0.00    -0.286 NA 
BRANCH   8   9
HETATM    9  C   UNL     1     -10.763  13.430  64.411  1.00  0.00    -0.408 C  
HETATM   10  C   UNL     1     -12.200  13.152  63.977  1.00  0.00    -0.482 C  
ENDBRANCH   8   9
BRANCH   8  11
HETATM   11  C   UNL     1     -10.373  12.660  66.687  1.00  0.00    -0.236 C  
BRANCH  11  12
HETATM   12  C   UNL     1      -8.916  12.420  67.114  1.00  0.00    -0.195 C  
BRANCH  12  13
HETATM   13  C   UNL     1      -8.292  11.206  66.416  1.00  0.00    -0.167 C  
BRANCH  13  14
HETATM   14  C   UNL     1      -9.326  10.397  65.620  1.00  0.00    -0.198 C  
HETATM   15  H   UNL     1      -9.559   9.773  63.767  1.00  0.00     0.000 HD 
HETATM   16  O   UNL     1      -8.920  10.274  64.260  1.00  0.00    -0.195 OA 
BRANCH  14  17
HETATM   17  C   UNL     1      -9.545   9.022  66.222  1.00  0.00    -0.327 A  
HETATM   18  C   UNL     1     -10.601   8.817  67.123  1.00  0.00    -0.303 A  
HETATM   19  C   UNL     1     -10.778   7.581  67.748  1.00  0.00    -0.233 A  
HETATM   20  C   UNL     1      -9.897   6.536  67.483  1.00  0.00    -0.124 A  
HETATM   21  C   UNL     1      -8.695   7.940  65.930  1.00  0.00    -0.180 A  
HETATM   22  C   UNL     1      -8.872   6.702  66.554  1.00  0.00    -0.144 A  
BRANCH  20  23
HETATM   23  N   UNL     1     -10.062   5.297  68.164  1.00  0.00    -0.162 N  
HETATM   24  H   UNL     1     -10.557   4.518  67.728  1.00  0.00     0.000 HD 
BRANCH  23  25
HETATM   25  S   UNL     1      -9.414   5.158  69.716  1.00  0.00    -0.165 S  
HETATM   26  C   UNL     1     -10.808   5.624  70.720  1.00  0.00    -0.224 C  
HETATM   27  O   UNL     1      -8.431   6.214  69.819  1.00  0.00    -0.124 OA 
HETATM   28  O   UNL     1      -9.064   3.782  69.991  1.00  0.00    -0.096 OA 
ENDBRANCH  23  25
ENDBRANCH  20  23
ENDBRANCH  14  17
ENDBRANCH  13  14
ENDBRANCH  12  13
ENDBRANCH  11  12
ENDBRANCH   8  11
ENDBRANCH   7   8
ENDBRANCH   6   7
ENDBRANCH   5   6
ENDBRANCH   4   5
ENDBRANCH   3   4
ENDBRANCH   2   3
TORSDOF 14
ENDMDL
MODEL      211
REMARK 921   NORMALIZED FREE ENERGY PREDICTED BY IDOCK:   -3.43 KCAL/MOL
REMARK 922        TOTAL FREE ENERGY PREDICTED BY IDOCK:   -8.09 KCAL/MOL
REMARK 923 INTER-LIGAND FREE ENERGY PREDICTED BY IDOCK:   -6.62 KCAL/MOL
REMARK 924 INTRA-LIGAND FREE ENERGY PREDICTED BY IDOCK:   -1.47 KCAL/MOL
REMARK 927      BINDING AFFINITY PREDICTED BY RF-SCORE:    0.00 PKD
ROOT
HETATM    1  C   UNL     1     -10.921  15.280  67.859  1.00  0.00    -0.306 C  
HETATM    2  C   UNL     1     -11.662  14.505  66.785  1.00  0.00    -0.393 C  
ENDROOT
BRANCH   2   3
HETATM    3  C   UNL     1     -11.204  14.915  65.386  1.00  0.00    -0.359 C  
BRANCH   3   4
HETATM    4  C   UNL     1     -12.308  14.646  64.371  1.00  0.00    -0.420 C  
BRANCH   4   5
HETATM    5  C   UNL     1     -12.357  13.178  63.955  1.00  0.00    -0.425 C  
BRANCH   5   6
HETATM    6  C   UNL     1     -10.942  12.693  63.646  1.00  0.00    -0.464 C  
BRANCH   6   7
HETATM    7  C   UNL     1     -10.637  11.360  64.333  1.00  0.00    -0.341 C  
BRANCH   7   8
HETATM    8  N   UNL     1      -9.421  11.398  65.165  1.00  0.00    -0.222 NA 
BRANCH   8   9
HETATM    9  C   UNL     1      -9.671  11.227  66.607  1.00  0.00    -0.196 C  
HETATM   10  C   UNL     1     -11.083  10.806  67.005  1.00  0.00    -0.245 C  
ENDBRANCH   8   9
BRANCH   8  11
HETATM   11  C   UNL     1      -8.390  10.460  64.683  1.00  0.00    -0.155 C  
BRANCH  11  12
HETATM   12  C   UNL     1      -8.777   8.977  64.791  1.00  0.00    -0.187 C  
BRANCH  12  13
HETATM   13  C   UNL     1      -7.621   8.103  65.292  1.00  0.00    -0.095 C  
BRANCH  13  14
HETATM   14  C   UNL     1      -8.103   6.739  65.804  1.00  0.00    -0.123 C  
HETATM   15  H   UNL     1      -7.295   5.112  66.566  1.00  0.00     0.000 HD 
HETATM   16  O   UNL     1      -6.997   5.957  66.249  1.00  0.00    -0.060 OA 
BRANCH  14  17
HETATM   17  C   UNL     1      -9.117   6.886  66.922  1.00  0.00    -0.152 A  
HETATM   18  C   UNL     1      -8.776   7.600  68.081  1.00  0.00    -0.122 A  
HETATM   19  C   UNL     1      -9.665   7.687  69.154  1.00  0.00    -0.164 A  
HETATM   20  C   UNL     1     -10.904   7.055  69.083  1.00  0.00    -0.195 A  
HETATM   21  C   UNL     1     -10.393   6.297  66.849  1.00  0.00    -0.306 A  
HETATM   22  C   UNL     1     -11.283   6.384  67.923  1.00  0.00    -0.262 A  
BRANCH  20  23
HETATM   23  N   UNL     1     -11.779   7.112  70.205  1.00  0.00    -0.540 N  
HETATM   24  H   UNL     1     -12.679   7.590  70.147  1.00  0.00     0.000 HD 
BRANCH  23  25
HETATM   25  S   UNL     1     -11.280   6.365  71.633  1.00  0.00    -0.290 S  
HETATM   26  C   UNL     1     -10.618   7.748  72.539  1.00  0.00    -0.293 C  
HETATM   27  O   UNL     1     -10.169   5.518  71.257  1.00  0.00    -0.204 OA 
HETATM   28  O   UNL     1     -12.421   5.829  72.343  1.00  0.00    -0.098 OA 
ENDBRANCH  23  25
ENDBRANCH  20  23
ENDBRANCH  14  17
ENDBRANCH  13  14
ENDBRANCH  12  13
ENDBRANCH  11  12
ENDBRANCH   8  11
ENDBRANCH   7   8
ENDBRANCH   6   7
ENDBRANCH   5   6
ENDBRANCH   4   5
ENDBRANCH   3   4
ENDBRANCH   2   3
TORSDOF 14
ENDMDL
MODEL      212
REMARK 921   NORMALIZED FREE ENERGY PREDICTED BY IDOCK:   -3.43 KCAL/MOL
REMARK 922        TOTAL FREE ENERGY PREDICTED BY IDOCK:   -8.09 KCAL/MOL
REMARK 923 INTER-LIGAND FREE ENERGY PREDICTED BY IDOCK:   -7.44 KCAL/MOL
REMARK 924 INTRA-LIGAND FREE ENERGY PREDICTED BY IDOCK:   -0.64 KCAL/MOL
REMARK 927      BINDING AFFINITY PREDICTED BY RF-SCORE:    0.00 PKD
ROOT
HETATM    1  C   UNL     1     -12.417  15.188  73.792  1.00  0.00    -0.718 C  
HETATM    2  C   UNL     1     -13.122  14.417  72.692  1.00  0.00    -0.564 C  
ENDROOT
BRANCH   2   3
HETATM    3  C   UNL     1     -13.575  15.342  71.564  1.00  0.00    -0.604 C  
BRANCH   3   4
HETATM    4  C   UNL     1     -12.392  15.708  70.676  1.00  0.00    -0.457 C  
BRANCH   4   5
HETATM    5  C   UNL     1     -11.698  14.471  70.110  1.00  0.00    -0.357 C  
BRANCH   5   6
HETATM    6  C   UNL     1     -12.277  14.152  68.734  1.00  0.00    -0.234 C  
BRANCH   6   7
HETATM    7  C   UNL     1     -11.188  13.733  67.744  1.00  0.00    -0.288 C  
BRANCH   7   8
HETATM    8  N   UNL     1     -11.720  13.089  66.530  1.00  0.00    -0.363 NA 
BRANCH   8   9
HETATM    9  C   UNL     1     -12.529  13.981  65.679  1.00  0.00    -0.504 C  
HETATM   10  C   UNL     1     -12.062  14.146  64.235  1.00  0.00    -0.471 C  
ENDBRANCH   8   9
BRANCH   8  11
HETATM   11  C   UNL     1     -10.665  12.416  65.751  1.00  0.00    -0.267 C  
BRANCH  11  12
HETATM   12  C   UNL     1     -10.667  10.883  65.867  1.00  0.00    -0.193 C  
BRANCH  12  13
HETATM   13  C   UNL     1      -9.706  10.218  64.875  1.00  0.00    -0.385 C  
BRANCH  13  14
HETATM   14  C   UNL     1      -8.549   9.498  65.579  1.00  0.00    -0.146 C  
HETATM   15  H   UNL     1      -7.601   9.622  67.301  1.00  0.00     0.000 HD 
HETATM   16  O   UNL     1      -8.318  10.068  66.865  1.00  0.00    -0.124 OA 
BRANCH  14  17
HETATM   17  C   UNL     1      -8.813   8.010  65.712  1.00  0.00    -0.170 A  
HETATM   18  C   UNL     1      -8.176   7.110  64.845  1.00  0.00    -0.073 A  
HETATM   19  C   UNL     1      -8.460   5.744  64.898  1.00  0.00    -0.103 A  
HETATM   20  C   UNL     1      -9.388   5.262  65.817  1.00  0.00    -0.139 A  
HETATM   21  C   UNL     1      -9.710   7.498  66.668  1.00  0.00    -0.273 A  
HETATM   22  C   UNL     1      -9.994   6.131  66.722  1.00  0.00    -0.218 A  
BRANCH  20  23
HETATM   23  N   UNL     1      -9.702   3.873  65.827  1.00  0.00    -0.269 N  
HETATM   24  H   UNL     1     -10.334   3.471  65.134  1.00  0.00     0.000 HD 
BRANCH  23  25
HETATM   25  S   UNL     1      -8.994   2.913  67.021  1.00  0.00    -0.161 S  
HETATM   26  C   UNL     1      -7.285   3.391  66.886  1.00  0.00    -0.063 C  
HETATM   27  O   UNL     1      -9.106   1.554  66.538  1.00  0.00    -0.113 OA 
HETATM   28  O   UNL     1      -9.495   3.286  68.325  1.00  0.00    -0.188 OA 
ENDBRANCH  23  25
ENDBRANCH  20  23
ENDBRANCH  14  17
ENDBRANCH  13  14
ENDBRANCH  12  13
ENDBRANCH  11  12
ENDBRANCH   8  11
ENDBRANCH   7   8
ENDBRANCH   6   7
ENDBRANCH   5   6
ENDBRANCH   4   5
ENDBRANCH   3   4
ENDBRANCH   2   3
TORSDOF 14
ENDMDL
MODEL      213
REMARK 921   NORMALIZED FREE ENERGY PREDICTED BY IDOCK:   -3.42 KCAL/MOL
REMARK 922        TOTAL FREE ENERGY PREDICTED BY IDOCK:   -8.07 KCAL/MOL
REMARK 923 INTER-LIGAND FREE ENERGY PREDICTED BY IDOCK:   -7.05 KCAL/MOL
REMARK 924 INTRA-LIGAND FREE ENERGY PREDICTED BY IDOCK:   -1.03 KCAL/MOL
REMARK 927      BINDING AFFINITY PREDICTED BY RF-SCORE:    0.00 PKD
ROOT
HETATM    1  C   UNL     1      -7.750   8.364  73.007  1.00  0.00    -0.127 C  
HETATM    2  C   UNL     1      -8.644   7.191  73.363  1.00  0.00    -0.162 C  
ENDROOT
BRANCH   2   3
HETATM    3  C   UNL     1     -10.119   7.587  73.339  1.00  0.00    -0.393 C  
BRANCH   3   4
HETATM    4  C   UNL     1     -10.976   6.401  72.912  1.00  0.00    -0.281 C  
BRANCH   4   5
HETATM    5  C   UNL     1     -11.945   6.770  71.792  1.00  0.00    -0.382 C  
BRANCH   5   6
HETATM    6  C   UNL     1     -11.364   7.924  70.980  1.00  0.00    -0.292 C  
BRANCH   6   7
HETATM    7  C   UNL     1     -10.783   7.445  69.648  1.00  0.00    -0.235 C  
BRANCH   7   8
HETATM    8  N   UNL     1      -9.901   8.436  69.006  1.00  0.00    -0.178 NA 
BRANCH   8   9
HETATM    9  C   UNL     1      -9.858   8.343  67.536  1.00  0.00    -0.181 C  
HETATM   10  C   UNL     1      -8.510   7.981  66.919  1.00  0.00    -0.124 C  
ENDBRANCH   8   9
BRANCH   8  11
HETATM   11  C   UNL     1     -10.197   9.811  69.448  1.00  0.00    -0.210 C  
BRANCH  11  12
HETATM   12  C   UNL     1     -10.725  10.737  68.342  1.00  0.00    -0.255 C  
BRANCH  12  13
HETATM   13  C   UNL     1      -9.883  12.009  68.189  1.00  0.00    -0.201 C  
BRANCH  13  14
HETATM   14  C   UNL     1     -10.491  12.992  67.179  1.00  0.00    -0.243 C  
HETATM   15  H   UNL     1     -12.289  13.586  66.642  1.00  0.00     0.000 HD 
HETATM   16  O   UNL     1     -11.913  12.978  67.267  1.00  0.00    -0.366 OA 
BRANCH  14  17
HETATM   17  C   UNL     1      -9.972  14.402  67.389  1.00  0.00    -0.242 A  
HETATM   18  C   UNL     1     -10.732  15.320  68.130  1.00  0.00    -0.257 A  
HETATM   19  C   UNL     1     -10.312  16.644  68.274  1.00  0.00    -0.304 A  
HETATM   20  C   UNL     1      -9.129  17.067  67.673  1.00  0.00    -0.229 A  
HETATM   21  C   UNL     1      -8.755  14.836  66.831  1.00  0.00    -0.264 A  
HETATM   22  C   UNL     1      -8.334  16.160  66.976  1.00  0.00    -0.247 A  
BRANCH  20  23
HETATM   23  N   UNL     1      -8.740  18.431  67.789  1.00  0.00    -0.264 N  
HETATM   24  H   UNL     1      -8.147  18.747  68.557  1.00  0.00     0.000 HD 
BRANCH  23  25
HETATM   25  S   UNL     1      -9.290  19.511  66.613  1.00  0.00    -0.380 S  
HETATM   26  C   UNL     1      -7.758  20.019  65.861  1.00  0.00    -0.282 C  
HETATM   27  O   UNL     1      -9.812  20.644  67.346  1.00  0.00    -0.464 OA 
HETATM   28  O   UNL     1     -10.097  18.816  65.635  1.00  0.00    -0.482 OA 
ENDBRANCH  23  25
ENDBRANCH  20  23
ENDBRANCH  14  17
ENDBRANCH  13  14
ENDBRANCH  12  13
ENDBRANCH  11  12
ENDBRANCH   8  11
ENDBRANCH   7   8
ENDBRANCH   6   7
ENDBRANCH   5   6
ENDBRANCH   4   5
ENDBRANCH   3   4
ENDBRANCH   2   3
TORSDOF 14
ENDMDL
MODEL      214
REMARK 921   NORMALIZED FREE ENERGY PREDICTED BY IDOCK:   -3.42 KCAL/MOL
REMARK 922        TOTAL FREE ENERGY PREDICTED BY IDOCK:   -8.07 KCAL/MOL
REMARK 923 INTER-LIGAND FREE ENERGY PREDICTED BY IDOCK:   -6.66 KCAL/MOL
REMARK 924 INTRA-LIGAND FREE ENERGY PREDICTED BY IDOCK:   -1.41 KCAL/MOL
REMARK 927      BINDING AFFINITY PREDICTED BY RF-SCORE:    0.00 PKD
ROOT
HETATM    1  C   UNL     1     -11.594  14.911  64.347  1.00  0.00    -0.296 C  
HETATM    2  C   UNL     1     -11.372  13.425  64.561  1.00  0.00    -0.391 C  
ENDROOT
BRANCH   2   3
HETATM    3  C   UNL     1     -12.033  12.943  65.850  1.00  0.00    -0.504 C  
BRANCH   3   4
HETATM    4  C   UNL     1     -12.053  14.063  66.883  1.00  0.00    -0.465 C  
BRANCH   4   5
HETATM    5  C   UNL     1     -10.903  13.944  67.879  1.00  0.00    -0.256 C  
BRANCH   5   6
HETATM    6  C   UNL     1     -10.037  15.200  67.802  1.00  0.00    -0.230 C  
BRANCH   6   7
HETATM    7  C   UNL     1      -8.871  15.026  66.826  1.00  0.00    -0.268 C  
BRANCH   7   8
HETATM    8  N   UNL     1      -7.571  15.427  67.394  1.00  0.00    -0.185 NA 
BRANCH   8   9
HETATM    9  C   UNL     1      -7.671  16.352  68.537  1.00  0.00    -0.195 C  
HETATM   10  C   UNL     1      -6.601  16.214  69.616  1.00  0.00    -0.182 C  
ENDBRANCH   8   9
BRANCH   8  11
HETATM   11  C   UNL     1      -6.725  14.264  67.716  1.00  0.00    -0.176 C  
BRANCH  11  12
HETATM   12  C   UNL     1      -7.494  12.948  67.904  1.00  0.00    -0.131 C  
BRANCH  12  13
HETATM   13  C   UNL     1      -7.022  12.161  69.132  1.00  0.00    -0.053 C  
BRANCH  13  14
HETATM   14  C   UNL     1      -7.097  10.643  68.916  1.00  0.00    -0.078 C  
HETATM   15  H   UNL     1      -5.929   9.083  69.194  1.00  0.00     0.000 HD 
HETATM   16  O   UNL     1      -5.883  10.023  69.328  1.00  0.00    -0.038 OA 
BRANCH  14  17
HETATM   17  C   UNL     1      -8.270  10.029  69.656  1.00  0.00    -0.185 A  
HETATM   18  C   UNL     1      -9.580  10.309  69.238  1.00  0.00    -0.239 A  
HETATM   19  C   UNL     1     -10.677   9.816  69.948  1.00  0.00    -0.303 A  
HETATM   20  C   UNL     1     -10.477   9.042  71.088  1.00  0.00    -0.293 A  
HETATM   21  C   UNL     1      -8.088   9.204  70.781  1.00  0.00    -0.207 A  
HETATM   22  C   UNL     1      -9.186   8.710  71.491  1.00  0.00    -0.316 A  
BRANCH  20  23
HETATM   23  N   UNL     1     -11.606   8.588  71.827  1.00  0.00    -0.290 N  
HETATM   24  H   UNL     1     -11.993   9.143  72.591  1.00  0.00     0.000 HD 
BRANCH  23  25
HETATM   25  S   UNL     1     -12.282   7.102  71.400  1.00  0.00    -0.379 S  
HETATM   26  C   UNL     1     -11.461   6.005  72.538  1.00  0.00    -0.290 C  
HETATM   27  O   UNL     1     -11.776   6.815  70.076  1.00  0.00    -0.337 OA 
HETATM   28  O   UNL     1     -13.702   7.101  71.675  1.00  0.00    -0.376 OA 
ENDBRANCH  23  25
ENDBRANCH  20  23
ENDBRANCH  14  17
ENDBRANCH  13  14
ENDBRANCH  12  13
ENDBRANCH  11  12
ENDBRANCH   8  11
ENDBRANCH   7   8
ENDBRANCH   6   7
ENDBRANCH   5   6
ENDBRANCH   4   5
ENDBRANCH   3   4
ENDBRANCH   2   3
TORSDOF 14
ENDMDL
MODEL      215
REMARK 921   NORMALIZED FREE ENERGY PREDICTED BY IDOCK:   -3.42 KCAL/MOL
REMARK 922        TOTAL FREE ENERGY PREDICTED BY IDOCK:   -8.06 KCAL/MOL
REMARK 923 INTER-LIGAND FREE ENERGY PREDICTED BY IDOCK:   -6.31 KCAL/MOL
REMARK 924 INTRA-LIGAND FREE ENERGY PREDICTED BY IDOCK:   -1.75 KCAL/MOL
REMARK 927      BINDING AFFINITY PREDICTED BY RF-SCORE:    0.00 PKD
ROOT
HETATM    1  C   UNL     1     -10.217  16.848  69.073  1.00  0.00    -0.308 C  
HETATM    2  C   UNL     1      -9.951  15.389  69.396  1.00  0.00    -0.272 C  
ENDROOT
BRANCH   2   3
HETATM    3  C   UNL     1      -8.777  14.844  68.585  1.00  0.00    -0.177 C  
BRANCH   3   4
HETATM    4  C   UNL     1      -9.077  13.427  68.112  1.00  0.00    -0.207 C  
BRANCH   4   5
HETATM    5  C   UNL     1      -7.919  12.833  67.314  1.00  0.00    -0.156 C  
BRANCH   5   6
HETATM    6  C   UNL     1      -7.111  11.901  68.214  1.00  0.00    -0.081 C  
BRANCH   6   7
HETATM    7  C   UNL     1      -8.017  10.988  69.043  1.00  0.00    -0.114 C  
BRANCH   7   8
HETATM    8  N   UNL     1      -7.406   9.682  69.350  1.00  0.00    -0.075 NA 
BRANCH   8   9
HETATM    9  C   UNL     1      -6.837   9.586  70.706  1.00  0.00    -0.103 C  
HETATM   10  C   UNL     1      -7.410   8.494  71.606  1.00  0.00    -0.118 C  
ENDBRANCH   8   9
BRANCH   8  11
HETATM   11  C   UNL     1      -8.322   8.561  69.071  1.00  0.00    -0.118 C  
BRANCH  11  12
HETATM   12  C   UNL     1      -9.791   8.970  68.884  1.00  0.00    -0.181 C  
BRANCH  12  13
HETATM   13  C   UNL     1     -10.311   8.663  67.474  1.00  0.00    -0.336 C  
BRANCH  13  14
HETATM   14  C   UNL     1      -9.414   9.259  66.381  1.00  0.00    -0.218 C  
HETATM   15  H   UNL     1      -8.555   8.644  64.719  1.00  0.00     0.000 HD 
HETATM   16  O   UNL     1      -9.110   8.275  65.396  1.00  0.00    -0.082 OA 
BRANCH  14  17
HETATM   17  C   UNL     1     -10.057  10.467  65.725  1.00  0.00    -0.329 A  
HETATM   18  C   UNL     1      -9.554  10.947  64.507  1.00  0.00    -0.312 A  
HETATM   19  C   UNL     1     -10.081  12.101  63.922  1.00  0.00    -0.387 A  
HETATM   20  C   UNL     1     -11.114  12.791  64.552  1.00  0.00    -0.330 A  
HETATM   21  C   UNL     1     -11.134  11.149  66.321  1.00  0.00    -0.176 A  
HETATM   22  C   UNL     1     -11.662  12.303  65.736  1.00  0.00    -0.445 A  
BRANCH  20  23
HETATM   23  N   UNL     1     -11.607  13.991  63.967  1.00  0.00    -0.637 N  
HETATM   24  H   UNL     1     -12.160  13.971  63.110  1.00  0.00     0.000 HD 
BRANCH  23  25
HETATM   25  S   UNL     1     -11.247  15.449  64.737  1.00  0.00    -0.338 S  
HETATM   26  C   UNL     1     -12.139  15.266  66.267  1.00  0.00     0.445 C  
HETATM   27  O   UNL     1     -11.918  16.470  63.962  1.00  0.00    -0.964 OA 
HETATM   28  O   UNL     1      -9.830  15.532  65.015  1.00  0.00    -0.290 OA 
ENDBRANCH  23  25
ENDBRANCH  20  23
ENDBRANCH  14  17
ENDBRANCH  13  14
ENDBRANCH  12  13
ENDBRANCH  11  12
ENDBRANCH   8  11
ENDBRANCH   7   8
ENDBRANCH   6   7
ENDBRANCH   5   6
ENDBRANCH   4   5
ENDBRANCH   3   4
ENDBRANCH   2   3
TORSDOF 14
ENDMDL
MODEL      216
REMARK 921   NORMALIZED FREE ENERGY PREDICTED BY IDOCK:   -3.40 KCAL/MOL
REMARK 922        TOTAL FREE ENERGY PREDICTED BY IDOCK:   -8.04 KCAL/MOL
REMARK 923 INTER-LIGAND FREE ENERGY PREDICTED BY IDOCK:   -6.26 KCAL/MOL
REMARK 924 INTRA-LIGAND FREE ENERGY PREDICTED BY IDOCK:   -1.79 KCAL/MOL
REMARK 927      BINDING AFFINITY PREDICTED BY RF-SCORE:    0.00 PKD
ROOT
HETATM    1  C   UNL     1     -11.258  14.534  64.611  1.00  0.00    -0.359 C  
HETATM    2  C   UNL     1     -11.679  13.172  65.129  1.00  0.00    -0.367 C  
ENDROOT
BRANCH   2   3
HETATM    3  C   UNL     1     -12.019  13.222  66.618  1.00  0.00    -0.446 C  
BRANCH   3   4
HETATM    4  C   UNL     1     -11.784  14.625  67.164  1.00  0.00    -0.392 C  
BRANCH   4   5
HETATM    5  C   UNL     1     -11.011  14.606  68.480  1.00  0.00    -0.261 C  
BRANCH   5   6
HETATM    6  C   UNL     1      -9.734  15.428  68.327  1.00  0.00    -0.209 C  
BRANCH   6   7
HETATM    7  C   UNL     1      -8.775  14.805  67.310  1.00  0.00    -0.210 C  
BRANCH   7   8
HETATM    8  N   UNL     1      -7.495  14.375  67.902  1.00  0.00    -0.135 NA 
BRANCH   8   9
HETATM    9  C   UNL     1      -7.253  14.898  69.259  1.00  0.00    -0.172 C  
HETATM   10  C   UNL     1      -6.203  14.166  70.090  1.00  0.00    -0.151 C  
ENDBRANCH   8   9
BRANCH   8  11
HETATM   11  C   UNL     1      -7.325  12.912  67.853  1.00  0.00    -0.127 C  
BRANCH  11  12
HETATM   12  C   UNL     1      -8.484  12.157  67.182  1.00  0.00    -0.182 C  
BRANCH  12  13
HETATM   13  C   UNL     1      -8.655  10.736  67.732  1.00  0.00    -0.127 C  
BRANCH  13  14
HETATM   14  C   UNL     1     -10.051  10.166  67.445  1.00  0.00    -0.205 C  
HETATM   15  H   UNL     1     -10.956   9.230  65.968  1.00  0.00     0.000 HD 
HETATM   16  O   UNL     1     -10.092   9.583  66.145  1.00  0.00    -0.284 OA 
BRANCH  14  17
HETATM   17  C   UNL     1     -10.462   9.142  68.486  1.00  0.00    -0.238 A  
HETATM   18  C   UNL     1     -10.892   9.570  69.751  1.00  0.00    -0.264 A  
HETATM   19  C   UNL     1     -11.204   8.645  70.750  1.00  0.00    -0.298 A  
HETATM   20  C   UNL     1     -11.085   7.281  70.497  1.00  0.00    -0.267 A  
HETATM   21  C   UNL     1     -10.397   7.759  68.233  1.00  0.00    -0.239 A  
HETATM   22  C   UNL     1     -10.710   6.834  69.232  1.00  0.00    -0.288 A  
BRANCH  20  23
HETATM   23  N   UNL     1     -11.361   6.353  71.540  1.00  0.00    -0.282 N  
HETATM   24  H   UNL     1     -12.314   6.041  71.729  1.00  0.00     0.000 HD 
BRANCH  23  25
HETATM   25  S   UNL     1     -10.061   5.786  72.455  1.00  0.00    -0.184 S  
HETATM   26  C   UNL     1      -9.848   4.151  71.782  1.00  0.00    -0.182 C  
HETATM   27  O   UNL     1     -10.572   5.640  73.800  1.00  0.00    -0.253 OA 
HETATM   28  O   UNL     1      -8.878   6.573  72.185  1.00  0.00    -0.135 OA 
ENDBRANCH  23  25
ENDBRANCH  20  23
ENDBRANCH  14  17
ENDBRANCH  13  14
ENDBRANCH  12  13
ENDBRANCH  11  12
ENDBRANCH   8  11
ENDBRANCH   7   8
ENDBRANCH   6   7
ENDBRANCH   5   6
ENDBRANCH   4   5
ENDBRANCH   3   4
ENDBRANCH   2   3
TORSDOF 14
ENDMDL
MODEL      217
REMARK 921   NORMALIZED FREE ENERGY PREDICTED BY IDOCK:   -3.40 KCAL/MOL
REMARK 922        TOTAL FREE ENERGY PREDICTED BY IDOCK:   -8.04 KCAL/MOL
REMARK 923 INTER-LIGAND FREE ENERGY PREDICTED BY IDOCK:   -6.54 KCAL/MOL
REMARK 924 INTRA-LIGAND FREE ENERGY PREDICTED BY IDOCK:   -1.50 KCAL/MOL
REMARK 927      BINDING AFFINITY PREDICTED BY RF-SCORE:    0.00 PKD
ROOT
HETATM    1  C   UNL     1     -12.094  11.891  70.356  1.00  0.00    -0.421 C  
HETATM    2  C   UNL     1     -11.156  12.224  69.210  1.00  0.00    -0.220 C  
ENDROOT
BRANCH   2   3
HETATM    3  C   UNL     1     -11.523  11.449  67.946  1.00  0.00    -0.361 C  
BRANCH   3   4
HETATM    4  C   UNL     1     -11.775  12.412  66.793  1.00  0.00    -0.430 C  
BRANCH   4   5
HETATM    5  C   UNL     1     -10.932  12.070  65.567  1.00  0.00    -0.345 C  
BRANCH   5   6
HETATM    6  C   UNL     1     -10.282  10.703  65.767  1.00  0.00    -0.317 C  
BRANCH   6   7
HETATM    7  C   UNL     1      -8.896  10.634  65.121  1.00  0.00    -0.193 C  
BRANCH   7   8
HETATM    8  N   UNL     1      -8.674   9.400  64.346  1.00  0.00    -0.198 NA 
BRANCH   8   9
HETATM    9  C   UNL     1      -8.823   9.568  62.890  1.00  0.00    -0.232 C  
HETATM   10  C   UNL     1      -8.757  10.999  62.362  1.00  0.00    -0.356 C  
ENDBRANCH   8   9
BRANCH   8  11
HETATM   11  C   UNL     1      -7.393   8.755  64.685  1.00  0.00    -0.098 C  
BRANCH  11  12
HETATM   12  C   UNL     1      -7.472   7.231  64.862  1.00  0.00    -0.091 C  
BRANCH  12  13
HETATM   13  C   UNL     1      -7.061   6.781  66.269  1.00  0.00    -0.067 C  
BRANCH  13  14
HETATM   14  C   UNL     1      -8.058   5.783  66.875  1.00  0.00    -0.102 C  
HETATM   15  H   UNL     1      -7.982   4.107  67.905  1.00  0.00     0.000 HD 
HETATM   16  O   UNL     1      -7.365   4.725  67.529  1.00  0.00    -0.072 OA 
BRANCH  14  17
HETATM   17  C   UNL     1      -9.007   6.460  67.846  1.00  0.00    -0.114 A  
HETATM   18  C   UNL     1     -10.144   5.774  68.300  1.00  0.00    -0.208 A  
HETATM   19  C   UNL     1     -11.071   6.402  69.135  1.00  0.00    -0.428 A  
HETATM   20  C   UNL     1     -10.874   7.725  69.522  1.00  0.00    -0.153 A  
HETATM   21  C   UNL     1      -8.800   7.780  68.288  1.00  0.00    -0.129 A  
HETATM   22  C   UNL     1      -9.727   8.408  69.124  1.00  0.00    -0.171 A  
BRANCH  20  23
HETATM   23  N   UNL     1     -11.853   8.365  70.334  1.00  0.00    -0.476 N  
HETATM   24  H   UNL     1     -12.630   8.877  69.916  1.00  0.00     0.000 HD 
BRANCH  23  25
HETATM   25  S   UNL     1     -11.687   8.248  72.009  1.00  0.00    -0.373 S  
HETATM   26  C   UNL     1     -11.873   6.495  72.258  1.00  0.00    -0.258 C  
HETATM   27  O   UNL     1     -12.859   8.893  72.558  1.00  0.00    -0.407 OA 
HETATM   28  O   UNL     1     -10.356   8.650  72.409  1.00  0.00    -0.319 OA 
ENDBRANCH  23  25
ENDBRANCH  20  23
ENDBRANCH  14  17
ENDBRANCH  13  14
ENDBRANCH  12  13
ENDBRANCH  11  12
ENDBRANCH   8  11
ENDBRANCH   7   8
ENDBRANCH   6   7
ENDBRANCH   5   6
ENDBRANCH   4   5
ENDBRANCH   3   4
ENDBRANCH   2   3
TORSDOF 14
ENDMDL
MODEL      218
REMARK 921   NORMALIZED FREE ENERGY PREDICTED BY IDOCK:   -3.40 KCAL/MOL
REMARK 922        TOTAL FREE ENERGY PREDICTED BY IDOCK:   -8.03 KCAL/MOL
REMARK 923 INTER-LIGAND FREE ENERGY PREDICTED BY IDOCK:   -6.15 KCAL/MOL
REMARK 924 INTRA-LIGAND FREE ENERGY PREDICTED BY IDOCK:   -1.88 KCAL/MOL
REMARK 927      BINDING AFFINITY PREDICTED BY RF-SCORE:    0.00 PKD
ROOT
HETATM    1  C   UNL     1      -7.140   5.089  66.392  1.00  0.00    -0.072 C  
HETATM    2  C   UNL     1      -7.067   6.555  66.005  1.00  0.00    -0.063 C  
ENDROOT
BRANCH   2   3
HETATM    3  C   UNL     1      -8.454   7.193  65.976  1.00  0.00    -0.148 C  
BRANCH   3   4
HETATM    4  C   UNL     1      -9.529   6.127  66.153  1.00  0.00    -0.100 C  
BRANCH   4   5
HETATM    5  C   UNL     1     -10.729   6.648  66.939  1.00  0.00    -0.401 C  
BRANCH   5   6
HETATM    6  C   UNL     1     -10.909   5.809  68.201  1.00  0.00    -0.249 C  
BRANCH   6   7
HETATM    7  C   UNL     1      -9.598   5.663  68.977  1.00  0.00    -0.135 C  
BRANCH   7   8
HETATM    8  N   UNL     1      -9.703   6.086  70.385  1.00  0.00    -0.167 NA 
BRANCH   8   9
HETATM    9  C   UNL     1      -9.603   4.982  71.356  1.00  0.00    -0.164 C  
HETATM   10  C   UNL     1      -9.333   3.595  70.779  1.00  0.00    -0.225 C  
ENDBRANCH   8   9
BRANCH   8  11
HETATM   11  C   UNL     1      -8.762   7.173  70.709  1.00  0.00    -0.147 C  
BRANCH  11  12
HETATM   12  C   UNL     1      -7.914   7.658  69.522  1.00  0.00    -0.125 C  
BRANCH  12  13
HETATM   13  C   UNL     1      -8.181   9.126  69.170  1.00  0.00    -0.117 C  
BRANCH  13  14
HETATM   14  C   UNL     1      -9.675   9.413  68.965  1.00  0.00    -0.166 C  
HETATM   15  H   UNL     1     -11.219   9.913  70.080  1.00  0.00     0.000 HD 
HETATM   16  O   UNL     1     -10.294   9.735  70.207  1.00  0.00    -0.258 OA 
BRANCH  14  17
HETATM   17  C   UNL     1      -9.898  10.535  67.968  1.00  0.00    -0.166 A  
HETATM   18  C   UNL     1     -10.127  10.231  66.618  1.00  0.00    -0.281 A  
HETATM   19  C   UNL     1     -10.260  11.247  65.669  1.00  0.00    -0.304 A  
HETATM   20  C   UNL     1     -10.161  12.580  66.060  1.00  0.00    -0.251 A  
HETATM   21  C   UNL     1      -9.850  11.888  68.352  1.00  0.00    -0.201 A  
HETATM   22  C   UNL     1      -9.985  12.905  67.403  1.00  0.00    -0.217 A  
BRANCH  20  23
HETATM   23  N   UNL     1     -10.251  13.602  65.074  1.00  0.00    -0.507 N  
HETATM   24  H   UNL     1      -9.413  14.006  64.655  1.00  0.00     0.000 HD 
BRANCH  23  25
HETATM   25  S   UNL     1     -11.791  14.124  64.617  1.00  0.00    -0.450 S  
HETATM   26  C   UNL     1     -12.112  13.079  63.213  1.00  0.00    -0.422 C  
HETATM   27  O   UNL     1     -11.609  15.472  64.125  1.00  0.00    -0.304 OA 
HETATM   28  O   UNL     1     -12.748  13.832  65.661  1.00  0.00    -0.509 OA 
ENDBRANCH  23  25
ENDBRANCH  20  23
ENDBRANCH  14  17
ENDBRANCH  13  14
ENDBRANCH  12  13
ENDBRANCH  11  12
ENDBRANCH   8  11
ENDBRANCH   7   8
ENDBRANCH   6   7
ENDBRANCH   5   6
ENDBRANCH   4   5
ENDBRANCH   3   4
ENDBRANCH   2   3
TORSDOF 14
ENDMDL
MODEL      219
REMARK 921   NORMALIZED FREE ENERGY PREDICTED BY IDOCK:   -3.39 KCAL/MOL
REMARK 922        TOTAL FREE ENERGY PREDICTED BY IDOCK:   -8.01 KCAL/MOL
REMARK 923 INTER-LIGAND FREE ENERGY PREDICTED BY IDOCK:   -6.72 KCAL/MOL
REMARK 924 INTRA-LIGAND FREE ENERGY PREDICTED BY IDOCK:   -1.29 KCAL/MOL
REMARK 927      BINDING AFFINITY PREDICTED BY RF-SCORE:    0.00 PKD
ROOT
HETATM    1  C   UNL     1     -10.148  19.962  68.582  1.00  0.00    -0.518 C  
HETATM    2  C   UNL     1      -9.729  20.590  67.266  1.00  0.00    -0.600 C  
ENDROOT
BRANCH   2   3
HETATM    3  C   UNL     1      -9.858  19.600  66.110  1.00  0.00    -0.523 C  
BRANCH   3   4
HETATM    4  C   UNL     1     -10.596  18.348  66.569  1.00  0.00    -0.344 C  
BRANCH   4   5
HETATM    5  C   UNL     1      -9.822  17.075  66.241  1.00  0.00    -0.310 C  
BRANCH   5   6
HETATM    6  C   UNL     1     -10.404  15.910  67.039  1.00  0.00    -0.297 C  
BRANCH   6   7
HETATM    7  C   UNL     1     -10.444  14.622  66.215  1.00  0.00    -0.298 C  
BRANCH   7   8
HETATM    8  N   UNL     1      -9.348  13.690  66.536  1.00  0.00    -0.257 NA 
BRANCH   8   9
HETATM    9  C   UNL     1      -8.816  13.832  67.904  1.00  0.00    -0.186 C  
HETATM   10  C   UNL     1      -7.571  13.015  68.235  1.00  0.00    -0.135 C  
ENDBRANCH   8   9
BRANCH   8  11
HETATM   11  C   UNL     1      -9.706  12.290  66.243  1.00  0.00    -0.244 C  
BRANCH  11  12
HETATM   12  C   UNL     1     -11.143  11.905  66.629  1.00  0.00    -0.360 C  
BRANCH  12  13
HETATM   13  C   UNL     1     -11.192  10.727  67.608  1.00  0.00    -0.370 C  
BRANCH  13  14
HETATM   14  C   UNL     1      -9.807  10.110  67.847  1.00  0.00    -0.151 C  
HETATM   15  H   UNL     1      -8.652   9.700  69.388  1.00  0.00     0.000 HD 
HETATM   16  O   UNL     1      -9.510  10.082  69.240  1.00  0.00    -0.191 OA 
BRANCH  14  17
HETATM   17  C   UNL     1      -9.709   8.712  67.267  1.00  0.00    -0.241 A  
HETATM   18  C   UNL     1     -10.764   7.806  67.454  1.00  0.00    -0.300 A  
HETATM   19  C   UNL     1     -10.666   6.490  66.996  1.00  0.00    -0.434 A  
HETATM   20  C   UNL     1      -9.509   6.064  66.348  1.00  0.00    -0.150 A  
HETATM   21  C   UNL     1      -8.569   8.277  66.567  1.00  0.00    -0.141 A  
HETATM   22  C   UNL     1      -8.471   6.961  66.106  1.00  0.00    -0.136 A  
BRANCH  20  23
HETATM   23  N   UNL     1      -9.406   4.708  65.929  1.00  0.00    -0.145 N  
HETATM   24  H   UNL     1      -9.890   4.376  65.094  1.00  0.00     0.000 HD 
BRANCH  23  25
HETATM   25  S   UNL     1      -8.456   3.665  66.857  1.00  0.00    -0.109 S  
HETATM   26  C   UNL     1      -7.032   3.464  65.808  1.00  0.00    -0.057 C  
HETATM   27  O   UNL     1      -9.168   2.406  66.871  1.00  0.00    -0.133 OA 
HETATM   28  O   UNL     1      -8.058   4.314  68.087  1.00  0.00    -0.088 OA 
ENDBRANCH  23  25
ENDBRANCH  20  23
ENDBRANCH  14  17
ENDBRANCH  13  14
ENDBRANCH  12  13
ENDBRANCH  11  12
ENDBRANCH   8  11
ENDBRANCH   7   8
ENDBRANCH   6   7
ENDBRANCH   5   6
ENDBRANCH   4   5
ENDBRANCH   3   4
ENDBRANCH   2   3
TORSDOF 14
ENDMDL
MODEL      220
REMARK 921   NORMALIZED FREE ENERGY PREDICTED BY IDOCK:   -3.37 KCAL/MOL
REMARK 922        TOTAL FREE ENERGY PREDICTED BY IDOCK:   -7.97 KCAL/MOL
REMARK 923 INTER-LIGAND FREE ENERGY PREDICTED BY IDOCK:   -6.80 KCAL/MOL
REMARK 924 INTRA-LIGAND FREE ENERGY PREDICTED BY IDOCK:   -1.17 KCAL/MOL
REMARK 927      BINDING AFFINITY PREDICTED BY RF-SCORE:    0.00 PKD
ROOT
HETATM    1  C   UNL     1     -10.999  15.828  64.590  1.00  0.00    -0.333 C  
HETATM    2  C   UNL     1      -9.990  15.178  65.519  1.00  0.00    -0.384 C  
ENDROOT
BRANCH   2   3
HETATM    3  C   UNL     1      -9.253  16.221  66.357  1.00  0.00    -0.332 C  
BRANCH   3   4
HETATM    4  C   UNL     1     -10.194  17.362  66.725  1.00  0.00    -0.318 C  
BRANCH   4   5
HETATM    5  C   UNL     1     -10.390  17.477  68.235  1.00  0.00    -0.379 C  
BRANCH   5   6
HETATM    6  C   UNL     1     -11.448  16.472  68.685  1.00  0.00    -0.146 C  
BRANCH   6   7
HETATM    7  C   UNL     1     -10.920  15.548  69.785  1.00  0.00    -0.294 C  
BRANCH   7   8
HETATM    8  N   UNL     1     -11.638  14.263  69.861  1.00  0.00    -0.274 NA 
BRANCH   8   9
HETATM    9  C   UNL     1     -12.701  14.226  70.881  1.00  0.00    -0.357 C  
HETATM   10  C   UNL     1     -13.110  15.568  71.483  1.00  0.00    -0.573 C  
ENDBRANCH   8   9
BRANCH   8  11
HETATM   11  C   UNL     1     -12.141  13.830  68.545  1.00  0.00    -0.292 C  
BRANCH  11  12
HETATM   12  C   UNL     1     -11.220  12.851  67.800  1.00  0.00    -0.319 C  
BRANCH  12  13
HETATM   13  C   UNL     1     -11.596  11.386  68.048  1.00  0.00    -0.357 C  
BRANCH  13  14
HETATM   14  C   UNL     1     -10.802  10.769  69.208  1.00  0.00    -0.242 C  
HETATM   15  H   UNL     1     -11.096  10.378  71.115  1.00  0.00     0.000 HD 
HETATM   16  O   UNL     1     -11.587  10.760  70.397  1.00  0.00    -0.304 OA 
BRANCH  14  17
HETATM   17  C   UNL     1     -10.337   9.363  68.883  1.00  0.00    -0.230 A  
HETATM   18  C   UNL     1     -10.882   8.272  69.576  1.00  0.00    -0.124 A  
HETATM   19  C   UNL     1     -10.417   6.975  69.347  1.00  0.00    -0.227 A  
HETATM   20  C   UNL     1      -9.397   6.755  68.426  1.00  0.00    -0.124 A  
HETATM   21  C   UNL     1      -9.342   9.115  67.919  1.00  0.00    -0.151 A  
HETATM   22  C   UNL     1      -8.877   7.817  67.689  1.00  0.00    -0.128 A  
BRANCH  20  23
HETATM   23  N   UNL     1      -8.901   5.434  68.239  1.00  0.00    -0.105 N  
HETATM   24  H   UNL     1      -8.206   5.038  68.873  1.00  0.00     0.000 HD 
BRANCH  23  25
HETATM   25  S   UNL     1      -9.499   4.543  66.936  1.00  0.00    -0.190 S  
HETATM   26  C   UNL     1      -8.253   4.849  65.702  1.00  0.00    -0.115 C  
HETATM   27  O   UNL     1     -10.702   5.230  66.521  1.00  0.00    -0.301 OA 
HETATM   28  O   UNL     1      -9.516   3.133  67.260  1.00  0.00    -0.198 OA 
ENDBRANCH  23  25
ENDBRANCH  20  23
ENDBRANCH  14  17
ENDBRANCH  13  14
ENDBRANCH  12  13
ENDBRANCH  11  12
ENDBRANCH   8  11
ENDBRANCH   7   8
ENDBRANCH   6   7
ENDBRANCH   5   6
ENDBRANCH   4   5
ENDBRANCH   3   4
ENDBRANCH   2   3
TORSDOF 14
ENDMDL
MODEL      221
REMARK 921   NORMALIZED FREE ENERGY PREDICTED BY IDOCK:   -3.36 KCAL/MOL
REMARK 922        TOTAL FREE ENERGY PREDICTED BY IDOCK:   -7.96 KCAL/MOL
REMARK 923 INTER-LIGAND FREE ENERGY PREDICTED BY IDOCK:   -5.62 KCAL/MOL
REMARK 924 INTRA-LIGAND FREE ENERGY PREDICTED BY IDOCK:   -2.34 KCAL/MOL
REMARK 927      BINDING AFFINITY PREDICTED BY RF-SCORE:    0.00 PKD
ROOT
HETATM    1  C   UNL     1     -10.526  14.501  67.462  1.00  0.00    -0.253 C  
HETATM    2  C   UNL     1     -10.658  14.596  68.970  1.00  0.00    -0.248 C  
ENDROOT
BRANCH   2   3
HETATM    3  C   UNL     1     -11.312  13.345  69.552  1.00  0.00    -0.248 C  
BRANCH   3   4
HETATM    4  C   UNL     1     -11.732  12.400  68.433  1.00  0.00    -0.386 C  
BRANCH   4   5
HETATM    5  C   UNL     1     -12.125  11.024  68.962  1.00  0.00    -0.285 C  
BRANCH   5   6
HETATM    6  C   UNL     1     -11.008  10.487  69.854  1.00  0.00    -0.359 C  
BRANCH   6   7
HETATM    7  C   UNL     1     -10.760   8.996  69.617  1.00  0.00    -0.219 C  
BRANCH   7   8
HETATM    8  N   UNL     1     -10.372   8.268  70.839  1.00  0.00    -0.190 NA 
BRANCH   8   9
HETATM    9  C   UNL     1     -10.100   6.835  70.626  1.00  0.00    -0.187 C  
HETATM   10  C   UNL     1     -11.178   6.044  69.889  1.00  0.00    -0.438 C  
ENDBRANCH   8   9
BRANCH   8  11
HETATM   11  C   UNL     1      -9.258   8.926  71.546  1.00  0.00    -0.252 C  
BRANCH  11  12
HETATM   12  C   UNL     1      -7.955   8.112  71.582  1.00  0.00    -0.144 C  
BRANCH  12  13
HETATM   13  C   UNL     1      -6.862   8.713  70.691  1.00  0.00    -0.045 C  
BRANCH  13  14
HETATM   14  C   UNL     1      -7.128  10.188  70.358  1.00  0.00    -0.088 C  
HETATM   15  H   UNL     1      -6.183  11.906  70.544  1.00  0.00     0.000 HD 
HETATM   16  O   UNL     1      -6.019  10.993  70.750  1.00  0.00    -0.287 OA 
BRANCH  14  17
HETATM   17  C   UNL     1      -7.416  10.386  68.882  1.00  0.00    -0.099 A  
HETATM   18  C   UNL     1      -7.012   9.411  67.958  1.00  0.00    -0.079 A  
HETATM   19  C   UNL     1      -7.200   9.605  66.587  1.00  0.00    -0.086 A  
HETATM   20  C   UNL     1      -7.789  10.779  66.125  1.00  0.00    -0.155 A  
HETATM   21  C   UNL     1      -8.056  11.543  68.400  1.00  0.00    -0.149 A  
HETATM   22  C   UNL     1      -8.244  11.737  67.028  1.00  0.00    -0.172 A  
BRANCH  20  23
HETATM   23  N   UNL     1      -7.929  10.982  64.723  1.00  0.00    -0.319 N  
HETATM   24  H   UNL     1      -7.125  11.218  64.142  1.00  0.00     0.000 HD 
BRANCH  23  25
HETATM   25  S   UNL     1      -9.470  10.818  64.053  1.00  0.00    -0.296 S  
HETATM   26  C   UNL     1      -9.077  10.252  62.411  1.00  0.00    -0.288 C  
HETATM   27  O   UNL     1      -9.984  12.165  63.937  1.00  0.00    -0.335 OA 
HETATM   28  O   UNL     1     -10.212   9.790  64.749  1.00  0.00    -0.007 OA 
ENDBRANCH  23  25
ENDBRANCH  20  23
ENDBRANCH  14  17
ENDBRANCH  13  14
ENDBRANCH  12  13
ENDBRANCH  11  12
ENDBRANCH   8  11
ENDBRANCH   7   8
ENDBRANCH   6   7
ENDBRANCH   5   6
ENDBRANCH   4   5
ENDBRANCH   3   4
ENDBRANCH   2   3
TORSDOF 14
ENDMDL
MODEL      222
REMARK 921   NORMALIZED FREE ENERGY PREDICTED BY IDOCK:   -3.36 KCAL/MOL
REMARK 922        TOTAL FREE ENERGY PREDICTED BY IDOCK:   -7.95 KCAL/MOL
REMARK 923 INTER-LIGAND FREE ENERGY PREDICTED BY IDOCK:   -5.99 KCAL/MOL
REMARK 924 INTRA-LIGAND FREE ENERGY PREDICTED BY IDOCK:   -1.97 KCAL/MOL
REMARK 927      BINDING AFFINITY PREDICTED BY RF-SCORE:    0.00 PKD
ROOT
HETATM    1  C   UNL     1     -11.740  11.538  68.007  1.00  0.00    -0.343 C  
HETATM    2  C   UNL     1     -11.747  12.822  67.198  1.00  0.00    -0.443 C  
ENDROOT
BRANCH   2   3
HETATM    3  C   UNL     1     -11.833  12.535  65.700  1.00  0.00    -0.493 C  
BRANCH   3   4
HETATM    4  C   UNL     1     -10.994  13.541  64.922  1.00  0.00    -0.359 C  
BRANCH   4   5
HETATM    5  C   UNL     1     -11.203  14.968  65.420  1.00  0.00    -0.356 C  
BRANCH   5   6
HETATM    6  C   UNL     1      -9.865  15.548  65.870  1.00  0.00    -0.385 C  
BRANCH   6   7
HETATM    7  C   UNL     1     -10.048  16.825  66.694  1.00  0.00    -0.300 C  
BRANCH   7   8
HETATM    8  N   UNL     1      -9.959  16.598  68.148  1.00  0.00    -0.251 NA 
BRANCH   8   9
HETATM    9  C   UNL     1     -11.265  16.450  68.816  1.00  0.00    -0.313 C  
HETATM   10  C   UNL     1     -11.346  15.397  69.918  1.00  0.00    -0.318 C  
ENDBRANCH   8   9
BRANCH   8  11
HETATM   11  C   UNL     1      -9.056  15.483  68.481  1.00  0.00    -0.196 C  
BRANCH  11  12
HETATM   12  C   UNL     1      -7.574  15.873  68.593  1.00  0.00    -0.161 C  
BRANCH  12  13
HETATM   13  C   UNL     1      -6.704  15.189  67.533  1.00  0.00    -0.189 C  
BRANCH  13  14
HETATM   14  C   UNL     1      -5.990  13.945  68.080  1.00  0.00    -0.139 C  
HETATM   15  H   UNL     1      -5.712  13.089  69.831  1.00  0.00     0.000 HD 
HETATM   16  O   UNL     1      -6.153  13.860  69.492  1.00  0.00    -0.098 OA 
BRANCH  14  17
HETATM   17  C   UNL     1      -6.495  12.675  67.421  1.00  0.00    -0.150 A  
HETATM   18  C   UNL     1      -5.578  11.721  66.956  1.00  0.00    -0.131 A  
HETATM   19  C   UNL     1      -6.015  10.579  66.280  1.00  0.00    -0.094 A  
HETATM   20  C   UNL     1      -7.375  10.382  66.058  1.00  0.00    -0.134 A  
HETATM   21  C   UNL     1      -7.868  12.433  67.231  1.00  0.00    -0.166 A  
HETATM   22  C   UNL     1      -8.306  11.291  66.555  1.00  0.00    -0.168 A  
BRANCH  20  23
HETATM   23  N   UNL     1      -7.801   9.238  65.325  1.00  0.00    -0.102 N  
HETATM   24  H   UNL     1      -7.519   9.098  64.355  1.00  0.00     0.000 HD 
BRANCH  23  25
HETATM   25  S   UNL     1      -8.788   8.119  66.115  1.00  0.00    -0.167 S  
HETATM   26  C   UNL     1      -7.967   7.977  67.688  1.00  0.00    -0.123 C  
HETATM   27  O   UNL     1      -8.595   6.871  65.409  1.00  0.00    -0.131 OA 
HETATM   28  O   UNL     1     -10.110   8.670  66.312  1.00  0.00    -0.277 OA 
ENDBRANCH  23  25
ENDBRANCH  20  23
ENDBRANCH  14  17
ENDBRANCH  13  14
ENDBRANCH  12  13
ENDBRANCH  11  12
ENDBRANCH   8  11
ENDBRANCH   7   8
ENDBRANCH   6   7
ENDBRANCH   5   6
ENDBRANCH   4   5
ENDBRANCH   3   4
ENDBRANCH   2   3
TORSDOF 14
ENDMDL
MODEL      223
REMARK 921   NORMALIZED FREE ENERGY PREDICTED BY IDOCK:   -3.34 KCAL/MOL
REMARK 922        TOTAL FREE ENERGY PREDICTED BY IDOCK:   -7.93 KCAL/MOL
REMARK 923 INTER-LIGAND FREE ENERGY PREDICTED BY IDOCK:   -7.31 KCAL/MOL
REMARK 924 INTRA-LIGAND FREE ENERGY PREDICTED BY IDOCK:   -0.63 KCAL/MOL
REMARK 927      BINDING AFFINITY PREDICTED BY RF-SCORE:    0.00 PKD
ROOT
HETATM    1  C   UNL     1      -6.885   2.934  69.337  1.00  0.00    -0.037 C  
HETATM    2  C   UNL     1      -8.176   2.293  68.864  1.00  0.00    -0.071 C  
ENDROOT
BRANCH   2   3
HETATM    3  C   UNL     1      -9.178   2.148  70.009  1.00  0.00    -0.183 C  
BRANCH   3   4
HETATM    4  C   UNL     1      -9.634   3.522  70.485  1.00  0.00    -0.246 C  
BRANCH   4   5
HETATM    5  C   UNL     1      -9.720   3.600  72.007  1.00  0.00    -0.238 C  
BRANCH   5   6
HETATM    6  C   UNL     1      -9.092   4.909  72.482  1.00  0.00    -0.145 C  
BRANCH   6   7
HETATM    7  C   UNL     1     -10.149   5.896  72.981  1.00  0.00    -0.181 C  
BRANCH   7   8
HETATM    8  N   UNL     1      -9.912   7.280  72.534  1.00  0.00    -0.170 NA 
BRANCH   8   9
HETATM    9  C   UNL     1      -8.597   7.822  72.922  1.00  0.00    -0.158 C  
HETATM   10  C   UNL     1      -8.253   7.767  74.408  1.00  0.00    -0.279 C  
ENDBRANCH   8   9
BRANCH   8  11
HETATM   11  C   UNL     1     -10.156   7.446  71.090  1.00  0.00    -0.186 C  
BRANCH  11  12
HETATM   12  C   UNL     1     -11.450   8.199  70.744  1.00  0.00    -0.272 C  
BRANCH  12  13
HETATM   13  C   UNL     1     -11.438   9.648  71.244  1.00  0.00    -0.463 C  
BRANCH  13  14
HETATM   14  C   UNL     1     -12.564  10.487  70.623  1.00  0.00    -0.369 C  
HETATM   15  H   UNL     1     -13.979  11.702  71.254  1.00  0.00     0.000 HD 
HETATM   16  O   UNL     1     -13.282  11.183  71.638  1.00  0.00    -0.418 OA 
BRANCH  14  17
HETATM   17  C   UNL     1     -12.030  11.470  69.599  1.00  0.00    -0.407 A  
HETATM   18  C   UNL     1     -11.396  10.994  68.441  1.00  0.00    -0.363 A  
HETATM   19  C   UNL     1     -10.830  11.878  67.520  1.00  0.00    -0.283 A  
HETATM   20  C   UNL     1     -10.887  13.251  67.750  1.00  0.00    -0.252 A  
HETATM   21  C   UNL     1     -12.121  12.862  69.788  1.00  0.00    -0.312 A  
HETATM   22  C   UNL     1     -11.556  13.747  68.866  1.00  0.00    -0.358 A  
BRANCH  20  23
HETATM   23  N   UNL     1     -10.264  14.136  66.826  1.00  0.00    -0.259 N  
HETATM   24  H   UNL     1      -9.392  14.613  67.060  1.00  0.00     0.000 HD 
BRANCH  23  25
HETATM   25  S   UNL     1     -11.012  14.373  65.332  1.00  0.00    -0.362 S  
HETATM   26  C   UNL     1     -12.665  13.807  65.676  1.00  0.00    -0.478 C  
HETATM   27  O   UNL     1     -10.401  13.413  64.439  1.00  0.00    -0.425 OA 
HETATM   28  O   UNL     1     -11.046  15.781  65.006  1.00  0.00    -0.393 OA 
ENDBRANCH  23  25
ENDBRANCH  20  23
ENDBRANCH  14  17
ENDBRANCH  13  14
ENDBRANCH  12  13
ENDBRANCH  11  12
ENDBRANCH   8  11
ENDBRANCH   7   8
ENDBRANCH   6   7
ENDBRANCH   5   6
ENDBRANCH   4   5
ENDBRANCH   3   4
ENDBRANCH   2   3
TORSDOF 14
ENDMDL
MODEL      224
REMARK 921   NORMALIZED FREE ENERGY PREDICTED BY IDOCK:   -3.33 KCAL/MOL
REMARK 922        TOTAL FREE ENERGY PREDICTED BY IDOCK:   -7.91 KCAL/MOL
REMARK 923 INTER-LIGAND FREE ENERGY PREDICTED BY IDOCK:   -6.91 KCAL/MOL
REMARK 924 INTRA-LIGAND FREE ENERGY PREDICTED BY IDOCK:   -0.99 KCAL/MOL
REMARK 927      BINDING AFFINITY PREDICTED BY RF-SCORE:    0.00 PKD
ROOT
HETATM    1  C   UNL     1      -9.320  17.867  66.661  1.00  0.00    -0.293 C  
HETATM    2  C   UNL     1     -10.432  18.209  67.636  1.00  0.00    -0.432 C  
ENDROOT
BRANCH   2   3
HETATM    3  C   UNL     1     -10.592  17.126  68.701  1.00  0.00    -0.352 C  
BRANCH   3   4
HETATM    4  C   UNL     1     -10.902  15.785  68.046  1.00  0.00    -0.309 C  
BRANCH   4   5
HETATM    5  C   UNL     1     -10.844  14.633  69.045  1.00  0.00    -0.252 C  
BRANCH   5   6
HETATM    6  C   UNL     1     -12.116  13.797  68.927  1.00  0.00    -0.348 C  
BRANCH   6   7
HETATM    7  C   UNL     1     -12.083  12.885  67.699  1.00  0.00    -0.183 C  
BRANCH   7   8
HETATM    8  N   UNL     1     -12.026  11.452  68.038  1.00  0.00    -0.640 NA 
BRANCH   8   9
HETATM    9  C   UNL     1     -10.923  10.722  67.387  1.00  0.00    -0.300 C  
HETATM   10  C   UNL     1     -10.346  11.353  66.123  1.00  0.00    -0.294 C  
ENDBRANCH   8   9
BRANCH   8  11
HETATM   11  C   UNL     1     -12.033  11.226  69.494  1.00  0.00    -0.351 C  
BRANCH  11  12
HETATM   12  C   UNL     1     -11.480   9.860  69.931  1.00  0.00    -0.234 C  
BRANCH  12  13
HETATM   13  C   UNL     1     -11.349   9.740  71.454  1.00  0.00    -0.407 C  
BRANCH  13  14
HETATM   14  C   UNL     1     -11.695   8.332  71.958  1.00  0.00    -0.346 C  
HETATM   15  H   UNL     1     -13.298   7.195  72.088  1.00  0.00     0.000 HD 
HETATM   16  O   UNL     1     -13.083   8.066  71.777  1.00  0.00    -0.328 OA 
BRANCH  14  17
HETATM   17  C   UNL     1     -10.868   7.268  71.260  1.00  0.00    -0.255 A  
HETATM   18  C   UNL     1      -9.517   7.104  71.599  1.00  0.00    -0.159 A  
HETATM   19  C   UNL     1      -8.716   6.183  70.919  1.00  0.00    -0.136 A  
HETATM   20  C   UNL     1      -9.257   5.420  69.888  1.00  0.00    -0.137 A  
HETATM   21  C   UNL     1     -11.409   6.452  70.249  1.00  0.00    -0.468 A  
HETATM   22  C   UNL     1     -10.609   5.531  69.569  1.00  0.00    -0.366 A  
BRANCH  20  23
HETATM   23  N   UNL     1      -8.416   4.521  69.173  1.00  0.00    -0.078 N  
HETATM   24  H   UNL     1      -7.977   4.797  68.294  1.00  0.00     0.000 HD 
BRANCH  23  25
HETATM   25  S   UNL     1      -8.169   2.984  69.825  1.00  0.00    -0.044 S  
HETATM   26  C   UNL     1      -7.435   2.133  68.445  1.00  0.00    -0.047 C  
HETATM   27  O   UNL     1      -9.492   2.433  70.024  1.00  0.00    -0.123 OA 
HETATM   28  O   UNL     1      -7.215   3.049  70.911  1.00  0.00    -0.033 OA 
ENDBRANCH  23  25
ENDBRANCH  20  23
ENDBRANCH  14  17
ENDBRANCH  13  14
ENDBRANCH  12  13
ENDBRANCH  11  12
ENDBRANCH   8  11
ENDBRANCH   7   8
ENDBRANCH   6   7
ENDBRANCH   5   6
ENDBRANCH   4   5
ENDBRANCH   3   4
ENDBRANCH   2   3
TORSDOF 14
ENDMDL
MODEL      225
REMARK 921   NORMALIZED FREE ENERGY PREDICTED BY IDOCK:   -3.32 KCAL/MOL
REMARK 922        TOTAL FREE ENERGY PREDICTED BY IDOCK:   -7.88 KCAL/MOL
REMARK 923 INTER-LIGAND FREE ENERGY PREDICTED BY IDOCK:   -6.65 KCAL/MOL
REMARK 924 INTRA-LIGAND FREE ENERGY PREDICTED BY IDOCK:   -1.23 KCAL/MOL
REMARK 927      BINDING AFFINITY PREDICTED BY RF-SCORE:    0.00 PKD
ROOT
HETATM    1  C   UNL     1     -10.770  16.589  67.428  1.00  0.00    -0.260 C  
HETATM    2  C   UNL     1     -10.969  15.182  66.898  1.00  0.00    -0.323 C  
ENDROOT
BRANCH   2   3
HETATM    3  C   UNL     1     -10.645  15.096  65.407  1.00  0.00    -0.410 C  
BRANCH   3   4
HETATM    4  C   UNL     1     -11.889  14.708  64.619  1.00  0.00    -0.459 C  
BRANCH   4   5
HETATM    5  C   UNL     1     -12.178  13.212  64.705  1.00  0.00    -0.477 C  
BRANCH   5   6
HETATM    6  C   UNL     1     -11.194  12.455  63.817  1.00  0.00    -0.520 C  
BRANCH   6   7
HETATM    7  C   UNL     1     -10.639  11.212  64.515  1.00  0.00    -0.328 C  
BRANCH   7   8
HETATM    8  N   UNL     1      -9.323  11.433  65.142  1.00  0.00    -0.191 NA 
BRANCH   8   9
HETATM    9  C   UNL     1      -9.392  11.896  66.539  1.00  0.00    -0.216 C  
HETATM   10  C   UNL     1      -8.207  12.720  67.039  1.00  0.00    -0.099 C  
ENDBRANCH   8   9
BRANCH   8  11
HETATM   11  C   UNL     1      -8.441  10.260  65.007  1.00  0.00    -0.172 C  
BRANCH  11  12
HETATM   12  C   UNL     1      -8.818   9.072  65.905  1.00  0.00    -0.210 C  
BRANCH  12  13
HETATM   13  C   UNL     1      -7.591   8.369  66.496  1.00  0.00    -0.088 C  
BRANCH  13  14
HETATM   14  C   UNL     1      -7.435   8.637  67.999  1.00  0.00    -0.097 C  
HETATM   15  H   UNL     1      -6.539   9.962  69.148  1.00  0.00     0.000 HD 
HETATM   16  O   UNL     1      -6.636   9.796  68.217  1.00  0.00    -0.056 OA 
BRANCH  14  17
HETATM   17  C   UNL     1      -8.780   8.799  68.682  1.00  0.00    -0.134 A  
HETATM   18  C   UNL     1      -9.114  10.023  69.280  1.00  0.00    -0.208 A  
HETATM   19  C   UNL     1     -10.314  10.174  69.979  1.00  0.00    -0.301 A  
HETATM   20  C   UNL     1     -11.192   9.099  70.091  1.00  0.00    -0.187 A  
HETATM   21  C   UNL     1      -9.703   7.740  68.763  1.00  0.00    -0.157 A  
HETATM   22  C   UNL     1     -10.904   7.890  69.461  1.00  0.00    -0.141 A  
BRANCH  20  23
HETATM   23  N   UNL     1     -12.389   9.255  70.846  1.00  0.00    -0.459 N  
HETATM   24  H   UNL     1     -13.104   9.927  70.568  1.00  0.00     0.000 HD 
BRANCH  23  25
HETATM   25  S   UNL     1     -12.586   8.291  72.219  1.00  0.00    -0.278 S  
HETATM   26  C   UNL     1     -13.452   6.891  71.541  1.00  0.00    -0.198 C  
HETATM   27  O   UNL     1     -13.514   9.010  73.063  1.00  0.00    -0.300 OA 
HETATM   28  O   UNL     1     -11.298   7.862  72.718  1.00  0.00    -0.382 OA 
ENDBRANCH  23  25
ENDBRANCH  20  23
ENDBRANCH  14  17
ENDBRANCH  13  14
ENDBRANCH  12  13
ENDBRANCH  11  12
ENDBRANCH   8  11
ENDBRANCH   7   8
ENDBRANCH   6   7
ENDBRANCH   5   6
ENDBRANCH   4   5
ENDBRANCH   3   4
ENDBRANCH   2   3
TORSDOF 14
ENDMDL
MODEL      226
REMARK 921   NORMALIZED FREE ENERGY PREDICTED BY IDOCK:   -3.31 KCAL/MOL
REMARK 922        TOTAL FREE ENERGY PREDICTED BY IDOCK:   -7.87 KCAL/MOL
REMARK 923 INTER-LIGAND FREE ENERGY PREDICTED BY IDOCK:   -6.39 KCAL/MOL
REMARK 924 INTRA-LIGAND FREE ENERGY PREDICTED BY IDOCK:   -1.48 KCAL/MOL
REMARK 927      BINDING AFFINITY PREDICTED BY RF-SCORE:    0.00 PKD
ROOT
HETATM    1  C   UNL     1      -8.465  10.538  69.681  1.00  0.00     0.013 C  
HETATM    2  C   UNL     1      -8.251  11.476  68.507  1.00  0.00    -0.148 C  
ENDROOT
BRANCH   2   3
HETATM    3  C   UNL     1      -9.482  11.527  67.603  1.00  0.00    -0.170 C  
BRANCH   3   4
HETATM    4  C   UNL     1     -10.680  12.064  68.376  1.00  0.00    -0.255 C  
BRANCH   4   5
HETATM    5  C   UNL     1     -10.727  13.590  68.370  1.00  0.00    -0.273 C  
BRANCH   5   6
HETATM    6  C   UNL     1     -11.199  14.086  69.735  1.00  0.00    -0.175 C  
BRANCH   6   7
HETATM    7  C   UNL     1     -12.502  13.408  70.165  1.00  0.00    -0.174 C  
BRANCH   7   8
HETATM    8  N   UNL     1     -12.594  13.193  71.621  1.00  0.00    -0.195 NA 
BRANCH   8   9
HETATM    9  C   UNL     1     -13.392  14.209  72.331  1.00  0.00    -0.494 C  
HETATM   10  C   UNL     1     -14.375  15.012  71.483  1.00  0.00    -0.651 C  
ENDBRANCH   8   9
BRANCH   8  11
HETATM   11  C   UNL     1     -13.042  11.829  71.953  1.00  0.00    -0.376 C  
BRANCH  11  12
HETATM   12  C   UNL     1     -12.574  10.746  70.969  1.00  0.00    -0.520 C  
BRANCH  12  13
HETATM   13  C   UNL     1     -12.860   9.328  71.476  1.00  0.00    -0.427 C  
BRANCH  13  14
HETATM   14  C   UNL     1     -11.575   8.515  71.686  1.00  0.00    -0.299 C  
HETATM   15  H   UNL     1     -10.906   7.169  72.958  1.00  0.00     0.000 HD 
HETATM   16  O   UNL     1     -11.701   7.673  72.828  1.00  0.00    -0.310 OA 
BRANCH  14  17
HETATM   17  C   UNL     1     -11.231   7.685  70.464  1.00  0.00    -0.275 A  
HETATM   18  C   UNL     1     -11.087   8.310  69.216  1.00  0.00     0.142 A  
HETATM   19  C   UNL     1     -10.845   7.558  68.064  1.00  0.00    -0.097 A  
HETATM   20  C   UNL     1     -10.750   6.172  68.146  1.00  0.00    -0.294 A  
HETATM   21  C   UNL     1     -11.082   6.287  70.534  1.00  0.00    -0.399 A  
HETATM   22  C   UNL     1     -10.840   5.535  69.382  1.00  0.00    -0.236 A  
BRANCH  20  23
HETATM   23  N   UNL     1     -10.551   5.417  66.956  1.00  0.00    -0.276 N  
HETATM   24  H   UNL     1     -11.342   5.103  66.392  1.00  0.00     0.000 HD 
BRANCH  23  25
HETATM   25  S   UNL     1      -8.965   5.056  66.506  1.00  0.00    -0.119 S  
HETATM   26  C   UNL     1      -9.221   3.707  65.372  1.00  0.00    -0.153 C  
HETATM   27  O   UNL     1      -8.342   4.514  67.693  1.00  0.00    -0.099 OA 
HETATM   28  O   UNL     1      -8.380   6.173  65.797  1.00  0.00    -0.131 OA 
ENDBRANCH  23  25
ENDBRANCH  20  23
ENDBRANCH  14  17
ENDBRANCH  13  14
ENDBRANCH  12  13
ENDBRANCH  11  12
ENDBRANCH   8  11
ENDBRANCH   7   8
ENDBRANCH   6   7
ENDBRANCH   5   6
ENDBRANCH   4   5
ENDBRANCH   3   4
ENDBRANCH   2   3
TORSDOF 14
ENDMDL
MODEL      227
REMARK 921   NORMALIZED FREE ENERGY PREDICTED BY IDOCK:   -3.30 KCAL/MOL
REMARK 922        TOTAL FREE ENERGY PREDICTED BY IDOCK:   -7.85 KCAL/MOL
REMARK 923 INTER-LIGAND FREE ENERGY PREDICTED BY IDOCK:   -6.53 KCAL/MOL
REMARK 924 INTRA-LIGAND FREE ENERGY PREDICTED BY IDOCK:   -1.32 KCAL/MOL
REMARK 927      BINDING AFFINITY PREDICTED BY RF-SCORE:    0.00 PKD
ROOT
HETATM    1  C   UNL     1     -12.773  11.968  63.387  1.00  0.00    -0.527 C  
HETATM    2  C   UNL     1     -11.809  12.093  64.552  1.00  0.00    -0.418 C  
ENDROOT
BRANCH   2   3
HETATM    3  C   UNL     1     -10.676  13.067  64.236  1.00  0.00    -0.430 C  
BRANCH   3   4
HETATM    4  C   UNL     1     -10.934  14.411  64.907  1.00  0.00    -0.416 C  
BRANCH   4   5
HETATM    5  C   UNL     1     -10.068  14.606  66.149  1.00  0.00    -0.316 C  
BRANCH   5   6
HETATM    6  C   UNL     1     -10.885  15.311  67.229  1.00  0.00    -0.318 C  
BRANCH   6   7
HETATM    7  C   UNL     1     -10.364  14.994  68.632  1.00  0.00    -0.236 C  
BRANCH   7   8
HETATM    8  N   UNL     1     -11.365  14.335  69.490  1.00  0.00    -0.265 NA 
BRANCH   8   9
HETATM    9  C   UNL     1     -12.242  15.269  70.219  1.00  0.00    -0.363 C  
HETATM   10  C   UNL     1     -12.090  15.298  71.737  1.00  0.00    -0.439 C  
ENDBRANCH   8   9
BRANCH   8  11
HETATM   11  C   UNL     1     -12.147  13.325  68.755  1.00  0.00    -0.219 C  
BRANCH  11  12
HETATM   12  C   UNL     1     -11.672  11.878  68.959  1.00  0.00    -0.391 C  
BRANCH  12  13
HETATM   13  C   UNL     1     -11.042  11.283  67.694  1.00  0.00    -0.336 C  
BRANCH  13  14
HETATM   14  C   UNL     1      -9.609  10.788  67.935  1.00  0.00    -0.160 C  
HETATM   15  H   UNL     1      -8.514  10.219  69.470  1.00  0.00     0.000 HD 
HETATM   16  O   UNL     1      -9.401  10.526  69.320  1.00  0.00    -0.199 OA 
BRANCH  14  17
HETATM   17  C   UNL     1      -9.302   9.545  67.121  1.00  0.00    -0.174 A  
HETATM   18  C   UNL     1      -8.493   9.645  65.979  1.00  0.00    -0.131 A  
HETATM   19  C   UNL     1      -8.257   8.530  65.171  1.00  0.00    -0.153 A  
HETATM   20  C   UNL     1      -8.832   7.303  65.494  1.00  0.00     0.043 A  
HETATM   21  C   UNL     1      -9.833   8.287  67.458  1.00  0.00    -0.231 A  
HETATM   22  C   UNL     1      -9.597   7.171  66.651  1.00  0.00    -0.226 A  
BRANCH  20  23
HETATM   23  N   UNL     1      -8.621   6.189  64.634  1.00  0.00    -0.345 N  
HETATM   24  H   UNL     1      -9.140   6.091  63.761  1.00  0.00     0.000 HD 
BRANCH  23  25
HETATM   25  S   UNL     1      -7.483   5.034  65.105  1.00  0.00    -0.078 S  
HETATM   26  C   UNL     1      -8.525   3.624  65.415  1.00  0.00    -0.106 C  
HETATM   27  O   UNL     1      -6.977   5.490  66.380  1.00  0.00    -0.061 OA 
HETATM   28  O   UNL     1      -6.589   4.736  64.008  1.00  0.00    -0.040 OA 
ENDBRANCH  23  25
ENDBRANCH  20  23
ENDBRANCH  14  17
ENDBRANCH  13  14
ENDBRANCH  12  13
ENDBRANCH  11  12
ENDBRANCH   8  11
ENDBRANCH   7   8
ENDBRANCH   6   7
ENDBRANCH   5   6
ENDBRANCH   4   5
ENDBRANCH   3   4
ENDBRANCH   2   3
TORSDOF 14
ENDMDL
MODEL      228
REMARK 921   NORMALIZED FREE ENERGY PREDICTED BY IDOCK:   -3.30 KCAL/MOL
REMARK 922        TOTAL FREE ENERGY PREDICTED BY IDOCK:   -7.85 KCAL/MOL
REMARK 923 INTER-LIGAND FREE ENERGY PREDICTED BY IDOCK:   -6.69 KCAL/MOL
REMARK 924 INTRA-LIGAND FREE ENERGY PREDICTED BY IDOCK:   -1.16 KCAL/MOL
REMARK 927      BINDING AFFINITY PREDICTED BY RF-SCORE:    0.00 PKD
ROOT
HETATM    1  C   UNL     1      -6.940   4.221  69.912  1.00  0.00    -0.042 C  
HETATM    2  C   UNL     1      -7.504   3.941  68.532  1.00  0.00    -0.055 C  
ENDROOT
BRANCH   2   3
HETATM    3  C   UNL     1      -9.031   3.917  68.548  1.00  0.00    -0.167 C  
BRANCH   3   4
HETATM    4  C   UNL     1      -9.581   5.332  68.411  1.00  0.00    -0.176 C  
BRANCH   4   5
HETATM    5  C   UNL     1     -10.559   5.676  69.531  1.00  0.00    -0.384 C  
BRANCH   5   6
HETATM    6  C   UNL     1     -10.013   6.854  70.334  1.00  0.00    -0.190 C  
BRANCH   6   7
HETATM    7  C   UNL     1     -10.905   8.091  70.203  1.00  0.00    -0.242 C  
BRANCH   7   8
HETATM    8  N   UNL     1     -10.198   9.265  69.660  1.00  0.00    -0.198 NA 
BRANCH   8   9
HETATM    9  C   UNL     1      -8.854   9.476  70.228  1.00  0.00    -0.243 C  
HETATM   10  C   UNL     1      -7.721   9.690  69.228  1.00  0.00    -0.095 C  
ENDBRANCH   8   9
BRANCH   8  11
HETATM   11  C   UNL     1     -10.162   9.258  68.186  1.00  0.00    -0.205 C  
BRANCH  11  12
HETATM   12  C   UNL     1     -11.100  10.277  67.521  1.00  0.00    -0.302 C  
BRANCH  12  13
HETATM   13  C   UNL     1     -10.489  11.681  67.455  1.00  0.00    -0.239 C  
BRANCH  13  14
HETATM   14  C   UNL     1     -11.529  12.781  67.714  1.00  0.00    -0.326 C  
HETATM   15  H   UNL     1     -12.628  13.406  69.223  1.00  0.00     0.000 HD 
HETATM   16  O   UNL     1     -11.985  12.725  69.062  1.00  0.00    -0.292 OA 
BRANCH  14  17
HETATM   17  C   UNL     1     -10.973  14.159  67.410  1.00  0.00    -0.306 A  
HETATM   18  C   UNL     1     -11.463  15.275  68.105  1.00  0.00    -0.357 A  
HETATM   19  C   UNL     1     -11.022  16.563  67.792  1.00  0.00    -0.252 A  
HETATM   20  C   UNL     1     -10.088  16.749  66.776  1.00  0.00    -0.294 A  
HETATM   21  C   UNL     1      -9.993  14.363  66.421  1.00  0.00    -0.305 A  
HETATM   22  C   UNL     1      -9.550  15.651  66.108  1.00  0.00    -0.362 A  
BRANCH  20  23
HETATM   23  N   UNL     1      -9.684  18.072  66.437  1.00  0.00    -0.326 N  
HETATM   24  H   UNL     1      -9.738  18.409  65.475  1.00  0.00     0.000 HD 
BRANCH  23  25
HETATM   25  S   UNL     1      -9.112  19.064  67.676  1.00  0.00    -0.296 S  
HETATM   26  C   UNL     1      -8.102  20.214  66.766  1.00  0.00    -0.306 C  
HETATM   27  O   UNL     1      -8.226  18.231  68.459  1.00  0.00    -0.306 OA 
HETATM   28  O   UNL     1     -10.210  19.776  68.294  1.00  0.00    -0.425 OA 
ENDBRANCH  23  25
ENDBRANCH  20  23
ENDBRANCH  14  17
ENDBRANCH  13  14
ENDBRANCH  12  13
ENDBRANCH  11  12
ENDBRANCH   8  11
ENDBRANCH   7   8
ENDBRANCH   6   7
ENDBRANCH   5   6
ENDBRANCH   4   5
ENDBRANCH   3   4
ENDBRANCH   2   3
TORSDOF 14
ENDMDL
MODEL      229
REMARK 921   NORMALIZED FREE ENERGY PREDICTED BY IDOCK:   -3.28 KCAL/MOL
REMARK 922        TOTAL FREE ENERGY PREDICTED BY IDOCK:   -7.82 KCAL/MOL
REMARK 923 INTER-LIGAND FREE ENERGY PREDICTED BY IDOCK:   -6.52 KCAL/MOL
REMARK 924 INTRA-LIGAND FREE ENERGY PREDICTED BY IDOCK:   -1.30 KCAL/MOL
REMARK 927      BINDING AFFINITY PREDICTED BY RF-SCORE:    0.00 PKD
ROOT
HETATM    1  C   UNL     1      -6.867  14.274  68.720  1.00  0.00    -0.099 C  
HETATM    2  C   UNL     1      -7.642  15.120  67.727  1.00  0.00    -0.171 C  
ENDROOT
BRANCH   2   3
HETATM    3  C   UNL     1      -8.973  14.467  67.359  1.00  0.00    -0.204 C  
BRANCH   3   4
HETATM    4  C   UNL     1     -10.004  14.720  68.452  1.00  0.00    -0.223 C  
BRANCH   4   5
HETATM    5  C   UNL     1     -11.388  15.011  67.877  1.00  0.00    -0.344 C  
BRANCH   5   6
HETATM    6  C   UNL     1     -11.404  14.651  66.393  1.00  0.00    -0.348 C  
BRANCH   6   7
HETATM    7  C   UNL     1     -12.643  13.835  66.020  1.00  0.00    -0.408 C  
BRANCH   7   8
HETATM    8  N   UNL     1     -12.322  12.536  65.402  1.00  0.00    -0.635 NA 
BRANCH   8   9
HETATM    9  C   UNL     1     -12.310  12.556  63.928  1.00  0.00    -0.485 C  
HETATM   10  C   UNL     1     -10.958  12.330  63.258  1.00  0.00    -0.373 C  
ENDBRANCH   8   9
BRANCH   8  11
HETATM   11  C   UNL     1     -11.078  11.958  65.941  1.00  0.00    -0.316 C  
BRANCH  11  12
HETATM   12  C   UNL     1     -11.274  11.046  67.162  1.00  0.00    -0.290 C  
BRANCH  12  13
HETATM   13  C   UNL     1     -10.094  10.093  67.380  1.00  0.00    -0.251 C  
BRANCH  13  14
HETATM   14  C   UNL     1      -9.727   9.320  66.105  1.00  0.00    -0.279 C  
HETATM   15  H   UNL     1      -8.232   9.267  64.825  1.00  0.00     0.000 HD 
HETATM   16  O   UNL     1      -8.459   9.745  65.614  1.00  0.00    -0.131 OA 
BRANCH  14  17
HETATM   17  C   UNL     1      -9.715   7.822  66.343  1.00  0.00    -0.219 A  
HETATM   18  C   UNL     1     -10.848   7.194  66.883  1.00  0.00    -0.307 A  
HETATM   19  C   UNL     1     -10.835   5.830  67.180  1.00  0.00    -0.308 A  
HETATM   20  C   UNL     1      -9.687   5.078  66.946  1.00  0.00    -0.168 A  
HETATM   21  C   UNL     1      -8.582   7.036  66.067  1.00  0.00    -0.154 A  
HETATM   22  C   UNL     1      -8.569   5.670  66.363  1.00  0.00    -0.123 A  
BRANCH  20  23
HETATM   23  N   UNL     1      -9.674   3.699  67.299  1.00  0.00    -0.293 N  
HETATM   24  H   UNL     1     -10.000   2.985  66.647  1.00  0.00     0.000 HD 
BRANCH  23  25
HETATM   25  S   UNL     1      -9.101   3.283  68.832  1.00  0.00    -0.159 S  
HETATM   26  C   UNL     1      -9.728   1.625  69.000  1.00  0.00     0.035 C  
HETATM   27  O   UNL     1      -9.833   4.121  69.756  1.00  0.00    -0.215 OA 
HETATM   28  O   UNL     1      -7.655   3.251  68.834  1.00  0.00    -0.049 OA 
ENDBRANCH  23  25
ENDBRANCH  20  23
ENDBRANCH  14  17
ENDBRANCH  13  14
ENDBRANCH  12  13
ENDBRANCH  11  12
ENDBRANCH   8  11
ENDBRANCH   7   8
ENDBRANCH   6   7
ENDBRANCH   5   6
ENDBRANCH   4   5
ENDBRANCH   3   4
ENDBRANCH   2   3
TORSDOF 14
ENDMDL
MODEL      230
REMARK 921   NORMALIZED FREE ENERGY PREDICTED BY IDOCK:   -3.26 KCAL/MOL
REMARK 922        TOTAL FREE ENERGY PREDICTED BY IDOCK:   -7.78 KCAL/MOL
REMARK 923 INTER-LIGAND FREE ENERGY PREDICTED BY IDOCK:   -6.70 KCAL/MOL
REMARK 924 INTRA-LIGAND FREE ENERGY PREDICTED BY IDOCK:   -1.08 KCAL/MOL
REMARK 927      BINDING AFFINITY PREDICTED BY RF-SCORE:    0.00 PKD
ROOT
HETATM    1  C   UNL     1      -9.183  19.142  66.804  1.00  0.00    -0.356 C  
HETATM    2  C   UNL     1      -9.911  18.903  68.114  1.00  0.00    -0.431 C  
ENDROOT
BRANCH   2   3
HETATM    3  C   UNL     1     -10.368  17.451  68.240  1.00  0.00    -0.374 C  
BRANCH   3   4
HETATM    4  C   UNL     1     -10.623  16.857  66.860  1.00  0.00    -0.214 C  
BRANCH   4   5
HETATM    5  C   UNL     1     -10.378  15.351  66.831  1.00  0.00    -0.277 C  
BRANCH   5   6
HETATM    6  C   UNL     1     -11.666  14.622  67.208  1.00  0.00    -0.406 C  
BRANCH   6   7
HETATM    7  C   UNL     1     -12.291  13.915  66.003  1.00  0.00    -0.475 C  
BRANCH   7   8
HETATM    8  N   UNL     1     -12.036  12.463  65.983  1.00  0.00    -0.638 NA 
BRANCH   8   9
HETATM    9  C   UNL     1     -11.118  12.027  64.915  1.00  0.00    -0.316 C  
HETATM   10  C   UNL     1     -11.708  11.936  63.510  1.00  0.00    -0.550 C  
ENDBRANCH   8   9
BRANCH   8  11
HETATM   11  C   UNL     1     -11.609  11.957  67.299  1.00  0.00    -0.293 C  
BRANCH  11  12
HETATM   12  C   UNL     1     -10.248  11.242  67.296  1.00  0.00    -0.226 C  
BRANCH  12  13
HETATM   13  C   UNL     1     -10.240   9.991  68.182  1.00  0.00    -0.205 C  
BRANCH  13  14
HETATM   14  C   UNL     1     -10.549   8.714  67.389  1.00  0.00    -0.228 C  
HETATM   15  H   UNL     1     -10.329   8.070  65.541  1.00  0.00     0.000 HD 
HETATM   16  O   UNL     1     -10.138   8.860  66.033  1.00  0.00    -0.260 OA 
BRANCH  14  17
HETATM   17  C   UNL     1      -9.884   7.498  68.004  1.00  0.00    -0.177 A  
HETATM   18  C   UNL     1     -10.662   6.547  68.681  1.00  0.00    -0.323 A  
HETATM   19  C   UNL     1     -10.064   5.458  69.320  1.00  0.00    -0.301 A  
HETATM   20  C   UNL     1      -8.680   5.310  69.293  1.00  0.00    -0.100 A  
HETATM   21  C   UNL     1      -8.491   7.304  67.945  1.00  0.00    -0.118 A  
HETATM   22  C   UNL     1      -7.893   6.214  68.583  1.00  0.00    -0.101 A  
BRANCH  20  23
HETATM   23  N   UNL     1      -8.083   4.221  69.989  1.00  0.00    -0.058 N  
HETATM   24  H   UNL     1      -7.541   4.374  70.840  1.00  0.00     0.000 HD 
BRANCH  23  25
HETATM   25  S   UNL     1      -8.301   2.669  69.362  1.00  0.00    -0.058 S  
HETATM   26  C   UNL     1      -6.881   1.823  70.024  1.00  0.00    -0.033 C  
HETATM   27  O   UNL     1      -8.104   2.800  67.935  1.00  0.00    -0.068 OA 
HETATM   28  O   UNL     1      -9.506   2.077  69.899  1.00  0.00    -0.113 OA 
ENDBRANCH  23  25
ENDBRANCH  20  23
ENDBRANCH  14  17
ENDBRANCH  13  14
ENDBRANCH  12  13
ENDBRANCH  11  12
ENDBRANCH   8  11
ENDBRANCH   7   8
ENDBRANCH   6   7
ENDBRANCH   5   6
ENDBRANCH   4   5
ENDBRANCH   3   4
ENDBRANCH   2   3
TORSDOF 14
ENDMDL
MODEL      231
REMARK 921   NORMALIZED FREE ENERGY PREDICTED BY IDOCK:   -3.25 KCAL/MOL
REMARK 922        TOTAL FREE ENERGY PREDICTED BY IDOCK:   -7.75 KCAL/MOL
REMARK 923 INTER-LIGAND FREE ENERGY PREDICTED BY IDOCK:   -6.40 KCAL/MOL
REMARK 924 INTRA-LIGAND FREE ENERGY PREDICTED BY IDOCK:   -1.35 KCAL/MOL
REMARK 927      BINDING AFFINITY PREDICTED BY RF-SCORE:    0.00 PKD
ROOT
HETATM    1  C   UNL     1     -11.888  14.965  64.205  1.00  0.00    -0.312 C  
HETATM    2  C   UNL     1     -12.088  13.503  63.854  1.00  0.00    -0.493 C  
ENDROOT
BRANCH   2   3
HETATM    3  C   UNL     1     -12.499  12.687  65.078  1.00  0.00    -0.556 C  
BRANCH   3   4
HETATM    4  C   UNL     1     -12.186  13.458  66.354  1.00  0.00    -0.435 C  
BRANCH   4   5
HETATM    5  C   UNL     1     -11.745  12.535  67.487  1.00  0.00    -0.439 C  
BRANCH   5   6
HETATM    6  C   UNL     1     -10.284  12.817  67.829  1.00  0.00    -0.223 C  
BRANCH   6   7
HETATM    7  C   UNL     1      -9.340  12.340  66.723  1.00  0.00    -0.218 C  
BRANCH   7   8
HETATM    8  N   UNL     1      -8.147  11.641  67.236  1.00  0.00    -0.152 NA 
BRANCH   8   9
HETATM    9  C   UNL     1      -7.989  11.714  68.700  1.00  0.00    -0.127 C  
HETATM   10  C   UNL     1      -7.825  10.383  69.430  1.00  0.00    -0.163 C  
ENDBRANCH   8   9
BRANCH   8  11
HETATM   11  C   UNL     1      -8.070  10.250  66.756  1.00  0.00    -0.121 C  
BRANCH  11  12
HETATM   12  C   UNL     1      -9.429   9.546  66.618  1.00  0.00    -0.222 C  
BRANCH  12  13
HETATM   13  C   UNL     1      -9.330   8.031  66.829  1.00  0.00    -0.229 C  
BRANCH  13  14
HETATM   14  C   UNL     1     -10.634   7.433  67.373  1.00  0.00    -0.301 C  
HETATM   15  H   UNL     1     -11.845   5.948  66.919  1.00  0.00     0.000 HD 
HETATM   16  O   UNL     1     -11.038   6.319  66.582  1.00  0.00    -0.292 OA 
BRANCH  14  17
HETATM   17  C   UNL     1     -10.496   7.015  68.825  1.00  0.00    -0.222 A  
HETATM   18  C   UNL     1      -9.223   6.950  69.412  1.00  0.00    -0.147 A  
HETATM   19  C   UNL     1      -9.063   6.497  70.723  1.00  0.00    -0.154 A  
HETATM   20  C   UNL     1     -10.175   6.098  71.461  1.00  0.00    -0.203 A  
HETATM   21  C   UNL     1     -11.612   6.656  69.603  1.00  0.00    -0.305 A  
HETATM   22  C   UNL     1     -11.452   6.203  70.916  1.00  0.00    -0.317 A  
BRANCH  20  23
HETATM   23  N   UNL     1      -9.990   5.593  72.779  1.00  0.00    -0.171 N  
HETATM   24  H   UNL     1      -9.675   6.200  73.537  1.00  0.00     0.000 HD 
BRANCH  23  25
HETATM   25  S   UNL     1     -10.309   3.958  73.050  1.00  0.00    -0.172 S  
HETATM   26  C   UNL     1      -9.121   3.576  74.320  1.00  0.00    -0.086 C  
HETATM   27  O   UNL     1      -9.890   3.280  71.843  1.00  0.00    -0.161 OA 
HETATM   28  O   UNL     1     -11.645   3.789  73.577  1.00  0.00    -0.183 OA 
ENDBRANCH  23  25
ENDBRANCH  20  23
ENDBRANCH  14  17
ENDBRANCH  13  14
ENDBRANCH  12  13
ENDBRANCH  11  12
ENDBRANCH   8  11
ENDBRANCH   7   8
ENDBRANCH   6   7
ENDBRANCH   5   6
ENDBRANCH   4   5
ENDBRANCH   3   4
ENDBRANCH   2   3
TORSDOF 14
ENDMDL
MODEL      232
REMARK 921   NORMALIZED FREE ENERGY PREDICTED BY IDOCK:   -3.24 KCAL/MOL
REMARK 922        TOTAL FREE ENERGY PREDICTED BY IDOCK:   -7.74 KCAL/MOL
REMARK 923 INTER-LIGAND FREE ENERGY PREDICTED BY IDOCK:   -6.86 KCAL/MOL
REMARK 924 INTRA-LIGAND FREE ENERGY PREDICTED BY IDOCK:   -0.88 KCAL/MOL
REMARK 927      BINDING AFFINITY PREDICTED BY RF-SCORE:    0.00 PKD
ROOT
HETATM    1  C   UNL     1     -10.312   4.110  62.704  1.00  0.00    -0.124 C  
HETATM    2  C   UNL     1     -10.336   3.391  64.039  1.00  0.00    -0.220 C  
ENDROOT
BRANCH   2   3
HETATM    3  C   UNL     1     -10.859   4.298  65.151  1.00  0.00    -0.075 C  
BRANCH   3   4
HETATM    4  C   UNL     1      -9.765   4.554  66.181  1.00  0.00    -0.215 C  
BRANCH   4   5
HETATM    5  C   UNL     1      -9.492   6.044  66.368  1.00  0.00    -0.174 C  
BRANCH   5   6
HETATM    6  C   UNL     1     -10.730   6.714  66.959  1.00  0.00    -0.437 C  
BRANCH   6   7
HETATM    7  C   UNL     1     -10.470   7.237  68.374  1.00  0.00    -0.195 C  
BRANCH   7   8
HETATM    8  N   UNL     1     -10.271   8.697  68.428  1.00  0.00    -0.195 NA 
BRANCH   8   9
HETATM    9  C   UNL     1      -8.879   9.106  68.685  1.00  0.00    -0.133 C  
HETATM   10  C   UNL     1      -7.985   8.076  69.370  1.00  0.00    -0.116 C  
ENDBRANCH   8   9
BRANCH   8  11
HETATM   11  C   UNL     1     -10.820   9.376  67.240  1.00  0.00    -0.094 C  
BRANCH  11  12
HETATM   12  C   UNL     1     -10.333  10.821  67.049  1.00  0.00    -0.275 C  
BRANCH  12  13
HETATM   13  C   UNL     1     -11.403  11.724  66.425  1.00  0.00    -0.361 C  
BRANCH  13  14
HETATM   14  C   UNL     1     -11.949  12.755  67.423  1.00  0.00    -0.272 C  
HETATM   15  H   UNL     1     -12.032  12.972  69.378  1.00  0.00     0.000 HD 
HETATM   16  O   UNL     1     -11.695  12.334  68.760  1.00  0.00    -0.302 OA 
BRANCH  14  17
HETATM   17  C   UNL     1     -11.352  14.130  67.190  1.00  0.00    -0.348 A  
HETATM   18  C   UNL     1     -11.581  15.155  68.120  1.00  0.00    -0.358 A  
HETATM   19  C   UNL     1     -11.106  16.448  67.890  1.00  0.00    -0.249 A  
HETATM   20  C   UNL     1     -10.399  16.732  66.725  1.00  0.00    -0.293 A  
HETATM   21  C   UNL     1     -10.593  14.424  66.042  1.00  0.00    -0.304 A  
HETATM   22  C   UNL     1     -10.116  15.718  65.812  1.00  0.00    -0.399 A  
BRANCH  20  23
HETATM   23  N   UNL     1      -9.963  18.065  66.483  1.00  0.00    -0.353 N  
HETATM   24  H   UNL     1     -10.613  18.781  66.156  1.00  0.00     0.000 HD 
BRANCH  23  25
HETATM   25  S   UNL     1      -8.336  18.425  66.756  1.00  0.00    -0.266 S  
HETATM   26  C   UNL     1      -8.087  17.711  68.368  1.00  0.00    -0.285 C  
HETATM   27  O   UNL     1      -8.280  19.863  66.903  1.00  0.00    -0.293 OA 
HETATM   28  O   UNL     1      -7.504  17.737  65.794  1.00  0.00    -0.526 OA 
ENDBRANCH  23  25
ENDBRANCH  20  23
ENDBRANCH  14  17
ENDBRANCH  13  14
ENDBRANCH  12  13
ENDBRANCH  11  12
ENDBRANCH   8  11
ENDBRANCH   7   8
ENDBRANCH   6   7
ENDBRANCH   5   6
ENDBRANCH   4   5
ENDBRANCH   3   4
ENDBRANCH   2   3
TORSDOF 14
ENDMDL
MODEL      233
REMARK 921   NORMALIZED FREE ENERGY PREDICTED BY IDOCK:   -3.23 KCAL/MOL
REMARK 922        TOTAL FREE ENERGY PREDICTED BY IDOCK:   -7.72 KCAL/MOL
REMARK 923 INTER-LIGAND FREE ENERGY PREDICTED BY IDOCK:   -5.95 KCAL/MOL
REMARK 924 INTRA-LIGAND FREE ENERGY PREDICTED BY IDOCK:   -1.77 KCAL/MOL
REMARK 927      BINDING AFFINITY PREDICTED BY RF-SCORE:    0.00 PKD
ROOT
HETATM    1  C   UNL     1     -10.826  15.907  67.615  1.00  0.00    -0.312 C  
HETATM    2  C   UNL     1      -9.890  15.841  68.808  1.00  0.00    -0.214 C  
ENDROOT
BRANCH   2   3
HETATM    3  C   UNL     1      -8.454  15.553  68.375  1.00  0.00    -0.163 C  
BRANCH   3   4
HETATM    4  C   UNL     1      -8.128  14.079  68.581  1.00  0.00    -0.113 C  
BRANCH   4   5
HETATM    5  C   UNL     1      -7.519  13.448  67.331  1.00  0.00    -0.134 C  
BRANCH   5   6
HETATM    6  C   UNL     1      -6.610  12.291  67.741  1.00  0.00    -0.108 C  
BRANCH   6   7
HETATM    7  C   UNL     1      -6.751  11.959  69.228  1.00  0.00    -0.099 C  
BRANCH   7   8
HETATM    8  N   UNL     1      -6.105  10.689  69.606  1.00  0.00    -0.052 NA 
BRANCH   8   9
HETATM    9  C   UNL     1      -5.207  10.791  70.770  1.00  0.00    -0.091 C  
HETATM   10  C   UNL     1      -5.130  12.157  71.448  1.00  0.00    -0.095 C  
ENDBRANCH   8   9
BRANCH   8  11
HETATM   11  C   UNL     1      -7.082   9.599  69.775  1.00  0.00    -0.084 C  
BRANCH  11  12
HETATM   12  C   UNL     1      -8.548  10.023  69.596  1.00  0.00    -0.198 C  
BRANCH  12  13
HETATM   13  C   UNL     1      -9.484   8.827  69.383  1.00  0.00    -0.161 C  
BRANCH  13  14
HETATM   14  C   UNL     1      -9.689   8.506  67.897  1.00  0.00    -0.162 C  
HETATM   15  H   UNL     1     -10.833   7.321  66.817  1.00  0.00     0.000 HD 
HETATM   16  O   UNL     1     -10.706   7.520  67.737  1.00  0.00    -0.220 OA 
BRANCH  14  17
HETATM   17  C   UNL     1     -10.041   9.747  67.099  1.00  0.00    -0.267 A  
HETATM   18  C   UNL     1      -9.300  10.070  65.952  1.00  0.00    -0.236 A  
HETATM   19  C   UNL     1      -9.556  11.246  65.244  1.00  0.00    -0.265 A  
HETATM   20  C   UNL     1     -10.553  12.116  65.677  1.00  0.00    -0.262 A  
HETATM   21  C   UNL     1     -11.077  10.614  67.493  1.00  0.00    -0.367 A  
HETATM   22  C   UNL     1     -11.334  11.790  66.784  1.00  0.00    -0.385 A  
BRANCH  20  23
HETATM   23  N   UNL     1     -10.769  13.334  64.972  1.00  0.00    -0.316 N  
HETATM   24  H   UNL     1     -10.011  14.002  64.831  1.00  0.00     0.000 HD 
BRANCH  23  25
HETATM   25  S   UNL     1     -12.320  13.636  64.377  1.00  0.00    -0.298 S  
HETATM   26  C   UNL     1     -12.619  12.166  63.419  1.00  0.00    -0.463 C  
HETATM   27  O   UNL     1     -12.168  14.737  63.451  1.00  0.00    -0.278 OA 
HETATM   28  O   UNL     1     -13.269  13.700  65.466  1.00  0.00    -0.608 OA 
ENDBRANCH  23  25
ENDBRANCH  20  23
ENDBRANCH  14  17
ENDBRANCH  13  14
ENDBRANCH  12  13
ENDBRANCH  11  12
ENDBRANCH   8  11
ENDBRANCH   7   8
ENDBRANCH   6   7
ENDBRANCH   5   6
ENDBRANCH   4   5
ENDBRANCH   3   4
ENDBRANCH   2   3
TORSDOF 14
ENDMDL
MODEL      234
REMARK 921   NORMALIZED FREE ENERGY PREDICTED BY IDOCK:   -3.23 KCAL/MOL
REMARK 922        TOTAL FREE ENERGY PREDICTED BY IDOCK:   -7.72 KCAL/MOL
REMARK 923 INTER-LIGAND FREE ENERGY PREDICTED BY IDOCK:   -6.29 KCAL/MOL
REMARK 924 INTRA-LIGAND FREE ENERGY PREDICTED BY IDOCK:   -1.43 KCAL/MOL
REMARK 927      BINDING AFFINITY PREDICTED BY RF-SCORE:    0.00 PKD
ROOT
HETATM    1  C   UNL     1      -7.851  15.698  67.172  1.00  0.00    -0.253 C  
HETATM    2  C   UNL     1      -8.693  16.638  66.329  1.00  0.00    -0.359 C  
ENDROOT
BRANCH   2   3
HETATM    3  C   UNL     1      -9.804  15.886  65.598  1.00  0.00    -0.337 C  
BRANCH   3   4
HETATM    4  C   UNL     1      -9.841  14.431  66.049  1.00  0.00    -0.342 C  
BRANCH   4   5
HETATM    5  C   UNL     1     -11.250  13.848  65.987  1.00  0.00    -0.300 C  
BRANCH   5   6
HETATM    6  C   UNL     1     -11.964  14.112  67.311  1.00  0.00    -0.449 C  
BRANCH   6   7
HETATM    7  C   UNL     1     -10.994  14.084  68.494  1.00  0.00    -0.256 C  
BRANCH   7   8
HETATM    8  N   UNL     1     -11.506  13.327  69.650  1.00  0.00    -0.235 NA 
BRANCH   8   9
HETATM    9  C   UNL     1     -12.461  14.076  70.486  1.00  0.00    -0.359 C  
HETATM   10  C   UNL     1     -13.070  13.320  71.663  1.00  0.00    -0.453 C  
ENDBRANCH   8   9
BRANCH   8  11
HETATM   11  C   UNL     1     -12.051  12.015  69.257  1.00  0.00    -0.190 C  
BRANCH  11  12
HETATM   12  C   UNL     1     -11.308  10.810  69.857  1.00  0.00    -0.385 C  
BRANCH  12  13
HETATM   13  C   UNL     1      -9.947  10.570  69.194  1.00  0.00    -0.236 C  
BRANCH  13  14
HETATM   14  C   UNL     1     -10.076  10.250  67.698  1.00  0.00    -0.191 C  
HETATM   15  H   UNL     1      -9.330  10.924  66.005  1.00  0.00     0.000 HD 
HETATM   16  O   UNL     1      -9.250  11.122  66.931  1.00  0.00    -0.164 OA 
BRANCH  14  17
HETATM   17  C   UNL     1      -9.721   8.806  67.402  1.00  0.00    -0.225 A  
HETATM   18  C   UNL     1     -10.742   7.852  67.269  1.00  0.00    -0.299 A  
HETATM   19  C   UNL     1     -10.438   6.503  67.070  1.00  0.00    -0.364 A  
HETATM   20  C   UNL     1      -9.109   6.092  67.008  1.00  0.00    -0.118 A  
HETATM   21  C   UNL     1      -8.386   8.378  67.286  1.00  0.00    -0.123 A  
HETATM   22  C   UNL     1      -8.081   7.029  67.087  1.00  0.00    -0.118 A  
BRANCH  20  23
HETATM   23  N   UNL     1      -8.816   4.708  66.853  1.00  0.00    -0.110 N  
HETATM   24  H   UNL     1      -8.845   4.071  67.650  1.00  0.00     0.000 HD 
BRANCH  23  25
HETATM   25  S   UNL     1      -8.419   4.153  65.309  1.00  0.00    -0.116 S  
HETATM   26  C   UNL     1      -8.648   2.398  65.499  1.00  0.00    -0.114 C  
HETATM   27  O   UNL     1      -7.000   4.395  65.166  1.00  0.00    -0.055 OA 
HETATM   28  O   UNL     1      -9.365   4.657  64.338  1.00  0.00    -0.139 OA 
ENDBRANCH  23  25
ENDBRANCH  20  23
ENDBRANCH  14  17
ENDBRANCH  13  14
ENDBRANCH  12  13
ENDBRANCH  11  12
ENDBRANCH   8  11
ENDBRANCH   7   8
ENDBRANCH   6   7
ENDBRANCH   5   6
ENDBRANCH   4   5
ENDBRANCH   3   4
ENDBRANCH   2   3
TORSDOF 14
ENDMDL
MODEL      235
REMARK 921   NORMALIZED FREE ENERGY PREDICTED BY IDOCK:   -3.23 KCAL/MOL
REMARK 922        TOTAL FREE ENERGY PREDICTED BY IDOCK:   -7.72 KCAL/MOL
REMARK 923 INTER-LIGAND FREE ENERGY PREDICTED BY IDOCK:   -6.62 KCAL/MOL
REMARK 924 INTRA-LIGAND FREE ENERGY PREDICTED BY IDOCK:   -1.10 KCAL/MOL
REMARK 927      BINDING AFFINITY PREDICTED BY RF-SCORE:    0.00 PKD
ROOT
HETATM    1  C   UNL     1      -6.242   7.682  69.336  1.00  0.00    -0.034 C  
HETATM    2  C   UNL     1      -7.445   8.273  70.047  1.00  0.00    -0.064 C  
ENDROOT
BRANCH   2   3
HETATM    3  C   UNL     1      -8.715   7.479  69.747  1.00  0.00    -0.140 C  
BRANCH   3   4
HETATM    4  C   UNL     1      -9.722   8.355  69.013  1.00  0.00    -0.171 C  
BRANCH   4   5
HETATM    5  C   UNL     1     -10.411   7.605  67.876  1.00  0.00    -0.270 C  
BRANCH   5   6
HETATM    6  C   UNL     1     -10.284   8.415  66.587  1.00  0.00    -0.335 C  
BRANCH   6   7
HETATM    7  C   UNL     1      -9.846   9.855  66.863  1.00  0.00    -0.199 C  
BRANCH   7   8
HETATM    8  N   UNL     1      -9.738  10.675  65.642  1.00  0.00    -0.215 NA 
BRANCH   8   9
HETATM    9  C   UNL     1      -9.286   9.930  64.454  1.00  0.00    -0.264 C  
HETATM   10  C   UNL     1      -9.704  10.497  63.099  1.00  0.00    -0.351 C  
ENDBRANCH   8   9
BRANCH   8  11
HETATM   11  C   UNL     1     -10.977  11.425  65.367  1.00  0.00    -0.184 C  
BRANCH  11  12
HETATM   12  C   UNL     1     -11.220  12.620  66.302  1.00  0.00    -0.354 C  
BRANCH  12  13
HETATM   13  C   UNL     1     -10.139  13.698  66.171  1.00  0.00    -0.311 C  
BRANCH  13  14
HETATM   14  C   UNL     1     -10.703  15.027  65.650  1.00  0.00    -0.354 C  
HETATM   15  H   UNL     1     -12.476  15.815  65.315  1.00  0.00     0.000 HD 
HETATM   16  O   UNL     1     -12.127  14.992  65.637  1.00  0.00    -0.090 OA 
BRANCH  14  17
HETATM   17  C   UNL     1     -10.221  16.203  66.479  1.00  0.00    -0.304 A  
HETATM   18  C   UNL     1     -10.250  17.496  65.935  1.00  0.00    -0.251 A  
HETATM   19  C   UNL     1      -9.742  18.583  66.650  1.00  0.00    -0.353 A  
HETATM   20  C   UNL     1      -9.196  18.389  67.916  1.00  0.00    -0.283 A  
HETATM   21  C   UNL     1      -9.710  16.034  67.779  1.00  0.00    -0.221 A  
HETATM   22  C   UNL     1      -9.204  17.122  68.495  1.00  0.00    -0.264 A  
BRANCH  20  23
HETATM   23  N   UNL     1      -8.640  19.500  68.611  1.00  0.00    -0.352 N  
HETATM   24  H   UNL     1      -9.181  20.007  69.312  1.00  0.00     0.000 HD 
BRANCH  23  25
HETATM   25  S   UNL     1      -7.056  19.951  68.239  1.00  0.00    -0.292 S  
HETATM   26  C   UNL     1      -6.387  20.246  69.862  1.00  0.00    -0.283 C  
HETATM   27  O   UNL     1      -7.167  21.231  67.574  1.00  0.00    -0.476 OA 
HETATM   28  O   UNL     1      -6.353  18.847  67.624  1.00  0.00    -0.201 OA 
ENDBRANCH  23  25
ENDBRANCH  20  23
ENDBRANCH  14  17
ENDBRANCH  13  14
ENDBRANCH  12  13
ENDBRANCH  11  12
ENDBRANCH   8  11
ENDBRANCH   7   8
ENDBRANCH   6   7
ENDBRANCH   5   6
ENDBRANCH   4   5
ENDBRANCH   3   4
ENDBRANCH   2   3
TORSDOF 14
ENDMDL
MODEL      236
REMARK 921   NORMALIZED FREE ENERGY PREDICTED BY IDOCK:   -3.22 KCAL/MOL
REMARK 922        TOTAL FREE ENERGY PREDICTED BY IDOCK:   -7.72 KCAL/MOL
REMARK 923 INTER-LIGAND FREE ENERGY PREDICTED BY IDOCK:   -6.10 KCAL/MOL
REMARK 924 INTRA-LIGAND FREE ENERGY PREDICTED BY IDOCK:   -1.62 KCAL/MOL
REMARK 927      BINDING AFFINITY PREDICTED BY RF-SCORE:    0.00 PKD
ROOT
HETATM    1  C   UNL     1      -9.484   7.079  66.397  1.00  0.00    -0.176 C  
HETATM    2  C   UNL     1     -10.702   7.296  67.275  1.00  0.00    -0.391 C  
ENDROOT
BRANCH   2   3
HETATM    3  C   UNL     1     -11.080   6.022  68.029  1.00  0.00    -0.233 C  
BRANCH   3   4
HETATM    4  C   UNL     1     -11.352   6.338  69.494  1.00  0.00    -0.475 C  
BRANCH   4   5
HETATM    5  C   UNL     1     -10.213   7.130  70.130  1.00  0.00    -0.204 C  
BRANCH   5   6
HETATM    6  C   UNL     1      -9.036   6.196  70.399  1.00  0.00    -0.158 C  
BRANCH   6   7
HETATM    7  C   UNL     1      -7.792   6.609  69.610  1.00  0.00    -0.115 C  
BRANCH   7   8
HETATM    8  N   UNL     1      -7.063   7.737  70.219  1.00  0.00    -0.050 NA 
BRANCH   8   9
HETATM    9  C   UNL     1      -5.790   7.357  70.858  1.00  0.00    -0.035 C  
HETATM   10  C   UNL     1      -5.305   8.257  71.991  1.00  0.00    -0.036 C  
ENDBRANCH   8   9
BRANCH   8  11
HETATM   11  C   UNL     1      -6.878   8.853  69.275  1.00  0.00    -0.050 C  
BRANCH  11  12
HETATM   12  C   UNL     1      -6.543   8.424  67.838  1.00  0.00    -0.061 C  
BRANCH  12  13
HETATM   13  C   UNL     1      -5.884   9.546  67.028  1.00  0.00    -0.052 C  
BRANCH  13  14
HETATM   14  C   UNL     1      -6.462   9.658  65.610  1.00  0.00    -0.074 C  
HETATM   15  H   UNL     1      -6.948   8.434  64.146  1.00  0.00     0.000 HD 
HETATM   16  O   UNL     1      -6.590   8.366  65.023  1.00  0.00    -0.062 OA 
BRANCH  14  17
HETATM   17  C   UNL     1      -7.804  10.364  65.607  1.00  0.00    -0.154 A  
HETATM   18  C   UNL     1      -8.081  11.337  66.579  1.00  0.00    -0.160 A  
HETATM   19  C   UNL     1      -9.335  11.948  66.642  1.00  0.00    -0.210 A  
HETATM   20  C   UNL     1     -10.330  11.588  65.736  1.00  0.00    -0.248 A  
HETATM   21  C   UNL     1      -8.805  10.050  64.669  1.00  0.00    -0.227 A  
HETATM   22  C   UNL     1     -10.061  10.662  64.731  1.00  0.00    -0.412 A  
BRANCH  20  23
HETATM   23  N   UNL     1     -11.618  12.185  65.844  1.00  0.00    -0.384 N  
HETATM   24  H   UNL     1     -12.294  11.857  66.535  1.00  0.00     0.000 HD 
BRANCH  23  25
HETATM   25  S   UNL     1     -11.991  13.452  64.793  1.00  0.00    -0.414 S  
HETATM   26  C   UNL     1     -10.672  14.596  65.144  1.00  0.00    -0.414 C  
HETATM   27  O   UNL     1     -13.215  14.028  65.305  1.00  0.00    -0.782 OA 
HETATM   28  O   UNL     1     -11.888  13.010  63.420  1.00  0.00    -0.524 OA 
ENDBRANCH  23  25
ENDBRANCH  20  23
ENDBRANCH  14  17
ENDBRANCH  13  14
ENDBRANCH  12  13
ENDBRANCH  11  12
ENDBRANCH   8  11
ENDBRANCH   7   8
ENDBRANCH   6   7
ENDBRANCH   5   6
ENDBRANCH   4   5
ENDBRANCH   3   4
ENDBRANCH   2   3
TORSDOF 14
ENDMDL
MODEL      237
REMARK 921   NORMALIZED FREE ENERGY PREDICTED BY IDOCK:   -3.22 KCAL/MOL
REMARK 922        TOTAL FREE ENERGY PREDICTED BY IDOCK:   -7.70 KCAL/MOL
REMARK 923 INTER-LIGAND FREE ENERGY PREDICTED BY IDOCK:   -6.70 KCAL/MOL
REMARK 924 INTRA-LIGAND FREE ENERGY PREDICTED BY IDOCK:   -1.00 KCAL/MOL
REMARK 927      BINDING AFFINITY PREDICTED BY RF-SCORE:    0.00 PKD
ROOT
HETATM    1  C   UNL     1      -9.615  20.319  67.687  1.00  0.00    -0.530 C  
HETATM    2  C   UNL     1      -9.903  20.199  66.201  1.00  0.00    -0.515 C  
ENDROOT
BRANCH   2   3
HETATM    3  C   UNL     1     -10.771  18.980  65.898  1.00  0.00    -0.404 C  
BRANCH   3   4
HETATM    4  C   UNL     1     -10.232  17.755  66.627  1.00  0.00    -0.361 C  
BRANCH   4   5
HETATM    5  C   UNL     1     -10.343  16.490  65.780  1.00  0.00    -0.359 C  
BRANCH   5   6
HETATM    6  C   UNL     1     -10.596  15.292  66.692  1.00  0.00    -0.304 C  
BRANCH   6   7
HETATM    7  C   UNL     1      -9.288  14.658  67.171  1.00  0.00    -0.223 C  
BRANCH   7   8
HETATM    8  N   UNL     1      -9.164  13.234  66.810  1.00  0.00    -0.243 NA 
BRANCH   8   9
HETATM    9  C   UNL     1      -8.873  12.347  67.950  1.00  0.00    -0.180 C  
HETATM   10  C   UNL     1      -7.399  12.115  68.270  1.00  0.00    -0.100 C  
ENDBRANCH   8   9
BRANCH   8  11
HETATM   11  C   UNL     1     -10.325  12.754  66.039  1.00  0.00    -0.276 C  
BRANCH  11  12
HETATM   12  C   UNL     1     -10.573  11.241  66.134  1.00  0.00    -0.312 C  
BRANCH  12  13
HETATM   13  C   UNL     1     -10.224  10.505  64.836  1.00  0.00    -0.371 C  
BRANCH  13  14
HETATM   14  C   UNL     1      -9.076   9.503  65.025  1.00  0.00    -0.228 C  
HETATM   15  H   UNL     1      -7.108   9.549  65.068  1.00  0.00     0.000 HD 
HETATM   16  O   UNL     1      -7.818  10.169  64.951  1.00  0.00    -0.141 OA 
BRANCH  14  17
HETATM   17  C   UNL     1      -9.192   8.761  66.343  1.00  0.00    -0.241 A  
HETATM   18  C   UNL     1      -8.092   8.706  67.211  1.00  0.00    -0.101 A  
HETATM   19  C   UNL     1      -8.150   7.967  68.394  1.00  0.00    -0.123 A  
HETATM   20  C   UNL     1      -9.310   7.268  68.720  1.00  0.00    -0.143 A  
HETATM   21  C   UNL     1     -10.372   8.089  66.714  1.00  0.00    -0.360 A  
HETATM   22  C   UNL     1     -10.431   7.350  67.899  1.00  0.00    -0.265 A  
BRANCH  20  23
HETATM   23  N   UNL     1      -9.336   6.480  69.906  1.00  0.00    -0.152 N  
HETATM   24  H   UNL     1      -9.095   5.489  69.885  1.00  0.00     0.000 HD 
BRANCH  23  25
HETATM   25  S   UNL     1      -9.781   7.239  71.347  1.00  0.00    -0.163 S  
HETATM   26  C   UNL     1     -11.554   7.097  71.284  1.00  0.00    -0.294 C  
HETATM   27  O   UNL     1      -9.449   8.635  71.165  1.00  0.00    -0.176 OA 
HETATM   28  O   UNL     1      -9.280   6.492  72.480  1.00  0.00    -0.137 OA 
ENDBRANCH  23  25
ENDBRANCH  20  23
ENDBRANCH  14  17
ENDBRANCH  13  14
ENDBRANCH  12  13
ENDBRANCH  11  12
ENDBRANCH   8  11
ENDBRANCH   7   8
ENDBRANCH   6   7
ENDBRANCH   5   6
ENDBRANCH   4   5
ENDBRANCH   3   4
ENDBRANCH   2   3
TORSDOF 14
ENDMDL
MODEL      238
REMARK 921   NORMALIZED FREE ENERGY PREDICTED BY IDOCK:   -3.21 KCAL/MOL
REMARK 922        TOTAL FREE ENERGY PREDICTED BY IDOCK:   -7.70 KCAL/MOL
REMARK 923 INTER-LIGAND FREE ENERGY PREDICTED BY IDOCK:   -6.35 KCAL/MOL
REMARK 924 INTRA-LIGAND FREE ENERGY PREDICTED BY IDOCK:   -1.35 KCAL/MOL
REMARK 927      BINDING AFFINITY PREDICTED BY RF-SCORE:    0.00 PKD
ROOT
HETATM    1  C   UNL     1      -5.759  11.892  70.275  1.00  0.00    -0.157 C  
HETATM    2  C   UNL     1      -6.874  10.941  69.884  1.00  0.00    -0.126 C  
ENDROOT
BRANCH   2   3
HETATM    3  C   UNL     1      -6.864   9.684  70.753  1.00  0.00    -0.091 C  
BRANCH   3   4
HETATM    4  C   UNL     1      -7.482   8.515  69.996  1.00  0.00    -0.060 C  
BRANCH   4   5
HETATM    5  C   UNL     1      -8.232   8.974  68.749  1.00  0.00    -0.117 C  
BRANCH   5   6
HETATM    6  C   UNL     1      -8.528   7.765  67.865  1.00  0.00    -0.122 C  
BRANCH   6   7
HETATM    7  C   UNL     1      -9.753   7.998  66.977  1.00  0.00    -0.211 C  
BRANCH   7   8
HETATM    8  N   UNL     1      -9.826   9.365  66.431  1.00  0.00    -0.247 NA 
BRANCH   8   9
HETATM    9  C   UNL     1      -9.621   9.444  64.974  1.00  0.00    -0.056 C  
HETATM   10  C   UNL     1      -8.816  10.637  64.466  1.00  0.00    -0.189 C  
ENDBRANCH   8   9
BRANCH   8  11
HETATM   11  C   UNL     1     -11.061  10.060  66.838  1.00  0.00     0.118 C  
BRANCH  11  12
HETATM   12  C   UNL     1     -10.838  11.456  67.441  1.00  0.00    -0.301 C  
BRANCH  12  13
HETATM   13  C   UNL     1     -12.023  12.397  67.198  1.00  0.00    -0.248 C  
BRANCH  13  14
HETATM   14  C   UNL     1     -11.799  13.315  65.988  1.00  0.00    -0.395 C  
HETATM   15  H   UNL     1     -12.909  14.300  64.694  1.00  0.00     0.000 HD 
HETATM   16  O   UNL     1     -13.048  13.731  65.443  1.00  0.00    -0.727 OA 
BRANCH  14  17
HETATM   17  C   UNL     1     -10.962  14.526  66.352  1.00  0.00    -0.324 A  
HETATM   18  C   UNL     1      -9.844  14.860  65.572  1.00  0.00    -0.348 A  
HETATM   19  C   UNL     1      -9.015  15.925  65.930  1.00  0.00    -0.251 A  
HETATM   20  C   UNL     1      -9.293  16.668  67.075  1.00  0.00    -0.224 A  
HETATM   21  C   UNL     1     -11.254  15.319  67.477  1.00  0.00    -0.317 A  
HETATM   22  C   UNL     1     -10.426  16.386  67.835  1.00  0.00    -0.307 A  
BRANCH  20  23
HETATM   23  N   UNL     1      -8.411  17.720  67.452  1.00  0.00    -0.224 N  
HETATM   24  H   UNL     1      -7.843  17.654  68.297  1.00  0.00     0.000 HD 
BRANCH  23  25
HETATM   25  S   UNL     1      -8.336  19.081  66.456  1.00  0.00    -0.310 S  
HETATM   26  C   UNL     1      -7.632  20.285  67.562  1.00  0.00    -0.306 C  
HETATM   27  O   UNL     1      -9.711  19.459  66.217  1.00  0.00    -0.353 OA 
HETATM   28  O   UNL     1      -7.423  18.847  65.358  1.00  0.00    -0.452 OA 
ENDBRANCH  23  25
ENDBRANCH  20  23
ENDBRANCH  14  17
ENDBRANCH  13  14
ENDBRANCH  12  13
ENDBRANCH  11  12
ENDBRANCH   8  11
ENDBRANCH   7   8
ENDBRANCH   6   7
ENDBRANCH   5   6
ENDBRANCH   4   5
ENDBRANCH   3   4
ENDBRANCH   2   3
TORSDOF 14
ENDMDL
MODEL      239
REMARK 921   NORMALIZED FREE ENERGY PREDICTED BY IDOCK:   -3.21 KCAL/MOL
REMARK 922        TOTAL FREE ENERGY PREDICTED BY IDOCK:   -7.69 KCAL/MOL
REMARK 923 INTER-LIGAND FREE ENERGY PREDICTED BY IDOCK:   -6.66 KCAL/MOL
REMARK 924 INTRA-LIGAND FREE ENERGY PREDICTED BY IDOCK:   -1.03 KCAL/MOL
REMARK 927      BINDING AFFINITY PREDICTED BY RF-SCORE:    0.00 PKD
ROOT
HETATM    1  C   UNL     1     -10.058  19.951  68.546  1.00  0.00    -0.538 C  
HETATM    2  C   UNL     1      -9.798  20.358  67.108  1.00  0.00    -0.601 C  
ENDROOT
BRANCH   2   3
HETATM    3  C   UNL     1     -10.170  19.240  66.136  1.00  0.00    -0.549 C  
BRANCH   3   4
HETATM    4  C   UNL     1     -10.820  18.085  66.888  1.00  0.00    -0.089 C  
BRANCH   4   5
HETATM    5  C   UNL     1     -10.369  16.728  66.353  1.00  0.00    -0.309 C  
BRANCH   5   6
HETATM    6  C   UNL     1     -10.434  15.696  67.476  1.00  0.00    -0.285 C  
BRANCH   6   7
HETATM    7  C   UNL     1     -11.127  14.409  67.024  1.00  0.00    -0.313 C  
BRANCH   7   8
HETATM    8  N   UNL     1     -10.259  13.529  66.220  1.00  0.00    -0.292 NA 
BRANCH   8   9
HETATM    9  C   UNL     1      -8.836  13.572  66.605  1.00  0.00    -0.062 C  
HETATM   10  C   UNL     1      -8.257  12.292  67.200  1.00  0.00    -0.179 C  
ENDBRANCH   8   9
BRANCH   8  11
HETATM   11  C   UNL     1     -10.761  12.144  66.175  1.00  0.00    -0.272 C  
BRANCH  11  12
HETATM   12  C   UNL     1     -11.773  11.797  67.279  1.00  0.00    -0.293 C  
BRANCH  12  13
HETATM   13  C   UNL     1     -11.499  10.431  67.917  1.00  0.00    -0.117 C  
BRANCH  13  14
HETATM   14  C   UNL     1     -11.298  10.528  69.436  1.00  0.00    -0.269 C  
HETATM   15  H   UNL     1     -12.432  10.686  71.038  1.00  0.00     0.000 HD 
HETATM   16  O   UNL     1     -12.556  10.626  70.098  1.00  0.00    -0.318 OA 
BRANCH  14  17
HETATM   17  C   UNL     1     -10.520   9.343  69.975  1.00  0.00    -0.266 A  
HETATM   18  C   UNL     1     -10.163   8.294  69.113  1.00  0.00    -0.223 A  
HETATM   19  C   UNL     1      -9.512   7.159  69.600  1.00  0.00    -0.152 A  
HETATM   20  C   UNL     1      -9.215   7.056  70.957  1.00  0.00    -0.155 A  
HETATM   21  C   UNL     1     -10.166   9.243  71.333  1.00  0.00    -0.371 A  
HETATM   22  C   UNL     1      -9.514   8.107  71.821  1.00  0.00    -0.249 A  
BRANCH  20  23
HETATM   23  N   UNL     1      -8.594   5.872  71.445  1.00  0.00    -0.128 N  
HETATM   24  H   UNL     1      -7.593   5.842  71.637  1.00  0.00     0.000 HD 
BRANCH  23  25
HETATM   25  S   UNL     1      -9.569   4.517  71.696  1.00  0.00    -0.168 S  
HETATM   26  C   UNL     1      -8.553   3.555  72.798  1.00  0.00    -0.086 C  
HETATM   27  O   UNL     1      -9.607   3.828  70.425  1.00  0.00    -0.175 OA 
HETATM   28  O   UNL     1     -10.787   4.897  72.377  1.00  0.00    -0.202 OA 
ENDBRANCH  23  25
ENDBRANCH  20  23
ENDBRANCH  14  17
ENDBRANCH  13  14
ENDBRANCH  12  13
ENDBRANCH  11  12
ENDBRANCH   8  11
ENDBRANCH   7   8
ENDBRANCH   6   7
ENDBRANCH   5   6
ENDBRANCH   4   5
ENDBRANCH   3   4
ENDBRANCH   2   3
TORSDOF 14
ENDMDL
MODEL      240
REMARK 921   NORMALIZED FREE ENERGY PREDICTED BY IDOCK:   -3.21 KCAL/MOL
REMARK 922        TOTAL FREE ENERGY PREDICTED BY IDOCK:   -7.69 KCAL/MOL
REMARK 923 INTER-LIGAND FREE ENERGY PREDICTED BY IDOCK:   -6.62 KCAL/MOL
REMARK 924 INTRA-LIGAND FREE ENERGY PREDICTED BY IDOCK:   -1.07 KCAL/MOL
REMARK 927      BINDING AFFINITY PREDICTED BY RF-SCORE:    0.00 PKD
ROOT
HETATM    1  C   UNL     1     -12.358   6.852  71.561  1.00  0.00    -0.420 C  
HETATM    2  C   UNL     1     -11.165   6.324  70.786  1.00  0.00    -0.387 C  
ENDROOT
BRANCH   2   3
HETATM    3  C   UNL     1     -11.399   6.408  69.279  1.00  0.00    -0.405 C  
BRANCH   3   4
HETATM    4  C   UNL     1     -10.287   5.682  68.532  1.00  0.00    -0.265 C  
BRANCH   4   5
HETATM    5  C   UNL     1     -10.660   5.404  67.078  1.00  0.00    -0.298 C  
BRANCH   5   6
HETATM    6  C   UNL     1      -9.413   5.521  66.206  1.00  0.00    -0.171 C  
BRANCH   6   7
HETATM    7  C   UNL     1      -8.822   6.932  66.246  1.00  0.00    -0.148 C  
BRANCH   7   8
HETATM    8  N   UNL     1      -7.349   6.947  66.296  1.00  0.00    -0.075 NA 
BRANCH   8   9
HETATM    9  C   UNL     1      -6.703   6.103  65.275  1.00  0.00    -0.047 C  
HETATM   10  C   UNL     1      -6.723   6.636  63.844  1.00  0.00    -0.044 C  
ENDBRANCH   8   9
BRANCH   8  11
HETATM   11  C   UNL     1      -6.807   8.317  66.282  1.00  0.00    -0.065 C  
BRANCH  11  12
HETATM   12  C   UNL     1      -7.841   9.409  65.965  1.00  0.00    -0.099 C  
BRANCH  12  13
HETATM   13  C   UNL     1      -7.942  10.463  67.073  1.00  0.00    -0.116 C  
BRANCH  13  14
HETATM   14  C   UNL     1      -9.394  10.730  67.493  1.00  0.00    -0.147 C  
HETATM   15  H   UNL     1     -10.489  10.538  69.118  1.00  0.00     0.000 HD 
HETATM   16  O   UNL     1      -9.590  10.372  68.858  1.00  0.00    -0.173 OA 
BRANCH  14  17
HETATM   17  C   UNL     1      -9.782  12.180  67.275  1.00  0.00    -0.193 A  
HETATM   18  C   UNL     1      -9.267  13.172  68.124  1.00  0.00    -0.215 A  
HETATM   19  C   UNL     1      -9.668  14.504  67.991  1.00  0.00    -0.218 A  
HETATM   20  C   UNL     1     -10.591  14.858  67.011  1.00  0.00    -0.289 A  
HETATM   21  C   UNL     1     -10.675  12.565  66.259  1.00  0.00    -0.288 A  
HETATM   22  C   UNL     1     -11.075  13.898  66.125  1.00  0.00    -0.299 A  
BRANCH  20  23
HETATM   23  N   UNL     1     -11.025  16.210  66.920  1.00  0.00    -0.173 N  
HETATM   24  H   UNL     1     -11.756  16.572  67.533  1.00  0.00     0.000 HD 
BRANCH  23  25
HETATM   25  S   UNL     1     -10.290  17.198  65.765  1.00  0.00    -0.149 S  
HETATM   26  C   UNL     1     -10.512  18.809  66.491  1.00  0.00    -0.427 C  
HETATM   27  O   UNL     1     -11.142  17.125  64.598  1.00  0.00    -1.036 OA 
HETATM   28  O   UNL     1      -8.877  16.902  65.679  1.00  0.00    -0.472 OA 
ENDBRANCH  23  25
ENDBRANCH  20  23
ENDBRANCH  14  17
ENDBRANCH  13  14
ENDBRANCH  12  13
ENDBRANCH  11  12
ENDBRANCH   8  11
ENDBRANCH   7   8
ENDBRANCH   6   7
ENDBRANCH   5   6
ENDBRANCH   4   5
ENDBRANCH   3   4
ENDBRANCH   2   3
TORSDOF 14
ENDMDL
MODEL      241
REMARK 921   NORMALIZED FREE ENERGY PREDICTED BY IDOCK:   -3.21 KCAL/MOL
REMARK 922        TOTAL FREE ENERGY PREDICTED BY IDOCK:   -7.68 KCAL/MOL
REMARK 923 INTER-LIGAND FREE ENERGY PREDICTED BY IDOCK:   -6.87 KCAL/MOL
REMARK 924 INTRA-LIGAND FREE ENERGY PREDICTED BY IDOCK:   -0.82 KCAL/MOL
REMARK 927      BINDING AFFINITY PREDICTED BY RF-SCORE:    0.00 PKD
ROOT
HETATM    1  C   UNL     1     -13.024  15.295  73.476  1.00  0.00    -0.634 C  
HETATM    2  C   UNL     1     -13.230  14.413  72.258  1.00  0.00    -0.494 C  
ENDROOT
BRANCH   2   3
HETATM    3  C   UNL     1     -13.520  15.245  71.010  1.00  0.00    -0.516 C  
BRANCH   3   4
HETATM    4  C   UNL     1     -12.238  15.473  70.219  1.00  0.00    -0.432 C  
BRANCH   4   5
HETATM    5  C   UNL     1     -11.536  14.161  69.878  1.00  0.00    -0.288 C  
BRANCH   5   6
HETATM    6  C   UNL     1     -12.209  13.529  68.662  1.00  0.00    -0.172 C  
BRANCH   6   7
HETATM    7  C   UNL     1     -11.193  13.172  67.574  1.00  0.00    -0.282 C  
BRANCH   7   8
HETATM    8  N   UNL     1     -11.800  13.014  66.240  1.00  0.00    -0.390 NA 
BRANCH   8   9
HETATM    9  C   UNL     1     -12.636  14.153  65.820  1.00  0.00    -0.447 C  
HETATM   10  C   UNL     1     -12.206  14.876  64.546  1.00  0.00    -0.396 C  
ENDBRANCH   8   9
BRANCH   8  11
HETATM   11  C   UNL     1     -10.798  12.675  65.212  1.00  0.00    -0.288 C  
BRANCH  11  12
HETATM   12  C   UNL     1     -10.594  11.168  64.993  1.00  0.00    -0.340 C  
BRANCH  12  13
HETATM   13  C   UNL     1     -10.217  10.831  63.546  1.00  0.00    -0.315 C  
BRANCH  13  14
HETATM   14  C   UNL     1      -8.959   9.955  63.462  1.00  0.00    -0.252 C  
HETATM   15  H   UNL     1      -7.141  10.102  62.720  1.00  0.00     0.000 HD 
HETATM   16  O   UNL     1      -7.920  10.644  62.773  1.00  0.00    -0.153 OA 
BRANCH  14  17
HETATM   17  C   UNL     1      -8.478   9.532  64.837  1.00  0.00    -0.170 A  
HETATM   18  C   UNL     1      -9.109   8.468  65.498  1.00  0.00    -0.150 A  
HETATM   19  C   UNL     1      -8.733   8.108  66.794  1.00  0.00    -0.145 A  
HETATM   20  C   UNL     1      -7.725   8.813  67.446  1.00  0.00    -0.097 A  
HETATM   21  C   UNL     1      -7.427  10.200  65.493  1.00  0.00    -0.146 A  
HETATM   22  C   UNL     1      -7.050   9.840  66.790  1.00  0.00    -0.089 A  
BRANCH  20  23
HETATM   23  N   UNL     1      -7.387   8.465  68.785  1.00  0.00    -0.085 N  
HETATM   24  H   UNL     1      -6.763   7.683  68.984  1.00  0.00     0.000 HD 
BRANCH  23  25
HETATM   25  S   UNL     1      -8.052   9.389  70.032  1.00  0.00    -0.170 S  
HETATM   26  C   UNL     1      -6.689  10.461  70.437  1.00  0.00    -0.100 C  
HETATM   27  O   UNL     1      -8.229   8.473  71.137  1.00  0.00    -0.116 OA 
HETATM   28  O   UNL     1      -9.154  10.182  69.534  1.00  0.00    -0.199 OA 
ENDBRANCH  23  25
ENDBRANCH  20  23
ENDBRANCH  14  17
ENDBRANCH  13  14
ENDBRANCH  12  13
ENDBRANCH  11  12
ENDBRANCH   8  11
ENDBRANCH   7   8
ENDBRANCH   6   7
ENDBRANCH   5   6
ENDBRANCH   4   5
ENDBRANCH   3   4
ENDBRANCH   2   3
TORSDOF 14
ENDMDL
MODEL      242
REMARK 921   NORMALIZED FREE ENERGY PREDICTED BY IDOCK:   -3.19 KCAL/MOL
REMARK 922        TOTAL FREE ENERGY PREDICTED BY IDOCK:   -7.65 KCAL/MOL
REMARK 923 INTER-LIGAND FREE ENERGY PREDICTED BY IDOCK:   -6.16 KCAL/MOL
REMARK 924 INTRA-LIGAND FREE ENERGY PREDICTED BY IDOCK:   -1.49 KCAL/MOL
REMARK 927      BINDING AFFINITY PREDICTED BY RF-SCORE:    0.00 PKD
ROOT
HETATM    1  C   UNL     1     -12.274  12.944  65.678  1.00  0.00    -0.519 C  
HETATM    2  C   UNL     1     -11.654  14.058  66.501  1.00  0.00    -0.389 C  
ENDROOT
BRANCH   2   3
HETATM    3  C   UNL     1     -11.469  13.639  67.958  1.00  0.00    -0.345 C  
BRANCH   3   4
HETATM    4  C   UNL     1     -11.979  14.731  68.889  1.00  0.00    -0.298 C  
BRANCH   4   5
HETATM    5  C   UNL     1     -10.847  15.391  69.671  1.00  0.00    -0.288 C  
BRANCH   5   6
HETATM    6  C   UNL     1     -10.660  16.824  69.178  1.00  0.00    -0.343 C  
BRANCH   6   7
HETATM    7  C   UNL     1      -9.752  16.887  67.948  1.00  0.00    -0.254 C  
BRANCH   7   8
HETATM    8  N   UNL     1      -8.733  17.949  68.029  1.00  0.00    -0.250 NA 
BRANCH   8   9
HETATM    9  C   UNL     1      -9.204  19.188  68.672  1.00  0.00    -0.380 C  
HETATM   10  C   UNL     1     -10.054  20.119  67.810  1.00  0.00    -0.540 C  
ENDBRANCH   8   9
BRANCH   8  11
HETATM   11  C   UNL     1      -7.479  17.470  68.639  1.00  0.00    -0.265 C  
BRANCH  11  12
HETATM   12  C   UNL     1      -7.374  15.942  68.763  1.00  0.00    -0.159 C  
BRANCH  12  13
HETATM   13  C   UNL     1      -6.457  15.328  67.699  1.00  0.00    -0.188 C  
BRANCH  13  14
HETATM   14  C   UNL     1      -5.810  14.019  68.173  1.00  0.00    -0.125 C  
HETATM   15  H   UNL     1      -5.437  13.128  69.889  1.00  0.00     0.000 HD 
HETATM   16  O   UNL     1      -5.837  13.938  69.595  1.00  0.00    -0.095 OA 
BRANCH  14  17
HETATM   17  C   UNL     1      -6.494  12.806  67.571  1.00  0.00    -0.161 A  
HETATM   18  C   UNL     1      -5.720  11.760  67.047  1.00  0.00    -0.134 A  
HETATM   19  C   UNL     1      -6.325  10.668  66.421  1.00  0.00    -0.109 A  
HETATM   20  C   UNL     1      -7.712  10.612  66.308  1.00  0.00    -0.143 A  
HETATM   21  C   UNL     1      -7.895  12.708  67.491  1.00  0.00    -0.175 A  
HETATM   22  C   UNL     1      -8.501  11.615  66.865  1.00  0.00    -0.168 A  
BRANCH  20  23
HETATM   23  N   UNL     1      -8.310   9.516  65.624  1.00  0.00    -0.122 N  
HETATM   24  H   UNL     1      -8.446   9.536  64.613  1.00  0.00     0.000 HD 
BRANCH  23  25
HETATM   25  S   UNL     1      -8.788   8.182  66.541  1.00  0.00    -0.157 S  
HETATM   26  C   UNL     1      -8.352   6.839  65.456  1.00  0.00    -0.142 C  
HETATM   27  O   UNL     1     -10.232   8.248  66.593  1.00  0.00    -0.290 OA 
HETATM   28  O   UNL     1      -7.999   8.097  67.750  1.00  0.00    -0.122 OA 
ENDBRANCH  23  25
ENDBRANCH  20  23
ENDBRANCH  14  17
ENDBRANCH  13  14
ENDBRANCH  12  13
ENDBRANCH  11  12
ENDBRANCH   8  11
ENDBRANCH   7   8
ENDBRANCH   6   7
ENDBRANCH   5   6
ENDBRANCH   4   5
ENDBRANCH   3   4
ENDBRANCH   2   3
TORSDOF 14
ENDMDL
MODEL      243
REMARK 921   NORMALIZED FREE ENERGY PREDICTED BY IDOCK:   -3.18 KCAL/MOL
REMARK 922        TOTAL FREE ENERGY PREDICTED BY IDOCK:   -7.64 KCAL/MOL
REMARK 923 INTER-LIGAND FREE ENERGY PREDICTED BY IDOCK:   -5.94 KCAL/MOL
REMARK 924 INTRA-LIGAND FREE ENERGY PREDICTED BY IDOCK:   -1.70 KCAL/MOL
REMARK 927      BINDING AFFINITY PREDICTED BY RF-SCORE:    0.00 PKD
ROOT
HETATM    1  C   UNL     1     -11.870  13.865  67.732  1.00  0.00    -0.415 C  
HETATM    2  C   UNL     1     -12.305  13.986  66.283  1.00  0.00    -0.482 C  
ENDROOT
BRANCH   2   3
HETATM    3  C   UNL     1     -11.103  14.145  65.353  1.00  0.00    -0.321 C  
BRANCH   3   4
HETATM    4  C   UNL     1     -10.125  15.164  65.924  1.00  0.00    -0.349 C  
BRANCH   4   5
HETATM    5  C   UNL     1     -10.444  16.584  65.463  1.00  0.00    -0.320 C  
BRANCH   5   6
HETATM    6  C   UNL     1     -10.385  17.529  66.661  1.00  0.00    -0.319 C  
BRANCH   6   7
HETATM    7  C   UNL     1      -9.240  18.536  66.532  1.00  0.00    -0.310 C  
BRANCH   7   8
HETATM    8  N   UNL     1      -7.913  17.947  66.789  1.00  0.00    -0.223 NA 
BRANCH   8   9
HETATM    9  C   UNL     1      -6.838  18.489  65.940  1.00  0.00    -0.283 C  
HETATM   10  C   UNL     1      -7.075  19.877  65.351  1.00  0.00    -0.289 C  
ENDBRANCH   8   9
BRANCH   8  11
HETATM   11  C   UNL     1      -7.550  18.001  68.217  1.00  0.00    -0.275 C  
BRANCH  11  12
HETATM   12  C   UNL     1      -7.570  16.641  68.932  1.00  0.00    -0.240 C  
BRANCH  12  13
HETATM   13  C   UNL     1      -6.944  15.524  68.090  1.00  0.00    -0.129 C  
BRANCH  13  14
HETATM   14  C   UNL     1      -6.318  14.423  68.956  1.00  0.00    -0.097 C  
HETATM   15  H   UNL     1      -5.911  14.136  70.862  1.00  0.00     0.000 HD 
HETATM   16  O   UNL     1      -6.299  14.818  70.325  1.00  0.00    -0.169 OA 
BRANCH  14  17
HETATM   17  C   UNL     1      -7.055  13.106  68.807  1.00  0.00    -0.098 A  
HETATM   18  C   UNL     1      -6.557  11.954  69.434  1.00  0.00    -0.108 A  
HETATM   19  C   UNL     1      -7.176  10.716  69.251  1.00  0.00    -0.113 A  
HETATM   20  C   UNL     1      -8.299  10.614  68.433  1.00  0.00    -0.127 A  
HETATM   21  C   UNL     1      -8.220  12.992  68.025  1.00  0.00    -0.161 A  
HETATM   22  C   UNL     1      -8.840  11.753  67.842  1.00  0.00    -0.165 A  
BRANCH  20  23
HETATM   23  N   UNL     1      -8.889   9.337  68.218  1.00  0.00    -0.129 N  
HETATM   24  H   UNL     1      -8.710   8.811  67.363  1.00  0.00     0.000 HD 
BRANCH  23  25
HETATM   25  S   UNL     1      -9.896   8.720  69.425  1.00  0.00    -0.192 S  
HETATM   26  C   UNL     1     -10.868  10.154  69.836  1.00  0.00    -0.299 C  
HETATM   27  O   UNL     1      -9.026   8.447  70.549  1.00  0.00    -0.140 OA 
HETATM   28  O   UNL     1     -10.759   7.696  68.881  1.00  0.00    -0.188 OA 
ENDBRANCH  23  25
ENDBRANCH  20  23
ENDBRANCH  14  17
ENDBRANCH  13  14
ENDBRANCH  12  13
ENDBRANCH  11  12
ENDBRANCH   8  11
ENDBRANCH   7   8
ENDBRANCH   6   7
ENDBRANCH   5   6
ENDBRANCH   4   5
ENDBRANCH   3   4
ENDBRANCH   2   3
TORSDOF 14
ENDMDL
MODEL      244
REMARK 921   NORMALIZED FREE ENERGY PREDICTED BY IDOCK:   -3.16 KCAL/MOL
REMARK 922        TOTAL FREE ENERGY PREDICTED BY IDOCK:   -7.60 KCAL/MOL
REMARK 923 INTER-LIGAND FREE ENERGY PREDICTED BY IDOCK:   -6.31 KCAL/MOL
REMARK 924 INTRA-LIGAND FREE ENERGY PREDICTED BY IDOCK:   -1.29 KCAL/MOL
REMARK 927      BINDING AFFINITY PREDICTED BY RF-SCORE:    0.00 PKD
ROOT
HETATM    1  C   UNL     1      -9.778   6.829  66.363  1.00  0.00    -0.125 C  
HETATM    2  C   UNL     1      -9.331   5.380  66.414  1.00  0.00    -0.157 C  
ENDROOT
BRANCH   2   3
HETATM    3  C   UNL     1      -8.278   5.159  67.498  1.00  0.00    -0.103 C  
BRANCH   3   4
HETATM    4  C   UNL     1      -8.594   3.896  68.290  1.00  0.00    -0.114 C  
BRANCH   4   5
HETATM    5  C   UNL     1      -9.619   4.152  69.391  1.00  0.00    -0.265 C  
BRANCH   5   6
HETATM    6  C   UNL     1      -9.002   3.814  70.745  1.00  0.00    -0.157 C  
BRANCH   6   7
HETATM    7  C   UNL     1      -8.328   5.032  71.381  1.00  0.00    -0.118 C  
BRANCH   7   8
HETATM    8  N   UNL     1      -9.287   6.022  71.904  1.00  0.00    -0.151 NA 
BRANCH   8   9
HETATM    9  C   UNL     1      -9.589   5.870  73.338  1.00  0.00    -0.143 C  
HETATM   10  C   UNL     1     -10.924   5.215  73.684  1.00  0.00    -0.350 C  
ENDBRANCH   8   9
BRANCH   8  11
HETATM   11  C   UNL     1      -8.887   7.404  71.583  1.00  0.00    -0.116 C  
BRANCH  11  12
HETATM   12  C   UNL     1      -9.641   8.028  70.399  1.00  0.00    -0.174 C  
BRANCH  12  13
HETATM   13  C   UNL     1      -9.649   9.560  70.449  1.00  0.00    -0.326 C  
BRANCH  13  14
HETATM   14  C   UNL     1      -8.806  10.183  69.327  1.00  0.00    -0.183 C  
HETATM   15  H   UNL     1      -7.526   9.564  67.965  1.00  0.00     0.000 HD 
HETATM   16  O   UNL     1      -8.047   9.179  68.659  1.00  0.00    -0.100 OA 
BRANCH  14  17
HETATM   17  C   UNL     1      -9.669  10.931  68.328  1.00  0.00    -0.171 A  
HETATM   18  C   UNL     1      -9.642  12.334  68.299  1.00  0.00    -0.212 A  
HETATM   19  C   UNL     1     -10.482  13.047  67.440  1.00  0.00    -0.235 A  
HETATM   20  C   UNL     1     -11.362  12.365  66.604  1.00  0.00    -0.339 A  
HETATM   21  C   UNL     1     -10.529  10.259  67.441  1.00  0.00    -0.303 A  
HETATM   22  C   UNL     1     -11.369  10.972  66.581  1.00  0.00    -0.001 A  
BRANCH  20  23
HETATM   23  N   UNL     1     -12.245  13.107  65.770  1.00  0.00    -0.448 N  
HETATM   24  H   UNL     1     -13.156  13.416  66.111  1.00  0.00     0.000 HD 
BRANCH  23  25
HETATM   25  S   UNL     1     -11.737  13.459  64.200  1.00  0.00    -0.416 S  
HETATM   26  C   UNL     1     -12.081  11.923  63.368  1.00  0.00    -0.432 C  
HETATM   27  O   UNL     1     -10.299  13.597  64.282  1.00  0.00    -0.376 OA 
HETATM   28  O   UNL     1     -12.557  14.506  63.631  1.00  0.00    -0.798 OA 
ENDBRANCH  23  25
ENDBRANCH  20  23
ENDBRANCH  14  17
ENDBRANCH  13  14
ENDBRANCH  12  13
ENDBRANCH  11  12
ENDBRANCH   8  11
ENDBRANCH   7   8
ENDBRANCH   6   7
ENDBRANCH   5   6
ENDBRANCH   4   5
ENDBRANCH   3   4
ENDBRANCH   2   3
TORSDOF 14
ENDMDL
MODEL      245
REMARK 921   NORMALIZED FREE ENERGY PREDICTED BY IDOCK:   -3.13 KCAL/MOL
REMARK 922        TOTAL FREE ENERGY PREDICTED BY IDOCK:   -7.55 KCAL/MOL
REMARK 923 INTER-LIGAND FREE ENERGY PREDICTED BY IDOCK:   -5.84 KCAL/MOL
REMARK 924 INTRA-LIGAND FREE ENERGY PREDICTED BY IDOCK:   -1.71 KCAL/MOL
REMARK 927      BINDING AFFINITY PREDICTED BY RF-SCORE:    0.00 PKD
ROOT
HETATM    1  C   UNL     1      -5.964  10.111  70.783  1.00  0.00    -0.093 C  
HETATM    2  C   UNL     1      -7.335   9.838  70.193  1.00  0.00    -0.159 C  
ENDROOT
BRANCH   2   3
HETATM    3  C   UNL     1      -8.223   9.076  71.176  1.00  0.00    -0.198 C  
BRANCH   3   4
HETATM    4  C   UNL     1      -9.656   9.027  70.661  1.00  0.00    -0.289 C  
BRANCH   4   5
HETATM    5  C   UNL     1     -10.661   8.792  71.786  1.00  0.00    -0.417 C  
BRANCH   5   6
HETATM    6  C   UNL     1      -9.967   8.074  72.941  1.00  0.00    -0.360 C  
BRANCH   6   7
HETATM    7  C   UNL     1     -10.862   6.997  73.559  1.00  0.00    -0.254 C  
BRANCH   7   8
HETATM    8  N   UNL     1     -10.357   5.628  73.349  1.00  0.00    -0.205 NA 
BRANCH   8   9
HETATM    9  C   UNL     1     -11.393   4.584  73.436  1.00  0.00    -0.286 C  
HETATM   10  C   UNL     1     -10.909   3.174  73.763  1.00  0.00    -0.305 C  
ENDBRANCH   8   9
BRANCH   8  11
HETATM   11  C   UNL     1      -9.578   5.509  72.103  1.00  0.00    -0.150 C  
BRANCH  11  12
HETATM   12  C   UNL     1     -10.427   5.342  70.833  1.00  0.00    -0.307 C  
BRANCH  12  13
HETATM   13  C   UNL     1      -9.909   4.223  69.923  1.00  0.00    -0.267 C  
BRANCH  13  14
HETATM   14  C   UNL     1      -8.700   4.665  69.088  1.00  0.00    -0.087 C  
HETATM   15  H   UNL     1      -7.507   3.872  67.736  1.00  0.00     0.000 HD 
HETATM   16  O   UNL     1      -8.256   3.599  68.254  1.00  0.00    -0.080 OA 
BRANCH  14  17
HETATM   17  C   UNL     1      -9.018   5.885  68.244  1.00  0.00    -0.112 A  
HETATM   18  C   UNL     1     -10.242   5.960  67.563  1.00  0.00    -0.232 A  
HETATM   19  C   UNL     1     -10.527   7.038  66.722  1.00  0.00    -0.297 A  
HETATM   20  C   UNL     1      -9.587   8.051  66.548  1.00  0.00    -0.226 A  
HETATM   21  C   UNL     1      -8.102   6.943  68.095  1.00  0.00    -0.119 A  
HETATM   22  C   UNL     1      -8.387   8.022  67.254  1.00  0.00    -0.122 A  
BRANCH  20  23
HETATM   23  N   UNL     1      -9.873   9.118  65.650  1.00  0.00    -0.459 N  
HETATM   24  H   UNL     1      -9.993   8.948  64.651  1.00  0.00     0.000 HD 
BRANCH  23  25
HETATM   25  S   UNL     1     -10.007  10.674  66.290  1.00  0.00    -0.229 S  
HETATM   26  C   UNL     1     -11.279  10.439  67.515  1.00  0.00    -0.179 C  
HETATM   27  O   UNL     1     -10.569  11.480  65.229  1.00  0.00    -0.269 OA 
HETATM   28  O   UNL     1      -8.775  11.053  66.946  1.00  0.00    -0.141 OA 
ENDBRANCH  23  25
ENDBRANCH  20  23
ENDBRANCH  14  17
ENDBRANCH  13  14
ENDBRANCH  12  13
ENDBRANCH  11  12
ENDBRANCH   8  11
ENDBRANCH   7   8
ENDBRANCH   6   7
ENDBRANCH   5   6
ENDBRANCH   4   5
ENDBRANCH   3   4
ENDBRANCH   2   3
TORSDOF 14
ENDMDL
MODEL      246
REMARK 921   NORMALIZED FREE ENERGY PREDICTED BY IDOCK:   -3.13 KCAL/MOL
REMARK 922        TOTAL FREE ENERGY PREDICTED BY IDOCK:   -7.54 KCAL/MOL
REMARK 923 INTER-LIGAND FREE ENERGY PREDICTED BY IDOCK:   -6.12 KCAL/MOL
REMARK 924 INTRA-LIGAND FREE ENERGY PREDICTED BY IDOCK:   -1.42 KCAL/MOL
REMARK 927      BINDING AFFINITY PREDICTED BY RF-SCORE:    0.00 PKD
ROOT
HETATM    1  C   UNL     1     -10.979  16.740  68.010  1.00  0.00    -0.296 C  
HETATM    2  C   UNL     1     -10.696  15.315  67.573  1.00  0.00    -0.285 C  
ENDROOT
BRANCH   2   3
HETATM    3  C   UNL     1      -9.842  15.280  66.307  1.00  0.00    -0.316 C  
BRANCH   3   4
HETATM    4  C   UNL     1     -10.702  15.579  65.084  1.00  0.00    -0.460 C  
BRANCH   4   5
HETATM    5  C   UNL     1     -11.980  14.745  65.065  1.00  0.00    -0.318 C  
BRANCH   5   6
HETATM    6  C   UNL     1     -11.704  13.414  64.369  1.00  0.00    -0.435 C  
BRANCH   6   7
HETATM    7  C   UNL     1     -11.808  12.235  65.338  1.00  0.00    -0.360 C  
BRANCH   7   8
HETATM    8  N   UNL     1     -10.531  11.910  66.000  1.00  0.00    -0.237 NA 
BRANCH   8   9
HETATM    9  C   UNL     1     -10.660  11.590  67.433  1.00  0.00    -0.214 C  
HETATM   10  C   UNL     1     -11.857  12.199  68.159  1.00  0.00    -0.362 C  
ENDBRANCH   8   9
BRANCH   8  11
HETATM   11  C   UNL     1      -9.785  10.861  65.281  1.00  0.00    -0.246 C  
BRANCH  11  12
HETATM   12  C   UNL     1      -9.956   9.447  65.858  1.00  0.00    -0.327 C  
BRANCH  12  13
HETATM   13  C   UNL     1      -8.844   8.492  65.409  1.00  0.00    -0.173 C  
BRANCH  13  14
HETATM   14  C   UNL     1      -7.737   8.352  66.462  1.00  0.00    -0.089 C  
HETATM   15  H   UNL     1      -6.113   9.330  66.994  1.00  0.00     0.000 HD 
HETATM   16  O   UNL     1      -6.798   9.417  66.342  1.00  0.00    -0.081 OA 
BRANCH  14  17
HETATM   17  C   UNL     1      -8.303   8.317  67.869  1.00  0.00    -0.128 A  
HETATM   18  C   UNL     1      -7.962   9.326  68.782  1.00  0.00    -0.099 A  
HETATM   19  C   UNL     1      -8.410   9.276  70.104  1.00  0.00    -0.189 A  
HETATM   20  C   UNL     1      -9.202   8.212  70.529  1.00  0.00    -0.154 A  
HETATM   21  C   UNL     1      -9.146   7.277  68.305  1.00  0.00    -0.134 A  
HETATM   22  C   UNL     1      -9.595   7.227  69.627  1.00  0.00    -0.155 A  
BRANCH  20  23
HETATM   23  N   UNL     1      -9.611   8.151  71.891  1.00  0.00    -0.182 N  
HETATM   24  H   UNL     1     -10.549   8.439  72.173  1.00  0.00     0.000 HD 
BRANCH  23  25
HETATM   25  S   UNL     1      -8.495   7.587  73.025  1.00  0.00    -0.145 S  
HETATM   26  C   UNL     1      -9.574   7.006  74.317  1.00  0.00    -0.229 C  
HETATM   27  O   UNL     1      -7.820   8.767  73.520  1.00  0.00    -0.408 OA 
HETATM   28  O   UNL     1      -7.752   6.471  72.483  1.00  0.00    -0.098 OA 
ENDBRANCH  23  25
ENDBRANCH  20  23
ENDBRANCH  14  17
ENDBRANCH  13  14
ENDBRANCH  12  13
ENDBRANCH  11  12
ENDBRANCH   8  11
ENDBRANCH   7   8
ENDBRANCH   6   7
ENDBRANCH   5   6
ENDBRANCH   4   5
ENDBRANCH   3   4
ENDBRANCH   2   3
TORSDOF 14
ENDMDL
MODEL      247
REMARK 921   NORMALIZED FREE ENERGY PREDICTED BY IDOCK:   -3.12 KCAL/MOL
REMARK 922        TOTAL FREE ENERGY PREDICTED BY IDOCK:   -7.53 KCAL/MOL
REMARK 923 INTER-LIGAND FREE ENERGY PREDICTED BY IDOCK:   -5.77 KCAL/MOL
REMARK 924 INTRA-LIGAND FREE ENERGY PREDICTED BY IDOCK:   -1.76 KCAL/MOL
REMARK 927      BINDING AFFINITY PREDICTED BY RF-SCORE:    0.00 PKD
ROOT
HETATM    1  C   UNL     1      -5.482  10.907  70.068  1.00  0.00    -0.063 C  
HETATM    2  C   UNL     1      -6.825  10.621  69.423  1.00  0.00    -0.095 C  
ENDROOT
BRANCH   2   3
HETATM    3  C   UNL     1      -6.670   9.751  68.176  1.00  0.00    -0.061 C  
BRANCH   3   4
HETATM    4  C   UNL     1      -7.595   8.543  68.259  1.00  0.00    -0.097 C  
BRANCH   4   5
HETATM    5  C   UNL     1      -6.829   7.253  68.537  1.00  0.00    -0.073 C  
BRANCH   5   6
HETATM    6  C   UNL     1      -7.297   6.664  69.866  1.00  0.00    -0.086 C  
BRANCH   6   7
HETATM    7  C   UNL     1      -7.848   5.247  69.695  1.00  0.00    -0.073 C  
BRANCH   7   8
HETATM    8  N   UNL     1      -9.260   5.118  70.097  1.00  0.00    -0.136 NA 
BRANCH   8   9
HETATM    9  C   UNL     1     -10.138   4.572  69.047  1.00  0.00     0.013 C  
HETATM   10  C   UNL     1     -10.396   5.475  67.843  1.00  0.00    -0.240 C  
ENDBRANCH   8   9
BRANCH   8  11
HETATM   11  C   UNL     1      -9.411   4.377  71.362  1.00  0.00    -0.155 C  
BRANCH  11  12
HETATM   12  C   UNL     1      -9.761   5.251  72.576  1.00  0.00    -0.176 C  
BRANCH  12  13
HETATM   13  C   UNL     1     -11.143   5.902  72.453  1.00  0.00    -0.328 C  
BRANCH  13  14
HETATM   14  C   UNL     1     -11.259   7.185  73.288  1.00  0.00    -0.108 C  
HETATM   15  H   UNL     1     -10.219   8.099  74.688  1.00  0.00     0.000 HD 
HETATM   16  O   UNL     1     -10.147   7.305  74.171  1.00  0.00    -0.266 OA 
BRANCH  14  17
HETATM   17  C   UNL     1     -11.360   8.417  72.409  1.00  0.00    -0.448 A  
HETATM   18  C   UNL     1     -12.569   9.124  72.338  1.00  0.00    -0.381 A  
HETATM   19  C   UNL     1     -12.709  10.217  71.479  1.00  0.00    -0.557 A  
HETATM   20  C   UNL     1     -11.640  10.613  70.679  1.00  0.00    -0.336 A  
HETATM   21  C   UNL     1     -10.276   8.863  71.630  1.00  0.00    -0.415 A  
HETATM   22  C   UNL     1     -10.415   9.957  70.772  1.00  0.00    -0.253 A  
BRANCH  20  23
HETATM   23  N   UNL     1     -11.814  11.699  69.774  1.00  0.00    -0.334 N  
HETATM   24  H   UNL     1     -12.165  12.601  70.096  1.00  0.00     0.000 HD 
BRANCH  23  25
HETATM   25  S   UNL     1     -11.419  11.445  68.153  1.00  0.00    -0.304 S  
HETATM   26  C   UNL     1      -9.831  12.245  68.051  1.00  0.00    -0.204 C  
HETATM   27  O   UNL     1     -12.359  12.245  67.399  1.00  0.00    -0.344 OA 
HETATM   28  O   UNL     1     -11.261  10.031  67.892  1.00  0.00    -0.254 OA 
ENDBRANCH  23  25
ENDBRANCH  20  23
ENDBRANCH  14  17
ENDBRANCH  13  14
ENDBRANCH  12  13
ENDBRANCH  11  12
ENDBRANCH   8  11
ENDBRANCH   7   8
ENDBRANCH   6   7
ENDBRANCH   5   6
ENDBRANCH   4   5
ENDBRANCH   3   4
ENDBRANCH   2   3
TORSDOF 14
ENDMDL
MODEL      248
REMARK 921   NORMALIZED FREE ENERGY PREDICTED BY IDOCK:   -3.12 KCAL/MOL
REMARK 922        TOTAL FREE ENERGY PREDICTED BY IDOCK:   -7.53 KCAL/MOL
REMARK 923 INTER-LIGAND FREE ENERGY PREDICTED BY IDOCK:   -6.62 KCAL/MOL
REMARK 924 INTRA-LIGAND FREE ENERGY PREDICTED BY IDOCK:   -0.91 KCAL/MOL
REMARK 927      BINDING AFFINITY PREDICTED BY RF-SCORE:    0.00 PKD
ROOT
HETATM    1  C   UNL     1      -8.677   2.559  72.823  1.00  0.00    -0.076 C  
HETATM    2  C   UNL     1      -9.891   2.765  71.936  1.00  0.00    -0.229 C  
ENDROOT
BRANCH   2   3
HETATM    3  C   UNL     1     -10.409   4.199  72.025  1.00  0.00    -0.145 C  
BRANCH   3   4
HETATM    4  C   UNL     1      -9.720   5.073  70.984  1.00  0.00    -0.249 C  
BRANCH   4   5
HETATM    5  C   UNL     1     -10.722   5.754  70.056  1.00  0.00    -0.400 C  
BRANCH   5   6
HETATM    6  C   UNL     1     -11.762   6.496  70.892  1.00  0.00    -0.416 C  
BRANCH   6   7
HETATM    7  C   UNL     1     -11.235   7.846  71.384  1.00  0.00    -0.247 C  
BRANCH   7   8
HETATM    8  N   UNL     1     -11.970   8.997  70.829  1.00  0.00    -0.225 NA 
BRANCH   8   9
HETATM    9  C   UNL     1     -12.727   9.769  71.830  1.00  0.00    -0.410 C  
HETATM   10  C   UNL     1     -14.043   9.156  72.306  1.00  0.00    -0.439 C  
ENDBRANCH   8   9
BRANCH   8  11
HETATM   11  C   UNL     1     -11.102   9.871  70.021  1.00  0.00    -0.285 C  
BRANCH  11  12
HETATM   12  C   UNL     1     -11.830  10.638  68.905  1.00  0.00    -0.216 C  
BRANCH  12  13
HETATM   13  C   UNL     1     -10.948  11.713  68.259  1.00  0.00    -0.273 C  
BRANCH  13  14
HETATM   14  C   UNL     1     -11.556  13.117  68.385  1.00  0.00    -0.337 C  
HETATM   15  H   UNL     1     -12.407  14.205  69.789  1.00  0.00     0.000 HD 
HETATM   16  O   UNL     1     -12.031  13.335  69.711  1.00  0.00    -0.313 OA 
BRANCH  14  17
HETATM   17  C   UNL     1     -10.557  14.195  68.008  1.00  0.00    -0.241 A  
HETATM   18  C   UNL     1      -9.512  13.896  67.121  1.00  0.00    -0.246 A  
HETATM   19  C   UNL     1      -8.538  14.849  66.817  1.00  0.00    -0.256 A  
HETATM   20  C   UNL     1      -8.595  16.112  67.401  1.00  0.00    -0.180 A  
HETATM   21  C   UNL     1     -10.625  15.492  68.549  1.00  0.00    -0.246 A  
HETATM   22  C   UNL     1      -9.651  16.447  68.245  1.00  0.00    -0.221 A  
BRANCH  20  23
HETATM   23  N   UNL     1      -7.568  17.056  67.118  1.00  0.00    -0.163 N  
HETATM   24  H   UNL     1      -7.706  17.794  66.427  1.00  0.00     0.000 HD 
BRANCH  23  25
HETATM   25  S   UNL     1      -6.113  16.915  67.962  1.00  0.00    -0.137 S  
HETATM   26  C   UNL     1      -5.493  18.582  67.871  1.00  0.00    -0.169 C  
HETATM   27  O   UNL     1      -5.264  16.089  67.132  1.00  0.00    -0.322 OA 
HETATM   28  O   UNL     1      -6.367  16.575  69.345  1.00  0.00    -0.181 OA 
ENDBRANCH  23  25
ENDBRANCH  20  23
ENDBRANCH  14  17
ENDBRANCH  13  14
ENDBRANCH  12  13
ENDBRANCH  11  12
ENDBRANCH   8  11
ENDBRANCH   7   8
ENDBRANCH   6   7
ENDBRANCH   5   6
ENDBRANCH   4   5
ENDBRANCH   3   4
ENDBRANCH   2   3
TORSDOF 14
ENDMDL
MODEL      249
REMARK 921   NORMALIZED FREE ENERGY PREDICTED BY IDOCK:   -3.12 KCAL/MOL
REMARK 922        TOTAL FREE ENERGY PREDICTED BY IDOCK:   -7.52 KCAL/MOL
REMARK 923 INTER-LIGAND FREE ENERGY PREDICTED BY IDOCK:   -6.16 KCAL/MOL
REMARK 924 INTRA-LIGAND FREE ENERGY PREDICTED BY IDOCK:   -1.36 KCAL/MOL
REMARK 927      BINDING AFFINITY PREDICTED BY RF-SCORE:    0.00 PKD
ROOT
HETATM    1  C   UNL     1      -7.955  11.022  68.575  1.00  0.00    -0.137 C  
HETATM    2  C   UNL     1      -8.168  11.959  67.401  1.00  0.00    -0.164 C  
ENDROOT
BRANCH   2   3
HETATM    3  C   UNL     1      -9.096  11.342  66.356  1.00  0.00    -0.201 C  
BRANCH   3   4
HETATM    4  C   UNL     1     -10.382  10.859  67.014  1.00  0.00    -0.276 C  
BRANCH   4   5
HETATM    5  C   UNL     1     -11.418  11.974  67.135  1.00  0.00    -0.401 C  
BRANCH   5   6
HETATM    6  C   UNL     1     -11.691  12.252  68.611  1.00  0.00    -0.377 C  
BRANCH   6   7
HETATM    7  C   UNL     1     -12.216  11.011  69.334  1.00  0.00    -0.259 C  
BRANCH   7   8
HETATM    8  N   UNL     1     -11.948  11.023  70.784  1.00  0.00    -0.343 NA 
BRANCH   8   9
HETATM    9  C   UNL     1     -13.127  11.330  71.613  1.00  0.00    -0.408 C  
HETATM   10  C   UNL     1     -13.344  12.800  71.962  1.00  0.00    -0.565 C  
ENDBRANCH   8   9
BRANCH   8  11
HETATM   11  C   UNL     1     -11.282   9.788  71.234  1.00  0.00    -0.347 C  
BRANCH  11  12
HETATM   12  C   UNL     1     -10.816   8.863  70.099  1.00  0.00    -0.251 C  
BRANCH  12  13
HETATM   13  C   UNL     1     -11.199   7.398  70.339  1.00  0.00    -0.284 C  
BRANCH  13  14
HETATM   14  C   UNL     1      -9.969   6.492  70.491  1.00  0.00    -0.184 C  
HETATM   15  H   UNL     1      -9.408   4.996  71.641  1.00  0.00     0.000 HD 
HETATM   16  O   UNL     1     -10.169   5.557  71.547  1.00  0.00    -0.197 OA 
BRANCH  14  17
HETATM   17  C   UNL     1      -9.651   5.759  69.202  1.00  0.00    -0.171 A  
HETATM   18  C   UNL     1      -9.744   4.360  69.156  1.00  0.00    -0.240 A  
HETATM   19  C   UNL     1      -9.385   3.657  68.004  1.00  0.00    -0.237 A  
HETATM   20  C   UNL     1      -8.923   4.346  66.885  1.00  0.00    -0.118 A  
HETATM   21  C   UNL     1      -9.230   6.441  68.045  1.00  0.00    -0.110 A  
HETATM   22  C   UNL     1      -8.871   5.738  66.892  1.00  0.00    -0.114 A  
BRANCH  20  23
HETATM   23  N   UNL     1      -8.515   3.612  65.736  1.00  0.00    -0.109 N  
HETATM   24  H   UNL     1      -7.599   3.164  65.694  1.00  0.00     0.000 HD 
BRANCH  23  25
HETATM   25  S   UNL     1      -9.596   3.506  64.443  1.00  0.00    -0.172 S  
HETATM   26  C   UNL     1      -8.819   4.575  63.250  1.00  0.00    -0.132 C  
HETATM   27  O   UNL     1     -10.803   4.162  64.896  1.00  0.00    -0.243 OA 
HETATM   28  O   UNL     1      -9.628   2.155  63.928  1.00  0.00    -0.120 OA 
ENDBRANCH  23  25
ENDBRANCH  20  23
ENDBRANCH  14  17
ENDBRANCH  13  14
ENDBRANCH  12  13
ENDBRANCH  11  12
ENDBRANCH   8  11
ENDBRANCH   7   8
ENDBRANCH   6   7
ENDBRANCH   5   6
ENDBRANCH   4   5
ENDBRANCH   3   4
ENDBRANCH   2   3
TORSDOF 14
ENDMDL
MODEL      250
REMARK 921   NORMALIZED FREE ENERGY PREDICTED BY IDOCK:   -3.11 KCAL/MOL
REMARK 922        TOTAL FREE ENERGY PREDICTED BY IDOCK:   -7.51 KCAL/MOL
REMARK 923 INTER-LIGAND FREE ENERGY PREDICTED BY IDOCK:   -6.32 KCAL/MOL
REMARK 924 INTRA-LIGAND FREE ENERGY PREDICTED BY IDOCK:   -1.20 KCAL/MOL
REMARK 927      BINDING AFFINITY PREDICTED BY RF-SCORE:    0.00 PKD
ROOT
HETATM    1  C   UNL     1     -11.337  15.477  64.551  1.00  0.00    -0.322 C  
HETATM    2  C   UNL     1     -11.986  14.106  64.555  1.00  0.00    -0.476 C  
ENDROOT
BRANCH   2   3
HETATM    3  C   UNL     1     -12.686  13.824  65.883  1.00  0.00    -0.452 C  
BRANCH   3   4
HETATM    4  C   UNL     1     -11.673  13.369  66.926  1.00  0.00    -0.434 C  
BRANCH   4   5
HETATM    5  C   UNL     1     -11.765  11.870  67.197  1.00  0.00    -0.311 C  
BRANCH   5   6
HETATM    6  C   UNL     1     -10.360  11.273  67.219  1.00  0.00    -0.236 C  
BRANCH   6   7
HETATM    7  C   UNL     1      -9.796  11.098  65.807  1.00  0.00    -0.235 C  
BRANCH   7   8
HETATM    8  N   UNL     1      -8.326  11.197  65.749  1.00  0.00    -0.099 NA 
BRANCH   8   9
HETATM    9  C   UNL     1      -7.667  11.154  67.067  1.00  0.00    -0.139 C  
HETATM   10  C   UNL     1      -6.426  12.027  67.233  1.00  0.00    -0.149 C  
ENDBRANCH   8   9
BRANCH   8  11
HETATM   11  C   UNL     1      -7.740  10.212  64.823  1.00  0.00    -0.141 C  
BRANCH  11  12
HETATM   12  C   UNL     1      -8.505   8.882  64.738  1.00  0.00    -0.193 C  
BRANCH  12  13
HETATM   13  C   UNL     1      -7.775   7.738  65.451  1.00  0.00    -0.106 C  
BRANCH  13  14
HETATM   14  C   UNL     1      -8.723   6.594  65.838  1.00  0.00    -0.137 C  
HETATM   15  H   UNL     1      -8.630   4.635  66.011  1.00  0.00     0.000 HD 
HETATM   16  O   UNL     1      -8.044   5.343  65.771  1.00  0.00    -0.104 OA 
BRANCH  14  17
HETATM   17  C   UNL     1      -9.307   6.795  67.223  1.00  0.00    -0.148 A  
HETATM   18  C   UNL     1      -8.525   7.383  68.229  1.00  0.00    -0.125 A  
HETATM   19  C   UNL     1      -9.014   7.510  69.531  1.00  0.00    -0.143 A  
HETATM   20  C   UNL     1     -10.289   7.045  69.844  1.00  0.00    -0.210 A  
HETATM   21  C   UNL     1     -10.611   6.377  67.546  1.00  0.00    -0.350 A  
HETATM   22  C   UNL     1     -11.101   6.504  68.849  1.00  0.00    -0.371 A  
BRANCH  20  23
HETATM   23  N   UNL     1     -10.754   7.138  71.186  1.00  0.00    -0.231 N  
HETATM   24  H   UNL     1     -10.932   6.301  71.741  1.00  0.00     0.000 HD 
BRANCH  23  25
HETATM   25  S   UNL     1     -11.001   8.679  71.830  1.00  0.00    -0.350 S  
HETATM   26  C   UNL     1     -11.278   9.634  70.353  1.00  0.00    -0.283 C  
HETATM   27  O   UNL     1      -9.722   9.079  72.374  1.00  0.00    -0.210 OA 
HETATM   28  O   UNL     1     -12.197   8.696  72.642  1.00  0.00    -0.361 OA 
ENDBRANCH  23  25
ENDBRANCH  20  23
ENDBRANCH  14  17
ENDBRANCH  13  14
ENDBRANCH  12  13
ENDBRANCH  11  12
ENDBRANCH   8  11
ENDBRANCH   7   8
ENDBRANCH   6   7
ENDBRANCH   5   6
ENDBRANCH   4   5
ENDBRANCH   3   4
ENDBRANCH   2   3
TORSDOF 14
ENDMDL
MODEL      251
REMARK 921   NORMALIZED FREE ENERGY PREDICTED BY IDOCK:   -3.11 KCAL/MOL
REMARK 922        TOTAL FREE ENERGY PREDICTED BY IDOCK:   -7.51 KCAL/MOL
REMARK 923 INTER-LIGAND FREE ENERGY PREDICTED BY IDOCK:   -5.40 KCAL/MOL
REMARK 924 INTRA-LIGAND FREE ENERGY PREDICTED BY IDOCK:   -2.10 KCAL/MOL
REMARK 927      BINDING AFFINITY PREDICTED BY RF-SCORE:    0.00 PKD
ROOT
HETATM    1  C   UNL     1      -9.788  10.230  64.532  1.00  0.00    -0.384 C  
HETATM    2  C   UNL     1      -9.686   9.919  66.013  1.00  0.00    -0.310 C  
ENDROOT
BRANCH   2   3
HETATM    3  C   UNL     1     -10.593  10.830  66.838  1.00  0.00    -0.312 C  
BRANCH   3   4
HETATM    4  C   UNL     1      -9.756  11.800  67.663  1.00  0.00    -0.186 C  
BRANCH   4   5
HETATM    5  C   UNL     1      -8.264  11.656  67.375  1.00  0.00    -0.153 C  
BRANCH   5   6
HETATM    6  C   UNL     1      -7.470  12.042  68.621  1.00  0.00    -0.113 C  
BRANCH   6   7
HETATM    7  C   UNL     1      -7.148  10.823  69.489  1.00  0.00    -0.132 C  
BRANCH   7   8
HETATM    8  N   UNL     1      -7.373   9.540  68.799  1.00  0.00    -0.073 NA 
BRANCH   8   9
HETATM    9  C   UNL     1      -6.144   8.903  68.294  1.00  0.00    -0.053 C  
HETATM   10  C   UNL     1      -6.199   8.357  66.870  1.00  0.00    -0.055 C  
ENDBRANCH   8   9
BRANCH   8  11
HETATM   11  C   UNL     1      -8.168   8.604  69.614  1.00  0.00    -0.114 C  
BRANCH  11  12
HETATM   12  C   UNL     1      -9.392   9.233  70.298  1.00  0.00    -0.277 C  
BRANCH  12  13
HETATM   13  C   UNL     1     -10.709   8.588  69.853  1.00  0.00    -0.224 C  
BRANCH  13  14
HETATM   14  C   UNL     1     -10.797   7.109  70.251  1.00  0.00    -0.249 C  
HETATM   15  H   UNL     1     -12.112   5.914  71.100  1.00  0.00     0.000 HD 
HETATM   16  O   UNL     1     -12.057   6.830  70.854  1.00  0.00    -0.377 OA 
BRANCH  14  17
HETATM   17  C   UNL     1     -10.578   6.194  69.060  1.00  0.00    -0.341 A  
HETATM   18  C   UNL     1      -9.969   4.944  69.246  1.00  0.00    -0.270 A  
HETATM   19  C   UNL     1      -9.689   4.117  68.156  1.00  0.00    -0.152 A  
HETATM   20  C   UNL     1     -10.011   4.533  66.867  1.00  0.00    -0.198 A  
HETATM   21  C   UNL     1     -10.941   6.576  67.755  1.00  0.00    -0.407 A  
HETATM   22  C   UNL     1     -10.662   5.748  66.665  1.00  0.00    -0.333 A  
BRANCH  20  23
HETATM   23  N   UNL     1      -9.676   3.699  65.763  1.00  0.00    -0.348 N  
HETATM   24  H   UNL     1     -10.332   3.002  65.410  1.00  0.00     0.000 HD 
BRANCH  23  25
HETATM   25  S   UNL     1      -8.156   3.900  65.056  1.00  0.00    -0.093 S  
HETATM   26  C   UNL     1      -8.246   2.747  63.702  1.00  0.00    -0.085 C  
HETATM   27  O   UNL     1      -7.212   3.371  66.016  1.00  0.00    -0.065 OA 
HETATM   28  O   UNL     1      -8.020   5.242  64.534  1.00  0.00    -0.099 OA 
ENDBRANCH  23  25
ENDBRANCH  20  23
ENDBRANCH  14  17
ENDBRANCH  13  14
ENDBRANCH  12  13
ENDBRANCH  11  12
ENDBRANCH   8  11
ENDBRANCH   7   8
ENDBRANCH   6   7
ENDBRANCH   5   6
ENDBRANCH   4   5
ENDBRANCH   3   4
ENDBRANCH   2   3
TORSDOF 14
ENDMDL
MODEL      252
REMARK 921   NORMALIZED FREE ENERGY PREDICTED BY IDOCK:   -3.10 KCAL/MOL
REMARK 922        TOTAL FREE ENERGY PREDICTED BY IDOCK:   -7.50 KCAL/MOL
REMARK 923 INTER-LIGAND FREE ENERGY PREDICTED BY IDOCK:   -6.63 KCAL/MOL
REMARK 924 INTRA-LIGAND FREE ENERGY PREDICTED BY IDOCK:   -0.87 KCAL/MOL
REMARK 927      BINDING AFFINITY PREDICTED BY RF-SCORE:    0.00 PKD
ROOT
HETATM    1  C   UNL     1     -10.662   3.308  62.721  1.00  0.00    -0.187 C  
HETATM    2  C   UNL     1      -9.559   2.505  63.386  1.00  0.00    -0.102 C  
ENDROOT
BRANCH   2   3
HETATM    3  C   UNL     1      -9.250   3.037  64.784  1.00  0.00    -0.146 C  
BRANCH   3   4
HETATM    4  C   UNL     1      -8.077   4.008  64.730  1.00  0.00    -0.093 C  
BRANCH   4   5
HETATM    5  C   UNL     1      -8.502   5.437  65.057  1.00  0.00    -0.150 C  
BRANCH   5   6
HETATM    6  C   UNL     1      -9.493   5.416  66.219  1.00  0.00    -0.169 C  
BRANCH   6   7
HETATM    7  C   UNL     1      -8.785   5.527  67.571  1.00  0.00    -0.107 C  
BRANCH   7   8
HETATM    8  N   UNL     1      -8.933   6.852  68.200  1.00  0.00    -0.124 NA 
BRANCH   8   9
HETATM    9  C   UNL     1      -7.710   7.673  68.171  1.00  0.00    -0.119 C  
HETATM   10  C   UNL     1      -6.413   6.945  67.826  1.00  0.00    -0.050 C  
ENDBRANCH   8   9
BRANCH   8  11
HETATM   11  C   UNL     1     -10.090   7.593  67.666  1.00  0.00    -0.192 C  
BRANCH  11  12
HETATM   12  C   UNL     1      -9.799   9.059  67.309  1.00  0.00    -0.252 C  
BRANCH  12  13
HETATM   13  C   UNL     1     -10.782  10.031  67.971  1.00  0.00    -0.303 C  
BRANCH  13  14
HETATM   14  C   UNL     1     -10.789   9.900  69.501  1.00  0.00    -0.246 C  
HETATM   15  H   UNL     1      -9.460   9.771  70.948  1.00  0.00     0.000 HD 
HETATM   16  O   UNL     1      -9.456   9.852  70.001  1.00  0.00    -0.231 OA 
BRANCH  14  17
HETATM   17  C   UNL     1     -11.549  11.037  70.157  1.00  0.00    -0.421 A  
HETATM   18  C   UNL     1     -12.289  10.797  71.325  1.00  0.00    -0.470 A  
HETATM   19  C   UNL     1     -13.057  11.809  71.905  1.00  0.00    -0.482 A  
HETATM   20  C   UNL     1     -13.097  13.073  71.320  1.00  0.00    -0.179 A  
HETATM   21  C   UNL     1     -11.563  12.333  69.609  1.00  0.00    -0.348 A  
HETATM   22  C   UNL     1     -12.331  13.347  70.190  1.00  0.00    -0.322 A  
BRANCH  20  23
HETATM   23  N   UNL     1     -13.922  14.079  71.897  1.00  0.00    -0.441 N  
HETATM   24  H   UNL     1     -14.929  14.096  71.728  1.00  0.00     0.000 HD 
BRANCH  23  25
HETATM   25  S   UNL     1     -13.183  15.244  72.870  1.00  0.00    -0.542 S  
HETATM   26  C   UNL     1     -12.162  16.092  71.683  1.00  0.00    -0.367 C  
HETATM   27  O   UNL     1     -12.305  14.507  73.752  1.00  0.00    -0.384 OA 
HETATM   28  O   UNL     1     -14.172  16.160  73.392  1.00  0.00    -0.203 OA 
ENDBRANCH  23  25
ENDBRANCH  20  23
ENDBRANCH  14  17
ENDBRANCH  13  14
ENDBRANCH  12  13
ENDBRANCH  11  12
ENDBRANCH   8  11
ENDBRANCH   7   8
ENDBRANCH   6   7
ENDBRANCH   5   6
ENDBRANCH   4   5
ENDBRANCH   3   4
ENDBRANCH   2   3
TORSDOF 14
ENDMDL
MODEL      253
REMARK 921   NORMALIZED FREE ENERGY PREDICTED BY IDOCK:   -3.10 KCAL/MOL
REMARK 922        TOTAL FREE ENERGY PREDICTED BY IDOCK:   -7.49 KCAL/MOL
REMARK 923 INTER-LIGAND FREE ENERGY PREDICTED BY IDOCK:   -6.03 KCAL/MOL
REMARK 924 INTRA-LIGAND FREE ENERGY PREDICTED BY IDOCK:   -1.46 KCAL/MOL
REMARK 927      BINDING AFFINITY PREDICTED BY RF-SCORE:    0.00 PKD
ROOT
HETATM    1  C   UNL     1     -11.152   6.639  67.117  1.00  0.00    -0.427 C  
HETATM    2  C   UNL     1      -9.931   7.482  66.798  1.00  0.00    -0.307 C  
ENDROOT
BRANCH   2   3
HETATM    3  C   UNL     1      -8.640   6.694  67.007  1.00  0.00    -0.113 C  
BRANCH   3   4
HETATM    4  C   UNL     1      -8.757   5.808  68.241  1.00  0.00    -0.111 C  
BRANCH   4   5
HETATM    5  C   UNL     1      -8.499   6.586  69.529  1.00  0.00    -0.131 C  
BRANCH   5   6
HETATM    6  C   UNL     1      -9.357   6.005  70.651  1.00  0.00    -0.176 C  
BRANCH   6   7
HETATM    7  C   UNL     1     -10.680   6.758  70.800  1.00  0.00    -0.233 C  
BRANCH   7   8
HETATM    8  N   UNL     1     -10.762   7.553  72.039  1.00  0.00    -0.219 NA 
BRANCH   8   9
HETATM    9  C   UNL     1      -9.771   7.177  73.063  1.00  0.00    -0.179 C  
HETATM   10  C   UNL     1     -10.279   6.307  74.210  1.00  0.00    -0.351 C  
ENDBRANCH   8   9
BRANCH   8  11
HETATM   11  C   UNL     1     -10.735   9.002  71.771  1.00  0.00    -0.367 C  
BRANCH  11  12
HETATM   12  C   UNL     1     -11.332   9.412  70.416  1.00  0.00    -0.295 C  
BRANCH  12  13
HETATM   13  C   UNL     1     -10.292  10.038  69.480  1.00  0.00    -0.256 C  
BRANCH  13  14
HETATM   14  C   UNL     1     -10.940  10.813  68.325  1.00  0.00    -0.255 C  
HETATM   15  H   UNL     1     -12.750  11.388  67.804  1.00  0.00     0.000 HD 
HETATM   16  O   UNL     1     -12.348  10.908  68.519  1.00  0.00    -0.490 OA 
BRANCH  14  17
HETATM   17  C   UNL     1     -10.342  12.199  68.175  1.00  0.00    -0.214 A  
HETATM   18  C   UNL     1      -9.009  12.340  67.760  1.00  0.00    -0.177 A  
HETATM   19  C   UNL     1      -8.413  13.601  67.687  1.00  0.00    -0.183 A  
HETATM   20  C   UNL     1      -9.143  14.736  68.033  1.00  0.00    -0.179 A  
HETATM   21  C   UNL     1     -11.077  13.361  68.473  1.00  0.00    -0.299 A  
HETATM   22  C   UNL     1     -10.482  14.623  68.399  1.00  0.00    -0.243 A  
BRANCH  20  23
HETATM   23  N   UNL     1      -8.507  16.009  67.999  1.00  0.00    -0.162 N  
HETATM   24  H   UNL     1      -8.961  16.813  67.566  1.00  0.00     0.000 HD 
BRANCH  23  25
HETATM   25  S   UNL     1      -6.976  16.145  68.698  1.00  0.00    -0.150 S  
HETATM   26  C   UNL     1      -6.855  17.906  68.933  1.00  0.00    -0.250 C  
HETATM   27  O   UNL     1      -6.043  15.779  67.655  1.00  0.00    -0.140 OA 
HETATM   28  O   UNL     1      -6.955  15.487  69.986  1.00  0.00    -0.119 OA 
ENDBRANCH  23  25
ENDBRANCH  20  23
ENDBRANCH  14  17
ENDBRANCH  13  14
ENDBRANCH  12  13
ENDBRANCH  11  12
ENDBRANCH   8  11
ENDBRANCH   7   8
ENDBRANCH   6   7
ENDBRANCH   5   6
ENDBRANCH   4   5
ENDBRANCH   3   4
ENDBRANCH   2   3
TORSDOF 14
ENDMDL
MODEL      254
REMARK 921   NORMALIZED FREE ENERGY PREDICTED BY IDOCK:   -3.09 KCAL/MOL
REMARK 922        TOTAL FREE ENERGY PREDICTED BY IDOCK:   -7.47 KCAL/MOL
REMARK 923 INTER-LIGAND FREE ENERGY PREDICTED BY IDOCK:   -6.43 KCAL/MOL
REMARK 924 INTRA-LIGAND FREE ENERGY PREDICTED BY IDOCK:   -1.04 KCAL/MOL
REMARK 927      BINDING AFFINITY PREDICTED BY RF-SCORE:    0.00 PKD
ROOT
HETATM    1  C   UNL     1      -7.430   6.160  66.901  1.00  0.00    -0.087 C  
HETATM    2  C   UNL     1      -7.340   7.290  67.910  1.00  0.00    -0.097 C  
ENDROOT
BRANCH   2   3
HETATM    3  C   UNL     1      -7.764   8.622  67.295  1.00  0.00    -0.097 C  
BRANCH   3   4
HETATM    4  C   UNL     1      -6.541   9.391  66.809  1.00  0.00    -0.068 C  
BRANCH   4   5
HETATM    5  C   UNL     1      -6.823  10.884  66.666  1.00  0.00    -0.127 C  
BRANCH   5   6
HETATM    6  C   UNL     1      -7.386  11.420  67.980  1.00  0.00    -0.090 C  
BRANCH   6   7
HETATM    7  C   UNL     1      -7.324  12.948  68.041  1.00  0.00    -0.120 C  
BRANCH   7   8
HETATM    8  N   UNL     1      -8.627  13.573  68.333  1.00  0.00    -0.166 NA 
BRANCH   8   9
HETATM    9  C   UNL     1      -8.980  14.681  67.428  1.00  0.00    -0.195 C  
HETATM   10  C   UNL     1      -8.827  16.092  67.991  1.00  0.00    -0.175 C  
ENDBRANCH   8   9
BRANCH   8  11
HETATM   11  C   UNL     1      -9.713  12.580  68.416  1.00  0.00    -0.189 C  
BRANCH  11  12
HETATM   12  C   UNL     1     -11.113  13.180  68.618  1.00  0.00    -0.304 C  
BRANCH  12  13
HETATM   13  C   UNL     1     -11.821  12.616  69.855  1.00  0.00    -0.364 C  
BRANCH  13  14
HETATM   14  C   UNL     1     -12.513  11.276  69.568  1.00  0.00    -0.061 C  
HETATM   15  H   UNL     1     -12.700  10.040  68.046  1.00  0.00     0.000 HD 
HETATM   16  O   UNL     1     -12.271  10.870  68.224  1.00  0.00    -0.526 OA 
BRANCH  14  17
HETATM   17  C   UNL     1     -12.056  10.193  70.528  1.00  0.00    -0.380 A  
HETATM   18  C   UNL     1     -12.987   9.583  71.382  1.00  0.00    -0.450 A  
HETATM   19  C   UNL     1     -12.578   8.638  72.326  1.00  0.00    -0.457 A  
HETATM   20  C   UNL     1     -11.232   8.295  72.428  1.00  0.00    -0.381 A  
HETATM   21  C   UNL     1     -10.709   9.797  70.612  1.00  0.00    -0.394 A  
HETATM   22  C   UNL     1     -10.299   8.851  71.556  1.00  0.00    -0.394 A  
BRANCH  20  23
HETATM   23  N   UNL     1     -10.825   7.366  73.427  1.00  0.00    -0.496 N  
HETATM   24  H   UNL     1     -10.635   7.669  74.382  1.00  0.00     0.000 HD 
BRANCH  23  25
HETATM   25  S   UNL     1     -10.668   5.746  72.980  1.00  0.00    -0.275 S  
HETATM   26  C   UNL     1     -10.286   4.987  74.544  1.00  0.00    -0.278 C  
HETATM   27  O   UNL     1      -9.476   5.686  72.163  1.00  0.00    -0.149 OA 
HETATM   28  O   UNL     1     -11.932   5.236  72.496  1.00  0.00    -0.110 OA 
ENDBRANCH  23  25
ENDBRANCH  20  23
ENDBRANCH  14  17
ENDBRANCH  13  14
ENDBRANCH  12  13
ENDBRANCH  11  12
ENDBRANCH   8  11
ENDBRANCH   7   8
ENDBRANCH   6   7
ENDBRANCH   5   6
ENDBRANCH   4   5
ENDBRANCH   3   4
ENDBRANCH   2   3
TORSDOF 14
ENDMDL
MODEL      255
REMARK 921   NORMALIZED FREE ENERGY PREDICTED BY IDOCK:   -3.08 KCAL/MOL
REMARK 922        TOTAL FREE ENERGY PREDICTED BY IDOCK:   -7.45 KCAL/MOL
REMARK 923 INTER-LIGAND FREE ENERGY PREDICTED BY IDOCK:   -6.18 KCAL/MOL
REMARK 924 INTRA-LIGAND FREE ENERGY PREDICTED BY IDOCK:   -1.28 KCAL/MOL
REMARK 927      BINDING AFFINITY PREDICTED BY RF-SCORE:    0.00 PKD
ROOT
HETATM    1  C   UNL     1      -9.561  10.927  62.559  1.00  0.00    -0.235 C  
HETATM    2  C   UNL     1      -9.823  11.337  63.997  1.00  0.00    -0.334 C  
ENDROOT
BRANCH   2   3
HETATM    3  C   UNL     1     -10.900  12.417  64.080  1.00  0.00    -0.414 C  
BRANCH   3   4
HETATM    4  C   UNL     1     -11.881  12.097  65.202  1.00  0.00    -0.356 C  
BRANCH   4   5
HETATM    5  C   UNL     1     -11.931  13.204  66.251  1.00  0.00    -0.473 C  
BRANCH   5   6
HETATM    6  C   UNL     1     -10.851  14.239  65.947  1.00  0.00    -0.300 C  
BRANCH   6   7
HETATM    7  C   UNL     1     -10.241  14.815  67.226  1.00  0.00    -0.241 C  
BRANCH   7   8
HETATM    8  N   UNL     1     -11.198  15.599  68.027  1.00  0.00    -0.341 NA 
BRANCH   8   9
HETATM    9  C   UNL     1     -11.320  15.153  69.427  1.00  0.00    -0.294 C  
HETATM   10  C   UNL     1     -12.004  13.807  69.652  1.00  0.00    -0.399 C  
ENDBRANCH   8   9
BRANCH   8  11
HETATM   11  C   UNL     1     -10.935  17.047  67.946  1.00  0.00    -0.226 C  
BRANCH  11  12
HETATM   12  C   UNL     1      -9.719  17.427  67.086  1.00  0.00    -0.267 C  
BRANCH  12  13
HETATM   13  C   UNL     1      -9.087  18.755  67.518  1.00  0.00    -0.296 C  
BRANCH  13  14
HETATM   14  C   UNL     1      -7.625  18.589  67.955  1.00  0.00    -0.256 C  
HETATM   15  H   UNL     1      -6.472  19.226  69.419  1.00  0.00     0.000 HD 
HETATM   16  O   UNL     1      -7.377  19.329  69.147  1.00  0.00    -0.346 OA 
BRANCH  14  17
HETATM   17  C   UNL     1      -7.266  17.130  68.166  1.00  0.00    -0.193 A  
HETATM   18  C   UNL     1      -7.704  16.465  69.321  1.00  0.00    -0.171 A  
HETATM   19  C   UNL     1      -7.324  15.145  69.574  1.00  0.00    -0.210 A  
HETATM   20  C   UNL     1      -6.497  14.476  68.675  1.00  0.00    -0.086 A  
HETATM   21  C   UNL     1      -6.473  16.421  67.245  1.00  0.00    -0.222 A  
HETATM   22  C   UNL     1      -6.093  15.100  67.497  1.00  0.00    -0.048 A  
BRANCH  20  23
HETATM   23  N   UNL     1      -6.080  13.148  68.971  1.00  0.00    -0.083 N  
HETATM   24  H   UNL     1      -5.401  12.961  69.709  1.00  0.00     0.000 HD 
BRANCH  23  25
HETATM   25  S   UNL     1      -6.746  11.891  68.061  1.00  0.00    -0.078 S  
HETATM   26  C   UNL     1      -6.907  10.615  69.293  1.00  0.00    -0.086 C  
HETATM   27  O   UNL     1      -5.703  11.484  67.146  1.00  0.00    -0.078 OA 
HETATM   28  O   UNL     1      -8.059  12.262  67.582  1.00  0.00    -0.143 OA 
ENDBRANCH  23  25
ENDBRANCH  20  23
ENDBRANCH  14  17
ENDBRANCH  13  14
ENDBRANCH  12  13
ENDBRANCH  11  12
ENDBRANCH   8  11
ENDBRANCH   7   8
ENDBRANCH   6   7
ENDBRANCH   5   6
ENDBRANCH   4   5
ENDBRANCH   3   4
ENDBRANCH   2   3
TORSDOF 14
ENDMDL
MODEL      256
REMARK 921   NORMALIZED FREE ENERGY PREDICTED BY IDOCK:   -3.06 KCAL/MOL
REMARK 922        TOTAL FREE ENERGY PREDICTED BY IDOCK:   -7.42 KCAL/MOL
REMARK 923 INTER-LIGAND FREE ENERGY PREDICTED BY IDOCK:   -5.64 KCAL/MOL
REMARK 924 INTRA-LIGAND FREE ENERGY PREDICTED BY IDOCK:   -1.78 KCAL/MOL
REMARK 927      BINDING AFFINITY PREDICTED BY RF-SCORE:    0.00 PKD
ROOT
HETATM    1  C   UNL     1     -10.455  16.272  65.572  1.00  0.00    -0.383 C  
HETATM    2  C   UNL     1     -10.657  14.883  64.995  1.00  0.00    -0.446 C  
ENDROOT
BRANCH   2   3
HETATM    3  C   UNL     1     -10.851  13.844  66.097  1.00  0.00    -0.290 C  
BRANCH   3   4
HETATM    4  C   UNL     1      -9.987  12.619  65.825  1.00  0.00    -0.266 C  
BRANCH   4   5
HETATM    5  C   UNL     1     -10.808  11.445  65.299  1.00  0.00    -0.297 C  
BRANCH   5   6
HETATM    6  C   UNL     1      -9.994  10.160  65.431  1.00  0.00    -0.377 C  
BRANCH   6   7
HETATM    7  C   UNL     1      -9.068   9.950  64.231  1.00  0.00    -0.253 C  
BRANCH   7   8
HETATM    8  N   UNL     1      -7.638  10.047  64.574  1.00  0.00    -0.140 NA 
BRANCH   8   9
HETATM    9  C   UNL     1      -7.361  10.007  66.022  1.00  0.00    -0.112 C  
HETATM   10  C   UNL     1      -6.361  11.033  66.549  1.00  0.00    -0.132 C  
ENDBRANCH   8   9
BRANCH   8  11
HETATM   11  C   UNL     1      -6.824   9.057  63.845  1.00  0.00    -0.088 C  
BRANCH  11  12
HETATM   12  C   UNL     1      -7.560   7.751  63.507  1.00  0.00    -0.126 C  
BRANCH  12  13
HETATM   13  C   UNL     1      -7.288   6.642  64.529  1.00  0.00    -0.086 C  
BRANCH  13  14
HETATM   14  C   UNL     1      -8.577   5.947  64.991  1.00  0.00    -0.062 C  
HETATM   15  H   UNL     1      -9.204   4.102  65.276  1.00  0.00     0.000 HD 
HETATM   16  O   UNL     1      -8.406   4.533  64.990  1.00  0.00    -0.116 OA 
BRANCH  14  17
HETATM   17  C   UNL     1      -9.004   6.417  66.368  1.00  0.00    -0.162 A  
HETATM   18  C   UNL     1     -10.368   6.561  66.662  1.00  0.00    -0.217 A  
HETATM   19  C   UNL     1     -10.784   7.064  67.898  1.00  0.00    -0.274 A  
HETATM   20  C   UNL     1      -9.839   7.432  68.852  1.00  0.00    -0.157 A  
HETATM   21  C   UNL     1      -8.066   6.748  67.363  1.00  0.00    -0.118 A  
HETATM   22  C   UNL     1      -8.481   7.250  68.600  1.00  0.00    -0.129 A  
BRANCH  20  23
HETATM   23  N   UNL     1     -10.278   7.987  70.087  1.00  0.00    -0.199 N  
HETATM   24  H   UNL     1     -10.134   8.974  70.302  1.00  0.00     0.000 HD 
BRANCH  23  25
HETATM   25  S   UNL     1     -11.043   6.959  71.186  1.00  0.00    -0.272 S  
HETATM   26  C   UNL     1     -10.924   7.905  72.690  1.00  0.00    -0.378 C  
HETATM   27  O   UNL     1     -10.166   5.816  71.319  1.00  0.00    -0.200 OA 
HETATM   28  O   UNL     1     -12.436   6.796  70.831  1.00  0.00    -0.364 OA 
ENDBRANCH  23  25
ENDBRANCH  20  23
ENDBRANCH  14  17
ENDBRANCH  13  14
ENDBRANCH  12  13
ENDBRANCH  11  12
ENDBRANCH   8  11
ENDBRANCH   7   8
ENDBRANCH   6   7
ENDBRANCH   5   6
ENDBRANCH   4   5
ENDBRANCH   3   4
ENDBRANCH   2   3
TORSDOF 14
ENDMDL
MODEL      257
REMARK 921   NORMALIZED FREE ENERGY PREDICTED BY IDOCK:   -3.06 KCAL/MOL
REMARK 922        TOTAL FREE ENERGY PREDICTED BY IDOCK:   -7.42 KCAL/MOL
REMARK 923 INTER-LIGAND FREE ENERGY PREDICTED BY IDOCK:   -5.85 KCAL/MOL
REMARK 924 INTRA-LIGAND FREE ENERGY PREDICTED BY IDOCK:   -1.57 KCAL/MOL
REMARK 927      BINDING AFFINITY PREDICTED BY RF-SCORE:    0.00 PKD
ROOT
HETATM    1  C   UNL     1      -6.977   6.245  66.869  1.00  0.00    -0.071 C  
HETATM    2  C   UNL     1      -6.955   7.760  66.933  1.00  0.00    -0.073 C  
ENDROOT
BRANCH   2   3
HETATM    3  C   UNL     1      -8.164   8.365  66.221  1.00  0.00    -0.111 C  
BRANCH   3   4
HETATM    4  C   UNL     1      -7.783   8.799  64.811  1.00  0.00    -0.113 C  
BRANCH   4   5
HETATM    5  C   UNL     1      -8.883   9.623  64.149  1.00  0.00    -0.257 C  
BRANCH   5   6
HETATM    6  C   UNL     1      -9.459  10.607  65.164  1.00  0.00    -0.276 C  
BRANCH   6   7
HETATM    7  C   UNL     1     -10.276  11.708  64.486  1.00  0.00    -0.291 C  
BRANCH   7   8
HETATM    8  N   UNL     1     -11.115  12.474  65.426  1.00  0.00    -0.293 NA 
BRANCH   8   9
HETATM    9  C   UNL     1     -12.384  12.953  64.849  1.00  0.00    -0.475 C  
HETATM   10  C   UNL     1     -12.446  14.434  64.483  1.00  0.00    -0.362 C  
ENDBRANCH   8   9
BRANCH   8  11
HETATM   11  C   UNL     1     -11.340  11.747  66.688  1.00  0.00    -0.316 C  
BRANCH  11  12
HETATM   12  C   UNL     1     -12.036  12.570  67.784  1.00  0.00    -0.286 C  
BRANCH  12  13
HETATM   13  C   UNL     1     -11.328  12.460  69.139  1.00  0.00    -0.327 C  
BRANCH  13  14
HETATM   14  C   UNL     1     -11.932  11.360  70.023  1.00  0.00    -0.363 C  
HETATM   15  H   UNL     1     -13.439  10.095  69.933  1.00  0.00     0.000 HD 
HETATM   16  O   UNL     1     -13.065  10.777  69.386  1.00  0.00     0.049 OA 
BRANCH  14  17
HETATM   17  C   UNL     1     -10.913  10.286  70.354  1.00  0.00    -0.365 A  
HETATM   18  C   UNL     1     -11.132   9.430  71.444  1.00  0.00    -0.450 A  
HETATM   19  C   UNL     1     -10.175   8.484  71.814  1.00  0.00    -0.352 A  
HETATM   20  C   UNL     1      -8.984   8.384  71.099  1.00  0.00    -0.167 A  
HETATM   21  C   UNL     1      -9.725  10.136  69.614  1.00  0.00    -0.250 A  
HETATM   22  C   UNL     1      -8.767   9.188  69.983  1.00  0.00    -0.186 A  
BRANCH  20  23
HETATM   23  N   UNL     1      -7.998   7.447  71.518  1.00  0.00    -0.094 N  
HETATM   24  H   UNL     1      -7.142   7.754  71.982  1.00  0.00     0.000 HD 
BRANCH  23  25
HETATM   25  S   UNL     1      -8.289   5.810  71.223  1.00  0.00    -0.128 S  
HETATM   26  C   UNL     1      -6.633   5.158  71.209  1.00  0.00    -0.039 C  
HETATM   27  O   UNL     1      -8.795   5.747  69.870  1.00  0.00    -0.125 OA 
HETATM   28  O   UNL     1      -9.024   5.227  72.324  1.00  0.00    -0.128 OA 
ENDBRANCH  23  25
ENDBRANCH  20  23
ENDBRANCH  14  17
ENDBRANCH  13  14
ENDBRANCH  12  13
ENDBRANCH  11  12
ENDBRANCH   8  11
ENDBRANCH   7   8
ENDBRANCH   6   7
ENDBRANCH   5   6
ENDBRANCH   4   5
ENDBRANCH   3   4
ENDBRANCH   2   3
TORSDOF 14
ENDMDL
MODEL      258
REMARK 921   NORMALIZED FREE ENERGY PREDICTED BY IDOCK:   -3.05 KCAL/MOL
REMARK 922        TOTAL FREE ENERGY PREDICTED BY IDOCK:   -7.40 KCAL/MOL
REMARK 923 INTER-LIGAND FREE ENERGY PREDICTED BY IDOCK:   -5.81 KCAL/MOL
REMARK 924 INTRA-LIGAND FREE ENERGY PREDICTED BY IDOCK:   -1.59 KCAL/MOL
REMARK 927      BINDING AFFINITY PREDICTED BY RF-SCORE:    0.00 PKD
ROOT
HETATM    1  C   UNL     1      -6.497   7.094  66.272  1.00  0.00    -0.051 C  
HETATM    2  C   UNL     1      -6.393   8.492  65.692  1.00  0.00    -0.056 C  
ENDROOT
BRANCH   2   3
HETATM    3  C   UNL     1      -7.761   9.021  65.264  1.00  0.00    -0.100 C  
BRANCH   3   4
HETATM    4  C   UNL     1      -7.880   9.005  63.745  1.00  0.00    -0.137 C  
BRANCH   4   5
HETATM    5  C   UNL     1      -9.019   9.894  63.251  1.00  0.00    -0.276 C  
BRANCH   5   6
HETATM    6  C   UNL     1      -9.565  10.711  64.419  1.00  0.00    -0.349 C  
BRANCH   6   7
HETATM    7  C   UNL     1     -10.442  11.869  63.939  1.00  0.00    -0.397 C  
BRANCH   7   8
HETATM    8  N   UNL     1     -11.111  12.589  65.039  1.00  0.00    -0.290 NA 
BRANCH   8   9
HETATM    9  C   UNL     1     -12.340  13.296  64.637  1.00  0.00    -0.391 C  
HETATM   10  C   UNL     1     -12.195  14.782  64.323  1.00  0.00    -0.402 C  
ENDBRANCH   8   9
BRANCH   8  11
HETATM   11  C   UNL     1     -11.347  11.721  66.206  1.00  0.00    -0.287 C  
BRANCH  11  12
HETATM   12  C   UNL     1     -11.020  12.370  67.560  1.00  0.00    -0.293 C  
BRANCH  12  13
HETATM   13  C   UNL     1     -10.101  11.498  68.423  1.00  0.00    -0.207 C  
BRANCH  13  14
HETATM   14  C   UNL     1     -10.839  10.881  69.619  1.00  0.00    -0.216 C  
HETATM   15  H   UNL     1     -12.686  10.809  70.300  1.00  0.00     0.000 HD 
HETATM   16  O   UNL     1     -12.229  11.190  69.559  1.00  0.00    -0.323 OA 
BRANCH  14  17
HETATM   17  C   UNL     1     -10.645   9.378  69.682  1.00  0.00    -0.239 A  
HETATM   18  C   UNL     1      -9.947   8.723  68.657  1.00  0.00    -0.197 A  
HETATM   19  C   UNL     1      -9.820   7.332  68.654  1.00  0.00    -0.161 A  
HETATM   20  C   UNL     1     -10.394   6.579  69.675  1.00  0.00    -0.196 A  
HETATM   21  C   UNL     1     -11.175   8.604  70.731  1.00  0.00    -0.298 A  
HETATM   22  C   UNL     1     -11.047   7.213  70.729  1.00  0.00    -0.296 A  
BRANCH  20  23
HETATM   23  N   UNL     1     -10.296   5.160  69.632  1.00  0.00    -0.272 N  
HETATM   24  H   UNL     1     -11.129   4.577  69.544  1.00  0.00     0.000 HD 
BRANCH  23  25
HETATM   25  S   UNL     1      -8.758   4.472  69.731  1.00  0.00    -0.079 S  
HETATM   26  C   UNL     1      -9.145   2.836  70.320  1.00  0.00    -0.113 C  
HETATM   27  O   UNL     1      -8.091   5.175  70.804  1.00  0.00    -0.099 OA 
HETATM   28  O   UNL     1      -8.166   4.379  68.415  1.00  0.00    -0.085 OA 
ENDBRANCH  23  25
ENDBRANCH  20  23
ENDBRANCH  14  17
ENDBRANCH  13  14
ENDBRANCH  12  13
ENDBRANCH  11  12
ENDBRANCH   8  11
ENDBRANCH   7   8
ENDBRANCH   6   7
ENDBRANCH   5   6
ENDBRANCH   4   5
ENDBRANCH   3   4
ENDBRANCH   2   3
TORSDOF 14
ENDMDL
MODEL      259
REMARK 921   NORMALIZED FREE ENERGY PREDICTED BY IDOCK:   -3.04 KCAL/MOL
REMARK 922        TOTAL FREE ENERGY PREDICTED BY IDOCK:   -7.37 KCAL/MOL
REMARK 923 INTER-LIGAND FREE ENERGY PREDICTED BY IDOCK:   -5.76 KCAL/MOL
REMARK 924 INTRA-LIGAND FREE ENERGY PREDICTED BY IDOCK:   -1.61 KCAL/MOL
REMARK 927      BINDING AFFINITY PREDICTED BY RF-SCORE:    0.00 PKD
ROOT
HETATM    1  C   UNL     1      -7.417  11.485  67.184  1.00  0.00    -0.142 C  
HETATM    2  C   UNL     1      -7.478  11.343  68.694  1.00  0.00    -0.119 C  
ENDROOT
BRANCH   2   3
HETATM    3  C   UNL     1      -7.195   9.907  69.131  1.00  0.00    -0.072 C  
BRANCH   3   4
HETATM    4  C   UNL     1      -7.290   9.789  70.647  1.00  0.00    -0.070 C  
BRANCH   4   5
HETATM    5  C   UNL     1      -6.136   8.979  71.231  1.00  0.00    -0.062 C  
BRANCH   5   6
HETATM    6  C   UNL     1      -6.644   8.156  72.413  1.00  0.00    -0.083 C  
BRANCH   6   7
HETATM    7  C   UNL     1      -6.973   6.719  72.003  1.00  0.00    -0.074 C  
BRANCH   7   8
HETATM    8  N   UNL     1      -8.292   6.585  71.357  1.00  0.00    -0.124 NA 
BRANCH   8   9
HETATM    9  C   UNL     1      -8.296   5.706  70.174  1.00  0.00    -0.118 C  
HETATM   10  C   UNL     1      -8.063   6.383  68.826  1.00  0.00    -0.114 C  
ENDBRANCH   8   9
BRANCH   8  11
HETATM   11  C   UNL     1      -9.343   6.200  72.316  1.00  0.00    -0.146 C  
BRANCH  11  12
HETATM   12  C   UNL     1      -9.819   7.338  73.231  1.00  0.00    -0.302 C  
BRANCH  12  13
HETATM   13  C   UNL     1     -10.830   8.262  72.543  1.00  0.00    -0.421 C  
BRANCH  13  14
HETATM   14  C   UNL     1     -10.926   7.998  71.034  1.00  0.00    -0.241 C  
HETATM   15  H   UNL     1     -12.019   6.893  69.825  1.00  0.00     0.000 HD 
HETATM   16  O   UNL     1     -11.959   7.056  70.759  1.00  0.00    -0.349 OA 
BRANCH  14  17
HETATM   17  C   UNL     1     -11.170   9.277  70.256  1.00  0.00    -0.267 A  
HETATM   18  C   UNL     1     -11.711  10.396  70.908  1.00  0.00    -0.455 A  
HETATM   19  C   UNL     1     -12.014  11.559  70.198  1.00  0.00    -0.452 A  
HETATM   20  C   UNL     1     -11.784  11.617  68.826  1.00  0.00    -0.330 A  
HETATM   21  C   UNL     1     -10.898   9.372  68.879  1.00  0.00    -0.151 A  
HETATM   22  C   UNL     1     -11.200  10.537  68.168  1.00  0.00    -0.357 A  
BRANCH  20  23
HETATM   23  N   UNL     1     -12.143  12.793  68.109  1.00  0.00    -0.218 N  
HETATM   24  H   UNL     1     -13.101  12.945  67.793  1.00  0.00     0.000 HD 
BRANCH  23  25
HETATM   25  S   UNL     1     -10.933  13.927  67.798  1.00  0.00    -0.262 S  
HETATM   26  C   UNL     1     -10.261  13.310  66.269  1.00  0.00    -0.296 C  
HETATM   27  O   UNL     1      -9.937  13.719  68.826  1.00  0.00    -0.203 OA 
HETATM   28  O   UNL     1     -11.515  15.232  67.573  1.00  0.00    -0.333 OA 
ENDBRANCH  23  25
ENDBRANCH  20  23
ENDBRANCH  14  17
ENDBRANCH  13  14
ENDBRANCH  12  13
ENDBRANCH  11  12
ENDBRANCH   8  11
ENDBRANCH   7   8
ENDBRANCH   6   7
ENDBRANCH   5   6
ENDBRANCH   4   5
ENDBRANCH   3   4
ENDBRANCH   2   3
TORSDOF 14
ENDMDL
MODEL      260
REMARK 921   NORMALIZED FREE ENERGY PREDICTED BY IDOCK:   -3.02 KCAL/MOL
REMARK 922        TOTAL FREE ENERGY PREDICTED BY IDOCK:   -7.35 KCAL/MOL
REMARK 923 INTER-LIGAND FREE ENERGY PREDICTED BY IDOCK:   -6.07 KCAL/MOL
REMARK 924 INTRA-LIGAND FREE ENERGY PREDICTED BY IDOCK:   -1.28 KCAL/MOL
REMARK 927      BINDING AFFINITY PREDICTED BY RF-SCORE:    0.00 PKD
ROOT
HETATM    1  C   UNL     1     -10.655  15.316  65.087  1.00  0.00    -0.453 C  
HETATM    2  C   UNL     1      -9.696  14.635  66.046  1.00  0.00    -0.340 C  
ENDROOT
BRANCH   2   3
HETATM    3  C   UNL     1      -9.062  15.639  67.007  1.00  0.00    -0.239 C  
BRANCH   3   4
HETATM    4  C   UNL     1      -9.873  16.928  67.032  1.00  0.00    -0.270 C  
BRANCH   4   5
HETATM    5  C   UNL     1     -10.246  17.342  68.453  1.00  0.00    -0.358 C  
BRANCH   5   6
HETATM    6  C   UNL     1     -11.286  16.370  69.006  1.00  0.00    -0.291 C  
BRANCH   6   7
HETATM    7  C   UNL     1     -10.733  15.555  70.177  1.00  0.00    -0.329 C  
BRANCH   7   8
HETATM    8  N   UNL     1     -11.596  14.421  70.557  1.00  0.00    -0.248 NA 
BRANCH   8   9
HETATM    9  C   UNL     1     -12.330  14.619  71.820  1.00  0.00    -0.346 C  
HETATM   10  C   UNL     1     -13.460  13.634  72.109  1.00  0.00    -0.606 C  
ENDBRANCH   8   9
BRANCH   8  11
HETATM   11  C   UNL     1     -12.503  14.025  69.465  1.00  0.00    -0.115 C  
BRANCH  11  12
HETATM   12  C   UNL     1     -11.851  13.158  68.377  1.00  0.00    -0.386 C  
BRANCH  12  13
HETATM   13  C   UNL     1     -11.900  11.662  68.708  1.00  0.00    -0.387 C  
BRANCH  13  14
HETATM   14  C   UNL     1     -10.675  11.204  69.512  1.00  0.00    -0.143 C  
HETATM   15  H   UNL     1     -10.297   9.952  70.985  1.00  0.00     0.000 HD 
HETATM   16  O   UNL     1     -11.055  10.237  70.487  1.00  0.00    -0.302 OA 
BRANCH  14  17
HETATM   17  C   UNL     1      -9.595  10.635  68.611  1.00  0.00    -0.179 A  
HETATM   18  C   UNL     1      -9.394   9.248  68.556  1.00  0.00    -0.143 A  
HETATM   19  C   UNL     1      -8.358   8.706  67.792  1.00  0.00    -0.118 A  
HETATM   20  C   UNL     1      -7.508   9.546  67.078  1.00  0.00    -0.091 A  
HETATM   21  C   UNL     1      -8.757  11.465  67.843  1.00  0.00    -0.145 A  
HETATM   22  C   UNL     1      -7.721  10.923  67.078  1.00  0.00    -0.129 A  
BRANCH  20  23
HETATM   23  N   UNL     1      -6.428   8.981  66.343  1.00  0.00    -0.065 N  
HETATM   24  H   UNL     1      -5.632   8.556  66.819  1.00  0.00     0.000 HD 
BRANCH  23  25
HETATM   25  S   UNL     1      -6.506   9.036  64.657  1.00  0.00    -0.071 S  
HETATM   26  C   UNL     1      -8.124   8.354  64.361  1.00  0.00    -0.158 C  
HETATM   27  O   UNL     1      -5.534   8.070  64.195  1.00  0.00    -0.043 OA 
HETATM   28  O   UNL     1      -6.473  10.408  64.200  1.00  0.00    -0.110 OA 
ENDBRANCH  23  25
ENDBRANCH  20  23
ENDBRANCH  14  17
ENDBRANCH  13  14
ENDBRANCH  12  13
ENDBRANCH  11  12
ENDBRANCH   8  11
ENDBRANCH   7   8
ENDBRANCH   6   7
ENDBRANCH   5   6
ENDBRANCH   4   5
ENDBRANCH   3   4
ENDBRANCH   2   3
TORSDOF 14
ENDMDL
MODEL      261
REMARK 921   NORMALIZED FREE ENERGY PREDICTED BY IDOCK:   -2.98 KCAL/MOL
REMARK 922        TOTAL FREE ENERGY PREDICTED BY IDOCK:   -7.27 KCAL/MOL
REMARK 923 INTER-LIGAND FREE ENERGY PREDICTED BY IDOCK:   -6.73 KCAL/MOL
REMARK 924 INTRA-LIGAND FREE ENERGY PREDICTED BY IDOCK:   -0.55 KCAL/MOL
REMARK 927      BINDING AFFINITY PREDICTED BY RF-SCORE:    0.00 PKD
ROOT
HETATM    1  C   UNL     1      -9.715   2.534  63.694  1.00  0.00    -0.125 C  
HETATM    2  C   UNL     1      -9.262   3.110  65.022  1.00  0.00    -0.149 C  
ENDROOT
BRANCH   2   3
HETATM    3  C   UNL     1     -10.155   4.270  65.460  1.00  0.00    -0.235 C  
BRANCH   3   4
HETATM    4  C   UNL     1      -9.803   4.699  66.879  1.00  0.00    -0.235 C  
BRANCH   4   5
HETATM    5  C   UNL     1     -10.836   5.660  67.460  1.00  0.00    -0.189 C  
BRANCH   5   6
HETATM    6  C   UNL     1     -10.668   5.728  68.975  1.00  0.00    -0.354 C  
BRANCH   6   7
HETATM    7  C   UNL     1     -10.037   7.051  69.417  1.00  0.00    -0.169 C  
BRANCH   7   8
HETATM    8  N   UNL     1     -10.905   8.219  69.178  1.00  0.00    -0.092 NA 
BRANCH   8   9
HETATM    9  C   UNL     1     -11.374   8.883  70.407  1.00  0.00    -0.202 C  
HETATM   10  C   UNL     1     -11.187  10.397  70.473  1.00  0.00    -0.395 C  
ENDBRANCH   8   9
BRANCH   8  11
HETATM   11  C   UNL     1     -10.292   9.183  68.246  1.00  0.00    -0.214 C  
BRANCH  11  12
HETATM   12  C   UNL     1      -9.797   8.570  66.927  1.00  0.00    -0.310 C  
BRANCH  12  13
HETATM   13  C   UNL     1      -9.945   9.530  65.741  1.00  0.00    -0.316 C  
BRANCH  13  14
HETATM   14  C   UNL     1      -8.816  10.569  65.690  1.00  0.00    -0.182 C  
HETATM   15  H   UNL     1      -7.317  11.019  64.496  1.00  0.00     0.000 HD 
HETATM   16  O   UNL     1      -8.015  10.376  64.528  1.00  0.00    -0.156 OA 
BRANCH  14  17
HETATM   17  C   UNL     1      -9.358  11.986  65.717  1.00  0.00    -0.133 A  
HETATM   18  C   UNL     1      -9.104  12.807  66.825  1.00  0.00    -0.209 A  
HETATM   19  C   UNL     1      -9.655  14.088  66.906  1.00  0.00    -0.275 A  
HETATM   20  C   UNL     1     -10.470  14.561  65.881  1.00  0.00    -0.312 A  
HETATM   21  C   UNL     1     -10.144  12.500  64.668  1.00  0.00    -0.258 A  
HETATM   22  C   UNL     1     -10.694  13.782  64.749  1.00  0.00    -0.429 A  
BRANCH  20  23
HETATM   23  N   UNL     1     -11.062  15.850  66.002  1.00  0.00    -0.123 N  
HETATM   24  H   UNL     1     -12.075  15.966  66.006  1.00  0.00     0.000 HD 
BRANCH  23  25
HETATM   25  S   UNL     1     -10.032  17.181  66.138  1.00  0.00    -0.251 S  
HETATM   26  C   UNL     1     -10.049  17.457  67.897  1.00  0.00    -0.326 C  
HETATM   27  O   UNL     1     -10.740  18.280  65.518  1.00  0.00    -0.596 OA 
HETATM   28  O   UNL     1      -8.694  16.823  65.722  1.00  0.00    -0.496 OA 
ENDBRANCH  23  25
ENDBRANCH  20  23
ENDBRANCH  14  17
ENDBRANCH  13  14
ENDBRANCH  12  13
ENDBRANCH  11  12
ENDBRANCH   8  11
ENDBRANCH   7   8
ENDBRANCH   6   7
ENDBRANCH   5   6
ENDBRANCH   4   5
ENDBRANCH   3   4
ENDBRANCH   2   3
TORSDOF 14
ENDMDL
MODEL      262
REMARK 921   NORMALIZED FREE ENERGY PREDICTED BY IDOCK:   -2.96 KCAL/MOL
REMARK 922        TOTAL FREE ENERGY PREDICTED BY IDOCK:   -7.24 KCAL/MOL
REMARK 923 INTER-LIGAND FREE ENERGY PREDICTED BY IDOCK:   -6.08 KCAL/MOL
REMARK 924 INTRA-LIGAND FREE ENERGY PREDICTED BY IDOCK:   -1.15 KCAL/MOL
REMARK 927      BINDING AFFINITY PREDICTED BY RF-SCORE:    0.00 PKD
ROOT
HETATM    1  C   UNL     1     -10.803  19.453  67.314  1.00  0.00    -0.561 C  
HETATM    2  C   UNL     1      -9.866  18.638  66.441  1.00  0.00    -0.390 C  
ENDROOT
BRANCH   2   3
HETATM    3  C   UNL     1     -10.519  17.332  65.992  1.00  0.00    -0.285 C  
BRANCH   3   4
HETATM    4  C   UNL     1     -10.498  16.316  67.128  1.00  0.00    -0.297 C  
BRANCH   4   5
HETATM    5  C   UNL     1      -9.190  15.531  67.170  1.00  0.00    -0.228 C  
BRANCH   5   6
HETATM    6  C   UNL     1      -9.447  14.095  66.721  1.00  0.00    -0.290 C  
BRANCH   6   7
HETATM    7  C   UNL     1      -9.685  13.163  67.911  1.00  0.00    -0.221 C  
BRANCH   7   8
HETATM    8  N   UNL     1      -9.242  11.778  67.664  1.00  0.00    -0.176 NA 
BRANCH   8   9
HETATM    9  C   UNL     1      -9.015  10.991  68.889  1.00  0.00    -0.115 C  
HETATM   10  C   UNL     1      -7.562  10.822  69.327  1.00  0.00    -0.129 C  
ENDBRANCH   8   9
BRANCH   8  11
HETATM   11  C   UNL     1     -10.133  11.070  66.728  1.00  0.00    -0.220 C  
BRANCH  11  12
HETATM   12  C   UNL     1     -10.469   9.627  67.135  1.00  0.00    -0.317 C  
BRANCH  12  13
HETATM   13  C   UNL     1      -9.909   8.593  66.151  1.00  0.00    -0.269 C  
BRANCH  13  14
HETATM   14  C   UNL     1      -8.932   7.619  66.824  1.00  0.00    -0.144 C  
HETATM   15  H   UNL     1      -7.046   7.621  67.389  1.00  0.00     0.000 HD 
HETATM   16  O   UNL     1      -7.651   8.224  66.973  1.00  0.00    -0.090 OA 
BRANCH  14  17
HETATM   17  C   UNL     1      -9.446   7.153  68.173  1.00  0.00    -0.132 A  
HETATM   18  C   UNL     1      -8.612   7.230  69.299  1.00  0.00    -0.137 A  
HETATM   19  C   UNL     1      -9.035   6.739  70.536  1.00  0.00    -0.152 A  
HETATM   20  C   UNL     1     -10.295   6.160  70.660  1.00  0.00    -0.214 A  
HETATM   21  C   UNL     1     -10.734   6.610  68.330  1.00  0.00    -0.317 A  
HETATM   22  C   UNL     1     -11.158   6.119  69.567  1.00  0.00    -0.490 A  
BRANCH  20  23
HETATM   23  N   UNL     1     -10.693   5.621  71.916  1.00  0.00    -0.235 N  
HETATM   24  H   UNL     1     -11.403   6.081  72.486  1.00  0.00     0.000 HD 
BRANCH  23  25
HETATM   25  S   UNL     1      -9.951   4.195  72.433  1.00  0.00    -0.171 S  
HETATM   26  C   UNL     1     -11.133   3.597  73.622  1.00  0.00    -0.225 C  
HETATM   27  O   UNL     1      -8.774   4.616  73.162  1.00  0.00    -0.111 OA 
HETATM   28  O   UNL     1      -9.855   3.256  71.338  1.00  0.00    -0.171 OA 
ENDBRANCH  23  25
ENDBRANCH  20  23
ENDBRANCH  14  17
ENDBRANCH  13  14
ENDBRANCH  12  13
ENDBRANCH  11  12
ENDBRANCH   8  11
ENDBRANCH   7   8
ENDBRANCH   6   7
ENDBRANCH   5   6
ENDBRANCH   4   5
ENDBRANCH   3   4
ENDBRANCH   2   3
TORSDOF 14
ENDMDL
MODEL      263
REMARK 921   NORMALIZED FREE ENERGY PREDICTED BY IDOCK:   -2.95 KCAL/MOL
REMARK 922        TOTAL FREE ENERGY PREDICTED BY IDOCK:   -7.22 KCAL/MOL
REMARK 923 INTER-LIGAND FREE ENERGY PREDICTED BY IDOCK:   -6.00 KCAL/MOL
REMARK 924 INTRA-LIGAND FREE ENERGY PREDICTED BY IDOCK:   -1.23 KCAL/MOL
REMARK 927      BINDING AFFINITY PREDICTED BY RF-SCORE:    0.00 PKD
ROOT
HETATM    1  C   UNL     1     -12.950   7.220  71.464  1.00  0.00    -0.434 C  
HETATM    2  C   UNL     1     -11.526   6.715  71.330  1.00  0.00    -0.360 C  
ENDROOT
BRANCH   2   3
HETATM    3  C   UNL     1     -11.246   6.204  69.918  1.00  0.00    -0.484 C  
BRANCH   3   4
HETATM    4  C   UNL     1     -10.017   5.303  69.918  1.00  0.00    -0.309 C  
BRANCH   4   5
HETATM    5  C   UNL     1      -9.853   4.560  68.594  1.00  0.00    -0.168 C  
BRANCH   5   6
HETATM    6  C   UNL     1      -8.473   4.860  68.015  1.00  0.00    -0.103 C  
BRANCH   6   7
HETATM    7  C   UNL     1      -7.839   6.090  68.668  1.00  0.00    -0.100 C  
BRANCH   7   8
HETATM    8  N   UNL     1      -6.370   6.009  68.762  1.00  0.00    -0.039 NA 
BRANCH   8   9
HETATM    9  C   UNL     1      -5.809   4.715  68.331  1.00  0.00    -0.025 C  
HETATM   10  C   UNL     1      -5.170   3.857  69.420  1.00  0.00    -0.008 C  
ENDBRANCH   8   9
BRANCH   8  11
HETATM   11  C   UNL     1      -5.707   7.135  68.081  1.00  0.00    -0.022 C  
BRANCH  11  12
HETATM   12  C   UNL     1      -6.662   8.078  67.331  1.00  0.00    -0.069 C  
BRANCH  12  13
HETATM   13  C   UNL     1      -6.626   9.508  67.882  1.00  0.00    -0.062 C  
BRANCH  13  14
HETATM   14  C   UNL     1      -7.851   9.829  68.749  1.00  0.00    -0.082 C  
HETATM   15  H   UNL     1      -8.237  10.855  70.385  1.00  0.00     0.000 HD 
HETATM   16  O   UNL     1      -7.479  10.656  69.848  1.00  0.00    -0.133 OA 
BRANCH  14  17
HETATM   17  C   UNL     1      -8.948  10.499  67.944  1.00  0.00    -0.137 A  
HETATM   18  C   UNL     1      -9.107  11.891  68.009  1.00  0.00    -0.189 A  
HETATM   19  C   UNL     1     -10.156  12.522  67.336  1.00  0.00    -0.211 A  
HETATM   20  C   UNL     1     -11.060  11.767  66.594  1.00  0.00    -0.310 A  
HETATM   21  C   UNL     1      -9.843   9.758  67.149  1.00  0.00    -0.238 A  
HETATM   22  C   UNL     1     -10.891  10.390  66.475  1.00  0.00    -0.098 A  
BRANCH  20  23
HETATM   23  N   UNL     1     -12.151  12.421  65.954  1.00  0.00    -0.370 N  
HETATM   24  H   UNL     1     -13.004  12.648  66.466  1.00  0.00     0.000 HD 
BRANCH  23  25
HETATM   25  S   UNL     1     -11.989  12.808  64.319  1.00  0.00    -0.439 S  
HETATM   26  C   UNL     1     -12.381  14.545  64.331  1.00  0.00    -0.413 C  
HETATM   27  O   UNL     1     -13.072  12.121  63.651  1.00  0.00    -0.787 OA 
HETATM   28  O   UNL     1     -10.617  12.630  63.896  1.00  0.00    -0.404 OA 
ENDBRANCH  23  25
ENDBRANCH  20  23
ENDBRANCH  14  17
ENDBRANCH  13  14
ENDBRANCH  12  13
ENDBRANCH  11  12
ENDBRANCH   8  11
ENDBRANCH   7   8
ENDBRANCH   6   7
ENDBRANCH   5   6
ENDBRANCH   4   5
ENDBRANCH   3   4
ENDBRANCH   2   3
TORSDOF 14
ENDMDL
MODEL      264
REMARK 921   NORMALIZED FREE ENERGY PREDICTED BY IDOCK:   -2.95 KCAL/MOL
REMARK 922        TOTAL FREE ENERGY PREDICTED BY IDOCK:   -7.21 KCAL/MOL
REMARK 923 INTER-LIGAND FREE ENERGY PREDICTED BY IDOCK:   -5.60 KCAL/MOL
REMARK 924 INTRA-LIGAND FREE ENERGY PREDICTED BY IDOCK:   -1.62 KCAL/MOL
REMARK 927      BINDING AFFINITY PREDICTED BY RF-SCORE:    0.00 PKD
ROOT
HETATM    1  C   UNL     1     -10.396   5.521  67.963  1.00  0.00    -0.237 C  
HETATM    2  C   UNL     1     -11.276   6.488  68.734  1.00  0.00    -0.319 C  
ENDROOT
BRANCH   2   3
HETATM    3  C   UNL     1     -11.455   6.043  70.184  1.00  0.00    -0.245 C  
BRANCH   3   4
HETATM    4  C   UNL     1     -12.264   7.077  70.957  1.00  0.00    -0.419 C  
BRANCH   4   5
HETATM    5  C   UNL     1     -11.461   8.347  71.227  1.00  0.00    -0.325 C  
BRANCH   5   6
HETATM    6  C   UNL     1     -10.525   8.111  72.410  1.00  0.00    -0.389 C  
BRANCH   6   7
HETATM    7  C   UNL     1      -9.146   7.627  71.954  1.00  0.00    -0.127 C  
BRANCH   7   8
HETATM    8  N   UNL     1      -8.088   8.640  72.122  1.00  0.00    -0.333 NA 
BRANCH   8   9
HETATM    9  C   UNL     1      -6.980   8.216  72.997  1.00  0.00    -0.105 C  
HETATM   10  C   UNL     1      -6.746   6.712  73.112  1.00  0.00    -0.068 C  
ENDBRANCH   8   9
BRANCH   8  11
HETATM   11  C   UNL     1      -7.589   9.141  70.828  1.00  0.00    -0.133 C  
BRANCH  11  12
HETATM   12  C   UNL     1      -7.844   8.201  69.640  1.00  0.00    -0.103 C  
BRANCH  12  13
HETATM   13  C   UNL     1      -6.581   7.950  68.808  1.00  0.00    -0.053 C  
BRANCH  13  14
HETATM   14  C   UNL     1      -6.836   8.102  67.302  1.00  0.00    -0.074 C  
HETATM   15  H   UNL     1      -7.711   7.071  65.871  1.00  0.00     0.000 HD 
HETATM   16  O   UNL     1      -7.553   6.977  66.803  1.00  0.00    -0.087 OA 
BRANCH  14  17
HETATM   17  C   UNL     1      -7.593   9.379  66.989  1.00  0.00    -0.091 A  
HETATM   18  C   UNL     1      -8.783   9.319  66.247  1.00  0.00    -0.160 A  
HETATM   19  C   UNL     1      -9.457  10.486  65.883  1.00  0.00    -0.236 A  
HETATM   20  C   UNL     1      -8.947  11.728  66.252  1.00  0.00    -0.176 A  
HETATM   21  C   UNL     1      -7.120  10.641  67.395  1.00  0.00    -0.090 A  
HETATM   22  C   UNL     1      -7.796  11.809  67.031  1.00  0.00    -0.161 A  
BRANCH  20  23
HETATM   23  N   UNL     1      -9.621  12.909  65.831  1.00  0.00    -0.435 N  
HETATM   24  H   UNL     1      -9.382  13.368  64.951  1.00  0.00     0.000 HD 
BRANCH  23  25
HETATM   25  S   UNL     1     -10.829  13.528  66.834  1.00  0.00    -0.284 S  
HETATM   26  C   UNL     1     -12.286  13.221  65.857  1.00  0.00    -0.441 C  
HETATM   27  O   UNL     1     -10.615  14.958  66.858  1.00  0.00    -0.289 OA 
HETATM   28  O   UNL     1     -10.903  12.762  68.059  1.00  0.00    -0.220 OA 
ENDBRANCH  23  25
ENDBRANCH  20  23
ENDBRANCH  14  17
ENDBRANCH  13  14
ENDBRANCH  12  13
ENDBRANCH  11  12
ENDBRANCH   8  11
ENDBRANCH   7   8
ENDBRANCH   6   7
ENDBRANCH   5   6
ENDBRANCH   4   5
ENDBRANCH   3   4
ENDBRANCH   2   3
TORSDOF 14
ENDMDL
MODEL      265
REMARK 921   NORMALIZED FREE ENERGY PREDICTED BY IDOCK:   -2.94 KCAL/MOL
REMARK 922        TOTAL FREE ENERGY PREDICTED BY IDOCK:   -7.21 KCAL/MOL
REMARK 923 INTER-LIGAND FREE ENERGY PREDICTED BY IDOCK:   -6.14 KCAL/MOL
REMARK 924 INTRA-LIGAND FREE ENERGY PREDICTED BY IDOCK:   -1.06 KCAL/MOL
REMARK 927      BINDING AFFINITY PREDICTED BY RF-SCORE:    0.00 PKD
ROOT
HETATM    1  C   UNL     1      -7.320  13.348  68.373  1.00  0.00    -0.112 C  
HETATM    2  C   UNL     1      -7.363  14.553  67.452  1.00  0.00    -0.183 C  
ENDROOT
BRANCH   2   3
HETATM    3  C   UNL     1      -8.744  14.724  66.822  1.00  0.00    -0.255 C  
BRANCH   3   4
HETATM    4  C   UNL     1      -9.695  15.386  67.811  1.00  0.00    -0.211 C  
BRANCH   4   5
HETATM    5  C   UNL     1     -10.991  15.838  67.144  1.00  0.00    -0.244 C  
BRANCH   5   6
HETATM    6  C   UNL     1     -11.303  14.914  65.969  1.00  0.00    -0.306 C  
BRANCH   6   7
HETATM    7  C   UNL     1     -12.402  13.908  66.316  1.00  0.00    -0.449 C  
BRANCH   7   8
HETATM    8  N   UNL     1     -12.219  12.597  65.666  1.00  0.00    -0.590 NA 
BRANCH   8   9
HETATM    9  C   UNL     1     -11.933  12.675  64.222  1.00  0.00    -0.408 C  
HETATM   10  C   UNL     1     -10.942  11.653  63.672  1.00  0.00    -0.507 C  
ENDBRANCH   8   9
BRANCH   8  11
HETATM   11  C   UNL     1     -11.224  11.765  66.366  1.00  0.00    -0.323 C  
BRANCH  11  12
HETATM   12  C   UNL     1     -11.304  11.830  67.900  1.00  0.00    -0.362 C  
BRANCH  12  13
HETATM   13  C   UNL     1     -10.337  10.855  68.580  1.00  0.00    -0.206 C  
BRANCH  13  14
HETATM   14  C   UNL     1     -10.804   9.397  68.467  1.00  0.00    -0.105 C  
HETATM   15  H   UNL     1     -10.705   7.945  67.141  1.00  0.00     0.000 HD 
HETATM   16  O   UNL     1     -10.416   8.847  67.211  1.00  0.00    -0.266 OA 
BRANCH  14  17
HETATM   17  C   UNL     1     -10.258   8.545  69.597  1.00  0.00    -0.209 A  
HETATM   18  C   UNL     1      -8.874   8.346  69.713  1.00  0.00    -0.134 A  
HETATM   19  C   UNL     1      -8.353   7.505  70.699  1.00  0.00    -0.126 A  
HETATM   20  C   UNL     1      -9.211   6.850  71.579  1.00  0.00    -0.151 A  
HETATM   21  C   UNL     1     -11.106   7.914  70.527  1.00  0.00    -0.260 A  
HETATM   22  C   UNL     1     -10.585   7.074  71.514  1.00  0.00    -0.232 A  
BRANCH  20  23
HETATM   23  N   UNL     1      -8.668   5.960  72.547  1.00  0.00    -0.124 N  
HETATM   24  H   UNL     1      -8.596   6.229  73.529  1.00  0.00     0.000 HD 
BRANCH  23  25
HETATM   25  S   UNL     1      -8.145   4.444  72.019  1.00  0.00    -0.100 S  
HETATM   26  C   UNL     1      -9.668   3.736  71.428  1.00  0.00    -0.172 C  
HETATM   27  O   UNL     1      -7.768   3.728  73.219  1.00  0.00    -0.071 OA 
HETATM   28  O   UNL     1      -7.223   4.590  70.914  1.00  0.00    -0.040 OA 
ENDBRANCH  23  25
ENDBRANCH  20  23
ENDBRANCH  14  17
ENDBRANCH  13  14
ENDBRANCH  12  13
ENDBRANCH  11  12
ENDBRANCH   8  11
ENDBRANCH   7   8
ENDBRANCH   6   7
ENDBRANCH   5   6
ENDBRANCH   4   5
ENDBRANCH   3   4
ENDBRANCH   2   3
TORSDOF 14
ENDMDL
MODEL      266
REMARK 921   NORMALIZED FREE ENERGY PREDICTED BY IDOCK:   -2.94 KCAL/MOL
REMARK 922        TOTAL FREE ENERGY PREDICTED BY IDOCK:   -7.19 KCAL/MOL
REMARK 923 INTER-LIGAND FREE ENERGY PREDICTED BY IDOCK:   -5.82 KCAL/MOL
REMARK 924 INTRA-LIGAND FREE ENERGY PREDICTED BY IDOCK:   -1.37 KCAL/MOL
REMARK 927      BINDING AFFINITY PREDICTED BY RF-SCORE:    0.00 PKD
ROOT
HETATM    1  C   UNL     1     -11.696  12.066  67.768  1.00  0.00    -0.379 C  
HETATM    2  C   UNL     1     -11.294  13.289  68.571  1.00  0.00    -0.319 C  
ENDROOT
BRANCH   2   3
HETATM    3  C   UNL     1     -11.991  14.547  68.055  1.00  0.00    -0.305 C  
BRANCH   3   4
HETATM    4  C   UNL     1     -11.729  15.717  68.997  1.00  0.00    -0.408 C  
BRANCH   4   5
HETATM    5  C   UNL     1     -10.345  16.323  68.785  1.00  0.00    -0.261 C  
BRANCH   5   6
HETATM    6  C   UNL     1     -10.282  16.972  67.405  1.00  0.00    -0.314 C  
BRANCH   6   7
HETATM    7  C   UNL     1      -9.013  16.576  66.648  1.00  0.00    -0.255 C  
BRANCH   7   8
HETATM    8  N   UNL     1      -8.318  17.722  66.034  1.00  0.00    -0.524 NA 
BRANCH   8   9
HETATM    9  C   UNL     1      -8.923  19.030  66.345  1.00  0.00    -0.324 C  
HETATM   10  C   UNL     1      -7.958  20.149  66.728  1.00  0.00    -0.343 C  
ENDBRANCH   8   9
BRANCH   8  11
HETATM   11  C   UNL     1      -6.873  17.716  66.326  1.00  0.00    -0.287 C  
BRANCH  11  12
HETATM   12  C   UNL     1      -6.502  17.136  67.699  1.00  0.00    -0.164 C  
BRANCH  12  13
HETATM   13  C   UNL     1      -5.480  15.997  67.599  1.00  0.00    -0.158 C  
BRANCH  13  14
HETATM   14  C   UNL     1      -5.660  14.954  68.711  1.00  0.00    -0.087 C  
HETATM   15  H   UNL     1      -6.564  14.842  70.457  1.00  0.00     0.000 HD 
HETATM   16  O   UNL     1      -6.452  15.487  69.768  1.00  0.00    -0.158 OA 
BRANCH  14  17
HETATM   17  C   UNL     1      -6.288  13.678  68.185  1.00  0.00    -0.123 A  
HETATM   18  C   UNL     1      -7.595  13.337  68.565  1.00  0.00    -0.128 A  
HETATM   19  C   UNL     1      -8.167  12.131  68.154  1.00  0.00    -0.164 A  
HETATM   20  C   UNL     1      -7.437  11.249  67.362  1.00  0.00    -0.116 A  
HETATM   21  C   UNL     1      -5.584  12.796  67.343  1.00  0.00    -0.057 A  
HETATM   22  C   UNL     1      -6.157  11.590  66.932  1.00  0.00    -0.146 A  
BRANCH  20  23
HETATM   23  N   UNL     1      -8.017  10.003  66.992  1.00  0.00    -0.106 N  
HETATM   24  H   UNL     1      -8.250   9.301  67.695  1.00  0.00     0.000 HD 
BRANCH  23  25
HETATM   25  S   UNL     1      -8.308   9.724  65.353  1.00  0.00    -0.147 S  
HETATM   26  C   UNL     1      -9.644  10.857  65.037  1.00  0.00    -0.251 C  
HETATM   27  O   UNL     1      -8.847   8.384  65.281  1.00  0.00    -0.160 OA 
HETATM   28  O   UNL     1      -7.156  10.111  64.568  1.00  0.00    -0.138 OA 
ENDBRANCH  23  25
ENDBRANCH  20  23
ENDBRANCH  14  17
ENDBRANCH  13  14
ENDBRANCH  12  13
ENDBRANCH  11  12
ENDBRANCH   8  11
ENDBRANCH   7   8
ENDBRANCH   6   7
ENDBRANCH   5   6
ENDBRANCH   4   5
ENDBRANCH   3   4
ENDBRANCH   2   3
TORSDOF 14
ENDMDL
MODEL      267
REMARK 921   NORMALIZED FREE ENERGY PREDICTED BY IDOCK:   -2.91 KCAL/MOL
REMARK 922        TOTAL FREE ENERGY PREDICTED BY IDOCK:   -7.14 KCAL/MOL
REMARK 923 INTER-LIGAND FREE ENERGY PREDICTED BY IDOCK:   -5.47 KCAL/MOL
REMARK 924 INTRA-LIGAND FREE ENERGY PREDICTED BY IDOCK:   -1.67 KCAL/MOL
REMARK 927      BINDING AFFINITY PREDICTED BY RF-SCORE:    0.00 PKD
ROOT
HETATM    1  C   UNL     1      -6.220  11.505  66.864  1.00  0.00    -0.143 C  
HETATM    2  C   UNL     1      -7.527  12.175  67.246  1.00  0.00    -0.152 C  
ENDROOT
BRANCH   2   3
HETATM    3  C   UNL     1      -7.365  13.044  68.491  1.00  0.00    -0.115 C  
BRANCH   3   4
HETATM    4  C   UNL     1      -7.738  14.488  68.178  1.00  0.00    -0.128 C  
BRANCH   4   5
HETATM    5  C   UNL     1      -8.594  15.109  69.279  1.00  0.00    -0.211 C  
BRANCH   5   6
HETATM    6  C   UNL     1      -9.660  16.001  68.647  1.00  0.00    -0.222 C  
BRANCH   6   7
HETATM    7  C   UNL     1     -10.988  15.921  69.404  1.00  0.00    -0.309 C  
BRANCH   7   8
HETATM    8  N   UNL     1     -11.395  14.541  69.723  1.00  0.00    -0.263 NA 
BRANCH   8   9
HETATM    9  C   UNL     1     -12.248  14.425  70.919  1.00  0.00    -0.342 C  
HETATM   10  C   UNL     1     -13.474  15.333  70.967  1.00  0.00    -0.516 C  
ENDBRANCH   8   9
BRANCH   8  11
HETATM   11  C   UNL     1     -11.998  13.859  68.564  1.00  0.00    -0.359 C  
BRANCH  11  12
HETATM   12  C   UNL     1     -11.238  12.610  68.092  1.00  0.00    -0.311 C  
BRANCH  12  13
HETATM   13  C   UNL     1     -11.841  11.312  68.641  1.00  0.00    -0.369 C  
BRANCH  13  14
HETATM   14  C   UNL     1     -11.188  10.879  69.960  1.00  0.00    -0.263 C  
HETATM   15  H   UNL     1     -11.778  10.210  71.716  1.00  0.00     0.000 HD 
HETATM   16  O   UNL     1     -12.182  10.478  70.899  1.00  0.00    -0.320 OA 
BRANCH  14  17
HETATM   17  C   UNL     1     -10.191   9.755  69.749  1.00  0.00    -0.271 A  
HETATM   18  C   UNL     1     -10.649   8.475  69.403  1.00  0.00    -0.203 A  
HETATM   19  C   UNL     1      -9.758   7.407  69.276  1.00  0.00    -0.165 A  
HETATM   20  C   UNL     1      -8.398   7.606  69.500  1.00  0.00    -0.130 A  
HETATM   21  C   UNL     1      -8.808   9.947  69.922  1.00  0.00    -0.222 A  
HETATM   22  C   UNL     1      -7.916   8.879  69.795  1.00  0.00    -0.100 A  
BRANCH  20  23
HETATM   23  N   UNL     1      -7.509   6.497  69.414  1.00  0.00    -0.092 N  
HETATM   24  H   UNL     1      -7.189   6.013  70.253  1.00  0.00     0.000 HD 
BRANCH  23  25
HETATM   25  S   UNL     1      -7.003   6.010  67.879  1.00  0.00    -0.074 S  
HETATM   26  C   UNL     1      -7.212   7.513  66.949  1.00  0.00    -0.085 C  
HETATM   27  O   UNL     1      -8.005   5.072  67.423  1.00  0.00    -0.095 OA 
HETATM   28  O   UNL     1      -5.601   5.653  67.905  1.00  0.00    -0.011 OA 
ENDBRANCH  23  25
ENDBRANCH  20  23
ENDBRANCH  14  17
ENDBRANCH  13  14
ENDBRANCH  12  13
ENDBRANCH  11  12
ENDBRANCH   8  11
ENDBRANCH   7   8
ENDBRANCH   6   7
ENDBRANCH   5   6
ENDBRANCH   4   5
ENDBRANCH   3   4
ENDBRANCH   2   3
TORSDOF 14
ENDMDL
MODEL      268
REMARK 921   NORMALIZED FREE ENERGY PREDICTED BY IDOCK:   -2.91 KCAL/MOL
REMARK 922        TOTAL FREE ENERGY PREDICTED BY IDOCK:   -7.14 KCAL/MOL
REMARK 923 INTER-LIGAND FREE ENERGY PREDICTED BY IDOCK:   -5.76 KCAL/MOL
REMARK 924 INTRA-LIGAND FREE ENERGY PREDICTED BY IDOCK:   -1.38 KCAL/MOL
REMARK 927      BINDING AFFINITY PREDICTED BY RF-SCORE:    0.00 PKD
ROOT
HETATM    1  C   UNL     1      -6.470  10.456  69.254  1.00  0.00    -0.052 C  
HETATM    2  C   UNL     1      -7.912  10.184  69.640  1.00  0.00    -0.181 C  
ENDROOT
BRANCH   2   3
HETATM    3  C   UNL     1      -8.055   8.837  70.347  1.00  0.00    -0.118 C  
BRANCH   3   4
HETATM    4  C   UNL     1      -9.394   8.761  71.071  1.00  0.00    -0.280 C  
BRANCH   4   5
HETATM    5  C   UNL     1      -9.337   7.840  72.286  1.00  0.00    -0.212 C  
BRANCH   5   6
HETATM    6  C   UNL     1      -8.524   6.595  71.938  1.00  0.00    -0.114 C  
BRANCH   6   7
HETATM    7  C   UNL     1      -9.327   5.614  71.080  1.00  0.00    -0.153 C  
BRANCH   7   8
HETATM    8  N   UNL     1      -8.516   4.942  70.049  1.00  0.00    -0.082 NA 
BRANCH   8   9
HETATM    9  C   UNL     1      -8.168   3.546  70.370  1.00  0.00    -0.052 C  
HETATM   10  C   UNL     1      -6.695   3.262  70.652  1.00  0.00    -0.033 C  
ENDBRANCH   8   9
BRANCH   8  11
HETATM   11  C   UNL     1      -9.121   5.050  68.710  1.00  0.00    -0.109 C  
BRANCH  11  12
HETATM   12  C   UNL     1     -10.326   6.001  68.629  1.00  0.00    -0.264 C  
BRANCH  12  13
HETATM   13  C   UNL     1     -10.415   6.724  67.281  1.00  0.00    -0.352 C  
BRANCH  13  14
HETATM   14  C   UNL     1      -9.259   7.712  67.073  1.00  0.00    -0.138 C  
HETATM   15  H   UNL     1      -7.844   8.024  65.739  1.00  0.00     0.000 HD 
HETATM   16  O   UNL     1      -8.559   7.412  65.868  1.00  0.00    -0.147 OA 
BRANCH  14  17
HETATM   17  C   UNL     1      -9.748   9.148  67.045  1.00  0.00    -0.245 A  
HETATM   18  C   UNL     1     -10.762   9.555  67.925  1.00  0.00    -0.285 A  
HETATM   19  C   UNL     1     -11.281  10.850  67.867  1.00  0.00    -0.387 A  
HETATM   20  C   UNL     1     -10.794  11.753  66.925  1.00  0.00    -0.271 A  
HETATM   21  C   UNL     1      -9.234  10.089  66.134  1.00  0.00    -0.205 A  
HETATM   22  C   UNL     1      -9.752  11.386  66.076  1.00  0.00    -0.253 A  
BRANCH  20  23
HETATM   23  N   UNL     1     -11.366  13.054  66.848  1.00  0.00    -0.296 N  
HETATM   24  H   UNL     1     -11.297  13.707  67.628  1.00  0.00     0.000 HD 
BRANCH  23  25
HETATM   25  S   UNL     1     -12.164  13.481  65.423  1.00  0.00    -0.477 S  
HETATM   26  C   UNL     1     -10.833  13.407  64.242  1.00  0.00    -0.363 C  
HETATM   27  O   UNL     1     -12.524  14.873  65.586  1.00  0.00    -0.034 OA 
HETATM   28  O   UNL     1     -13.157  12.485  65.088  1.00  0.00    -0.659 OA 
ENDBRANCH  23  25
ENDBRANCH  20  23
ENDBRANCH  14  17
ENDBRANCH  13  14
ENDBRANCH  12  13
ENDBRANCH  11  12
ENDBRANCH   8  11
ENDBRANCH   7   8
ENDBRANCH   6   7
ENDBRANCH   5   6
ENDBRANCH   4   5
ENDBRANCH   3   4
ENDBRANCH   2   3
TORSDOF 14
ENDMDL
MODEL      269
REMARK 921   NORMALIZED FREE ENERGY PREDICTED BY IDOCK:   -2.89 KCAL/MOL
REMARK 922        TOTAL FREE ENERGY PREDICTED BY IDOCK:   -7.11 KCAL/MOL
REMARK 923 INTER-LIGAND FREE ENERGY PREDICTED BY IDOCK:   -6.34 KCAL/MOL
REMARK 924 INTRA-LIGAND FREE ENERGY PREDICTED BY IDOCK:   -0.77 KCAL/MOL
REMARK 927      BINDING AFFINITY PREDICTED BY RF-SCORE:    0.00 PKD
ROOT
HETATM    1  C   UNL     1     -10.616   3.828  63.358  1.00  0.00    -0.234 C  
HETATM    2  C   UNL     1      -9.395   3.098  63.885  1.00  0.00    -0.114 C  
ENDROOT
BRANCH   2   3
HETATM    3  C   UNL     1      -8.666   3.924  64.942  1.00  0.00    -0.116 C  
BRANCH   3   4
HETATM    4  C   UNL     1      -7.623   4.819  64.285  1.00  0.00    -0.073 C  
BRANCH   4   5
HETATM    5  C   UNL     1      -8.076   6.276  64.225  1.00  0.00    -0.080 C  
BRANCH   5   6
HETATM    6  C   UNL     1      -8.658   6.680  65.577  1.00  0.00    -0.101 C  
BRANCH   6   7
HETATM    7  C   UNL     1      -7.637   7.435  66.431  1.00  0.00    -0.088 C  
BRANCH   7   8
HETATM    8  N   UNL     1      -8.017   8.835  66.693  1.00  0.00    -0.099 NA 
BRANCH   8   9
HETATM    9  C   UNL     1      -7.355   9.815  65.813  1.00  0.00    -0.105 C  
HETATM   10  C   UNL     1      -6.103  10.488  66.369  1.00  0.00    -0.089 C  
ENDBRANCH   8   9
BRANCH   8  11
HETATM   11  C   UNL     1      -9.480   9.020  66.699  1.00  0.00    -0.194 C  
BRANCH  11  12
HETATM   12  C   UNL     1      -9.980  10.177  65.819  1.00  0.00    -0.339 C  
BRANCH  12  13
HETATM   13  C   UNL     1     -10.798  11.205  66.609  1.00  0.00    -0.308 C  
BRANCH  13  14
HETATM   14  C   UNL     1      -9.970  11.890  67.705  1.00  0.00    -0.186 C  
HETATM   15  H   UNL     1      -8.373  13.037  67.807  1.00  0.00     0.000 HD 
HETATM   16  O   UNL     1      -8.886  12.613  67.129  1.00  0.00    -0.190 OA 
BRANCH  14  17
HETATM   17  C   UNL     1     -10.820  12.817  68.552  1.00  0.00    -0.279 A  
HETATM   18  C   UNL     1     -11.722  12.278  69.483  1.00  0.00    -0.398 A  
HETATM   19  C   UNL     1     -12.569  13.108  70.221  1.00  0.00    -0.133 A  
HETATM   20  C   UNL     1     -12.527  14.488  70.033  1.00  0.00    -0.298 A  
HETATM   21  C   UNL     1     -10.757  14.216  68.413  1.00  0.00    -0.264 A  
HETATM   22  C   UNL     1     -11.604  15.047  69.152  1.00  0.00    -0.333 A  
BRANCH  20  23
HETATM   23  N   UNL     1     -13.429  15.316  70.758  1.00  0.00    -0.711 N  
HETATM   24  H   UNL     1     -14.291  15.657  70.330  1.00  0.00     0.000 HD 
BRANCH  23  25
HETATM   25  S   UNL     1     -13.029  15.716  72.348  1.00  0.00    -0.471 S  
HETATM   26  C   UNL     1     -12.717  14.107  73.044  1.00  0.00    -0.209 C  
HETATM   27  O   UNL     1     -14.252  16.216  72.938  1.00  0.00    -0.397 OA 
HETATM   28  O   UNL     1     -11.811  16.495  72.376  1.00  0.00    -0.532 OA 
ENDBRANCH  23  25
ENDBRANCH  20  23
ENDBRANCH  14  17
ENDBRANCH  13  14
ENDBRANCH  12  13
ENDBRANCH  11  12
ENDBRANCH   8  11
ENDBRANCH   7   8
ENDBRANCH   6   7
ENDBRANCH   5   6
ENDBRANCH   4   5
ENDBRANCH   3   4
ENDBRANCH   2   3
TORSDOF 14
ENDMDL
MODEL      270
REMARK 921   NORMALIZED FREE ENERGY PREDICTED BY IDOCK:   -2.89 KCAL/MOL
REMARK 922        TOTAL FREE ENERGY PREDICTED BY IDOCK:   -7.10 KCAL/MOL
REMARK 923 INTER-LIGAND FREE ENERGY PREDICTED BY IDOCK:   -5.91 KCAL/MOL
REMARK 924 INTRA-LIGAND FREE ENERGY PREDICTED BY IDOCK:   -1.19 KCAL/MOL
REMARK 927      BINDING AFFINITY PREDICTED BY RF-SCORE:    0.00 PKD
ROOT
HETATM    1  C   UNL     1      -6.247   4.328  65.499  1.00  0.00    -0.027 C  
HETATM    2  C   UNL     1      -5.979   5.821  65.529  1.00  0.00    -0.028 C  
ENDROOT
BRANCH   2   3
HETATM    3  C   UNL     1      -7.082   6.570  66.274  1.00  0.00    -0.067 C  
BRANCH   3   4
HETATM    4  C   UNL     1      -8.376   5.765  66.248  1.00  0.00    -0.115 C  
BRANCH   4   5
HETATM    5  C   UNL     1      -9.444   6.368  67.156  1.00  0.00    -0.145 C  
BRANCH   5   6
HETATM    6  C   UNL     1     -10.032   5.272  68.041  1.00  0.00    -0.202 C  
BRANCH   6   7
HETATM    7  C   UNL     1      -9.217   5.078  69.321  1.00  0.00    -0.109 C  
BRANCH   7   8
HETATM    8  N   UNL     1     -10.047   5.023  70.539  1.00  0.00    -0.243 NA 
BRANCH   8   9
HETATM    9  C   UNL     1      -9.863   3.799  71.339  1.00  0.00    -0.155 C  
HETATM   10  C   UNL     1     -10.286   3.877  72.803  1.00  0.00    -0.233 C  
ENDBRANCH   8   9
BRANCH   8  11
HETATM   11  C   UNL     1      -9.897   6.234  71.367  1.00  0.00    -0.173 C  
BRANCH  11  12
HETATM   12  C   UNL     1      -8.640   7.063  71.062  1.00  0.00    -0.134 C  
BRANCH  12  13
HETATM   13  C   UNL     1      -8.947   8.556  70.897  1.00  0.00    -0.206 C  
BRANCH  13  14
HETATM   14  C   UNL     1     -10.445   8.823  70.695  1.00  0.00    -0.210 C  
HETATM   15  H   UNL     1     -11.953   9.493  71.768  1.00  0.00     0.000 HD 
HETATM   16  O   UNL     1     -11.026   9.327  71.894  1.00  0.00    -0.363 OA 
BRANCH  14  17
HETATM   17  C   UNL     1     -10.691   9.791  69.552  1.00  0.00    -0.255 A  
HETATM   18  C   UNL     1     -11.596  10.850  69.721  1.00  0.00    -0.399 A  
HETATM   19  C   UNL     1     -11.896  11.709  68.661  1.00  0.00    -0.370 A  
HETATM   20  C   UNL     1     -11.298  11.515  67.418  1.00  0.00    -0.298 A  
HETATM   21  C   UNL     1     -10.059   9.641  68.304  1.00  0.00    -0.203 A  
HETATM   22  C   UNL     1     -10.359  10.501  67.243  1.00  0.00    -0.275 A  
BRANCH  20  23
HETATM   23  N   UNL     1     -11.650  12.369  66.336  1.00  0.00    -0.373 N  
HETATM   24  H   UNL     1     -12.282  12.053  65.599  1.00  0.00     0.000 HD 
BRANCH  23  25
HETATM   25  S   UNL     1     -10.991  13.923  66.310  1.00  0.00    -0.301 S  
HETATM   26  C   UNL     1      -9.437  13.656  67.138  1.00  0.00    -0.244 C  
HETATM   27  O   UNL     1     -11.824  14.710  67.192  1.00  0.00    -0.391 OA 
HETATM   28  O   UNL     1     -10.742  14.338  64.947  1.00  0.00    -0.389 OA 
ENDBRANCH  23  25
ENDBRANCH  20  23
ENDBRANCH  14  17
ENDBRANCH  13  14
ENDBRANCH  12  13
ENDBRANCH  11  12
ENDBRANCH   8  11
ENDBRANCH   7   8
ENDBRANCH   6   7
ENDBRANCH   5   6
ENDBRANCH   4   5
ENDBRANCH   3   4
ENDBRANCH   2   3
TORSDOF 14
ENDMDL
MODEL      271
REMARK 921   NORMALIZED FREE ENERGY PREDICTED BY IDOCK:   -2.88 KCAL/MOL
REMARK 922        TOTAL FREE ENERGY PREDICTED BY IDOCK:   -7.10 KCAL/MOL
REMARK 923 INTER-LIGAND FREE ENERGY PREDICTED BY IDOCK:   -6.46 KCAL/MOL
REMARK 924 INTRA-LIGAND FREE ENERGY PREDICTED BY IDOCK:   -0.64 KCAL/MOL
REMARK 927      BINDING AFFINITY PREDICTED BY RF-SCORE:    0.00 PKD
ROOT
HETATM    1  C   UNL     1      -8.553   2.660  63.593  1.00  0.00    -0.086 C  
HETATM    2  C   UNL     1      -9.433   2.704  64.829  1.00  0.00    -0.116 C  
ENDROOT
BRANCH   2   3
HETATM    3  C   UNL     1      -8.669   3.239  66.038  1.00  0.00    -0.127 C  
BRANCH   3   4
HETATM    4  C   UNL     1      -7.294   3.741  65.613  1.00  0.00    -0.072 C  
BRANCH   4   5
HETATM    5  C   UNL     1      -7.247   5.263  65.511  1.00  0.00    -0.068 C  
BRANCH   5   6
HETATM    6  C   UNL     1      -7.666   5.872  66.847  1.00  0.00    -0.100 C  
BRANCH   6   7
HETATM    7  C   UNL     1      -7.838   7.389  66.749  1.00  0.00    -0.110 C  
BRANCH   7   8
HETATM    8  N   UNL     1      -9.183   7.797  66.303  1.00  0.00    -0.180 NA 
BRANCH   8   9
HETATM    9  C   UNL     1     -10.239   7.596  67.312  1.00  0.00    -0.272 C  
HETATM   10  C   UNL     1     -11.146   6.385  67.111  1.00  0.00    -0.422 C  
ENDBRANCH   8   9
BRANCH   8  11
HETATM   11  C   UNL     1      -9.199   9.173  65.775  1.00  0.00    -0.234 C  
BRANCH  11  12
HETATM   12  C   UNL     1     -10.345  10.047  66.307  1.00  0.00    -0.235 C  
BRANCH  12  13
HETATM   13  C   UNL     1      -9.862  11.420  66.787  1.00  0.00    -0.232 C  
BRANCH  13  14
HETATM   14  C   UNL     1     -10.770  12.008  67.876  1.00  0.00    -0.210 C  
HETATM   15  H   UNL     1     -12.640  12.604  68.035  1.00  0.00     0.000 HD 
HETATM   16  O   UNL     1     -12.078  12.240  67.361  1.00  0.00    -0.533 OA 
BRANCH  14  17
HETATM   17  C   UNL     1     -10.844  11.104  69.092  1.00  0.00    -0.284 A  
HETATM   18  C   UNL     1      -9.714  10.371  69.484  1.00  0.00    -0.196 A  
HETATM   19  C   UNL     1      -9.778   9.476  70.554  1.00  0.00    -0.325 A  
HETATM   20  C   UNL     1     -10.976   9.299  71.241  1.00  0.00    -0.351 A  
HETATM   21  C   UNL     1     -12.032  10.949  69.830  1.00  0.00    -0.423 A  
HETATM   22  C   UNL     1     -12.097  10.053  70.901  1.00  0.00    -0.448 A  
BRANCH  20  23
HETATM   23  N   UNL     1     -11.038   8.347  72.298  1.00  0.00    -0.349 N  
HETATM   24  H   UNL     1     -11.924   8.118  72.749  1.00  0.00     0.000 HD 
BRANCH  23  25
HETATM   25  S   UNL     1      -9.598   7.610  72.780  1.00  0.00    -0.222 S  
HETATM   26  C   UNL     1     -10.146   6.658  74.182  1.00  0.00    -0.364 C  
HETATM   27  O   UNL     1      -8.766   8.682  73.280  1.00  0.00    -0.352 OA 
HETATM   28  O   UNL     1      -9.125   6.714  71.748  1.00  0.00    -0.145 OA 
ENDBRANCH  23  25
ENDBRANCH  20  23
ENDBRANCH  14  17
ENDBRANCH  13  14
ENDBRANCH  12  13
ENDBRANCH  11  12
ENDBRANCH   8  11
ENDBRANCH   7   8
ENDBRANCH   6   7
ENDBRANCH   5   6
ENDBRANCH   4   5
ENDBRANCH   3   4
ENDBRANCH   2   3
TORSDOF 14
ENDMDL
MODEL      272
REMARK 921   NORMALIZED FREE ENERGY PREDICTED BY IDOCK:   -2.86 KCAL/MOL
REMARK 922        TOTAL FREE ENERGY PREDICTED BY IDOCK:   -7.05 KCAL/MOL
REMARK 923 INTER-LIGAND FREE ENERGY PREDICTED BY IDOCK:   -6.03 KCAL/MOL
REMARK 924 INTRA-LIGAND FREE ENERGY PREDICTED BY IDOCK:   -1.02 KCAL/MOL
REMARK 927      BINDING AFFINITY PREDICTED BY RF-SCORE:    0.00 PKD
ROOT
HETATM    1  C   UNL     1      -9.579   3.672  69.035  1.00  0.00    -0.165 C  
HETATM    2  C   UNL     1      -9.063   3.262  70.401  1.00  0.00    -0.191 C  
ENDROOT
BRANCH   2   3
HETATM    3  C   UNL     1     -10.070   3.595  71.500  1.00  0.00    -0.102 C  
BRANCH   3   4
HETATM    4  C   UNL     1     -10.903   4.807  71.102  1.00  0.00     0.242 C  
BRANCH   4   5
HETATM    5  C   UNL     1     -10.776   5.945  72.111  1.00  0.00    -0.278 C  
BRANCH   5   6
HETATM    6  C   UNL     1     -10.080   7.132  71.450  1.00  0.00    -0.196 C  
BRANCH   6   7
HETATM    7  C   UNL     1     -10.366   7.192  69.948  1.00  0.00    -0.213 C  
BRANCH   7   8
HETATM    8  N   UNL     1      -9.712   8.328  69.274  1.00  0.00    -0.174 NA 
BRANCH   8   9
HETATM    9  C   UNL     1      -8.274   8.129  69.015  1.00  0.00    -0.127 C  
HETATM   10  C   UNL     1      -7.867   6.761  68.474  1.00  0.00    -0.118 C  
ENDBRANCH   8   9
BRANCH   8  11
HETATM   11  C   UNL     1     -10.426   8.735  68.051  1.00  0.00    -0.204 C  
BRANCH  11  12
HETATM   12  C   UNL     1     -10.579  10.254  67.876  1.00  0.00    -0.282 C  
BRANCH  12  13
HETATM   13  C   UNL     1      -9.240  10.952  67.610  1.00  0.00    -0.155 C  
BRANCH  13  14
HETATM   14  C   UNL     1      -9.274  11.812  66.340  1.00  0.00    -0.217 C  
HETATM   15  H   UNL     1     -10.206  11.795  64.605  1.00  0.00     0.000 HD 
HETATM   16  O   UNL     1     -10.185  11.263  65.392  1.00  0.00    -0.247 OA 
BRANCH  14  17
HETATM   17  C   UNL     1      -9.650  13.250  66.647  1.00  0.00    -0.262 A  
HETATM   18  C   UNL     1     -10.375  13.996  65.705  1.00  0.00    -0.330 A  
HETATM   19  C   UNL     1     -10.668  15.342  65.933  1.00  0.00    -0.343 A  
HETATM   20  C   UNL     1     -10.234  15.960  67.103  1.00  0.00    -0.278 A  
HETATM   21  C   UNL     1      -9.264  13.878  67.846  1.00  0.00    -0.198 A  
HETATM   22  C   UNL     1      -9.558  15.225  68.074  1.00  0.00    -0.203 A  
BRANCH  20  23
HETATM   23  N   UNL     1     -10.500  17.344  67.298  1.00  0.00    -0.337 N  
HETATM   24  H   UNL     1     -11.069  17.667  68.081  1.00  0.00     0.000 HD 
BRANCH  23  25
HETATM   25  S   UNL     1      -9.841  18.437  66.192  1.00  0.00    -0.203 S  
HETATM   26  C   UNL     1      -9.768  19.923  67.171  1.00  0.00    -0.393 C  
HETATM   27  O   UNL     1     -10.862  18.628  65.186  1.00  0.00    -0.551 OA 
HETATM   28  O   UNL     1      -8.499  18.035  65.831  1.00  0.00    -0.509 OA 
ENDBRANCH  23  25
ENDBRANCH  20  23
ENDBRANCH  14  17
ENDBRANCH  13  14
ENDBRANCH  12  13
ENDBRANCH  11  12
ENDBRANCH   8  11
ENDBRANCH   7   8
ENDBRANCH   6   7
ENDBRANCH   5   6
ENDBRANCH   4   5
ENDBRANCH   3   4
ENDBRANCH   2   3
TORSDOF 14
ENDMDL
MODEL      273
REMARK 921   NORMALIZED FREE ENERGY PREDICTED BY IDOCK:   -2.85 KCAL/MOL
REMARK 922        TOTAL FREE ENERGY PREDICTED BY IDOCK:   -7.04 KCAL/MOL
REMARK 923 INTER-LIGAND FREE ENERGY PREDICTED BY IDOCK:   -5.21 KCAL/MOL
REMARK 924 INTRA-LIGAND FREE ENERGY PREDICTED BY IDOCK:   -1.83 KCAL/MOL
REMARK 927      BINDING AFFINITY PREDICTED BY RF-SCORE:    0.00 PKD
ROOT
HETATM    1  C   UNL     1     -11.730  15.446  69.496  1.00  0.00    -0.364 C  
HETATM    2  C   UNL     1     -11.772  15.448  67.979  1.00  0.00    -0.235 C  
ENDROOT
BRANCH   2   3
HETATM    3  C   UNL     1     -10.417  15.068  67.384  1.00  0.00    -0.257 C  
BRANCH   3   4
HETATM    4  C   UNL     1      -9.314  15.924  67.995  1.00  0.00    -0.201 C  
BRANCH   4   5
HETATM    5  C   UNL     1      -9.223  17.297  67.335  1.00  0.00    -0.231 C  
BRANCH   5   6
HETATM    6  C   UNL     1      -9.474  18.379  68.382  1.00  0.00    -0.352 C  
BRANCH   6   7
HETATM    7  C   UNL     1      -8.301  19.357  68.478  1.00  0.00    -0.363 C  
BRANCH   7   8
HETATM    8  N   UNL     1      -6.996  18.733  68.195  1.00  0.00    -0.238 NA 
BRANCH   8   9
HETATM    9  C   UNL     1      -6.168  19.480  67.231  1.00  0.00    -0.186 C  
HETATM   10  C   UNL     1      -6.324  20.998  67.237  1.00  0.00    -0.405 C  
ENDBRANCH   8   9
BRANCH   8  11
HETATM   11  C   UNL     1      -6.246  18.432  69.427  1.00  0.00    -0.259 C  
BRANCH  11  12
HETATM   12  C   UNL     1      -6.324  16.965  69.879  1.00  0.00    -0.072 C  
BRANCH  12  13
HETATM   13  C   UNL     1      -5.743  15.999  68.840  1.00  0.00    -0.112 C  
BRANCH  13  14
HETATM   14  C   UNL     1      -5.388  14.635  69.448  1.00  0.00    -0.086 C  
HETATM   15  H   UNL     1      -5.391  13.802  71.233  1.00  0.00     0.000 HD 
HETATM   16  O   UNL     1      -5.610  14.646  70.856  1.00  0.00    -0.146 OA 
BRANCH  14  17
HETATM   17  C   UNL     1      -6.182  13.513  68.807  1.00  0.00    -0.090 A  
HETATM   18  C   UNL     1      -6.752  13.700  67.539  1.00  0.00    -0.139 A  
HETATM   19  C   UNL     1      -7.549  12.710  66.960  1.00  0.00     0.006 A  
HETATM   20  C   UNL     1      -7.788  11.522  67.645  1.00  0.00    -0.125 A  
HETATM   21  C   UNL     1      -6.394  12.285  69.462  1.00  0.00    -0.121 A  
HETATM   22  C   UNL     1      -7.191  11.294  68.882  1.00  0.00    -0.112 A  
BRANCH  20  23
HETATM   23  N   UNL     1      -8.641  10.543  67.062  1.00  0.00    -0.127 N  
HETATM   24  H   UNL     1      -8.258   9.734  66.573  1.00  0.00     0.000 HD 
BRANCH  23  25
HETATM   25  S   UNL     1     -10.309  10.763  67.207  1.00  0.00    -0.233 S  
HETATM   26  C   UNL     1     -10.400  11.805  68.648  1.00  0.00    -0.214 C  
HETATM   27  O   UNL     1     -10.838   9.467  67.573  1.00  0.00    -0.269 OA 
HETATM   28  O   UNL     1     -10.820  11.483  66.062  1.00  0.00    -0.280 OA 
ENDBRANCH  23  25
ENDBRANCH  20  23
ENDBRANCH  14  17
ENDBRANCH  13  14
ENDBRANCH  12  13
ENDBRANCH  11  12
ENDBRANCH   8  11
ENDBRANCH   7   8
ENDBRANCH   6   7
ENDBRANCH   5   6
ENDBRANCH   4   5
ENDBRANCH   3   4
ENDBRANCH   2   3
TORSDOF 14
ENDMDL
MODEL      274
REMARK 921   NORMALIZED FREE ENERGY PREDICTED BY IDOCK:   -2.84 KCAL/MOL
REMARK 922        TOTAL FREE ENERGY PREDICTED BY IDOCK:   -7.02 KCAL/MOL
REMARK 923 INTER-LIGAND FREE ENERGY PREDICTED BY IDOCK:   -5.83 KCAL/MOL
REMARK 924 INTRA-LIGAND FREE ENERGY PREDICTED BY IDOCK:   -1.19 KCAL/MOL
REMARK 927      BINDING AFFINITY PREDICTED BY RF-SCORE:    0.00 PKD
ROOT
HETATM    1  C   UNL     1     -13.389  12.557  71.907  1.00  0.00    -0.467 C  
HETATM    2  C   UNL     1     -12.292  12.545  70.859  1.00  0.00    -0.349 C  
ENDROOT
BRANCH   2   3
HETATM    3  C   UNL     1     -12.379  13.768  69.947  1.00  0.00    -0.334 C  
BRANCH   3   4
HETATM    4  C   UNL     1     -11.180  13.810  69.007  1.00  0.00    -0.313 C  
BRANCH   4   5
HETATM    5  C   UNL     1     -11.456  14.653  67.765  1.00  0.00    -0.359 C  
BRANCH   5   6
HETATM    6  C   UNL     1     -11.742  13.730  66.582  1.00  0.00    -0.421 C  
BRANCH   6   7
HETATM    7  C   UNL     1     -11.144  12.338  66.792  1.00  0.00    -0.296 C  
BRANCH   7   8
HETATM    8  N   UNL     1      -9.754  12.222  66.314  1.00  0.00    -0.240 NA 
BRANCH   8   9
HETATM    9  C   UNL     1      -8.753  12.121  67.390  1.00  0.00    -0.177 C  
HETATM   10  C   UNL     1      -7.667  13.194  67.409  1.00  0.00    -0.151 C  
ENDBRANCH   8   9
BRANCH   8  11
HETATM   11  C   UNL     1      -9.595  11.137  65.329  1.00  0.00    -0.230 C  
BRANCH  11  12
HETATM   12  C   UNL     1      -8.623  10.026  65.755  1.00  0.00    -0.156 C  
BRANCH  12  13
HETATM   13  C   UNL     1      -8.911   8.693  65.055  1.00  0.00    -0.060 C  
BRANCH  13  14
HETATM   14  C   UNL     1      -8.175   7.519  65.714  1.00  0.00    -0.137 C  
HETATM   15  H   UNL     1      -6.311   7.001  66.080  1.00  0.00     0.000 HD 
HETATM   16  O   UNL     1      -6.767   7.728  65.672  1.00  0.00    -0.045 OA 
BRANCH  14  17
HETATM   17  C   UNL     1      -8.626   7.309  67.147  1.00  0.00    -0.121 A  
HETATM   18  C   UNL     1      -9.977   7.478  67.484  1.00  0.00    -0.228 A  
HETATM   19  C   UNL     1     -10.404   7.365  68.809  1.00  0.00    -0.209 A  
HETATM   20  C   UNL     1      -9.482   7.085  69.814  1.00  0.00    -0.145 A  
HETATM   21  C   UNL     1      -7.718   6.978  68.170  1.00  0.00    -0.113 A  
HETATM   22  C   UNL     1      -8.144   6.863  69.496  1.00  0.00    -0.130 A  
BRANCH  20  23
HETATM   23  N   UNL     1      -9.925   7.020  71.165  1.00  0.00    -0.184 N  
HETATM   24  H   UNL     1     -10.077   6.123  71.627  1.00  0.00     0.000 HD 
BRANCH  23  25
HETATM   25  S   UNL     1     -10.191   8.475  71.979  1.00  0.00    -0.335 S  
HETATM   26  C   UNL     1      -9.494   8.114  73.577  1.00  0.00    -0.073 C  
HETATM   27  O   UNL     1     -11.626   8.569  72.141  1.00  0.00    -0.332 OA 
HETATM   28  O   UNL     1      -9.437   9.541  71.357  1.00  0.00    -0.224 OA 
ENDBRANCH  23  25
ENDBRANCH  20  23
ENDBRANCH  14  17
ENDBRANCH  13  14
ENDBRANCH  12  13
ENDBRANCH  11  12
ENDBRANCH   8  11
ENDBRANCH   7   8
ENDBRANCH   6   7
ENDBRANCH   5   6
ENDBRANCH   4   5
ENDBRANCH   3   4
ENDBRANCH   2   3
TORSDOF 14
ENDMDL
MODEL      275
REMARK 921   NORMALIZED FREE ENERGY PREDICTED BY IDOCK:   -2.81 KCAL/MOL
REMARK 922        TOTAL FREE ENERGY PREDICTED BY IDOCK:   -6.96 KCAL/MOL
REMARK 923 INTER-LIGAND FREE ENERGY PREDICTED BY IDOCK:   -5.67 KCAL/MOL
REMARK 924 INTRA-LIGAND FREE ENERGY PREDICTED BY IDOCK:   -1.29 KCAL/MOL
REMARK 927      BINDING AFFINITY PREDICTED BY RF-SCORE:    0.00 PKD
ROOT
HETATM    1  C   UNL     1      -7.559  14.376  68.979  1.00  0.00    -0.106 C  
HETATM    2  C   UNL     1      -7.962  15.815  69.245  1.00  0.00    -0.239 C  
ENDROOT
BRANCH   2   3
HETATM    3  C   UNL     1      -7.229  16.780  68.315  1.00  0.00    -0.173 C  
BRANCH   3   4
HETATM    4  C   UNL     1      -8.140  17.940  67.935  1.00  0.00    -0.244 C  
BRANCH   4   5
HETATM    5  C   UNL     1      -8.734  17.768  66.540  1.00  0.00    -0.281 C  
BRANCH   5   6
HETATM    6  C   UNL     1     -10.178  17.288  66.661  1.00  0.00    -0.319 C  
BRANCH   6   7
HETATM    7  C   UNL     1     -10.520  16.243  65.597  1.00  0.00    -0.368 C  
BRANCH   7   8
HETATM    8  N   UNL     1     -11.277  15.095  66.128  1.00  0.00    -0.313 NA 
BRANCH   8   9
HETATM    9  C   UNL     1     -11.896  14.250  65.092  1.00  0.00    -0.384 C  
HETATM   10  C   UNL     1     -10.946  13.612  64.081  1.00  0.00    -0.211 C  
ENDBRANCH   8   9
BRANCH   8  11
HETATM   11  C   UNL     1     -10.478  14.292  67.071  1.00  0.00    -0.271 C  
BRANCH  11  12
HETATM   12  C   UNL     1     -11.292  13.627  68.192  1.00  0.00    -0.321 C  
BRANCH  12  13
HETATM   13  C   UNL     1     -10.605  12.379  68.756  1.00  0.00    -0.213 C  
BRANCH  13  14
HETATM   14  C   UNL     1     -11.338  11.086  68.371  1.00  0.00    -0.295 C  
HETATM   15  H   UNL     1     -11.876  10.166  66.716  1.00  0.00     0.000 HD 
HETATM   16  O   UNL     1     -11.422  10.966  66.954  1.00  0.00    -0.342 OA 
BRANCH  14  17
HETATM   17  C   UNL     1     -10.659   9.862  68.956  1.00  0.00    -0.240 A  
HETATM   18  C   UNL     1      -9.411   9.456  68.461  1.00  0.00    -0.139 A  
HETATM   19  C   UNL     1      -8.801   8.291  68.931  1.00  0.00    -0.140 A  
HETATM   20  C   UNL     1      -9.435   7.515  69.898  1.00  0.00    -0.160 A  
HETATM   21  C   UNL     1     -11.261   9.092  69.968  1.00  0.00    -0.168 A  
HETATM   22  C   UNL     1     -10.650   7.927  70.439  1.00  0.00    -0.228 A  
BRANCH  20  23
HETATM   23  N   UNL     1      -8.822   6.305  70.331  1.00  0.00    -0.146 N  
HETATM   24  H   UNL     1      -8.468   6.205  71.283  1.00  0.00     0.000 HD 
BRANCH  23  25
HETATM   25  S   UNL     1      -8.700   5.041  69.219  1.00  0.00    -0.092 S  
HETATM   26  C   UNL     1      -8.706   3.625  70.298  1.00  0.00    -0.073 C  
HETATM   27  O   UNL     1      -7.373   5.153  68.654  1.00  0.00    -0.064 OA 
HETATM   28  O   UNL     1      -9.872   5.004  68.373  1.00  0.00    -0.144 OA 
ENDBRANCH  23  25
ENDBRANCH  20  23
ENDBRANCH  14  17
ENDBRANCH  13  14
ENDBRANCH  12  13
ENDBRANCH  11  12
ENDBRANCH   8  11
ENDBRANCH   7   8
ENDBRANCH   6   7
ENDBRANCH   5   6
ENDBRANCH   4   5
ENDBRANCH   3   4
ENDBRANCH   2   3
TORSDOF 14
ENDMDL
MODEL      276
REMARK 921   NORMALIZED FREE ENERGY PREDICTED BY IDOCK:   -2.80 KCAL/MOL
REMARK 922        TOTAL FREE ENERGY PREDICTED BY IDOCK:   -6.94 KCAL/MOL
REMARK 923 INTER-LIGAND FREE ENERGY PREDICTED BY IDOCK:   -6.48 KCAL/MOL
REMARK 924 INTRA-LIGAND FREE ENERGY PREDICTED BY IDOCK:   -0.46 KCAL/MOL
REMARK 927      BINDING AFFINITY PREDICTED BY RF-SCORE:    0.00 PKD
ROOT
HETATM    1  C   UNL     1     -12.792  15.692  73.833  1.00  0.00    -0.655 C  
HETATM    2  C   UNL     1     -13.179  14.533  72.934  1.00  0.00    -0.612 C  
ENDROOT
BRANCH   2   3
HETATM    3  C   UNL     1     -13.905  15.018  71.681  1.00  0.00    -0.571 C  
BRANCH   3   4
HETATM    4  C   UNL     1     -12.905  15.581  70.678  1.00  0.00    -0.466 C  
BRANCH   4   5
HETATM    5  C   UNL     1     -11.742  14.624  70.431  1.00  0.00    -0.355 C  
BRANCH   5   6
HETATM    6  C   UNL     1     -12.124  13.639  69.328  1.00  0.00    -0.360 C  
BRANCH   6   7
HETATM    7  C   UNL     1     -10.898  12.918  68.763  1.00  0.00    -0.242 C  
BRANCH   7   8
HETATM    8  N   UNL     1     -11.172  12.200  67.505  1.00  0.00    -0.277 NA 
BRANCH   8   9
HETATM    9  C   UNL     1     -11.962  12.974  66.530  1.00  0.00    -0.391 C  
HETATM   10  C   UNL     1     -11.200  14.019  65.718  1.00  0.00    -0.303 C  
ENDBRANCH   8   9
BRANCH   8  11
HETATM   11  C   UNL     1      -9.943  11.662  66.895  1.00  0.00    -0.202 C  
BRANCH  11  12
HETATM   12  C   UNL     1     -10.115  10.293  66.216  1.00  0.00    -0.300 C  
BRANCH  12  13
HETATM   13  C   UNL     1      -9.726  10.320  64.734  1.00  0.00    -0.397 C  
BRANCH  13  14
HETATM   14  C   UNL     1      -8.227  10.068  64.521  1.00  0.00    -0.164 C  
HETATM   15  H   UNL     1      -6.560  10.309  65.542  1.00  0.00     0.000 HD 
HETATM   16  O   UNL     1      -7.488  10.464  65.673  1.00  0.00    -0.144 OA 
BRANCH  14  17
HETATM   17  C   UNL     1      -7.943   8.613  64.199  1.00  0.00    -0.149 A  
HETATM   18  C   UNL     1      -8.277   8.103  62.935  1.00  0.00    -0.120 A  
HETATM   19  C   UNL     1      -8.095   6.750  62.640  1.00  0.00    -0.059 A  
HETATM   20  C   UNL     1      -7.582   5.890  63.607  1.00  0.00    -0.082 A  
HETATM   21  C   UNL     1      -7.379   7.739  65.146  1.00  0.00    -0.071 A  
HETATM   22  C   UNL     1      -7.196   6.386  64.851  1.00  0.00    -0.067 A  
BRANCH  20  23
HETATM   23  N   UNL     1      -7.447   4.506  63.307  1.00  0.00    -0.053 N  
HETATM   24  H   UNL     1      -6.646   4.156  62.780  1.00  0.00     0.000 HD 
BRANCH  23  25
HETATM   25  S   UNL     1      -8.656   3.460  63.849  1.00  0.00    -0.090 S  
HETATM   26  C   UNL     1      -9.940   3.759  62.652  1.00  0.00    -0.143 C  
HETATM   27  O   UNL     1      -9.102   4.008  65.111  1.00  0.00    -0.126 OA 
HETATM   28  O   UNL     1      -8.214   2.087  63.744  1.00  0.00    -0.078 OA 
ENDBRANCH  23  25
ENDBRANCH  20  23
ENDBRANCH  14  17
ENDBRANCH  13  14
ENDBRANCH  12  13
ENDBRANCH  11  12
ENDBRANCH   8  11
ENDBRANCH   7   8
ENDBRANCH   6   7
ENDBRANCH   5   6
ENDBRANCH   4   5
ENDBRANCH   3   4
ENDBRANCH   2   3
TORSDOF 14
ENDMDL
MODEL      277
REMARK 921   NORMALIZED FREE ENERGY PREDICTED BY IDOCK:   -2.80 KCAL/MOL
REMARK 922        TOTAL FREE ENERGY PREDICTED BY IDOCK:   -6.94 KCAL/MOL
REMARK 923 INTER-LIGAND FREE ENERGY PREDICTED BY IDOCK:   -5.78 KCAL/MOL
REMARK 924 INTRA-LIGAND FREE ENERGY PREDICTED BY IDOCK:   -1.15 KCAL/MOL
REMARK 927      BINDING AFFINITY PREDICTED BY RF-SCORE:    0.00 PKD
ROOT
HETATM    1  C   UNL     1     -10.719  16.079  67.059  1.00  0.00    -0.277 C  
HETATM    2  C   UNL     1     -11.616  15.017  67.667  1.00  0.00    -0.327 C  
ENDROOT
BRANCH   2   3
HETATM    3  C   UNL     1     -12.245  14.136  66.590  1.00  0.00    -0.450 C  
BRANCH   3   4
HETATM    4  C   UNL     1     -11.664  14.479  65.224  1.00  0.00    -0.361 C  
BRANCH   4   5
HETATM    5  C   UNL     1     -10.703  13.403  64.724  1.00  0.00    -0.403 C  
BRANCH   5   6
HETATM    6  C   UNL     1     -10.097  12.673  65.920  1.00  0.00    -0.276 C  
BRANCH   6   7
HETATM    7  C   UNL     1      -9.631  11.264  65.547  1.00  0.00    -0.228 C  
BRANCH   7   8
HETATM    8  N   UNL     1      -9.825  10.280  66.628  1.00  0.00    -0.196 NA 
BRANCH   8   9
HETATM    9  C   UNL     1     -10.998  10.544  67.479  1.00  0.00    -0.303 C  
HETATM   10  C   UNL     1     -10.796  10.376  68.983  1.00  0.00    -0.273 C  
ENDBRANCH   8   9
BRANCH   8  11
HETATM   11  C   UNL     1      -9.827   8.895  66.123  1.00  0.00    -0.256 C  
BRANCH  11  12
HETATM   12  C   UNL     1      -8.534   8.475  65.408  1.00  0.00    -0.190 C  
BRANCH  12  13
HETATM   13  C   UNL     1      -7.335   8.393  66.360  1.00  0.00    -0.083 C  
BRANCH  13  14
HETATM   14  C   UNL     1      -7.109   6.970  66.890  1.00  0.00    -0.075 C  
HETATM   15  H   UNL     1      -5.592   5.736  67.119  1.00  0.00     0.000 HD 
HETATM   16  O   UNL     1      -5.732   6.617  66.791  1.00  0.00    -0.013 OA 
BRANCH  14  17
HETATM   17  C   UNL     1      -7.580   6.825  68.324  1.00  0.00    -0.107 A  
HETATM   18  C   UNL     1      -7.859   5.551  68.840  1.00  0.00    -0.095 A  
HETATM   19  C   UNL     1      -8.365   5.398  70.132  1.00  0.00    -0.114 A  
HETATM   20  C   UNL     1      -8.602   6.519  70.924  1.00  0.00    -0.135 A  
HETATM   21  C   UNL     1      -7.779   7.942  69.157  1.00  0.00    -0.100 A  
HETATM   22  C   UNL     1      -8.284   7.790  70.451  1.00  0.00    -0.121 A  
BRANCH  20  23
HETATM   23  N   UNL     1      -9.162   6.348  72.221  1.00  0.00    -0.140 N  
HETATM   24  H   UNL     1      -8.573   6.134  73.026  1.00  0.00     0.000 HD 
BRANCH  23  25
HETATM   25  S   UNL     1     -10.834   6.512  72.385  1.00  0.00    -0.244 S  
HETATM   26  C   UNL     1     -11.258   4.982  73.190  1.00  0.00    -0.335 C  
HETATM   27  O   UNL     1     -11.361   6.457  71.039  1.00  0.00    -0.298 OA 
HETATM   28  O   UNL     1     -11.144   7.618  73.265  1.00  0.00    -0.382 OA 
ENDBRANCH  23  25
ENDBRANCH  20  23
ENDBRANCH  14  17
ENDBRANCH  13  14
ENDBRANCH  12  13
ENDBRANCH  11  12
ENDBRANCH   8  11
ENDBRANCH   7   8
ENDBRANCH   6   7
ENDBRANCH   5   6
ENDBRANCH   4   5
ENDBRANCH   3   4
ENDBRANCH   2   3
TORSDOF 14
ENDMDL
MODEL      278
REMARK 921   NORMALIZED FREE ENERGY PREDICTED BY IDOCK:   -2.79 KCAL/MOL
REMARK 922        TOTAL FREE ENERGY PREDICTED BY IDOCK:   -6.93 KCAL/MOL
REMARK 923 INTER-LIGAND FREE ENERGY PREDICTED BY IDOCK:   -6.12 KCAL/MOL
REMARK 924 INTRA-LIGAND FREE ENERGY PREDICTED BY IDOCK:   -0.81 KCAL/MOL
REMARK 927      BINDING AFFINITY PREDICTED BY RF-SCORE:    0.00 PKD
ROOT
HETATM    1  C   UNL     1      -5.315  11.923  70.758  1.00  0.00    -0.149 C  
HETATM    2  C   UNL     1      -6.281  12.318  69.656  1.00  0.00    -0.131 C  
ENDROOT
BRANCH   2   3
HETATM    3  C   UNL     1      -5.943  11.616  68.342  1.00  0.00    -0.049 C  
BRANCH   3   4
HETATM    4  C   UNL     1      -7.191  10.965  67.758  1.00  0.00    -0.091 C  
BRANCH   4   5
HETATM    5  C   UNL     1      -8.128  10.445  68.845  1.00  0.00    -0.129 C  
BRANCH   5   6
HETATM    6  C   UNL     1      -9.557  10.882  68.531  1.00  0.00    -0.187 C  
BRANCH   6   7
HETATM    7  C   UNL     1     -10.579  10.143  69.398  1.00  0.00    -0.237 C  
BRANCH   7   8
HETATM    8  N   UNL     1     -11.786  10.940  69.685  1.00  0.00    -0.302 NA 
BRANCH   8   9
HETATM    9  C   UNL     1     -12.748  10.276  70.581  1.00  0.00    -0.300 C  
HETATM   10  C   UNL     1     -12.156   9.461  71.728  1.00  0.00    -0.454 C  
ENDBRANCH   8   9
BRANCH   8  11
HETATM   11  C   UNL     1     -11.454  12.295  70.162  1.00  0.00     0.049 C  
BRANCH  11  12
HETATM   12  C   UNL     1     -11.344  13.353  69.053  1.00  0.00    -0.335 C  
BRANCH  12  13
HETATM   13  C   UNL     1     -12.405  13.172  67.961  1.00  0.00     0.117 C  
BRANCH  13  14
HETATM   14  C   UNL     1     -12.141  14.064  66.740  1.00  0.00    -0.447 C  
HETATM   15  H   UNL     1     -11.205  15.754  66.358  1.00  0.00     0.000 HD 
HETATM   16  O   UNL     1     -11.369  15.202  67.114  1.00  0.00    -0.338 OA 
BRANCH  14  17
HETATM   17  C   UNL     1     -11.438  13.303  65.632  1.00  0.00    -0.342 A  
HETATM   18  C   UNL     1     -12.189  12.750  64.583  1.00  0.00    -0.510 A  
HETATM   19  C   UNL     1     -11.574  11.981  63.592  1.00  0.00    -0.578 A  
HETATM   20  C   UNL     1     -10.202  11.753  63.641  1.00  0.00    -0.428 A  
HETATM   21  C   UNL     1     -10.045  13.103  65.636  1.00  0.00    -0.279 A  
HETATM   22  C   UNL     1      -9.430  12.335  64.644  1.00  0.00     0.217 A  
BRANCH  20  23
HETATM   23  N   UNL     1      -9.598  10.928  62.650  1.00  0.00    -0.524 N  
HETATM   24  H   UNL     1      -9.787  11.073  61.658  1.00  0.00     0.000 HD 
BRANCH  23  25
HETATM   25  S   UNL     1      -8.560   9.703  63.169  1.00  0.00    -0.224 S  
HETATM   26  C   UNL     1      -9.213   9.355  64.789  1.00  0.00    -0.156 C  
HETATM   27  O   UNL     1      -7.273  10.338  63.346  1.00  0.00    -0.136 OA 
HETATM   28  O   UNL     1      -8.709   8.533  62.331  1.00  0.00    -0.179 OA 
ENDBRANCH  23  25
ENDBRANCH  20  23
ENDBRANCH  14  17
ENDBRANCH  13  14
ENDBRANCH  12  13
ENDBRANCH  11  12
ENDBRANCH   8  11
ENDBRANCH   7   8
ENDBRANCH   6   7
ENDBRANCH   5   6
ENDBRANCH   4   5
ENDBRANCH   3   4
ENDBRANCH   2   3
TORSDOF 14
ENDMDL
MODEL      279
REMARK 921   NORMALIZED FREE ENERGY PREDICTED BY IDOCK:   -2.79 KCAL/MOL
REMARK 922        TOTAL FREE ENERGY PREDICTED BY IDOCK:   -6.93 KCAL/MOL
REMARK 923 INTER-LIGAND FREE ENERGY PREDICTED BY IDOCK:   -5.88 KCAL/MOL
REMARK 924 INTRA-LIGAND FREE ENERGY PREDICTED BY IDOCK:   -1.05 KCAL/MOL
REMARK 927      BINDING AFFINITY PREDICTED BY RF-SCORE:    0.00 PKD
ROOT
HETATM    1  C   UNL     1     -12.449  11.997  63.419  1.00  0.00    -0.625 C  
HETATM    2  C   UNL     1     -11.394  12.031  64.509  1.00  0.00    -0.393 C  
ENDROOT
BRANCH   2   3
HETATM    3  C   UNL     1     -10.369  13.135  64.256  1.00  0.00    -0.361 C  
BRANCH   3   4
HETATM    4  C   UNL     1     -10.686  14.354  65.113  1.00  0.00    -0.413 C  
BRANCH   4   5
HETATM    5  C   UNL     1      -9.902  14.353  66.423  1.00  0.00    -0.309 C  
BRANCH   5   6
HETATM    6  C   UNL     1     -10.771  14.942  67.532  1.00  0.00    -0.276 C  
BRANCH   6   7
HETATM    7  C   UNL     1     -10.402  14.372  68.904  1.00  0.00    -0.231 C  
BRANCH   7   8
HETATM    8  N   UNL     1     -11.466  13.539  69.494  1.00  0.00    -0.272 NA 
BRANCH   8   9
HETATM    9  C   UNL     1     -12.483  14.301  70.242  1.00  0.00    -0.361 C  
HETATM   10  C   UNL     1     -12.616  13.975  71.727  1.00  0.00    -0.376 C  
ENDBRANCH   8   9
BRANCH   8  11
HETATM   11  C   UNL     1     -12.088  12.647  68.499  1.00  0.00    -0.085 C  
BRANCH  11  12
HETATM   12  C   UNL     1     -11.804  11.152  68.718  1.00  0.00    -0.388 C  
BRANCH  12  13
HETATM   13  C   UNL     1     -10.749  10.606  67.750  1.00  0.00    -0.302 C  
BRANCH  13  14
HETATM   14  C   UNL     1      -9.496  10.102  68.478  1.00  0.00    -0.158 C  
HETATM   15  H   UNL     1      -8.851   9.982  70.335  1.00  0.00     0.000 HD 
HETATM   16  O   UNL     1      -9.627  10.295  69.884  1.00  0.00    -0.176 OA 
BRANCH  14  17
HETATM   17  C   UNL     1      -9.225   8.639  68.178  1.00  0.00    -0.142 A  
HETATM   18  C   UNL     1      -8.165   8.288  67.329  1.00  0.00    -0.120 A  
HETATM   19  C   UNL     1      -7.941   6.955  66.979  1.00  0.00    -0.116 A  
HETATM   20  C   UNL     1      -8.779   5.957  67.471  1.00  0.00    -0.104 A  
HETATM   21  C   UNL     1     -10.030   7.612  68.705  1.00  0.00    -0.181 A  
HETATM   22  C   UNL     1      -9.806   6.278  68.355  1.00  0.00    -0.141 A  
BRANCH  20  23
HETATM   23  N   UNL     1      -8.567   4.609  67.066  1.00  0.00    -0.105 N  
HETATM   24  H   UNL     1      -8.722   4.318  66.100  1.00  0.00     0.000 HD 
BRANCH  23  25
HETATM   25  S   UNL     1      -8.051   3.506  68.235  1.00  0.00    -0.074 S  
HETATM   26  C   UNL     1      -6.334   3.950  68.399  1.00  0.00    -0.036 C  
HETATM   27  O   UNL     1      -8.107   2.211  67.594  1.00  0.00    -0.063 OA 
HETATM   28  O   UNL     1      -8.731   3.751  69.488  1.00  0.00    -0.070 OA 
ENDBRANCH  23  25
ENDBRANCH  20  23
ENDBRANCH  14  17
ENDBRANCH  13  14
ENDBRANCH  12  13
ENDBRANCH  11  12
ENDBRANCH   8  11
ENDBRANCH   7   8
ENDBRANCH   6   7
ENDBRANCH   5   6
ENDBRANCH   4   5
ENDBRANCH   3   4
ENDBRANCH   2   3
TORSDOF 14
ENDMDL
MODEL      280
REMARK 921   NORMALIZED FREE ENERGY PREDICTED BY IDOCK:   -2.79 KCAL/MOL
REMARK 922        TOTAL FREE ENERGY PREDICTED BY IDOCK:   -6.92 KCAL/MOL
REMARK 923 INTER-LIGAND FREE ENERGY PREDICTED BY IDOCK:   -5.97 KCAL/MOL
REMARK 924 INTRA-LIGAND FREE ENERGY PREDICTED BY IDOCK:   -0.95 KCAL/MOL
REMARK 927      BINDING AFFINITY PREDICTED BY RF-SCORE:    0.00 PKD
ROOT
HETATM    1  C   UNL     1      -9.146   7.068  71.504  1.00  0.00    -0.139 C  
HETATM    2  C   UNL     1      -8.269   8.275  71.779  1.00  0.00    -0.186 C  
ENDROOT
BRANCH   2   3
HETATM    3  C   UNL     1      -8.485   9.371  70.737  1.00  0.00    -0.188 C  
BRANCH   3   4
HETATM    4  C   UNL     1      -7.188   9.646  69.986  1.00  0.00    -0.119 C  
BRANCH   4   5
HETATM    5  C   UNL     1      -6.522   8.361  69.502  1.00  0.00    -0.040 C  
BRANCH   5   6
HETATM    6  C   UNL     1      -6.935   8.090  68.057  1.00  0.00    -0.074 C  
BRANCH   6   7
HETATM    7  C   UNL     1      -7.041   9.384  67.247  1.00  0.00    -0.086 C  
BRANCH   7   8
HETATM    8  N   UNL     1      -8.177   9.392  66.307  1.00  0.00    -0.110 NA 
BRANCH   8   9
HETATM    9  C   UNL     1      -7.805   9.113  64.909  1.00  0.00    -0.117 C  
HETATM   10  C   UNL     1      -8.887   9.349  63.859  1.00  0.00    -0.205 C  
ENDBRANCH   8   9
BRANCH   8  11
HETATM   11  C   UNL     1      -9.274   8.516  66.756  1.00  0.00    -0.172 C  
BRANCH  11  12
HETATM   12  C   UNL     1     -10.649   9.199  66.822  1.00  0.00    -0.207 C  
BRANCH  12  13
HETATM   13  C   UNL     1     -10.544  10.727  66.871  1.00  0.00    -0.312 C  
BRANCH  13  14
HETATM   14  C   UNL     1     -11.652  11.359  67.725  1.00  0.00    -0.251 C  
HETATM   15  H   UNL     1     -12.389  11.134  69.537  1.00  0.00     0.000 HD 
HETATM   16  O   UNL     1     -11.703  10.743  69.008  1.00  0.00    -0.295 OA 
BRANCH  14  17
HETATM   17  C   UNL     1     -11.458  12.856  67.876  1.00  0.00    -0.362 A  
HETATM   18  C   UNL     1     -11.752  13.708  66.801  1.00  0.00    -0.426 A  
HETATM   19  C   UNL     1     -11.511  15.081  66.890  1.00  0.00    -0.266 A  
HETATM   20  C   UNL     1     -10.967  15.617  68.055  1.00  0.00    -0.318 A  
HETATM   21  C   UNL     1     -10.956  13.423  69.062  1.00  0.00    -0.265 A  
HETATM   22  C   UNL     1     -10.715  14.797  69.152  1.00  0.00    -0.258 A  
BRANCH  20  23
HETATM   23  N   UNL     1     -10.682  17.010  68.112  1.00  0.00    -0.371 N  
HETATM   24  H   UNL     1     -11.131  17.612  68.803  1.00  0.00     0.000 HD 
BRANCH  23  25
HETATM   25  S   UNL     1      -9.577  17.636  67.000  1.00  0.00    -0.287 S  
HETATM   26  C   UNL     1     -10.638  18.641  65.982  1.00  0.00    -0.365 C  
HETATM   27  O   UNL     1      -9.152  16.506  66.203  1.00  0.00    -0.294 OA 
HETATM   28  O   UNL     1      -8.616  18.482  67.672  1.00  0.00    -0.260 OA 
ENDBRANCH  23  25
ENDBRANCH  20  23
ENDBRANCH  14  17
ENDBRANCH  13  14
ENDBRANCH  12  13
ENDBRANCH  11  12
ENDBRANCH   8  11
ENDBRANCH   7   8
ENDBRANCH   6   7
ENDBRANCH   5   6
ENDBRANCH   4   5
ENDBRANCH   3   4
ENDBRANCH   2   3
TORSDOF 14
ENDMDL
MODEL      281
REMARK 921   NORMALIZED FREE ENERGY PREDICTED BY IDOCK:   -2.77 KCAL/MOL
REMARK 922        TOTAL FREE ENERGY PREDICTED BY IDOCK:   -6.89 KCAL/MOL
REMARK 923 INTER-LIGAND FREE ENERGY PREDICTED BY IDOCK:   -5.77 KCAL/MOL
REMARK 924 INTRA-LIGAND FREE ENERGY PREDICTED BY IDOCK:   -1.12 KCAL/MOL
REMARK 927      BINDING AFFINITY PREDICTED BY RF-SCORE:    0.00 PKD
ROOT
HETATM    1  C   UNL     1      -5.222   8.308  68.781  1.00  0.00    -0.028 C  
HETATM    2  C   UNL     1      -6.284   8.484  69.850  1.00  0.00    -0.031 C  
ENDROOT
BRANCH   2   3
HETATM    3  C   UNL     1      -7.312   7.355  69.805  1.00  0.00    -0.083 C  
BRANCH   3   4
HETATM    4  C   UNL     1      -8.394   7.669  68.779  1.00  0.00    -0.129 C  
BRANCH   4   5
HETATM    5  C   UNL     1      -8.435   6.635  67.656  1.00  0.00    -0.121 C  
BRANCH   5   6
HETATM    6  C   UNL     1      -8.038   7.302  66.341  1.00  0.00    -0.119 C  
BRANCH   6   7
HETATM    7  C   UNL     1      -8.045   8.828  66.455  1.00  0.00    -0.103 C  
BRANCH   7   8
HETATM    8  N   UNL     1      -7.764   9.509  65.178  1.00  0.00    -0.108 NA 
BRANCH   8   9
HETATM    9  C   UNL     1      -6.818   8.791  64.307  1.00  0.00    -0.078 C  
HETATM   10  C   UNL     1      -7.305   8.470  62.896  1.00  0.00    -0.098 C  
ENDBRANCH   8   9
BRANCH   8  11
HETATM   11  C   UNL     1      -8.999   9.861  64.454  1.00  0.00    -0.239 C  
BRANCH  11  12
HETATM   12  C   UNL     1     -10.119  10.427  65.341  1.00  0.00    -0.354 C  
BRANCH  12  13
HETATM   13  C   UNL     1      -9.791  11.824  65.881  1.00  0.00    -0.265 C  
BRANCH  13  14
HETATM   14  C   UNL     1     -10.943  12.816  65.668  1.00  0.00    -0.273 C  
HETATM   15  H   UNL     1     -12.752  13.108  66.389  1.00  0.00     0.000 HD 
HETATM   16  O   UNL     1     -12.039  12.494  66.520  1.00  0.00    -0.572 OA 
BRANCH  14  17
HETATM   17  C   UNL     1     -10.502  14.247  65.909  1.00  0.00    -0.315 A  
HETATM   18  C   UNL     1     -11.052  15.284  65.141  1.00  0.00    -0.412 A  
HETATM   19  C   UNL     1     -10.608  16.599  65.293  1.00  0.00    -0.224 A  
HETATM   20  C   UNL     1      -9.604  16.892  66.212  1.00  0.00    -0.276 A  
HETATM   21  C   UNL     1      -9.523  14.570  66.868  1.00  0.00    -0.263 A  
HETATM   22  C   UNL     1      -9.079  15.887  67.020  1.00  0.00    -0.236 A  
BRANCH  20  23
HETATM   23  N   UNL     1      -9.129  18.230  66.320  1.00  0.00    -0.241 N  
HETATM   24  H   UNL     1      -8.387  18.576  65.711  1.00  0.00     0.000 HD 
BRANCH  23  25
HETATM   25  S   UNL     1      -9.832  19.224  67.488  1.00  0.00    -0.360 S  
HETATM   26  C   UNL     1      -9.020  20.775  67.162  1.00  0.00    -0.145 C  
HETATM   27  O   UNL     1      -9.341  18.734  68.757  1.00  0.00    -0.338 OA 
HETATM   28  O   UNL     1     -11.250  19.364  67.238  1.00  0.00    -0.362 OA 
ENDBRANCH  23  25
ENDBRANCH  20  23
ENDBRANCH  14  17
ENDBRANCH  13  14
ENDBRANCH  12  13
ENDBRANCH  11  12
ENDBRANCH   8  11
ENDBRANCH   7   8
ENDBRANCH   6   7
ENDBRANCH   5   6
ENDBRANCH   4   5
ENDBRANCH   3   4
ENDBRANCH   2   3
TORSDOF 14
ENDMDL
MODEL      282
REMARK 921   NORMALIZED FREE ENERGY PREDICTED BY IDOCK:   -2.74 KCAL/MOL
REMARK 922        TOTAL FREE ENERGY PREDICTED BY IDOCK:   -6.83 KCAL/MOL
REMARK 923 INTER-LIGAND FREE ENERGY PREDICTED BY IDOCK:   -5.96 KCAL/MOL
REMARK 924 INTRA-LIGAND FREE ENERGY PREDICTED BY IDOCK:   -0.86 KCAL/MOL
REMARK 927      BINDING AFFINITY PREDICTED BY RF-SCORE:    0.00 PKD
ROOT
HETATM    1  C   UNL     1      -5.717  11.802  70.283  1.00  0.00    -0.155 C  
HETATM    2  C   UNL     1      -6.596  10.566  70.246  1.00  0.00    -0.138 C  
ENDROOT
BRANCH   2   3
HETATM    3  C   UNL     1      -6.153   9.535  71.282  1.00  0.00    -0.057 C  
BRANCH   3   4
HETATM    4  C   UNL     1      -6.632   8.145  70.881  1.00  0.00    -0.038 C  
BRANCH   4   5
HETATM    5  C   UNL     1      -7.353   8.155  69.536  1.00  0.00    -0.081 C  
BRANCH   5   6
HETATM    6  C   UNL     1      -7.697   6.722  69.137  1.00  0.00    -0.106 C  
BRANCH   6   7
HETATM    7  C   UNL     1      -8.914   6.668  68.210  1.00  0.00    -0.122 C  
BRANCH   7   8
HETATM    8  N   UNL     1      -8.909   7.723  67.180  1.00  0.00    -0.123 NA 
BRANCH   8   9
HETATM    9  C   UNL     1      -8.628   7.234  65.818  1.00  0.00    -0.131 C  
HETATM   10  C   UNL     1      -7.606   8.030  65.010  1.00  0.00    -0.104 C  
ENDBRANCH   8   9
BRANCH   8  11
HETATM   11  C   UNL     1     -10.136   8.538  67.216  1.00  0.00    -0.251 C  
BRANCH  11  12
HETATM   12  C   UNL     1      -9.928   9.984  67.690  1.00  0.00    -0.214 C  
BRANCH  12  13
HETATM   13  C   UNL     1     -11.188  10.843  67.529  1.00  0.00    -0.364 C  
BRANCH  13  14
HETATM   14  C   UNL     1     -10.982  11.997  66.538  1.00  0.00    -0.295 C  
HETATM   15  H   UNL     1     -11.998  12.855  65.085  1.00  0.00     0.000 HD 
HETATM   16  O   UNL     1     -12.124  12.140  65.698  1.00  0.00    -0.545 OA 
BRANCH  14  17
HETATM   17  C   UNL     1     -10.698  13.305  67.253  1.00  0.00    -0.262 A  
HETATM   18  C   UNL     1     -11.736  13.973  67.921  1.00  0.00    -0.397 A  
HETATM   19  C   UNL     1     -11.516  15.214  68.522  1.00  0.00    -0.335 A  
HETATM   20  C   UNL     1     -10.257  15.804  68.459  1.00  0.00    -0.216 A  
HETATM   21  C   UNL     1      -9.420  13.894  67.243  1.00  0.00    -0.239 A  
HETATM   22  C   UNL     1      -9.200  15.135  67.846  1.00  0.00    -0.184 A  
BRANCH  20  23
HETATM   23  N   UNL     1     -10.062  17.091  69.036  1.00  0.00    -0.292 N  
HETATM   24  H   UNL     1     -10.256  17.261  70.023  1.00  0.00     0.000 HD 
BRANCH  23  25
HETATM   25  S   UNL     1      -9.499  18.327  68.033  1.00  0.00    -0.300 S  
HETATM   26  C   UNL     1     -10.256  17.891  66.482  1.00  0.00    -0.379 C  
HETATM   27  O   UNL     1      -8.076  18.099  67.903  1.00  0.00    -0.238 OA 
HETATM   28  O   UNL     1     -10.014  19.604  68.476  1.00  0.00    -0.400 OA 
ENDBRANCH  23  25
ENDBRANCH  20  23
ENDBRANCH  14  17
ENDBRANCH  13  14
ENDBRANCH  12  13
ENDBRANCH  11  12
ENDBRANCH   8  11
ENDBRANCH   7   8
ENDBRANCH   6   7
ENDBRANCH   5   6
ENDBRANCH   4   5
ENDBRANCH   3   4
ENDBRANCH   2   3
TORSDOF 14
ENDMDL
MODEL      283
REMARK 921   NORMALIZED FREE ENERGY PREDICTED BY IDOCK:   -2.73 KCAL/MOL
REMARK 922        TOTAL FREE ENERGY PREDICTED BY IDOCK:   -6.81 KCAL/MOL
REMARK 923 INTER-LIGAND FREE ENERGY PREDICTED BY IDOCK:   -5.02 KCAL/MOL
REMARK 924 INTRA-LIGAND FREE ENERGY PREDICTED BY IDOCK:   -1.79 KCAL/MOL
REMARK 927      BINDING AFFINITY PREDICTED BY RF-SCORE:    0.00 PKD
ROOT
HETATM    1  C   UNL     1      -9.178   6.255  66.287  1.00  0.00    -0.165 C  
HETATM    2  C   UNL     1     -10.347   6.735  67.126  1.00  0.00    -0.327 C  
ENDROOT
BRANCH   2   3
HETATM    3  C   UNL     1     -10.690   5.735  68.229  1.00  0.00    -0.285 C  
BRANCH   3   4
HETATM    4  C   UNL     1     -11.490   6.419  69.330  1.00  0.00    -0.374 C  
BRANCH   4   5
HETATM    5  C   UNL     1     -10.737   7.602  69.934  1.00  0.00    -0.253 C  
BRANCH   5   6
HETATM    6  C   UNL     1      -9.640   7.083  70.861  1.00  0.00    -0.167 C  
BRANCH   6   7
HETATM    7  C   UNL     1      -8.252   7.539  70.407  1.00  0.00    -0.123 C  
BRANCH   7   8
HETATM    8  N   UNL     1      -7.867   8.858  70.943  1.00  0.00    -0.120 NA 
BRANCH   8   9
HETATM    9  C   UNL     1      -6.848   8.802  72.006  1.00  0.00    -0.032 C  
HETATM   10  C   UNL     1      -5.937   7.577  72.008  1.00  0.00    -0.036 C  
ENDBRANCH   8   9
BRANCH   8  11
HETATM   11  C   UNL     1      -7.481   9.799  69.877  1.00  0.00    -0.141 C  
BRANCH  11  12
HETATM   12  C   UNL     1      -7.786   9.309  68.453  1.00  0.00    -0.090 C  
BRANCH  12  13
HETATM   13  C   UNL     1      -6.805   9.870  67.416  1.00  0.00    -0.082 C  
BRANCH  13  14
HETATM   14  C   UNL     1      -7.524  10.571  66.255  1.00  0.00    -0.133 C  
HETATM   15  H   UNL     1      -8.994  10.168  65.008  1.00  0.00     0.000 HD 
HETATM   16  O   UNL     1      -8.548   9.734  65.727  1.00  0.00    -0.129 OA 
BRANCH  14  17
HETATM   17  C   UNL     1      -8.112  11.902  66.683  1.00  0.00    -0.063 A  
HETATM   18  C   UNL     1      -7.303  12.842  67.339  1.00  0.00    -0.135 A  
HETATM   19  C   UNL     1      -7.839  14.043  67.809  1.00  0.00    -0.176 A  
HETATM   20  C   UNL     1      -9.193  14.316  67.633  1.00  0.00    -0.194 A  
HETATM   21  C   UNL     1      -9.467  12.218  66.470  1.00  0.00    -0.238 A  
HETATM   22  C   UNL     1     -10.003  13.420  66.939  1.00  0.00    -0.252 A  
BRANCH  20  23
HETATM   23  N   UNL     1      -9.733  15.523  68.160  1.00  0.00    -0.207 N  
HETATM   24  H   UNL     1     -10.198  15.539  69.068  1.00  0.00     0.000 HD 
BRANCH  23  25
HETATM   25  S   UNL     1      -9.579  16.926  67.235  1.00  0.00    -0.251 S  
HETATM   26  C   UNL     1      -8.318  17.802  68.136  1.00  0.00    -0.264 C  
HETATM   27  O   UNL     1     -10.822  17.644  67.415  1.00  0.00    -0.301 OA 
HETATM   28  O   UNL     1      -9.087  16.603  65.914  1.00  0.00    -0.480 OA 
ENDBRANCH  23  25
ENDBRANCH  20  23
ENDBRANCH  14  17
ENDBRANCH  13  14
ENDBRANCH  12  13
ENDBRANCH  11  12
ENDBRANCH   8  11
ENDBRANCH   7   8
ENDBRANCH   6   7
ENDBRANCH   5   6
ENDBRANCH   4   5
ENDBRANCH   3   4
ENDBRANCH   2   3
TORSDOF 14
ENDMDL
MODEL      284
REMARK 921   NORMALIZED FREE ENERGY PREDICTED BY IDOCK:   -2.71 KCAL/MOL
REMARK 922        TOTAL FREE ENERGY PREDICTED BY IDOCK:   -6.79 KCAL/MOL
REMARK 923 INTER-LIGAND FREE ENERGY PREDICTED BY IDOCK:   -5.57 KCAL/MOL
REMARK 924 INTRA-LIGAND FREE ENERGY PREDICTED BY IDOCK:   -1.22 KCAL/MOL
REMARK 927      BINDING AFFINITY PREDICTED BY RF-SCORE:    0.00 PKD
ROOT
HETATM    1  C   UNL     1      -5.304  15.304  68.669  1.00  0.00    -0.092 C  
HETATM    2  C   UNL     1      -5.989  16.519  68.073  1.00  0.00    -0.129 C  
ENDROOT
BRANCH   2   3
HETATM    3  C   UNL     1      -7.489  16.287  67.905  1.00  0.00    -0.142 C  
BRANCH   3   4
HETATM    4  C   UNL     1      -8.057  15.602  69.142  1.00  0.00    -0.238 C  
BRANCH   4   5
HETATM    5  C   UNL     1      -9.530  15.941  69.359  1.00  0.00    -0.248 C  
BRANCH   5   6
HETATM    6  C   UNL     1     -10.240  15.994  68.009  1.00  0.00    -0.245 C  
BRANCH   6   7
HETATM    7  C   UNL     1     -11.585  15.265  68.047  1.00  0.00    -0.312 C  
BRANCH   7   8
HETATM    8  N   UNL     1     -11.975  14.694  66.745  1.00  0.00    -0.338 NA 
BRANCH   8   9
HETATM    9  C   UNL     1     -11.024  14.974  65.654  1.00  0.00    -0.354 C  
HETATM   10  C   UNL     1      -9.951  13.917  65.403  1.00  0.00    -0.274 C  
ENDBRANCH   8   9
BRANCH   8  11
HETATM   11  C   UNL     1     -12.276  13.254  66.839  1.00  0.00    -0.257 C  
BRANCH  11  12
HETATM   12  C   UNL     1     -11.796  12.585  68.136  1.00  0.00    -0.371 C  
BRANCH  12  13
HETATM   13  C   UNL     1     -11.444  11.106  67.939  1.00  0.00    -0.359 C  
BRANCH  13  14
HETATM   14  C   UNL     1      -9.931  10.855  67.995  1.00  0.00    -0.171 C  
HETATM   15  H   UNL     1      -8.340  11.759  68.722  1.00  0.00     0.000 HD 
HETATM   16  O   UNL     1      -9.277  11.915  68.687  1.00  0.00    -0.160 OA 
BRANCH  14  17
HETATM   17  C   UNL     1      -9.607   9.527  68.653  1.00  0.00    -0.151 A  
HETATM   18  C   UNL     1      -9.350   9.479  70.031  1.00  0.00    -0.265 A  
HETATM   19  C   UNL     1      -8.977   8.282  70.647  1.00  0.00    -0.161 A  
HETATM   20  C   UNL     1      -8.852   7.120  69.890  1.00  0.00    -0.142 A  
HETATM   21  C   UNL     1      -9.525   8.333  67.914  1.00  0.00    -0.163 A  
HETATM   22  C   UNL     1      -9.152   7.135  68.530  1.00  0.00    -0.132 A  
BRANCH  20  23
HETATM   23  N   UNL     1      -8.424   5.919  70.523  1.00  0.00    -0.126 N  
HETATM   24  H   UNL     1      -7.439   5.754  70.728  1.00  0.00     0.000 HD 
BRANCH  23  25
HETATM   25  S   UNL     1      -9.601   4.778  70.926  1.00  0.00    -0.191 S  
HETATM   26  C   UNL     1      -8.781   3.873  72.222  1.00  0.00    -0.105 C  
HETATM   27  O   UNL     1      -9.697   3.903  69.778  1.00  0.00    -0.205 OA 
HETATM   28  O   UNL     1     -10.771   5.434  71.466  1.00  0.00    -0.239 OA 
ENDBRANCH  23  25
ENDBRANCH  20  23
ENDBRANCH  14  17
ENDBRANCH  13  14
ENDBRANCH  12  13
ENDBRANCH  11  12
ENDBRANCH   8  11
ENDBRANCH   7   8
ENDBRANCH   6   7
ENDBRANCH   5   6
ENDBRANCH   4   5
ENDBRANCH   3   4
ENDBRANCH   2   3
TORSDOF 14
ENDMDL
MODEL      285
REMARK 921   NORMALIZED FREE ENERGY PREDICTED BY IDOCK:   -2.71 KCAL/MOL
REMARK 922        TOTAL FREE ENERGY PREDICTED BY IDOCK:   -6.79 KCAL/MOL
REMARK 923 INTER-LIGAND FREE ENERGY PREDICTED BY IDOCK:   -5.34 KCAL/MOL
REMARK 924 INTRA-LIGAND FREE ENERGY PREDICTED BY IDOCK:   -1.44 KCAL/MOL
REMARK 927      BINDING AFFINITY PREDICTED BY RF-SCORE:    0.00 PKD
ROOT
HETATM    1  C   UNL     1     -12.372   6.982  71.721  1.00  0.00    -0.391 C  
HETATM    2  C   UNL     1     -11.215   6.496  70.868  1.00  0.00    -0.366 C  
ENDROOT
BRANCH   2   3
HETATM    3  C   UNL     1     -11.595   6.445  69.389  1.00  0.00    -0.238 C  
BRANCH   3   4
HETATM    4  C   UNL     1     -10.544   5.673  68.601  1.00  0.00    -0.268 C  
BRANCH   4   5
HETATM    5  C   UNL     1     -10.596   5.996  67.110  1.00  0.00    -0.374 C  
BRANCH   5   6
HETATM    6  C   UNL     1      -9.204   6.405  66.634  1.00  0.00    -0.167 C  
BRANCH   6   7
HETATM    7  C   UNL     1      -8.281   6.745  67.806  1.00  0.00    -0.120 C  
BRANCH   7   8
HETATM    8  N   UNL     1      -6.976   6.062  67.738  1.00  0.00    -0.067 NA 
BRANCH   8   9
HETATM    9  C   UNL     1      -6.798   5.221  66.541  1.00  0.00    -0.063 C  
HETATM   10  C   UNL     1      -6.065   3.898  66.745  1.00  0.00    -0.028 C  
ENDBRANCH   8   9
BRANCH   8  11
HETATM   11  C   UNL     1      -5.851   6.997  67.910  1.00  0.00    -0.025 C  
BRANCH  11  12
HETATM   12  C   UNL     1      -6.167   8.453  67.531  1.00  0.00    -0.053 C  
BRANCH  12  13
HETATM   13  C   UNL     1      -6.038   9.411  68.721  1.00  0.00    -0.043 C  
BRANCH  13  14
HETATM   14  C   UNL     1      -7.399   9.758  69.339  1.00  0.00    -0.087 C  
HETATM   15  H   UNL     1      -8.069  10.528  71.023  1.00  0.00     0.000 HD 
HETATM   16  O   UNL     1      -7.227  10.313  70.640  1.00  0.00    -0.306 OA 
BRANCH  14  17
HETATM   17  C   UNL     1      -8.183  10.719  68.465  1.00  0.00    -0.136 A  
HETATM   18  C   UNL     1      -9.435  10.337  67.961  1.00  0.00    -0.156 A  
HETATM   19  C   UNL     1     -10.142  11.174  67.094  1.00  0.00    -0.223 A  
HETATM   20  C   UNL     1      -9.600  12.400  66.716  1.00  0.00    -0.224 A  
HETATM   21  C   UNL     1      -7.675  11.983  68.111  1.00  0.00    -0.135 A  
HETATM   22  C   UNL     1      -8.382  12.820  67.244  1.00  0.00    -0.187 A  
BRANCH  20  23
HETATM   23  N   UNL     1     -10.311  13.219  65.794  1.00  0.00    -0.283 N  
HETATM   24  H   UNL     1     -10.183  13.113  64.788  1.00  0.00     0.000 HD 
BRANCH  23  25
HETATM   25  S   UNL     1     -11.372  14.373  66.420  1.00  0.00    -0.358 S  
HETATM   26  C   UNL     1     -12.851  14.027  65.491  1.00  0.00    -0.419 C  
HETATM   27  O   UNL     1     -10.863  15.650  65.968  1.00  0.00    -0.318 OA 
HETATM   28  O   UNL     1     -11.617  14.120  67.823  1.00  0.00    -0.308 OA 
ENDBRANCH  23  25
ENDBRANCH  20  23
ENDBRANCH  14  17
ENDBRANCH  13  14
ENDBRANCH  12  13
ENDBRANCH  11  12
ENDBRANCH   8  11
ENDBRANCH   7   8
ENDBRANCH   6   7
ENDBRANCH   5   6
ENDBRANCH   4   5
ENDBRANCH   3   4
ENDBRANCH   2   3
TORSDOF 14
ENDMDL
MODEL      286
REMARK 921   NORMALIZED FREE ENERGY PREDICTED BY IDOCK:   -2.69 KCAL/MOL
REMARK 922        TOTAL FREE ENERGY PREDICTED BY IDOCK:   -6.75 KCAL/MOL
REMARK 923 INTER-LIGAND FREE ENERGY PREDICTED BY IDOCK:   -5.76 KCAL/MOL
REMARK 924 INTRA-LIGAND FREE ENERGY PREDICTED BY IDOCK:   -0.99 KCAL/MOL
REMARK 927      BINDING AFFINITY PREDICTED BY RF-SCORE:    0.00 PKD
ROOT
HETATM    1  C   UNL     1      -9.959  19.980  65.962  1.00  0.00    -0.542 C  
HETATM    2  C   UNL     1     -10.973  19.286  66.852  1.00  0.00    -0.373 C  
ENDROOT
BRANCH   2   3
HETATM    3  C   UNL     1     -10.432  17.960  67.384  1.00  0.00    -0.390 C  
BRANCH   3   4
HETATM    4  C   UNL     1      -8.909  17.982  67.403  1.00  0.00    -0.245 C  
BRANCH   4   5
HETATM    5  C   UNL     1      -8.362  18.686  68.643  1.00  0.00    -0.344 C  
BRANCH   5   6
HETATM    6  C   UNL     1      -6.879  18.358  68.797  1.00  0.00    -0.283 C  
BRANCH   6   7
HETATM    7  C   UNL     1      -6.507  17.060  68.077  1.00  0.00    -0.145 C  
BRANCH   7   8
HETATM    8  N   UNL     1      -6.153  15.964  68.997  1.00  0.00    -0.118 NA 
BRANCH   8   9
HETATM    9  C   UNL     1      -5.532  16.411  70.257  1.00  0.00    -0.188 C  
HETATM   10  C   UNL     1      -5.133  15.315  71.242  1.00  0.00    -0.147 C  
ENDBRANCH   8   9
BRANCH   8  11
HETATM   11  C   UNL     1      -7.292  15.062  69.250  1.00  0.00    -0.184 C  
BRANCH  11  12
HETATM   12  C   UNL     1      -8.194  14.817  68.030  1.00  0.00    -0.142 C  
BRANCH  12  13
HETATM   13  C   UNL     1      -9.617  14.405  68.426  1.00  0.00    -0.219 C  
BRANCH  13  14
HETATM   14  C   UNL     1     -10.305  13.571  67.336  1.00  0.00    -0.237 C  
HETATM   15  H   UNL     1     -10.190  13.367  65.381  1.00  0.00     0.000 HD 
HETATM   16  O   UNL     1      -9.764  13.883  66.056  1.00  0.00    -0.293 OA 
BRANCH  14  17
HETATM   17  C   UNL     1     -10.175  12.083  67.605  1.00  0.00    -0.210 A  
HETATM   18  C   UNL     1     -10.899  11.170  66.824  1.00  0.00    -0.322 A  
HETATM   19  C   UNL     1     -10.855   9.801  67.100  1.00  0.00    -0.207 A  
HETATM   20  C   UNL     1     -10.089   9.331  68.163  1.00  0.00    -0.187 A  
HETATM   21  C   UNL     1      -9.368  11.584  68.644  1.00  0.00    -0.142 A  
HETATM   22  C   UNL     1      -9.322  10.215  68.919  1.00  0.00    -0.179 A  
BRANCH  20  23
HETATM   23  N   UNL     1     -10.093   7.939  68.461  1.00  0.00    -0.192 N  
HETATM   24  H   UNL     1     -10.961   7.403  68.465  1.00  0.00     0.000 HD 
BRANCH  23  25
HETATM   25  S   UNL     1      -8.613   7.202  68.805  1.00  0.00    -0.124 S  
HETATM   26  C   UNL     1      -9.022   5.482  68.594  1.00  0.00    -0.114 C  
HETATM   27  O   UNL     1      -8.391   7.427  70.217  1.00  0.00    -0.130 OA 
HETATM   28  O   UNL     1      -7.624   7.584  67.822  1.00  0.00    -0.101 OA 
ENDBRANCH  23  25
ENDBRANCH  20  23
ENDBRANCH  14  17
ENDBRANCH  13  14
ENDBRANCH  12  13
ENDBRANCH  11  12
ENDBRANCH   8  11
ENDBRANCH   7   8
ENDBRANCH   6   7
ENDBRANCH   5   6
ENDBRANCH   4   5
ENDBRANCH   3   4
ENDBRANCH   2   3
TORSDOF 14
ENDMDL
MODEL      287
REMARK 921   NORMALIZED FREE ENERGY PREDICTED BY IDOCK:   -2.69 KCAL/MOL
REMARK 922        TOTAL FREE ENERGY PREDICTED BY IDOCK:   -6.74 KCAL/MOL
REMARK 923 INTER-LIGAND FREE ENERGY PREDICTED BY IDOCK:   -5.45 KCAL/MOL
REMARK 924 INTRA-LIGAND FREE ENERGY PREDICTED BY IDOCK:   -1.29 KCAL/MOL
REMARK 927      BINDING AFFINITY PREDICTED BY RF-SCORE:    0.00 PKD
ROOT
HETATM    1  C   UNL     1     -12.210  13.026  65.682  1.00  0.00    -0.521 C  
HETATM    2  C   UNL     1     -11.961  14.233  66.567  1.00  0.00    -0.448 C  
ENDROOT
BRANCH   2   3
HETATM    3  C   UNL     1     -12.018  13.860  68.047  1.00  0.00    -0.390 C  
BRANCH   3   4
HETATM    4  C   UNL     1     -11.901  15.110  68.910  1.00  0.00    -0.337 C  
BRANCH   4   5
HETATM    5  C   UNL     1     -10.612  15.123  69.728  1.00  0.00    -0.267 C  
BRANCH   5   6
HETATM    6  C   UNL     1      -9.491  15.736  68.892  1.00  0.00    -0.229 C  
BRANCH   6   7
HETATM    7  C   UNL     1      -8.435  14.696  68.511  1.00  0.00    -0.161 C  
BRANCH   7   8
HETATM    8  N   UNL     1      -7.359  15.242  67.663  1.00  0.00    -0.160 NA 
BRANCH   8   9
HETATM    9  C   UNL     1      -7.389  16.708  67.520  1.00  0.00    -0.149 C  
HETATM   10  C   UNL     1      -6.465  17.305  66.461  1.00  0.00    -0.272 C  
ENDBRANCH   8   9
BRANCH   8  11
HETATM   11  C   UNL     1      -6.028  14.771  68.085  1.00  0.00    -0.141 C  
BRANCH  11  12
HETATM   12  C   UNL     1      -6.051  13.651  69.137  1.00  0.00    -0.093 C  
BRANCH  12  13
HETATM   13  C   UNL     1      -5.547  12.313  68.582  1.00  0.00    -0.053 C  
BRANCH  13  14
HETATM   14  C   UNL     1      -5.579  11.197  69.635  1.00  0.00    -0.052 C  
HETATM   15  H   UNL     1      -6.001  11.027  71.551  1.00  0.00     0.000 HD 
HETATM   16  O   UNL     1      -5.981  11.718  70.899  1.00  0.00    -0.360 OA 
BRANCH  14  17
HETATM   17  C   UNL     1      -6.501  10.065  69.223  1.00  0.00    -0.049 A  
HETATM   18  C   UNL     1      -7.315   9.447  70.184  1.00  0.00    -0.110 A  
HETATM   19  C   UNL     1      -8.117   8.354  69.845  1.00  0.00    -0.119 A  
HETATM   20  C   UNL     1      -8.109   7.865  68.541  1.00  0.00    -0.123 A  
HETATM   21  C   UNL     1      -6.545   9.588  67.900  1.00  0.00    -0.062 A  
HETATM   22  C   UNL     1      -7.348   8.495  67.560  1.00  0.00    -0.089 A  
BRANCH  20  23
HETATM   23  N   UNL     1      -8.895   6.721  68.224  1.00  0.00    -0.125 N  
HETATM   24  H   UNL     1      -8.489   5.785  68.227  1.00  0.00     0.000 HD 
BRANCH  23  25
HETATM   25  S   UNL     1     -10.522   6.963  67.841  1.00  0.00    -0.233 S  
HETATM   26  C   UNL     1     -11.316   6.442  69.347  1.00  0.00    -0.377 C  
HETATM   27  O   UNL     1     -10.828   5.981  66.825  1.00  0.00    -0.315 OA 
HETATM   28  O   UNL     1     -10.781   8.370  67.625  1.00  0.00    -0.218 OA 
ENDBRANCH  23  25
ENDBRANCH  20  23
ENDBRANCH  14  17
ENDBRANCH  13  14
ENDBRANCH  12  13
ENDBRANCH  11  12
ENDBRANCH   8  11
ENDBRANCH   7   8
ENDBRANCH   6   7
ENDBRANCH   5   6
ENDBRANCH   4   5
ENDBRANCH   3   4
ENDBRANCH   2   3
TORSDOF 14
ENDMDL
MODEL      288
REMARK 921   NORMALIZED FREE ENERGY PREDICTED BY IDOCK:   -2.68 KCAL/MOL
REMARK 922        TOTAL FREE ENERGY PREDICTED BY IDOCK:   -6.73 KCAL/MOL
REMARK 923 INTER-LIGAND FREE ENERGY PREDICTED BY IDOCK:   -5.75 KCAL/MOL
REMARK 924 INTRA-LIGAND FREE ENERGY PREDICTED BY IDOCK:   -0.97 KCAL/MOL
REMARK 927      BINDING AFFINITY PREDICTED BY RF-SCORE:    0.00 PKD
ROOT
HETATM    1  C   UNL     1     -13.780  13.294  72.356  1.00  0.00    -0.678 C  
HETATM    2  C   UNL     1     -12.749  13.382  71.246  1.00  0.00    -0.424 C  
ENDROOT
BRANCH   2   3
HETATM    3  C   UNL     1     -12.568  14.821  70.767  1.00  0.00    -0.412 C  
BRANCH   3   4
HETATM    4  C   UNL     1     -11.232  14.973  70.050  1.00  0.00    -0.301 C  
BRANCH   4   5
HETATM    5  C   UNL     1     -11.327  15.923  68.859  1.00  0.00    -0.377 C  
BRANCH   5   6
HETATM    6  C   UNL     1     -11.585  15.116  67.589  1.00  0.00    -0.290 C  
BRANCH   6   7
HETATM    7  C   UNL     1     -10.905  13.746  67.640  1.00  0.00    -0.254 C  
BRANCH   7   8
HETATM    8  N   UNL     1      -9.698  13.662  66.797  1.00  0.00    -0.267 NA 
BRANCH   8   9
HETATM    9  C   UNL     1      -8.540  13.038  67.462  1.00  0.00    -0.192 C  
HETATM   10  C   UNL     1      -7.186  13.702  67.227  1.00  0.00     0.005 C  
ENDBRANCH   8   9
BRANCH   8  11
HETATM   11  C   UNL     1      -9.975  13.029  65.495  1.00  0.00    -0.214 C  
BRANCH  11  12
HETATM   12  C   UNL     1      -9.130  11.779  65.201  1.00  0.00     0.161 C  
BRANCH  12  13
HETATM   13  C   UNL     1      -9.918  10.702  64.447  1.00  0.00    -0.415 C  
BRANCH  13  14
HETATM   14  C   UNL     1      -9.152   9.374  64.361  1.00  0.00    -0.127 C  
HETATM   15  H   UNL     1      -7.513   8.702  63.500  1.00  0.00     0.000 HD 
HETATM   16  O   UNL     1      -7.988   9.524  63.554  1.00  0.00    -0.125 OA 
BRANCH  14  17
HETATM   17  C   UNL     1      -8.768   8.859  65.735  1.00  0.00    -0.205 A  
HETATM   18  C   UNL     1      -9.765   8.404  66.611  1.00  0.00    -0.320 A  
HETATM   19  C   UNL     1      -9.445   7.995  67.907  1.00  0.00    -0.161 A  
HETATM   20  C   UNL     1      -8.124   8.041  68.345  1.00  0.00    -0.122 A  
HETATM   21  C   UNL     1      -7.433   8.851  66.178  1.00  0.00    -0.090 A  
HETATM   22  C   UNL     1      -7.112   8.441  67.475  1.00  0.00    -0.083 A  
BRANCH  20  23
HETATM   23  N   UNL     1      -7.821   7.667  69.684  1.00  0.00    -0.106 N  
HETATM   24  H   UNL     1      -7.506   6.723  69.909  1.00  0.00     0.000 HD 
BRANCH  23  25
HETATM   25  S   UNL     1      -8.000   8.835  70.889  1.00  0.00    -0.149 S  
HETATM   26  C   UNL     1      -7.963   7.830  72.358  1.00  0.00    -0.115 C  
HETATM   27  O   UNL     1      -9.347   9.339  70.739  1.00  0.00    -0.241 OA 
HETATM   28  O   UNL     1      -6.863   9.729  70.892  1.00  0.00    -0.253 OA 
ENDBRANCH  23  25
ENDBRANCH  20  23
ENDBRANCH  14  17
ENDBRANCH  13  14
ENDBRANCH  12  13
ENDBRANCH  11  12
ENDBRANCH   8  11
ENDBRANCH   7   8
ENDBRANCH   6   7
ENDBRANCH   5   6
ENDBRANCH   4   5
ENDBRANCH   3   4
ENDBRANCH   2   3
TORSDOF 14
ENDMDL
MODEL      289
REMARK 921   NORMALIZED FREE ENERGY PREDICTED BY IDOCK:   -2.64 KCAL/MOL
REMARK 922        TOTAL FREE ENERGY PREDICTED BY IDOCK:   -6.66 KCAL/MOL
REMARK 923 INTER-LIGAND FREE ENERGY PREDICTED BY IDOCK:   -4.33 KCAL/MOL
REMARK 924 INTRA-LIGAND FREE ENERGY PREDICTED BY IDOCK:   -2.33 KCAL/MOL
REMARK 927      BINDING AFFINITY PREDICTED BY RF-SCORE:    0.00 PKD
ROOT
HETATM    1  C   UNL     1      -6.583   4.246  65.114  1.00  0.00    -0.047 C  
HETATM    2  C   UNL     1      -6.275   5.706  64.838  1.00  0.00    -0.032 C  
ENDROOT
BRANCH   2   3
HETATM    3  C   UNL     1      -7.418   6.612  65.290  1.00  0.00    -0.082 C  
BRANCH   3   4
HETATM    4  C   UNL     1      -8.683   5.792  65.512  1.00  0.00    -0.141 C  
BRANCH   4   5
HETATM    5  C   UNL     1      -9.621   6.448  66.522  1.00  0.00    -0.185 C  
BRANCH   5   6
HETATM    6  C   UNL     1     -10.331   5.365  67.331  1.00  0.00    -0.258 C  
BRANCH   6   7
HETATM    7  C   UNL     1      -9.345   4.541  68.162  1.00  0.00    -0.140 C  
BRANCH   7   8
HETATM    8  N   UNL     1      -9.405   4.841  69.604  1.00  0.00    -0.119 NA 
BRANCH   8   9
HETATM    9  C   UNL     1      -9.572   3.653  70.461  1.00  0.00    -0.186 C  
HETATM   10  C   UNL     1      -8.423   2.649  70.459  1.00  0.00    -0.090 C  
ENDBRANCH   8   9
BRANCH   8  11
HETATM   11  C   UNL     1      -8.267   5.666  70.047  1.00  0.00    -0.110 C  
BRANCH  11  12
HETATM   12  C   UNL     1      -7.163   5.847  68.993  1.00  0.00    -0.082 C  
BRANCH  12  13
HETATM   13  C   UNL     1      -6.682   7.299  68.890  1.00  0.00    -0.060 C  
BRANCH  13  14
HETATM   14  C   UNL     1      -7.658   8.284  69.549  1.00  0.00    -0.095 C  
HETATM   15  H   UNL     1      -7.647   9.530  71.074  1.00  0.00     0.000 HD 
HETATM   16  O   UNL     1      -7.043   8.920  70.666  1.00  0.00    -0.054 OA 
BRANCH  14  17
HETATM   17  C   UNL     1      -8.151   9.327  68.564  1.00  0.00    -0.106 A  
HETATM   18  C   UNL     1      -7.375   9.645  67.440  1.00  0.00    -0.087 A  
HETATM   19  C   UNL     1      -7.771  10.654  66.560  1.00  0.00    -0.137 A  
HETATM   20  C   UNL     1      -8.947  11.361  66.796  1.00  0.00    -0.176 A  
HETATM   21  C   UNL     1      -9.362  10.018  68.759  1.00  0.00    -0.162 A  
HETATM   22  C   UNL     1      -9.759  11.027  67.878  1.00  0.00    -0.183 A  
BRANCH  20  23
HETATM   23  N   UNL     1      -9.312  12.418  65.916  1.00  0.00    -0.422 N  
HETATM   24  H   UNL     1      -8.943  13.361  66.043  1.00  0.00     0.000 HD 
BRANCH  23  25
HETATM   25  S   UNL     1     -10.377  12.063  64.655  1.00  0.00    -0.300 S  
HETATM   26  C   UNL     1     -11.917  12.662  65.319  1.00  0.00    -0.439 C  
HETATM   27  O   UNL     1     -10.453  10.619  64.612  1.00  0.00    -0.336 OA 
HETATM   28  O   UNL     1     -10.032  12.830  63.479  1.00  0.00    -0.304 OA 
ENDBRANCH  23  25
ENDBRANCH  20  23
ENDBRANCH  14  17
ENDBRANCH  13  14
ENDBRANCH  12  13
ENDBRANCH  11  12
ENDBRANCH   8  11
ENDBRANCH   7   8
ENDBRANCH   6   7
ENDBRANCH   5   6
ENDBRANCH   4   5
ENDBRANCH   3   4
ENDBRANCH   2   3
TORSDOF 14
ENDMDL
MODEL      290
REMARK 921   NORMALIZED FREE ENERGY PREDICTED BY IDOCK:   -2.62 KCAL/MOL
REMARK 922        TOTAL FREE ENERGY PREDICTED BY IDOCK:   -6.62 KCAL/MOL
REMARK 923 INTER-LIGAND FREE ENERGY PREDICTED BY IDOCK:   -5.60 KCAL/MOL
REMARK 924 INTRA-LIGAND FREE ENERGY PREDICTED BY IDOCK:   -1.03 KCAL/MOL
REMARK 927      BINDING AFFINITY PREDICTED BY RF-SCORE:    0.00 PKD
ROOT
HETATM    1  C   UNL     1      -8.109   4.382  68.728  1.00  0.00    -0.077 C  
HETATM    2  C   UNL     1      -8.462   3.491  69.904  1.00  0.00    -0.089 C  
ENDROOT
BRANCH   2   3
HETATM    3  C   UNL     1      -7.209   2.999  70.626  1.00  0.00    -0.033 C  
BRANCH   3   4
HETATM    4  C   UNL     1      -6.967   3.827  71.883  1.00  0.00    -0.030 C  
BRANCH   4   5
HETATM    5  C   UNL     1      -5.945   4.936  71.649  1.00  0.00    -0.020 C  
BRANCH   5   6
HETATM    6  C   UNL     1      -6.616   6.293  71.852  1.00  0.00    -0.062 C  
BRANCH   6   7
HETATM    7  C   UNL     1      -7.619   6.261  73.008  1.00  0.00    -0.096 C  
BRANCH   7   8
HETATM    8  N   UNL     1      -7.738   7.551  73.711  1.00  0.00    -0.114 NA 
BRANCH   8   9
HETATM    9  C   UNL     1      -6.563   7.904  74.528  1.00  0.00    -0.107 C  
HETATM   10  C   UNL     1      -5.639   8.976  73.957  1.00  0.00    -0.121 C  
ENDBRANCH   8   9
BRANCH   8  11
HETATM   11  C   UNL     1      -8.107   8.648  72.798  1.00  0.00     0.063 C  
BRANCH  11  12
HETATM   12  C   UNL     1      -9.388   8.400  71.986  1.00  0.00    -0.332 C  
BRANCH  12  13
HETATM   13  C   UNL     1      -9.613   9.462  70.904  1.00  0.00    -0.301 C  
BRANCH  13  14
HETATM   14  C   UNL     1     -11.096   9.619  70.542  1.00  0.00    -0.308 C  
HETATM   15  H   UNL     1     -12.789   9.956  71.490  1.00  0.00     0.000 HD 
HETATM   16  O   UNL     1     -11.871   9.859  71.714  1.00  0.00    -0.362 OA 
BRANCH  14  17
HETATM   17  C   UNL     1     -11.313  10.737  69.540  1.00  0.00    -0.355 A  
HETATM   18  C   UNL     1     -11.096  10.498  68.174  1.00  0.00    -0.346 A  
HETATM   19  C   UNL     1     -11.216  11.530  67.241  1.00  0.00    -0.365 A  
HETATM   20  C   UNL     1     -11.550  12.815  67.663  1.00  0.00    -0.358 A  
HETATM   21  C   UNL     1     -11.697  12.029  69.941  1.00  0.00    -0.374 A  
HETATM   22  C   UNL     1     -11.818  13.062  69.007  1.00  0.00    -0.362 A  
BRANCH  20  23
HETATM   23  N   UNL     1     -11.621  13.865  66.705  1.00  0.00    -0.358 N  
HETATM   24  H   UNL     1     -12.440  13.979  66.108  1.00  0.00     0.000 HD 
BRANCH  23  25
HETATM   25  S   UNL     1     -10.306  14.917  66.589  1.00  0.00    -0.291 S  
HETATM   26  C   UNL     1     -10.346  15.337  64.859  1.00  0.00    -0.238 C  
HETATM   27  O   UNL     1      -9.135  14.096  66.811  1.00  0.00    -0.254 OA 
HETATM   28  O   UNL     1     -10.545  16.106  67.377  1.00  0.00    -0.306 OA 
ENDBRANCH  23  25
ENDBRANCH  20  23
ENDBRANCH  14  17
ENDBRANCH  13  14
ENDBRANCH  12  13
ENDBRANCH  11  12
ENDBRANCH   8  11
ENDBRANCH   7   8
ENDBRANCH   6   7
ENDBRANCH   5   6
ENDBRANCH   4   5
ENDBRANCH   3   4
ENDBRANCH   2   3
TORSDOF 14
ENDMDL
MODEL      291
REMARK 921   NORMALIZED FREE ENERGY PREDICTED BY IDOCK:   -2.60 KCAL/MOL
REMARK 922        TOTAL FREE ENERGY PREDICTED BY IDOCK:   -6.58 KCAL/MOL
REMARK 923 INTER-LIGAND FREE ENERGY PREDICTED BY IDOCK:   -6.26 KCAL/MOL
REMARK 924 INTRA-LIGAND FREE ENERGY PREDICTED BY IDOCK:   -0.32 KCAL/MOL
REMARK 927      BINDING AFFINITY PREDICTED BY RF-SCORE:    0.00 PKD
ROOT
HETATM    1  C   UNL     1     -12.788  14.935  73.437  1.00  0.00    -0.638 C  
HETATM    2  C   UNL     1     -13.109  14.045  72.251  1.00  0.00    -0.516 C  
ENDROOT
BRANCH   2   3
HETATM    3  C   UNL     1     -13.672  14.853  71.084  1.00  0.00    -0.452 C  
BRANCH   3   4
HETATM    4  C   UNL     1     -12.538  15.474  70.277  1.00  0.00    -0.362 C  
BRANCH   4   5
HETATM    5  C   UNL     1     -11.434  14.466  69.972  1.00  0.00    -0.295 C  
BRANCH   5   6
HETATM    6  C   UNL     1     -11.854  13.601  68.786  1.00  0.00    -0.395 C  
BRANCH   6   7
HETATM    7  C   UNL     1     -10.711  13.419  67.784  1.00  0.00    -0.248 C  
BRANCH   7   8
HETATM    8  N   UNL     1     -11.104  12.660  66.583  1.00  0.00    -0.263 NA 
BRANCH   8   9
HETATM    9  C   UNL     1     -12.156  13.308  65.778  1.00  0.00    -0.441 C  
HETATM   10  C   UNL     1     -12.605  12.562  64.524  1.00  0.00    -0.503 C  
ENDBRANCH   8   9
BRANCH   8  11
HETATM   11  C   UNL     1      -9.942  12.293  65.754  1.00  0.00    -0.254 C  
BRANCH  11  12
HETATM   12  C   UNL     1      -9.174  11.056  66.243  1.00  0.00    -0.200 C  
BRANCH  12  13
HETATM   13  C   UNL     1     -10.103   9.886  66.586  1.00  0.00    -0.297 C  
BRANCH  13  14
HETATM   14  C   UNL     1      -9.661   8.577  65.917  1.00  0.00    -0.094 C  
HETATM   15  H   UNL     1      -8.403   8.026  64.506  1.00  0.00     0.000 HD 
HETATM   16  O   UNL     1      -8.677   8.836  64.920  1.00  0.00    -0.183 OA 
BRANCH  14  17
HETATM   17  C   UNL     1      -9.124   7.583  66.930  1.00  0.00    -0.166 A  
HETATM   18  C   UNL     1      -8.199   6.609  66.526  1.00  0.00    -0.114 A  
HETATM   19  C   UNL     1      -7.747   5.637  67.422  1.00  0.00    -0.100 A  
HETATM   20  C   UNL     1      -8.219   5.627  68.732  1.00  0.00    -0.103 A  
HETATM   21  C   UNL     1      -9.551   7.587  68.271  1.00  0.00    -0.157 A  
HETATM   22  C   UNL     1      -9.098   6.615  69.168  1.00  0.00    -0.137 A  
BRANCH  20  23
HETATM   23  N   UNL     1      -7.785   4.601  69.619  1.00  0.00    -0.058 N  
HETATM   24  H   UNL     1      -7.648   3.645  69.292  1.00  0.00     0.000 HD 
BRANCH  23  25
HETATM   25  S   UNL     1      -7.505   5.019  71.230  1.00  0.00    -0.084 S  
HETATM   26  C   UNL     1      -5.825   5.604  71.152  1.00  0.00    -0.024 C  
HETATM   27  O   UNL     1      -7.497   3.768  71.956  1.00  0.00    -0.054 OA 
HETATM   28  O   UNL     1      -8.373   6.107  71.623  1.00  0.00    -0.124 OA 
ENDBRANCH  23  25
ENDBRANCH  20  23
ENDBRANCH  14  17
ENDBRANCH  13  14
ENDBRANCH  12  13
ENDBRANCH  11  12
ENDBRANCH   8  11
ENDBRANCH   7   8
ENDBRANCH   6   7
ENDBRANCH   5   6
ENDBRANCH   4   5
ENDBRANCH   3   4
ENDBRANCH   2   3
TORSDOF 14
ENDMDL
MODEL      292
REMARK 921   NORMALIZED FREE ENERGY PREDICTED BY IDOCK:   -2.55 KCAL/MOL
REMARK 922        TOTAL FREE ENERGY PREDICTED BY IDOCK:   -6.49 KCAL/MOL
REMARK 923 INTER-LIGAND FREE ENERGY PREDICTED BY IDOCK:   -5.94 KCAL/MOL
REMARK 924 INTRA-LIGAND FREE ENERGY PREDICTED BY IDOCK:   -0.55 KCAL/MOL
REMARK 927      BINDING AFFINITY PREDICTED BY RF-SCORE:    0.00 PKD
ROOT
HETATM    1  C   UNL     1      -5.232  11.902  70.908  1.00  0.00    -0.141 C  
HETATM    2  C   UNL     1      -5.779  12.949  69.956  1.00  0.00    -0.137 C  
ENDROOT
BRANCH   2   3
HETATM    3  C   UNL     1      -5.199  12.783  68.553  1.00  0.00    -0.060 C  
BRANCH   3   4
HETATM    4  C   UNL     1      -6.262  12.243  67.604  1.00  0.00    -0.120 C  
BRANCH   4   5
HETATM    5  C   UNL     1      -7.417  11.585  68.355  1.00  0.00    -0.109 C  
BRANCH   5   6
HETATM    6  C   UNL     1      -8.741  12.124  67.818  1.00  0.00    -0.171 C  
BRANCH   6   7
HETATM    7  C   UNL     1      -9.901  11.830  68.771  1.00  0.00    -0.087 C  
BRANCH   7   8
HETATM    8  N   UNL     1     -11.046  12.742  68.595  1.00  0.00    -0.252 NA 
BRANCH   8   9
HETATM    9  C   UNL     1     -12.016  12.714  69.705  1.00  0.00    -0.286 C  
HETATM   10  C   UNL     1     -12.404  14.065  70.300  1.00  0.00    -0.425 C  
ENDBRANCH   8   9
BRANCH   8  11
HETATM   11  C   UNL     1     -10.617  14.119  68.291  1.00  0.00    -0.251 C  
BRANCH  11  12
HETATM   12  C   UNL     1     -10.741  14.513  66.811  1.00  0.00    -0.291 C  
BRANCH  12  13
HETATM   13  C   UNL     1     -12.195  14.748  66.385  1.00  0.00    -0.031 C  
BRANCH  13  14
HETATM   14  C   UNL     1     -12.517  14.096  65.033  1.00  0.00    -0.419 C  
HETATM   15  H   UNL     1     -12.490  14.616  63.134  1.00  0.00     0.000 HD 
HETATM   16  O   UNL     1     -12.290  15.018  63.971  1.00  0.00    -0.706 OA 
BRANCH  14  17
HETATM   17  C   UNL     1     -11.701  12.837  64.810  1.00  0.00    -0.398 A  
HETATM   18  C   UNL     1     -11.778  11.785  65.735  1.00  0.00    -0.093 A  
HETATM   19  C   UNL     1     -10.981  10.647  65.591  1.00  0.00     0.110 A  
HETATM   20  C   UNL     1     -10.094  10.551  64.521  1.00  0.00    -0.332 A  
HETATM   21  C   UNL     1     -10.836  12.699  63.708  1.00  0.00    -0.466 A  
HETATM   22  C   UNL     1     -10.039  11.560  63.563  1.00  0.00    -0.446 A  
BRANCH  20  23
HETATM   23  N   UNL     1      -9.254   9.406  64.416  1.00  0.00    -0.431 N  
HETATM   24  H   UNL     1      -9.597   8.477  64.662  1.00  0.00     0.000 HD 
BRANCH  23  25
HETATM   25  S   UNL     1      -7.674   9.635  63.869  1.00  0.00    -0.139 S  
HETATM   26  C   UNL     1      -6.975   8.019  64.136  1.00  0.00    -0.070 C  
HETATM   27  O   UNL     1      -7.064  10.537  64.822  1.00  0.00    -0.077 OA 
HETATM   28  O   UNL     1      -7.672   9.930  62.453  1.00  0.00    -0.114 OA 
ENDBRANCH  23  25
ENDBRANCH  20  23
ENDBRANCH  14  17
ENDBRANCH  13  14
ENDBRANCH  12  13
ENDBRANCH  11  12
ENDBRANCH   8  11
ENDBRANCH   7   8
ENDBRANCH   6   7
ENDBRANCH   5   6
ENDBRANCH   4   5
ENDBRANCH   3   4
ENDBRANCH   2   3
TORSDOF 14
ENDMDL
MODEL      293
REMARK 921   NORMALIZED FREE ENERGY PREDICTED BY IDOCK:   -2.54 KCAL/MOL
REMARK 922        TOTAL FREE ENERGY PREDICTED BY IDOCK:   -6.47 KCAL/MOL
REMARK 923 INTER-LIGAND FREE ENERGY PREDICTED BY IDOCK:   -4.60 KCAL/MOL
REMARK 924 INTRA-LIGAND FREE ENERGY PREDICTED BY IDOCK:   -1.87 KCAL/MOL
REMARK 927      BINDING AFFINITY PREDICTED BY RF-SCORE:    0.00 PKD
ROOT
HETATM    1  C   UNL     1      -6.684   4.483  65.164  1.00  0.00    -0.049 C  
HETATM    2  C   UNL     1      -6.584   5.995  65.079  1.00  0.00    -0.043 C  
ENDROOT
BRANCH   2   3
HETATM    3  C   UNL     1      -7.850   6.668  65.604  1.00  0.00    -0.105 C  
BRANCH   3   4
HETATM    4  C   UNL     1      -9.031   5.709  65.516  1.00  0.00    -0.113 C  
BRANCH   4   5
HETATM    5  C   UNL     1     -10.091   6.007  66.574  1.00  0.00    -0.191 C  
BRANCH   5   6
HETATM    6  C   UNL     1     -10.385   4.735  67.366  1.00  0.00    -0.079 C  
BRANCH   6   7
HETATM    7  C   UNL     1      -9.131   4.194  68.057  1.00  0.00    -0.136 C  
BRANCH   7   8
HETATM    8  N   UNL     1      -9.289   4.038  69.514  1.00  0.00    -0.156 NA 
BRANCH   8   9
HETATM    9  C   UNL     1      -9.243   2.641  69.979  1.00  0.00    -0.132 C  
HETATM   10  C   UNL     1      -7.936   1.889  69.738  1.00  0.00    -0.053 C  
ENDBRANCH   8   9
BRANCH   8  11
HETATM   11  C   UNL     1      -8.348   4.887  70.267  1.00  0.00    -0.084 C  
BRANCH  11  12
HETATM   12  C   UNL     1      -7.275   5.570  69.406  1.00  0.00    -0.065 C  
BRANCH  12  13
HETATM   13  C   UNL     1      -7.432   7.095  69.372  1.00  0.00    -0.096 C  
BRANCH  13  14
HETATM   14  C   UNL     1      -8.546   7.586  70.307  1.00  0.00    -0.144 C  
HETATM   15  H   UNL     1      -8.681   8.382  72.103  1.00  0.00     0.000 HD 
HETATM   16  O   UNL     1      -7.992   8.078  71.524  1.00  0.00    -0.091 OA 
BRANCH  14  17
HETATM   17  C   UNL     1      -9.394   8.659  69.652  1.00  0.00    -0.161 A  
HETATM   18  C   UNL     1     -10.131   9.547  70.450  1.00  0.00    -0.329 A  
HETATM   19  C   UNL     1     -10.977  10.496  69.870  1.00  0.00    -0.359 A  
HETATM   20  C   UNL     1     -11.099  10.563  68.485  1.00  0.00    -0.275 A  
HETATM   21  C   UNL     1      -9.493   8.777  68.253  1.00  0.00    -0.150 A  
HETATM   22  C   UNL     1     -10.338   9.726  67.673  1.00  0.00    -0.281 A  
BRANCH  20  23
HETATM   23  N   UNL     1     -12.002  11.503  67.912  1.00  0.00    -0.177 N  
HETATM   24  H   UNL     1     -13.011  11.369  67.972  1.00  0.00     0.000 HD 
BRANCH  23  25
HETATM   25  S   UNL     1     -11.348  12.848  67.128  1.00  0.00    -0.324 S  
HETATM   26  C   UNL     1     -11.835  12.541  65.443  1.00  0.00    -0.428 C  
HETATM   27  O   UNL     1      -9.913  12.678  67.205  1.00  0.00    -0.213 OA 
HETATM   28  O   UNL     1     -11.984  14.059  67.598  1.00  0.00    -0.368 OA 
ENDBRANCH  23  25
ENDBRANCH  20  23
ENDBRANCH  14  17
ENDBRANCH  13  14
ENDBRANCH  12  13
ENDBRANCH  11  12
ENDBRANCH   8  11
ENDBRANCH   7   8
ENDBRANCH   6   7
ENDBRANCH   5   6
ENDBRANCH   4   5
ENDBRANCH   3   4
ENDBRANCH   2   3
TORSDOF 14
ENDMDL
MODEL      294
REMARK 921   NORMALIZED FREE ENERGY PREDICTED BY IDOCK:   -2.52 KCAL/MOL
REMARK 922        TOTAL FREE ENERGY PREDICTED BY IDOCK:   -6.44 KCAL/MOL
REMARK 923 INTER-LIGAND FREE ENERGY PREDICTED BY IDOCK:   -5.20 KCAL/MOL
REMARK 924 INTRA-LIGAND FREE ENERGY PREDICTED BY IDOCK:   -1.23 KCAL/MOL
REMARK 927      BINDING AFFINITY PREDICTED BY RF-SCORE:    0.00 PKD
ROOT
HETATM    1  C   UNL     1     -12.372  13.077  65.829  1.00  0.00    -0.477 C  
HETATM    2  C   UNL     1     -11.677  14.295  66.408  1.00  0.00    -0.403 C  
ENDROOT
BRANCH   2   3
HETATM    3  C   UNL     1     -11.794  14.332  67.931  1.00  0.00    -0.393 C  
BRANCH   3   4
HETATM    4  C   UNL     1     -12.013  15.762  68.408  1.00  0.00    -0.039 C  
BRANCH   4   5
HETATM    5  C   UNL     1     -11.099  16.122  69.576  1.00  0.00    -0.344 C  
BRANCH   5   6
HETATM    6  C   UNL     1      -9.911  16.929  69.057  1.00  0.00    -0.265 C  
BRANCH   6   7
HETATM    7  C   UNL     1      -8.637  16.084  68.989  1.00  0.00    -0.244 C  
BRANCH   7   8
HETATM    8  N   UNL     1      -7.456  16.844  68.542  1.00  0.00    -0.206 NA 
BRANCH   8   9
HETATM    9  C   UNL     1      -7.689  18.293  68.403  1.00  0.00    -0.299 C  
HETATM   10  C   UNL     1      -6.511  19.122  67.897  1.00  0.00    -0.244 C  
ENDBRANCH   8   9
BRANCH   8  11
HETATM   11  C   UNL     1      -6.271  16.567  69.374  1.00  0.00    -0.197 C  
BRANCH  11  12
HETATM   12  C   UNL     1      -6.371  15.290  70.222  1.00  0.00    -0.061 C  
BRANCH  12  13
HETATM   13  C   UNL     1      -5.481  14.161  69.690  1.00  0.00    -0.094 C  
BRANCH  13  14
HETATM   14  C   UNL     1      -5.150  13.122  70.771  1.00  0.00    -0.128 C  
HETATM   15  H   UNL     1      -5.359  12.947  72.721  1.00  0.00     0.000 HD 
HETATM   16  O   UNL     1      -5.563  13.589  72.052  1.00  0.00    -0.383 OA 
BRANCH  14  17
HETATM   17  C   UNL     1      -5.794  11.781  70.475  1.00  0.00    -0.125 A  
HETATM   18  C   UNL     1      -6.766  11.683  69.468  1.00  0.00    -0.089 A  
HETATM   19  C   UNL     1      -7.426  10.476  69.227  1.00  0.00    -0.122 A  
HETATM   20  C   UNL     1      -7.126   9.354  69.995  1.00  0.00    -0.083 A  
HETATM   21  C   UNL     1      -5.469  10.624  71.207  1.00  0.00    -0.024 A  
HETATM   22  C   UNL     1      -6.129   9.416  70.966  1.00  0.00    -0.073 A  
BRANCH  20  23
HETATM   23  N   UNL     1      -7.842   8.145  69.770  1.00  0.00    -0.103 N  
HETATM   24  H   UNL     1      -7.408   7.357  69.289  1.00  0.00     0.000 HD 
BRANCH  23  25
HETATM   25  S   UNL     1      -9.435   8.057  70.323  1.00  0.00    -0.167 S  
HETATM   26  C   UNL     1      -9.559   6.334  70.755  1.00  0.00    -0.176 C  
HETATM   27  O   UNL     1     -10.260   8.274  69.155  1.00  0.00    -0.208 OA 
HETATM   28  O   UNL     1      -9.596   8.862  71.514  1.00  0.00    -0.258 OA 
ENDBRANCH  23  25
ENDBRANCH  20  23
ENDBRANCH  14  17
ENDBRANCH  13  14
ENDBRANCH  12  13
ENDBRANCH  11  12
ENDBRANCH   8  11
ENDBRANCH   7   8
ENDBRANCH   6   7
ENDBRANCH   5   6
ENDBRANCH   4   5
ENDBRANCH   3   4
ENDBRANCH   2   3
TORSDOF 14
ENDMDL
MODEL      295
REMARK 921   NORMALIZED FREE ENERGY PREDICTED BY IDOCK:   -2.47 KCAL/MOL
REMARK 922        TOTAL FREE ENERGY PREDICTED BY IDOCK:   -6.35 KCAL/MOL
REMARK 923 INTER-LIGAND FREE ENERGY PREDICTED BY IDOCK:   -5.26 KCAL/MOL
REMARK 924 INTRA-LIGAND FREE ENERGY PREDICTED BY IDOCK:   -1.09 KCAL/MOL
REMARK 927      BINDING AFFINITY PREDICTED BY RF-SCORE:    0.00 PKD
ROOT
HETATM    1  C   UNL     1      -9.658  10.386  62.731  1.00  0.00    -0.311 C  
HETATM    2  C   UNL     1     -10.103  10.626  64.161  1.00  0.00    -0.402 C  
ENDROOT
BRANCH   2   3
HETATM    3  C   UNL     1      -9.518   9.581  65.110  1.00  0.00    -0.305 C  
BRANCH   3   4
HETATM    4  C   UNL     1     -10.087   9.765  66.511  1.00  0.00    -0.307 C  
BRANCH   4   5
HETATM    5  C   UNL     1     -10.573  11.193  66.748  1.00  0.00    -0.311 C  
BRANCH   5   6
HETATM    6  C   UNL     1     -10.200  11.625  68.164  1.00  0.00    -0.206 C  
BRANCH   6   7
HETATM    7  C   UNL     1      -8.974  10.870  68.683  1.00  0.00    -0.162 C  
BRANCH   7   8
HETATM    8  N   UNL     1      -7.705  11.577  68.432  1.00  0.00    -0.122 NA 
BRANCH   8   9
HETATM    9  C   UNL     1      -7.796  13.042  68.558  1.00  0.00    -0.105 C  
HETATM   10  C   UNL     1      -6.499  13.822  68.357  1.00  0.00    -0.099 C  
ENDBRANCH   8   9
BRANCH   8  11
HETATM   11  C   UNL     1      -6.600  11.036  69.244  1.00  0.00    -0.091 C  
BRANCH  11  12
HETATM   12  C   UNL     1      -7.040  10.088  70.371  1.00  0.00    -0.131 C  
BRANCH  12  13
HETATM   13  C   UNL     1      -6.089   8.898  70.542  1.00  0.00    -0.037 C  
BRANCH  13  14
HETATM   14  C   UNL     1      -6.314   8.160  71.869  1.00  0.00    -0.053 C  
HETATM   15  H   UNL     1      -6.055   8.521  73.788  1.00  0.00     0.000 HD 
HETATM   16  O   UNL     1      -5.916   8.978  72.966  1.00  0.00    -0.213 OA 
BRANCH  14  17
HETATM   17  C   UNL     1      -7.762   7.738  72.037  1.00  0.00    -0.100 A  
HETATM   18  C   UNL     1      -8.524   8.267  73.089  1.00  0.00    -0.265 A  
HETATM   19  C   UNL     1      -9.834   7.837  73.309  1.00  0.00    -0.362 A  
HETATM   20  C   UNL     1     -10.397   6.870  72.480  1.00  0.00    -0.196 A  
HETATM   21  C   UNL     1      -8.364   6.798  71.180  1.00  0.00    -0.124 A  
HETATM   22  C   UNL     1      -9.676   6.369  71.398  1.00  0.00    -0.187 A  
BRANCH  20  23
HETATM   23  N   UNL     1     -11.717   6.408  72.746  1.00  0.00    -0.499 N  
HETATM   24  H   UNL     1     -11.898   5.730  73.486  1.00  0.00     0.000 HD 
BRANCH  23  25
HETATM   25  S   UNL     1     -12.973   7.020  71.798  1.00  0.00    -0.234 S  
HETATM   26  C   UNL     1     -12.798   8.770  72.075  1.00  0.00    -0.390 C  
HETATM   27  O   UNL     1     -14.191   6.595  72.453  1.00  0.00     0.008 OA 
HETATM   28  O   UNL     1     -12.733   6.729  70.402  1.00  0.00    -0.053 OA 
ENDBRANCH  23  25
ENDBRANCH  20  23
ENDBRANCH  14  17
ENDBRANCH  13  14
ENDBRANCH  12  13
ENDBRANCH  11  12
ENDBRANCH   8  11
ENDBRANCH   7   8
ENDBRANCH   6   7
ENDBRANCH   5   6
ENDBRANCH   4   5
ENDBRANCH   3   4
ENDBRANCH   2   3
TORSDOF 14
ENDMDL
MODEL      296
REMARK 921   NORMALIZED FREE ENERGY PREDICTED BY IDOCK:   -2.47 KCAL/MOL
REMARK 922        TOTAL FREE ENERGY PREDICTED BY IDOCK:   -6.34 KCAL/MOL
REMARK 923 INTER-LIGAND FREE ENERGY PREDICTED BY IDOCK:   -4.34 KCAL/MOL
REMARK 924 INTRA-LIGAND FREE ENERGY PREDICTED BY IDOCK:   -2.00 KCAL/MOL
REMARK 927      BINDING AFFINITY PREDICTED BY RF-SCORE:    0.00 PKD
ROOT
HETATM    1  C   UNL     1     -10.495  14.948  66.568  1.00  0.00    -0.297 C  
HETATM    2  C   UNL     1     -10.360  14.469  68.001  1.00  0.00    -0.229 C  
ENDROOT
BRANCH   2   3
HETATM    3  C   UNL     1     -10.711  12.988  68.129  1.00  0.00    -0.258 C  
BRANCH   3   4
HETATM    4  C   UNL     1     -10.544  12.289  66.785  1.00  0.00    -0.251 C  
BRANCH   4   5
HETATM    5  C   UNL     1     -10.976  10.827  66.844  1.00  0.00    -0.255 C  
BRANCH   5   6
HETATM    6  C   UNL     1     -10.920  10.341  68.290  1.00  0.00    -0.315 C  
BRANCH   6   7
HETATM    7  C   UNL     1     -10.617   8.843  68.374  1.00  0.00    -0.143 C  
BRANCH   7   8
HETATM    8  N   UNL     1     -10.590   8.330  69.756  1.00  0.00    -0.228 NA 
BRANCH   8   9
HETATM    9  C   UNL     1     -10.065   6.959  69.879  1.00  0.00    -0.188 C  
HETATM   10  C   UNL     1     -11.081   5.871  70.219  1.00  0.00    -0.368 C  
ENDBRANCH   8   9
BRANCH   8  11
HETATM   11  C   UNL     1      -9.903   9.253  70.676  1.00  0.00    -0.270 C  
BRANCH  11  12
HETATM   12  C   UNL     1      -8.801   8.603  71.527  1.00  0.00    -0.285 C  
BRANCH  12  13
HETATM   13  C   UNL     1      -7.401   9.107  71.158  1.00  0.00    -0.091 C  
BRANCH  13  14
HETATM   14  C   UNL     1      -7.441  10.204  70.085  1.00  0.00    -0.133 C  
HETATM   15  H   UNL     1      -6.535  11.917  69.734  1.00  0.00     0.000 HD 
HETATM   16  O   UNL     1      -6.511  11.238  70.397  1.00  0.00    -0.266 OA 
BRANCH  14  17
HETATM   17  C   UNL     1      -7.153   9.648  68.704  1.00  0.00    -0.072 A  
HETATM   18  C   UNL     1      -6.623   8.356  68.571  1.00  0.00    -0.059 A  
HETATM   19  C   UNL     1      -6.280   7.850  67.315  1.00  0.00    -0.054 A  
HETATM   20  C   UNL     1      -6.459   8.633  66.177  1.00  0.00    -0.057 A  
HETATM   21  C   UNL     1      -7.373  10.405  67.538  1.00  0.00    -0.092 A  
HETATM   22  C   UNL     1      -7.031   9.898  66.281  1.00  0.00    -0.100 A  
BRANCH  20  23
HETATM   23  N   UNL     1      -6.060   8.120  64.911  1.00  0.00    -0.048 N  
HETATM   24  H   UNL     1      -5.274   8.525  64.403  1.00  0.00     0.000 HD 
BRANCH  23  25
HETATM   25  S   UNL     1      -6.931   6.821  64.276  1.00  0.00    -0.054 S  
HETATM   26  C   UNL     1      -7.076   7.299  62.567  1.00  0.00    -0.075 C  
HETATM   27  O   UNL     1      -8.247   6.913  64.868  1.00  0.00    -0.130 OA 
HETATM   28  O   UNL     1      -6.153   5.605  64.368  1.00  0.00    -0.024 OA 
ENDBRANCH  23  25
ENDBRANCH  20  23
ENDBRANCH  14  17
ENDBRANCH  13  14
ENDBRANCH  12  13
ENDBRANCH  11  12
ENDBRANCH   8  11
ENDBRANCH   7   8
ENDBRANCH   6   7
ENDBRANCH   5   6
ENDBRANCH   4   5
ENDBRANCH   3   4
ENDBRANCH   2   3
TORSDOF 14
ENDMDL
MODEL      297
REMARK 921   NORMALIZED FREE ENERGY PREDICTED BY IDOCK:   -2.42 KCAL/MOL
REMARK 922        TOTAL FREE ENERGY PREDICTED BY IDOCK:   -6.25 KCAL/MOL
REMARK 923 INTER-LIGAND FREE ENERGY PREDICTED BY IDOCK:   -5.99 KCAL/MOL
REMARK 924 INTRA-LIGAND FREE ENERGY PREDICTED BY IDOCK:   -0.26 KCAL/MOL
REMARK 927      BINDING AFFINITY PREDICTED BY RF-SCORE:    0.00 PKD
ROOT
HETATM    1  C   UNL     1      -9.458   2.843  67.966  1.00  0.00    -0.214 C  
HETATM    2  C   UNL     1      -9.415   3.909  66.887  1.00  0.00    -0.225 C  
ENDROOT
BRANCH   2   3
HETATM    3  C   UNL     1      -8.204   4.824  67.055  1.00  0.00    -0.106 C  
BRANCH   3   4
HETATM    4  C   UNL     1      -8.646   6.204  67.525  1.00  0.00    -0.106 C  
BRANCH   4   5
HETATM    5  C   UNL     1      -9.711   6.806  66.612  1.00  0.00    -0.213 C  
BRANCH   5   6
HETATM    6  C   UNL     1      -9.485   8.311  66.497  1.00  0.00    -0.284 C  
BRANCH   6   7
HETATM    7  C   UNL     1      -8.455   8.650  65.417  1.00  0.00    -0.172 C  
BRANCH   7   8
HETATM    8  N   UNL     1      -8.625  10.000  64.851  1.00  0.00    -0.161 NA 
BRANCH   8   9
HETATM    9  C   UNL     1      -9.610  10.076  63.758  1.00  0.00    -0.126 C  
HETATM   10  C   UNL     1      -9.216  10.917  62.547  1.00  0.00    -0.339 C  
ENDBRANCH   8   9
BRANCH   8  11
HETATM   11  C   UNL     1      -8.898  11.007  65.892  1.00  0.00    -0.195 C  
BRANCH  11  12
HETATM   12  C   UNL     1     -10.336  11.550  65.893  1.00  0.00    -0.293 C  
BRANCH  12  13
HETATM   13  C   UNL     1     -10.735  12.155  67.243  1.00  0.00    -0.264 C  
BRANCH  13  14
HETATM   14  C   UNL     1     -11.480  13.488  67.086  1.00  0.00    -0.338 C  
HETATM   15  H   UNL     1     -12.886  14.481  68.042  1.00  0.00     0.000 HD 
HETATM   16  O   UNL     1     -12.425  13.656  68.139  1.00  0.00    -0.078 OA 
BRANCH  14  17
HETATM   17  C   UNL     1     -10.523  14.664  67.056  1.00  0.00    -0.269 A  
HETATM   18  C   UNL     1     -10.761  15.777  67.878  1.00  0.00    -0.302 A  
HETATM   19  C   UNL     1      -9.937  16.902  67.814  1.00  0.00    -0.278 A  
HETATM   20  C   UNL     1      -8.866  16.930  66.924  1.00  0.00    -0.225 A  
HETATM   21  C   UNL     1      -9.407  14.692  66.200  1.00  0.00    -0.265 A  
HETATM   22  C   UNL     1      -8.581  15.817  66.136  1.00  0.00    -0.212 A  
BRANCH  20  23
HETATM   23  N   UNL     1      -8.065  18.103  66.837  1.00  0.00    -0.230 N  
HETATM   24  H   UNL     1      -7.054  18.062  66.970  1.00  0.00     0.000 HD 
BRANCH  23  25
HETATM   25  S   UNL     1      -8.840  19.566  66.505  1.00  0.00    -0.369 S  
HETATM   26  C   UNL     1      -9.147  20.178  68.149  1.00  0.00    -0.137 C  
HETATM   27  O   UNL     1     -10.116  19.203  65.930  1.00  0.00    -0.465 OA 
HETATM   28  O   UNL     1      -7.939  20.465  65.820  1.00  0.00    -0.125 OA 
ENDBRANCH  23  25
ENDBRANCH  20  23
ENDBRANCH  14  17
ENDBRANCH  13  14
ENDBRANCH  12  13
ENDBRANCH  11  12
ENDBRANCH   8  11
ENDBRANCH   7   8
ENDBRANCH   6   7
ENDBRANCH   5   6
ENDBRANCH   4   5
ENDBRANCH   3   4
ENDBRANCH   2   3
TORSDOF 14
ENDMDL
MODEL      298
REMARK 921   NORMALIZED FREE ENERGY PREDICTED BY IDOCK:   -2.40 KCAL/MOL
REMARK 922        TOTAL FREE ENERGY PREDICTED BY IDOCK:   -6.21 KCAL/MOL
REMARK 923 INTER-LIGAND FREE ENERGY PREDICTED BY IDOCK:   -4.74 KCAL/MOL
REMARK 924 INTRA-LIGAND FREE ENERGY PREDICTED BY IDOCK:   -1.47 KCAL/MOL
REMARK 927      BINDING AFFINITY PREDICTED BY RF-SCORE:    0.00 PKD
ROOT
HETATM    1  C   UNL     1      -8.858   7.452  66.319  1.00  0.00    -0.182 C  
HETATM    2  C   UNL     1     -10.176   7.202  67.027  1.00  0.00    -0.339 C  
ENDROOT
BRANCH   2   3
HETATM    3  C   UNL     1     -10.099   5.973  67.931  1.00  0.00    -0.183 C  
BRANCH   3   4
HETATM    4  C   UNL     1     -11.038   6.134  69.121  1.00  0.00    -0.448 C  
BRANCH   4   5
HETATM    5  C   UNL     1     -10.595   7.261  70.050  1.00  0.00    -0.247 C  
BRANCH   5   6
HETATM    6  C   UNL     1      -9.465   6.761  70.948  1.00  0.00    -0.159 C  
BRANCH   6   7
HETATM    7  C   UNL     1      -8.106   7.307  70.505  1.00  0.00    -0.109 C  
BRANCH   7   8
HETATM    8  N   UNL     1      -7.720   8.547  71.203  1.00  0.00    -0.092 NA 
BRANCH   8   9
HETATM    9  C   UNL     1      -6.603   8.383  72.150  1.00  0.00    -0.079 C  
HETATM   10  C   UNL     1      -6.162   6.950  72.436  1.00  0.00    -0.045 C  
ENDBRANCH   8   9
BRANCH   8  11
HETATM   11  C   UNL     1      -7.470   9.656  70.265  1.00  0.00    -0.158 C  
BRANCH  11  12
HETATM   12  C   UNL     1      -6.957   9.220  68.883  1.00  0.00    -0.064 C  
BRANCH  12  13
HETATM   13  C   UNL     1      -5.660   9.935  68.487  1.00  0.00    -0.039 C  
BRANCH  13  14
HETATM   14  C   UNL     1      -5.748  10.569  67.092  1.00  0.00    -0.042 C  
HETATM   15  H   UNL     1      -5.738   9.956  65.220  1.00  0.00     0.000 HD 
HETATM   16  O   UNL     1      -5.684   9.563  66.084  1.00  0.00    -0.051 OA 
BRANCH  14  17
HETATM   17  C   UNL     1      -7.015  11.387  66.928  1.00  0.00    -0.140 A  
HETATM   18  C   UNL     1      -8.035  10.928  66.080  1.00  0.00    -0.155 A  
HETATM   19  C   UNL     1      -9.177  11.699  65.855  1.00  0.00    -0.206 A  
HETATM   20  C   UNL     1      -9.311  12.940  66.471  1.00  0.00    -0.222 A  
HETATM   21  C   UNL     1      -7.191  12.621  67.580  1.00  0.00    -0.142 A  
HETATM   22  C   UNL     1      -8.335  13.392  67.355  1.00  0.00    -0.193 A  
BRANCH  20  23
HETATM   23  N   UNL     1     -10.459  13.734  66.193  1.00  0.00    -0.292 N  
HETATM   24  H   UNL     1     -10.376  14.632  65.715  1.00  0.00     0.000 HD 
BRANCH  23  25
HETATM   25  S   UNL     1     -11.964  13.143  66.679  1.00  0.00    -0.359 S  
HETATM   26  C   UNL     1     -11.578  12.490  68.290  1.00  0.00    -0.328 C  
HETATM   27  O   UNL     1     -12.236  12.021  65.808  1.00  0.00    -0.520 OA 
HETATM   28  O   UNL     1     -12.908  14.230  66.817  1.00  0.00     0.049 OA 
ENDBRANCH  23  25
ENDBRANCH  20  23
ENDBRANCH  14  17
ENDBRANCH  13  14
ENDBRANCH  12  13
ENDBRANCH  11  12
ENDBRANCH   8  11
ENDBRANCH   7   8
ENDBRANCH   6   7
ENDBRANCH   5   6
ENDBRANCH   4   5
ENDBRANCH   3   4
ENDBRANCH   2   3
TORSDOF 14
ENDMDL
MODEL      299
REMARK 921   NORMALIZED FREE ENERGY PREDICTED BY IDOCK:   -2.35 KCAL/MOL
REMARK 922        TOTAL FREE ENERGY PREDICTED BY IDOCK:   -6.13 KCAL/MOL
REMARK 923 INTER-LIGAND FREE ENERGY PREDICTED BY IDOCK:   -4.90 KCAL/MOL
REMARK 924 INTRA-LIGAND FREE ENERGY PREDICTED BY IDOCK:   -1.22 KCAL/MOL
REMARK 927      BINDING AFFINITY PREDICTED BY RF-SCORE:    0.00 PKD
ROOT
HETATM    1  C   UNL     1      -7.018  11.299  69.176  1.00  0.00    -0.114 C  
HETATM    2  C   UNL     1      -7.278  12.585  68.413  1.00  0.00    -0.111 C  
ENDROOT
BRANCH   2   3
HETATM    3  C   UNL     1      -8.132  12.333  67.172  1.00  0.00    -0.173 C  
BRANCH   3   4
HETATM    4  C   UNL     1      -9.393  11.565  67.547  1.00  0.00    -0.166 C  
BRANCH   4   5
HETATM    5  C   UNL     1     -10.650  12.414  67.384  1.00  0.00    -0.237 C  
BRANCH   5   6
HETATM    6  C   UNL     1     -11.403  12.462  68.712  1.00  0.00    -0.339 C  
BRANCH   6   7
HETATM    7  C   UNL     1     -11.808  11.065  69.186  1.00  0.00    -0.337 C  
BRANCH   7   8
HETATM    8  N   UNL     1     -11.680  10.883  70.643  1.00  0.00    -0.340 NA 
BRANCH   8   9
HETATM    9  C   UNL     1     -12.946  11.032  71.382  1.00  0.00    -0.414 C  
HETATM   10  C   UNL     1     -13.191  12.387  72.042  1.00  0.00    -0.514 C  
ENDBRANCH   8   9
BRANCH   8  11
HETATM   11  C   UNL     1     -11.002   9.621  70.987  1.00  0.00    -0.361 C  
BRANCH  11  12
HETATM   12  C   UNL     1     -10.510   8.810  69.778  1.00  0.00    -0.222 C  
BRANCH  12  13
HETATM   13  C   UNL     1     -11.055   7.378  69.770  1.00  0.00    -0.169 C  
BRANCH  13  14
HETATM   14  C   UNL     1     -10.008   6.354  70.233  1.00  0.00    -0.168 C  
HETATM   15  H   UNL     1      -9.972   4.713  71.319  1.00  0.00     0.000 HD 
HETATM   16  O   UNL     1     -10.620   5.346  71.033  1.00  0.00    -0.238 OA 
BRANCH  14  17
HETATM   17  C   UNL     1      -9.289   5.719  69.058  1.00  0.00    -0.144 A  
HETATM   18  C   UNL     1      -7.887   5.727  69.014  1.00  0.00    -0.094 A  
HETATM   19  C   UNL     1      -7.204   5.215  67.908  1.00  0.00    -0.067 A  
HETATM   20  C   UNL     1      -7.916   4.693  66.832  1.00  0.00    -0.102 A  
HETATM   21  C   UNL     1      -9.990   5.142  67.983  1.00  0.00    -0.200 A  
HETATM   22  C   UNL     1      -9.307   4.629  66.877  1.00  0.00    -0.150 A  
BRANCH  20  23
HETATM   23  N   UNL     1      -7.206   4.219  65.692  1.00  0.00    -0.070 N  
HETATM   24  H   UNL     1      -7.117   3.220  65.505  1.00  0.00     0.000 HD 
BRANCH  23  25
HETATM   25  S   UNL     1      -6.516   5.364  64.661  1.00  0.00    -0.039 S  
HETATM   26  C   UNL     1      -7.931   6.366  64.255  1.00  0.00    -0.102 C  
HETATM   27  O   UNL     1      -6.144   4.633  63.469  1.00  0.00    -0.017 OA 
HETATM   28  O   UNL     1      -5.551   6.166  65.378  1.00  0.00    -0.016 OA 
ENDBRANCH  23  25
ENDBRANCH  20  23
ENDBRANCH  14  17
ENDBRANCH  13  14
ENDBRANCH  12  13
ENDBRANCH  11  12
ENDBRANCH   8  11
ENDBRANCH   7   8
ENDBRANCH   6   7
ENDBRANCH   5   6
ENDBRANCH   4   5
ENDBRANCH   3   4
ENDBRANCH   2   3
TORSDOF 14
ENDMDL
MODEL      300
REMARK 921   NORMALIZED FREE ENERGY PREDICTED BY IDOCK:   -2.32 KCAL/MOL
REMARK 922        TOTAL FREE ENERGY PREDICTED BY IDOCK:   -6.07 KCAL/MOL
REMARK 923 INTER-LIGAND FREE ENERGY PREDICTED BY IDOCK:   -5.07 KCAL/MOL
REMARK 924 INTRA-LIGAND FREE ENERGY PREDICTED BY IDOCK:   -1.00 KCAL/MOL
REMARK 927      BINDING AFFINITY PREDICTED BY RF-SCORE:    0.00 PKD
ROOT
HETATM    1  C   UNL     1     -11.508  13.580  65.770  1.00  0.00    -0.331 C  
HETATM    2  C   UNL     1     -11.549  14.840  64.927  1.00  0.00    -0.401 C  
ENDROOT
BRANCH   2   3
HETATM    3  C   UNL     1     -10.302  15.696  65.144  1.00  0.00    -0.366 C  
BRANCH   3   4
HETATM    4  C   UNL     1     -10.446  16.522  66.417  1.00  0.00    -0.275 C  
BRANCH   4   5
HETATM    5  C   UNL     1      -9.272  16.312  67.370  1.00  0.00    -0.217 C  
BRANCH   5   6
HETATM    6  C   UNL     1      -8.347  15.238  66.804  1.00  0.00    -0.258 C  
BRANCH   6   7
HETATM    7  C   UNL     1      -8.399  13.952  67.630  1.00  0.00    -0.181 C  
BRANCH   7   8
HETATM    8  N   UNL     1      -7.439  12.928  67.178  1.00  0.00    -0.071 NA 
BRANCH   8   9
HETATM    9  C   UNL     1      -6.125  12.999  67.841  1.00  0.00    -0.131 C  
HETATM   10  C   UNL     1      -6.131  13.379  69.319  1.00  0.00    -0.098 C  
ENDBRANCH   8   9
BRANCH   8  11
HETATM   11  C   UNL     1      -8.003  11.569  67.248  1.00  0.00    -0.153 C  
BRANCH  11  12
HETATM   12  C   UNL     1      -9.523  11.497  67.032  1.00  0.00    -0.193 C  
BRANCH  12  13
HETATM   13  C   UNL     1     -10.242  10.748  68.160  1.00  0.00    -0.194 C  
BRANCH  13  14
HETATM   14  C   UNL     1      -9.310   9.781  68.903  1.00  0.00    -0.158 C  
HETATM   15  H   UNL     1      -8.977   9.236  70.766  1.00  0.00     0.000 HD 
HETATM   16  O   UNL     1      -9.554   9.835  70.306  1.00  0.00    -0.249 OA 
BRANCH  14  17
HETATM   17  C   UNL     1      -9.468   8.357  68.404  1.00  0.00    -0.145 A  
HETATM   18  C   UNL     1      -9.337   8.081  67.034  1.00  0.00    -0.197 A  
HETATM   19  C   UNL     1      -9.551   6.792  66.541  1.00  0.00    -0.191 A  
HETATM   20  C   UNL     1      -9.904   5.765  67.412  1.00  0.00    -0.138 A  
HETATM   21  C   UNL     1      -9.776   7.295  69.274  1.00  0.00    -0.161 A  
HETATM   22  C   UNL     1      -9.990   6.005  68.781  1.00  0.00    -0.186 A  
BRANCH  20  23
HETATM   23  N   UNL     1     -10.166   4.468  66.887  1.00  0.00    -0.196 N  
HETATM   24  H   UNL     1     -11.032   4.268  66.384  1.00  0.00     0.000 HD 
BRANCH  23  25
HETATM   25  S   UNL     1      -9.000   3.271  67.123  1.00  0.00    -0.170 S  
HETATM   26  C   UNL     1      -8.942   2.517  65.511  1.00  0.00    -0.133 C  
HETATM   27  O   UNL     1      -9.604   2.318  68.028  1.00  0.00    -0.199 OA 
HETATM   28  O   UNL     1      -7.718   3.873  67.416  1.00  0.00    -0.078 OA 
ENDBRANCH  23  25
ENDBRANCH  20  23
ENDBRANCH  14  17
ENDBRANCH  13  14
ENDBRANCH  12  13
ENDBRANCH  11  12
ENDBRANCH   8  11
ENDBRANCH   7   8
ENDBRANCH   6   7
ENDBRANCH   5   6
ENDBRANCH   4   5
ENDBRANCH   3   4
ENDBRANCH   2   3
TORSDOF 14
ENDMDL
MODEL      301
REMARK 921   NORMALIZED FREE ENERGY PREDICTED BY IDOCK:   -2.31 KCAL/MOL
REMARK 922        TOTAL FREE ENERGY PREDICTED BY IDOCK:   -6.05 KCAL/MOL
REMARK 923 INTER-LIGAND FREE ENERGY PREDICTED BY IDOCK:   -4.70 KCAL/MOL
REMARK 924 INTRA-LIGAND FREE ENERGY PREDICTED BY IDOCK:   -1.34 KCAL/MOL
REMARK 927      BINDING AFFINITY PREDICTED BY RF-SCORE:    0.00 PKD
ROOT
HETATM    1  C   UNL     1     -11.967  14.323  68.352  1.00  0.00    -0.344 C  
HETATM    2  C   UNL     1     -11.679  14.031  66.891  1.00  0.00    -0.435 C  
ENDROOT
BRANCH   2   3
HETATM    3  C   UNL     1     -10.218  13.638  66.680  1.00  0.00    -0.276 C  
BRANCH   3   4
HETATM    4  C   UNL     1      -9.299  14.772  67.117  1.00  0.00    -0.233 C  
BRANCH   4   5
HETATM    5  C   UNL     1      -9.082  15.794  66.005  1.00  0.00    -0.361 C  
BRANCH   5   6
HETATM    6  C   UNL     1      -9.537  17.169  66.486  1.00  0.00    -0.294 C  
BRANCH   6   7
HETATM    7  C   UNL     1      -8.392  18.184  66.468  1.00  0.00    -0.265 C  
BRANCH   7   8
HETATM    8  N   UNL     1      -7.061  17.564  66.598  1.00  0.00    -0.208 NA 
BRANCH   8   9
HETATM    9  C   UNL     1      -6.093  17.992  65.572  1.00  0.00    -0.171 C  
HETATM   10  C   UNL     1      -6.371  19.332  64.897  1.00  0.00    -0.267 C  
ENDBRANCH   8   9
BRANCH   8  11
HETATM   11  C   UNL     1      -6.508  17.719  67.956  1.00  0.00    -0.183 C  
BRANCH  11  12
HETATM   12  C   UNL     1      -6.658  16.479  68.851  1.00  0.00    -0.173 C  
BRANCH  12  13
HETATM   13  C   UNL     1      -5.857  15.279  68.331  1.00  0.00    -0.106 C  
BRANCH  13  14
HETATM   14  C   UNL     1      -5.718  14.171  69.384  1.00  0.00    -0.086 C  
HETATM   15  H   UNL     1      -6.231  13.891  71.265  1.00  0.00     0.000 HD 
HETATM   16  O   UNL     1      -6.316  14.576  70.613  1.00  0.00    -0.187 OA 
BRANCH  14  17
HETATM   17  C   UNL     1      -6.336  12.869  68.912  1.00  0.00    -0.090 A  
HETATM   18  C   UNL     1      -6.649  12.699  67.555  1.00  0.00    -0.156 A  
HETATM   19  C   UNL     1      -7.286  11.540  67.108  1.00  0.00    -0.139 A  
HETATM   20  C   UNL     1      -7.622  10.538  68.014  1.00  0.00    -0.091 A  
HETATM   21  C   UNL     1      -6.639  11.824  69.804  1.00  0.00    -0.047 A  
HETATM   22  C   UNL     1      -7.276  10.663  69.357  1.00  0.00    -0.126 A  
BRANCH  20  23
HETATM   23  N   UNL     1      -8.315   9.384  67.550  1.00  0.00    -0.121 N  
HETATM   24  H   UNL     1      -9.310   9.257  67.733  1.00  0.00     0.000 HD 
BRANCH  23  25
HETATM   25  S   UNL     1      -7.435   8.231  66.686  1.00  0.00    -0.086 S  
HETATM   26  C   UNL     1      -6.573   9.256  65.513  1.00  0.00    -0.069 C  
HETATM   27  O   UNL     1      -8.419   7.464  65.954  1.00  0.00    -0.139 OA 
HETATM   28  O   UNL     1      -6.475   7.582  67.552  1.00  0.00    -0.053 OA 
ENDBRANCH  23  25
ENDBRANCH  20  23
ENDBRANCH  14  17
ENDBRANCH  13  14
ENDBRANCH  12  13
ENDBRANCH  11  12
ENDBRANCH   8  11
ENDBRANCH   7   8
ENDBRANCH   6   7
ENDBRANCH   5   6
ENDBRANCH   4   5
ENDBRANCH   3   4
ENDBRANCH   2   3
TORSDOF 14
ENDMDL
MODEL      302
REMARK 921   NORMALIZED FREE ENERGY PREDICTED BY IDOCK:   -2.28 KCAL/MOL
REMARK 922        TOTAL FREE ENERGY PREDICTED BY IDOCK:   -6.00 KCAL/MOL
REMARK 923 INTER-LIGAND FREE ENERGY PREDICTED BY IDOCK:   -5.72 KCAL/MOL
REMARK 924 INTRA-LIGAND FREE ENERGY PREDICTED BY IDOCK:   -0.28 KCAL/MOL
REMARK 927      BINDING AFFINITY PREDICTED BY RF-SCORE:    0.00 PKD
ROOT
HETATM    1  C   UNL     1     -10.363   5.005  69.318  1.00  0.00    -0.199 C  
HETATM    2  C   UNL     1      -9.242   4.948  70.339  1.00  0.00    -0.189 C  
ENDROOT
BRANCH   2   3
HETATM    3  C   UNL     1      -9.636   5.650  71.637  1.00  0.00    -0.184 C  
BRANCH   3   4
HETATM    4  C   UNL     1     -10.558   6.826  71.342  1.00  0.00    -0.247 C  
BRANCH   4   5
HETATM    5  C   UNL     1      -9.997   8.142  71.876  1.00  0.00    -0.277 C  
BRANCH   5   6
HETATM    6  C   UNL     1      -9.776   9.106  70.712  1.00  0.00    -0.337 C  
BRANCH   6   7
HETATM    7  C   UNL     1     -11.028   9.242  69.844  1.00  0.00    -0.213 C  
BRANCH   7   8
HETATM    8  N   UNL     1     -10.802  10.022  68.613  1.00  0.00    -0.231 NA 
BRANCH   8   9
HETATM    9  C   UNL     1     -10.197   9.250  67.513  1.00  0.00    -0.242 C  
HETATM   10  C   UNL     1     -10.657   7.802  67.368  1.00  0.00    -0.345 C  
ENDBRANCH   8   9
BRANCH   8  11
HETATM   11  C   UNL     1     -12.020  10.723  68.170  1.00  0.00     0.249 C  
BRANCH  11  12
HETATM   12  C   UNL     1     -11.761  11.973  67.314  1.00  0.00    -0.339 C  
BRANCH  12  13
HETATM   13  C   UNL     1     -10.842  11.688  66.120  1.00  0.00    -0.343 C  
BRANCH  13  14
HETATM   14  C   UNL     1     -11.156  12.587  64.916  1.00  0.00    -0.299 C  
HETATM   15  H   UNL     1     -12.747  13.131  63.892  1.00  0.00     0.000 HD 
HETATM   16  O   UNL     1     -12.553  12.574  64.638  1.00  0.00    -0.540 OA 
BRANCH  14  17
HETATM   17  C   UNL     1     -10.685  14.011  65.144  1.00  0.00    -0.393 A  
HETATM   18  C   UNL     1      -9.369  14.250  65.566  1.00  0.00     0.279 A  
HETATM   19  C   UNL     1      -8.934  15.545  65.853  1.00  0.00    -0.133 A  
HETATM   20  C   UNL     1      -9.814  16.618  65.727  1.00  0.00    -0.211 A  
HETATM   21  C   UNL     1     -11.544  15.112  64.974  1.00  0.00    -0.294 A  
HETATM   22  C   UNL     1     -11.110  16.409  65.261  1.00  0.00    -0.117 A  
BRANCH  20  23
HETATM   23  N   UNL     1      -9.369  17.926  66.070  1.00  0.00    -0.114 N  
HETATM   24  H   UNL     1      -9.606  18.731  65.491  1.00  0.00     0.000 HD 
BRANCH  23  25
HETATM   25  S   UNL     1      -8.438  18.101  67.467  1.00  0.00    -0.251 S  
HETATM   26  C   UNL     1      -8.511  19.863  67.716  1.00  0.00    -0.310 C  
HETATM   27  O   UNL     1      -7.086  17.772  67.072  1.00  0.00    -0.170 OA 
HETATM   28  O   UNL     1      -9.076  17.434  68.580  1.00  0.00    -0.270 OA 
ENDBRANCH  23  25
ENDBRANCH  20  23
ENDBRANCH  14  17
ENDBRANCH  13  14
ENDBRANCH  12  13
ENDBRANCH  11  12
ENDBRANCH   8  11
ENDBRANCH   7   8
ENDBRANCH   6   7
ENDBRANCH   5   6
ENDBRANCH   4   5
ENDBRANCH   3   4
ENDBRANCH   2   3
TORSDOF 14
ENDMDL
MODEL      303
REMARK 921   NORMALIZED FREE ENERGY PREDICTED BY IDOCK:   -2.26 KCAL/MOL
REMARK 922        TOTAL FREE ENERGY PREDICTED BY IDOCK:   -5.97 KCAL/MOL
REMARK 923 INTER-LIGAND FREE ENERGY PREDICTED BY IDOCK:   -5.52 KCAL/MOL
REMARK 924 INTRA-LIGAND FREE ENERGY PREDICTED BY IDOCK:   -0.45 KCAL/MOL
REMARK 927      BINDING AFFINITY PREDICTED BY RF-SCORE:    0.00 PKD
ROOT
HETATM    1  C   UNL     1      -5.168   9.491  73.551  1.00  0.00    -0.066 C  
HETATM    2  C   UNL     1      -5.922   8.390  74.274  1.00  0.00    -0.128 C  
ENDROOT
BRANCH   2   3
HETATM    3  C   UNL     1      -7.413   8.707  74.371  1.00  0.00    -0.139 C  
BRANCH   3   4
HETATM    4  C   UNL     1      -8.205   7.806  73.431  1.00  0.00    -0.220 C  
BRANCH   4   5
HETATM    5  C   UNL     1      -8.291   8.384  72.021  1.00  0.00    -0.231 C  
BRANCH   5   6
HETATM    6  C   UNL     1      -7.344   7.617  71.102  1.00  0.00    -0.073 C  
BRANCH   6   7
HETATM    7  C   UNL     1      -7.541   6.104  71.220  1.00  0.00    -0.094 C  
BRANCH   7   8
HETATM    8  N   UNL     1      -7.583   5.418  69.916  1.00  0.00    -0.072 NA 
BRANCH   8   9
HETATM    9  C   UNL     1      -8.844   4.702  69.653  1.00  0.00    -0.083 C  
HETATM   10  C   UNL     1     -10.115   5.342  70.204  1.00  0.00    -0.322 C  
ENDBRANCH   8   9
BRANCH   8  11
HETATM   11  C   UNL     1      -7.234   6.319  68.804  1.00  0.00    -0.084 C  
BRANCH  11  12
HETATM   12  C   UNL     1      -8.415   7.127  68.243  1.00  0.00    -0.124 C  
BRANCH  12  13
HETATM   13  C   UNL     1      -8.770   6.729  66.806  1.00  0.00    -0.122 C  
BRANCH  13  14
HETATM   14  C   UNL     1     -10.120   7.307  66.359  1.00  0.00     0.013 C  
HETATM   15  H   UNL     1     -12.022   7.041  66.792  1.00  0.00     0.000 HD 
HETATM   16  O   UNL     1     -11.187   6.683  67.068  1.00  0.00    -0.404 OA 
BRANCH  14  17
HETATM   17  C   UNL     1     -10.178   8.810  66.553  1.00  0.00    -0.314 A  
HETATM   18  C   UNL     1      -9.596   9.658  65.598  1.00  0.00    -0.338 A  
HETATM   19  C   UNL     1      -9.570  11.041  65.791  1.00  0.00    -0.260 A  
HETATM   20  C   UNL     1     -10.122  11.592  66.945  1.00  0.00    -0.211 A  
HETATM   21  C   UNL     1     -10.774   9.390  67.688  1.00  0.00    -0.295 A  
HETATM   22  C   UNL     1     -10.750  10.774  67.881  1.00  0.00    -0.282 A  
BRANCH  20  23
HETATM   23  N   UNL     1     -10.045  12.999  67.149  1.00  0.00    -0.241 N  
HETATM   24  H   UNL     1      -9.435  13.395  67.864  1.00  0.00     0.000 HD 
BRANCH  23  25
HETATM   25  S   UNL     1     -10.996  13.991  66.168  1.00  0.00    -0.299 S  
HETATM   26  C   UNL     1     -10.654  15.596  66.860  1.00  0.00    -0.311 C  
HETATM   27  O   UNL     1     -12.365  13.658  66.496  1.00  0.00    -0.412 OA 
HETATM   28  O   UNL     1     -10.522  13.947  64.803  1.00  0.00    -0.408 OA 
ENDBRANCH  23  25
ENDBRANCH  20  23
ENDBRANCH  14  17
ENDBRANCH  13  14
ENDBRANCH  12  13
ENDBRANCH  11  12
ENDBRANCH   8  11
ENDBRANCH   7   8
ENDBRANCH   6   7
ENDBRANCH   5   6
ENDBRANCH   4   5
ENDBRANCH   3   4
ENDBRANCH   2   3
TORSDOF 14
ENDMDL
MODEL      304
REMARK 921   NORMALIZED FREE ENERGY PREDICTED BY IDOCK:   -2.25 KCAL/MOL
REMARK 922        TOTAL FREE ENERGY PREDICTED BY IDOCK:   -5.95 KCAL/MOL
REMARK 923 INTER-LIGAND FREE ENERGY PREDICTED BY IDOCK:   -4.94 KCAL/MOL
REMARK 924 INTRA-LIGAND FREE ENERGY PREDICTED BY IDOCK:   -1.01 KCAL/MOL
REMARK 927      BINDING AFFINITY PREDICTED BY RF-SCORE:    0.00 PKD
ROOT
HETATM    1  C   UNL     1      -9.726  10.948  63.023  1.00  0.00    -0.380 C  
HETATM    2  C   UNL     1     -10.528  11.618  64.124  1.00  0.00    -0.402 C  
ENDROOT
BRANCH   2   3
HETATM    3  C   UNL     1     -10.495  10.799  65.413  1.00  0.00    -0.272 C  
BRANCH   3   4
HETATM    4  C   UNL     1     -11.396  11.436  66.464  1.00  0.00    -0.195 C  
BRANCH   4   5
HETATM    5  C   UNL     1     -12.009  12.745  65.975  1.00  0.00    -0.491 C  
BRANCH   5   6
HETATM    6  C   UNL     1     -11.583  13.881  66.902  1.00  0.00    -0.400 C  
BRANCH   6   7
HETATM    7  C   UNL     1     -10.199  13.632  67.505  1.00  0.00    -0.241 C  
BRANCH   7   8
HETATM    8  N   UNL     1      -9.134  14.429  66.869  1.00  0.00    -0.241 NA 
BRANCH   8   9
HETATM    9  C   UNL     1      -9.348  15.885  66.938  1.00  0.00    -0.225 C  
HETATM   10  C   UNL     1      -8.292  16.758  66.265  1.00  0.00    -0.353 C  
ENDBRANCH   8   9
BRANCH   8  11
HETATM   11  C   UNL     1      -7.796  14.059  67.362  1.00  0.00    -0.170 C  
BRANCH  11  12
HETATM   12  C   UNL     1      -7.784  12.894  68.365  1.00  0.00    -0.133 C  
BRANCH  12  13
HETATM   13  C   UNL     1      -6.606  11.940  68.144  1.00  0.00    -0.057 C  
BRANCH  13  14
HETATM   14  C   UNL     1      -6.156  11.259  69.444  1.00  0.00    -0.074 C  
HETATM   15  H   UNL     1      -6.160  11.671  71.369  1.00  0.00     0.000 HD 
HETATM   16  O   UNL     1      -6.438  12.092  70.564  1.00  0.00    -0.071 OA 
BRANCH  14  17
HETATM   17  C   UNL     1      -6.817   9.905  69.625  1.00  0.00    -0.076 A  
HETATM   18  C   UNL     1      -6.089   8.735  69.365  1.00  0.00    -0.041 A  
HETATM   19  C   UNL     1      -6.697   7.480  69.452  1.00  0.00    -0.041 A  
HETATM   20  C   UNL     1      -8.043   7.383  69.795  1.00  0.00    -0.127 A  
HETATM   21  C   UNL     1      -8.163   9.783  70.018  1.00  0.00    -0.207 A  
HETATM   22  C   UNL     1      -8.772   8.528  70.106  1.00  0.00    -0.137 A  
BRANCH  20  23
HETATM   23  N   UNL     1      -8.660   6.100  69.833  1.00  0.00    -0.131 N  
HETATM   24  H   UNL     1      -8.996   5.653  68.980  1.00  0.00     0.000 HD 
BRANCH  23  25
HETATM   25  S   UNL     1      -8.816   5.344  71.334  1.00  0.00    -0.135 S  
HETATM   26  C   UNL     1      -7.111   5.079  71.771  1.00  0.00    -0.066 C  
HETATM   27  O   UNL     1      -9.400   4.051  71.053  1.00  0.00    -0.124 OA 
HETATM   28  O   UNL     1      -9.421   6.247  72.288  1.00  0.00    -0.150 OA 
ENDBRANCH  23  25
ENDBRANCH  20  23
ENDBRANCH  14  17
ENDBRANCH  13  14
ENDBRANCH  12  13
ENDBRANCH  11  12
ENDBRANCH   8  11
ENDBRANCH   7   8
ENDBRANCH   6   7
ENDBRANCH   5   6
ENDBRANCH   4   5
ENDBRANCH   3   4
ENDBRANCH   2   3
TORSDOF 14
ENDMDL
MODEL      305
REMARK 921   NORMALIZED FREE ENERGY PREDICTED BY IDOCK:   -2.22 KCAL/MOL
REMARK 922        TOTAL FREE ENERGY PREDICTED BY IDOCK:   -5.89 KCAL/MOL
REMARK 923 INTER-LIGAND FREE ENERGY PREDICTED BY IDOCK:   -4.70 KCAL/MOL
REMARK 924 INTRA-LIGAND FREE ENERGY PREDICTED BY IDOCK:   -1.19 KCAL/MOL
REMARK 927      BINDING AFFINITY PREDICTED BY RF-SCORE:    0.00 PKD
ROOT
HETATM    1  C   UNL     1     -12.260  11.827  70.554  1.00  0.00    -0.438 C  
HETATM    2  C   UNL     1     -11.465  11.369  69.345  1.00  0.00    -0.378 C  
ENDROOT
BRANCH   2   3
HETATM    3  C   UNL     1     -11.624  12.337  68.174  1.00  0.00    -0.396 C  
BRANCH   3   4
HETATM    4  C   UNL     1     -10.300  12.494  67.436  1.00  0.00    -0.222 C  
BRANCH   4   5
HETATM    5  C   UNL     1     -10.484  12.476  65.921  1.00  0.00    -0.289 C  
BRANCH   5   6
HETATM    6  C   UNL     1     -10.643  11.032  65.449  1.00  0.00    -0.270 C  
BRANCH   6   7
HETATM    7  C   UNL     1      -9.596  10.111  66.078  1.00  0.00    -0.210 C  
BRANCH   7   8
HETATM    8  N   UNL     1      -8.252  10.271  65.493  1.00  0.00    -0.153 NA 
BRANCH   8   9
HETATM    9  C   UNL     1      -7.173  10.398  66.489  1.00  0.00    -0.118 C  
HETATM   10  C   UNL     1      -5.855  10.985  65.989  1.00  0.00    -0.125 C  
ENDBRANCH   8   9
BRANCH   8  11
HETATM   11  C   UNL     1      -7.949   9.222  64.504  1.00  0.00    -0.128 C  
BRANCH  11  12
HETATM   12  C   UNL     1      -7.597   7.855  65.111  1.00  0.00    -0.092 C  
BRANCH  12  13
HETATM   13  C   UNL     1      -8.589   6.759  64.706  1.00  0.00     0.193 C  
BRANCH  13  14
HETATM   14  C   UNL     1      -8.200   5.384  65.268  1.00  0.00    -0.133 C  
HETATM   15  H   UNL     1      -6.544   4.361  65.570  1.00  0.00     0.000 HD 
HETATM   16  O   UNL     1      -6.786   5.212  65.222  1.00  0.00    -0.057 OA 
BRANCH  14  17
HETATM   17  C   UNL     1      -8.700   5.198  66.688  1.00  0.00    -0.109 A  
HETATM   18  C   UNL     1     -10.070   5.013  66.924  1.00  0.00    -0.261 A  
HETATM   19  C   UNL     1     -10.564   4.914  68.227  1.00  0.00     0.197 A  
HETATM   20  C   UNL     1      -9.692   5.003  69.309  1.00  0.00    -0.179 A  
HETATM   21  C   UNL     1      -7.829   5.235  67.792  1.00  0.00    -0.092 A  
HETATM   22  C   UNL     1      -8.322   5.135  69.096  1.00  0.00    -0.087 A  
BRANCH  20  23
HETATM   23  N   UNL     1     -10.217   4.948  70.631  1.00  0.00    -0.234 N  
HETATM   24  H   UNL     1     -10.068   4.131  71.223  1.00  0.00     0.000 HD 
BRANCH  23  25
HETATM   25  S   UNL     1     -11.093   6.280  71.188  1.00  0.00    -0.304 S  
HETATM   26  C   UNL     1      -9.784   7.419  71.584  1.00  0.00    -0.154 C  
HETATM   27  O   UNL     1     -11.692   5.853  72.433  1.00  0.00    -0.309 OA 
HETATM   28  O   UNL     1     -11.900   6.829  70.120  1.00  0.00    -0.349 OA 
ENDBRANCH  23  25
ENDBRANCH  20  23
ENDBRANCH  14  17
ENDBRANCH  13  14
ENDBRANCH  12  13
ENDBRANCH  11  12
ENDBRANCH   8  11
ENDBRANCH   7   8
ENDBRANCH   6   7
ENDBRANCH   5   6
ENDBRANCH   4   5
ENDBRANCH   3   4
ENDBRANCH   2   3
TORSDOF 14
ENDMDL
MODEL      306
REMARK 921   NORMALIZED FREE ENERGY PREDICTED BY IDOCK:   -2.19 KCAL/MOL
REMARK 922        TOTAL FREE ENERGY PREDICTED BY IDOCK:   -5.83 KCAL/MOL
REMARK 923 INTER-LIGAND FREE ENERGY PREDICTED BY IDOCK:   -4.75 KCAL/MOL
REMARK 924 INTRA-LIGAND FREE ENERGY PREDICTED BY IDOCK:   -1.09 KCAL/MOL
REMARK 927      BINDING AFFINITY PREDICTED BY RF-SCORE:    0.00 PKD
ROOT
HETATM    1  C   UNL     1     -11.003   2.453  63.186  1.00  0.00    -0.241 C  
HETATM    2  C   UNL     1      -9.860   1.470  63.363  1.00  0.00    -0.116 C  
ENDROOT
BRANCH   2   3
HETATM    3  C   UNL     1      -8.715   2.086  64.165  1.00  0.00    -0.092 C  
BRANCH   3   4
HETATM    4  C   UNL     1      -7.811   2.903  63.250  1.00  0.00    -0.068 C  
BRANCH   4   5
HETATM    5  C   UNL     1      -8.220   4.373  63.206  1.00  0.00    -0.094 C  
BRANCH   5   6
HETATM    6  C   UNL     1      -8.314   4.914  64.630  1.00  0.00    -0.134 C  
BRANCH   6   7
HETATM    7  C   UNL     1      -6.938   5.284  65.188  1.00  0.00    -0.061 C  
BRANCH   7   8
HETATM    8  N   UNL     1      -6.911   6.604  65.844  1.00  0.00    -0.052 NA 
BRANCH   8   9
HETATM    9  C   UNL     1      -6.269   7.662  65.044  1.00  0.00    -0.038 C  
HETATM   10  C   UNL     1      -5.385   7.197  63.890  1.00  0.00    -0.029 C  
ENDBRANCH   8   9
BRANCH   8  11
HETATM   11  C   UNL     1      -8.246   7.019  66.311  1.00  0.00    -0.120 C  
BRANCH  11  12
HETATM   12  C   UNL     1      -8.815   8.256  65.599  1.00  0.00    -0.172 C  
BRANCH  12  13
HETATM   13  C   UNL     1      -9.757   9.068  66.495  1.00  0.00    -0.311 C  
BRANCH  13  14
HETATM   14  C   UNL     1      -8.993   9.968  67.477  1.00  0.00    -0.134 C  
HETATM   15  H   UNL     1      -7.363  11.072  67.460  1.00  0.00     0.000 HD 
HETATM   16  O   UNL     1      -7.836  10.516  66.852  1.00  0.00    -0.111 OA 
BRANCH  14  17
HETATM   17  C   UNL     1      -9.870  11.083  68.013  1.00  0.00    -0.183 A  
HETATM   18  C   UNL     1     -10.763  10.822  69.063  1.00  0.00    -0.265 A  
HETATM   19  C   UNL     1     -11.634  11.812  69.523  1.00  0.00    -0.398 A  
HETATM   20  C   UNL     1     -11.625  13.074  68.935  1.00  0.00    -0.311 A  
HETATM   21  C   UNL     1      -9.841  12.379  67.465  1.00  0.00    -0.194 A  
HETATM   22  C   UNL     1     -10.711  13.370  67.926  1.00  0.00    -0.259 A  
BRANCH  20  23
HETATM   23  N   UNL     1     -12.551  14.058  69.384  1.00  0.00    -0.402 N  
HETATM   24  H   UNL     1     -13.550  13.966  69.195  1.00  0.00     0.000 HD 
BRANCH  23  25
HETATM   25  S   UNL     1     -11.945  15.381  70.239  1.00  0.00    -0.383 S  
HETATM   26  C   UNL     1     -13.301  15.738  71.337  1.00  0.00    -0.257 C  
HETATM   27  O   UNL     1     -11.868  16.458  69.277  1.00  0.00    -0.136 OA 
HETATM   28  O   UNL     1     -10.790  14.988  71.016  1.00  0.00    -0.183 OA 
ENDBRANCH  23  25
ENDBRANCH  20  23
ENDBRANCH  14  17
ENDBRANCH  13  14
ENDBRANCH  12  13
ENDBRANCH  11  12
ENDBRANCH   8  11
ENDBRANCH   7   8
ENDBRANCH   6   7
ENDBRANCH   5   6
ENDBRANCH   4   5
ENDBRANCH   3   4
ENDBRANCH   2   3
TORSDOF 14
ENDMDL
MODEL      307
REMARK 921   NORMALIZED FREE ENERGY PREDICTED BY IDOCK:   -2.16 KCAL/MOL
REMARK 922        TOTAL FREE ENERGY PREDICTED BY IDOCK:   -5.78 KCAL/MOL
REMARK 923 INTER-LIGAND FREE ENERGY PREDICTED BY IDOCK:   -4.73 KCAL/MOL
REMARK 924 INTRA-LIGAND FREE ENERGY PREDICTED BY IDOCK:   -1.06 KCAL/MOL
REMARK 927      BINDING AFFINITY PREDICTED BY RF-SCORE:    0.00 PKD
ROOT
HETATM    1  C   UNL     1      -9.051   6.646  70.940  1.00  0.00    -0.154 C  
HETATM    2  C   UNL     1      -7.844   7.564  70.979  1.00  0.00    -0.091 C  
ENDROOT
BRANCH   2   3
HETATM    3  C   UNL     1      -7.800   8.477  69.755  1.00  0.00    -0.094 C  
BRANCH   3   4
HETATM    4  C   UNL     1      -6.422   8.422  69.106  1.00  0.00    -0.043 C  
BRANCH   4   5
HETATM    5  C   UNL     1      -5.955   6.988  68.874  1.00  0.00    -0.022 C  
BRANCH   5   6
HETATM    6  C   UNL     1      -6.492   6.493  67.533  1.00  0.00    -0.052 C  
BRANCH   6   7
HETATM    7  C   UNL     1      -6.686   7.642  66.541  1.00  0.00    -0.058 C  
BRANCH   7   8
HETATM    8  N   UNL     1      -7.973   7.583  65.825  1.00  0.00    -0.110 NA 
BRANCH   8   9
HETATM    9  C   UNL     1      -7.902   6.915  64.513  1.00  0.00    -0.115 C  
HETATM   10  C   UNL     1      -7.081   5.629  64.450  1.00  0.00    -0.053 C  
ENDBRANCH   8   9
BRANCH   8  11
HETATM   11  C   UNL     1      -9.047   7.015  66.659  1.00  0.00    -0.152 C  
BRANCH  11  12
HETATM   12  C   UNL     1     -10.375   7.786  66.602  1.00  0.00    -0.262 C  
BRANCH  12  13
HETATM   13  C   UNL     1     -10.174   9.284  66.342  1.00  0.00    -0.298 C  
BRANCH  13  14
HETATM   14  C   UNL     1     -10.805  10.154  67.437  1.00  0.00    -0.261 C  
HETATM   15  H   UNL     1     -10.951  10.129  69.401  1.00  0.00     0.000 HD 
HETATM   16  O   UNL     1     -10.560   9.590  68.723  1.00  0.00    -0.215 OA 
BRANCH  14  17
HETATM   17  C   UNL     1     -10.285  11.579  67.389  1.00  0.00    -0.228 A  
HETATM   18  C   UNL     1      -9.999  12.173  66.151  1.00  0.00    -0.253 A  
HETATM   19  C   UNL     1      -9.450  13.456  66.084  1.00  0.00    -0.156 A  
HETATM   20  C   UNL     1      -9.176  14.157  67.256  1.00  0.00    -0.219 A  
HETATM   21  C   UNL     1     -10.049  12.322  68.560  1.00  0.00    -0.192 A  
HETATM   22  C   UNL     1      -9.500  13.606  68.494  1.00  0.00    -0.143 A  
BRANCH  20  23
HETATM   23  N   UNL     1      -8.572  15.443  67.172  1.00  0.00    -0.193 N  
HETATM   24  H   UNL     1      -7.569  15.564  67.315  1.00  0.00     0.000 HD 
BRANCH  23  25
HETATM   25  S   UNL     1      -9.568  16.761  66.827  1.00  0.00    -0.261 S  
HETATM   26  C   UNL     1      -9.701  17.526  68.429  1.00  0.00    -0.316 C  
HETATM   27  O   UNL     1     -10.860  16.194  66.507  1.00  0.00    -0.262 OA 
HETATM   28  O   UNL     1      -8.902  17.667  65.917  1.00  0.00    -0.521 OA 
ENDBRANCH  23  25
ENDBRANCH  20  23
ENDBRANCH  14  17
ENDBRANCH  13  14
ENDBRANCH  12  13
ENDBRANCH  11  12
ENDBRANCH   8  11
ENDBRANCH   7   8
ENDBRANCH   6   7
ENDBRANCH   5   6
ENDBRANCH   4   5
ENDBRANCH   3   4
ENDBRANCH   2   3
TORSDOF 14
ENDMDL
MODEL      308
REMARK 921   NORMALIZED FREE ENERGY PREDICTED BY IDOCK:   -2.06 KCAL/MOL
REMARK 922        TOTAL FREE ENERGY PREDICTED BY IDOCK:   -5.61 KCAL/MOL
REMARK 923 INTER-LIGAND FREE ENERGY PREDICTED BY IDOCK:   -4.26 KCAL/MOL
REMARK 924 INTRA-LIGAND FREE ENERGY PREDICTED BY IDOCK:   -1.35 KCAL/MOL
REMARK 927      BINDING AFFINITY PREDICTED BY RF-SCORE:    0.00 PKD
ROOT
HETATM    1  C   UNL     1     -11.915  13.564  65.713  1.00  0.00    -0.439 C  
HETATM    2  C   UNL     1     -11.629  14.731  64.787  1.00  0.00    -0.418 C  
ENDROOT
BRANCH   2   3
HETATM    3  C   UNL     1     -10.382  15.497  65.225  1.00  0.00    -0.416 C  
BRANCH   3   4
HETATM    4  C   UNL     1     -10.657  16.256  66.517  1.00  0.00    -0.256 C  
BRANCH   4   5
HETATM    5  C   UNL     1      -9.370  16.743  67.179  1.00  0.00    -0.236 C  
BRANCH   5   6
HETATM    6  C   UNL     1      -8.207  15.860  66.734  1.00  0.00    -0.307 C  
BRANCH   6   7
HETATM    7  C   UNL     1      -7.784  14.883  67.833  1.00  0.00    -0.141 C  
BRANCH   7   8
HETATM    8  N   UNL     1      -6.561  14.129  67.503  1.00  0.00    -0.285 NA 
BRANCH   8   9
HETATM    9  C   UNL     1      -5.460  14.315  68.465  1.00  0.00    -0.098 C  
HETATM   10  C   UNL     1      -5.864  14.598  69.910  1.00  0.00    -0.122 C  
ENDBRANCH   8   9
BRANCH   8  11
HETATM   11  C   UNL     1      -6.837  12.699  67.272  1.00  0.00    -0.098 C  
BRANCH  11  12
HETATM   12  C   UNL     1      -8.295  12.382  66.906  1.00  0.00    -0.117 C  
BRANCH  12  13
HETATM   13  C   UNL     1      -8.882  11.251  67.758  1.00  0.00    -0.141 C  
BRANCH  13  14
HETATM   14  C   UNL     1      -7.794  10.379  68.398  1.00  0.00    -0.104 C  
HETATM   15  H   UNL     1      -7.227   9.873  70.215  1.00  0.00     0.000 HD 
HETATM   16  O   UNL     1      -7.900  10.414  69.819  1.00  0.00    -0.157 OA 
BRANCH  14  17
HETATM   17  C   UNL     1      -7.865   8.945  67.908  1.00  0.00    -0.102 A  
HETATM   18  C   UNL     1      -8.831   8.076  68.436  1.00  0.00    -0.134 A  
HETATM   19  C   UNL     1      -8.869   6.733  68.056  1.00  0.00    -0.119 A  
HETATM   20  C   UNL     1      -7.937   6.242  67.145  1.00  0.00    -0.109 A  
HETATM   21  C   UNL     1      -6.963   8.442  66.951  1.00  0.00    -0.074 A  
HETATM   22  C   UNL     1      -7.001   7.098  66.570  1.00  0.00    -0.076 A  
BRANCH  20  23
HETATM   23  N   UNL     1      -7.959   4.860  66.805  1.00  0.00    -0.103 N  
HETATM   24  H   UNL     1      -7.463   4.170  67.370  1.00  0.00     0.000 HD 
BRANCH  23  25
HETATM   25  S   UNL     1      -8.832   4.399  65.435  1.00  0.00    -0.139 S  
HETATM   26  C   UNL     1      -9.299   2.735  65.863  1.00  0.00    -0.024 C  
HETATM   27  O   UNL     1      -7.859   4.317  64.368  1.00  0.00    -0.082 OA 
HETATM   28  O   UNL     1     -10.021   5.212  65.303  1.00  0.00     0.038 OA 
ENDBRANCH  23  25
ENDBRANCH  20  23
ENDBRANCH  14  17
ENDBRANCH  13  14
ENDBRANCH  12  13
ENDBRANCH  11  12
ENDBRANCH   8  11
ENDBRANCH   7   8
ENDBRANCH   6   7
ENDBRANCH   5   6
ENDBRANCH   4   5
ENDBRANCH   3   4
ENDBRANCH   2   3
TORSDOF 14
ENDMDL
MODEL      309
REMARK 921   NORMALIZED FREE ENERGY PREDICTED BY IDOCK:   -1.99 KCAL/MOL
REMARK 922        TOTAL FREE ENERGY PREDICTED BY IDOCK:   -5.47 KCAL/MOL
REMARK 923 INTER-LIGAND FREE ENERGY PREDICTED BY IDOCK:   -4.43 KCAL/MOL
REMARK 924 INTRA-LIGAND FREE ENERGY PREDICTED BY IDOCK:   -1.04 KCAL/MOL
REMARK 927      BINDING AFFINITY PREDICTED BY RF-SCORE:    0.00 PKD
ROOT
HETATM    1  C   UNL     1      -9.774  10.955  63.010  1.00  0.00    -0.380 C  
HETATM    2  C   UNL     1     -10.292  11.575  64.294  1.00  0.00    -0.376 C  
ENDROOT
BRANCH   2   3
HETATM    3  C   UNL     1      -9.914  10.733  65.511  1.00  0.00    -0.321 C  
BRANCH   3   4
HETATM    4  C   UNL     1     -10.377  11.420  66.791  1.00  0.00    -0.271 C  
BRANCH   4   5
HETATM    5  C   UNL     1     -10.681  12.899  66.568  1.00  0.00    -0.285 C  
BRANCH   5   6
HETATM    6  C   UNL     1      -9.995  13.724  67.655  1.00  0.00    -0.238 C  
BRANCH   6   7
HETATM    7  C   UNL     1      -8.709  13.056  68.148  1.00  0.00    -0.190 C  
BRANCH   7   8
HETATM    8  N   UNL     1      -7.486  13.761  67.724  1.00  0.00    -0.146 NA 
BRANCH   8   9
HETATM    9  C   UNL     1      -7.541  15.223  67.902  1.00  0.00    -0.139 C  
HETATM   10  C   UNL     1      -6.298  16.004  67.484  1.00  0.00    -0.200 C  
ENDBRANCH   8   9
BRANCH   8  11
HETATM   11  C   UNL     1      -6.275  13.190  68.341  1.00  0.00    -0.083 C  
BRANCH  11  12
HETATM   12  C   UNL     1      -6.541  12.027  69.310  1.00  0.00    -0.109 C  
BRANCH  12  13
HETATM   13  C   UNL     1      -5.505  10.905  69.178  1.00  0.00    -0.040 C  
BRANCH  13  14
HETATM   14  C   UNL     1      -5.319  10.128  70.489  1.00  0.00    -0.054 C  
HETATM   15  H   UNL     1      -5.141  10.545  72.405  1.00  0.00     0.000 HD 
HETATM   16  O   UNL     1      -5.257  11.026  71.593  1.00  0.00    -0.265 OA 
BRANCH  14  17
HETATM   17  C   UNL     1      -6.429   9.117  70.704  1.00  0.00    -0.066 A  
HETATM   18  C   UNL     1      -7.110   9.082  71.930  1.00  0.00     0.081 A  
HETATM   19  C   UNL     1      -8.084   8.112  72.179  1.00  0.00    -0.182 A  
HETATM   20  C   UNL     1      -8.385   7.164  71.205  1.00  0.00    -0.113 A  
HETATM   21  C   UNL     1      -6.783   8.181  69.714  1.00  0.00    -0.040 A  
HETATM   22  C   UNL     1      -7.758   7.212  69.962  1.00  0.00    -0.103 A  
BRANCH  20  23
HETATM   23  N   UNL     1      -9.346   6.153  71.492  1.00  0.00    -0.149 N  
HETATM   24  H   UNL     1      -9.063   5.250  71.872  1.00  0.00     0.000 HD 
BRANCH  23  25
HETATM   25  S   UNL     1     -10.970   6.499  71.185  1.00  0.00    -0.279 S  
HETATM   26  C   UNL     1     -11.246   7.878  72.276  1.00  0.00    -0.331 C  
HETATM   27  O   UNL     1     -11.709   5.372  71.711  1.00  0.00     0.111 OA 
HETATM   28  O   UNL     1     -11.139   6.931  69.815  1.00  0.00    -0.263 OA 
ENDBRANCH  23  25
ENDBRANCH  20  23
ENDBRANCH  14  17
ENDBRANCH  13  14
ENDBRANCH  12  13
ENDBRANCH  11  12
ENDBRANCH   8  11
ENDBRANCH   7   8
ENDBRANCH   6   7
ENDBRANCH   5   6
ENDBRANCH   4   5
ENDBRANCH   3   4
ENDBRANCH   2   3
TORSDOF 14
ENDMDL
MODEL      310
REMARK 921   NORMALIZED FREE ENERGY PREDICTED BY IDOCK:   -1.95 KCAL/MOL
REMARK 922        TOTAL FREE ENERGY PREDICTED BY IDOCK:   -5.39 KCAL/MOL
REMARK 923 INTER-LIGAND FREE ENERGY PREDICTED BY IDOCK:   -5.04 KCAL/MOL
REMARK 924 INTRA-LIGAND FREE ENERGY PREDICTED BY IDOCK:   -0.35 KCAL/MOL
REMARK 927      BINDING AFFINITY PREDICTED BY RF-SCORE:    0.00 PKD
ROOT
HETATM    1  C   UNL     1     -10.191  15.913  66.421  1.00  0.00    -0.311 C  
HETATM    2  C   UNL     1     -10.494  14.880  67.491  1.00  0.00    -0.254 C  
ENDROOT
BRANCH   2   3
HETATM    3  C   UNL     1     -11.639  13.961  67.070  1.00  0.00    -0.394 C  
BRANCH   3   4
HETATM    4  C   UNL     1     -11.418  13.462  65.647  1.00  0.00    -0.335 C  
BRANCH   4   5
HETATM    5  C   UNL     1     -10.711  12.109  65.619  1.00  0.00    -0.312 C  
BRANCH   5   6
HETATM    6  C   UNL     1      -9.965  11.901  66.935  1.00  0.00    -0.219 C  
BRANCH   6   7
HETATM    7  C   UNL     1      -9.425  10.475  67.062  1.00  0.00    -0.163 C  
BRANCH   7   8
HETATM    8  N   UNL     1      -9.652   9.882  68.392  1.00  0.00    -0.146 NA 
BRANCH   8   9
HETATM    9  C   UNL     1     -10.576  10.650  69.246  1.00  0.00    -0.233 C  
HETATM   10  C   UNL     1     -11.360   9.853  70.285  1.00  0.00    -0.357 C  
ENDBRANCH   8   9
BRANCH   8  11
HETATM   11  C   UNL     1     -10.052   8.466  68.307  1.00  0.00    -0.199 C  
BRANCH  11  12
HETATM   12  C   UNL     1     -10.411   7.989  66.891  1.00  0.00    -0.387 C  
BRANCH  12  13
HETATM   13  C   UNL     1      -9.253   7.253  66.207  1.00  0.00    -0.175 C  
BRANCH  13  14
HETATM   14  C   UNL     1      -9.364   5.730  66.354  1.00  0.00    -0.156 C  
HETATM   15  H   UNL     1      -8.539   4.135  65.545  1.00  0.00     0.000 HD 
HETATM   16  O   UNL     1      -8.471   5.078  65.455  1.00  0.00    -0.126 OA 
BRANCH  14  17
HETATM   17  C   UNL     1      -9.085   5.282  67.776  1.00  0.00    -0.115 A  
HETATM   18  C   UNL     1      -8.043   5.879  68.502  1.00  0.00    -0.106 A  
HETATM   19  C   UNL     1      -7.719   5.433  69.785  1.00  0.00    -0.077 A  
HETATM   20  C   UNL     1      -8.432   4.382  70.356  1.00  0.00    -0.077 A  
HETATM   21  C   UNL     1      -9.826   4.255  68.390  1.00  0.00    -0.104 A  
HETATM   22  C   UNL     1      -9.503   3.810  69.674  1.00  0.00    -0.258 A  
BRANCH  20  23
HETATM   23  N   UNL     1      -8.058   3.908  71.645  1.00  0.00    -0.072 N  
HETATM   24  H   UNL     1      -7.127   3.529  71.818  1.00  0.00     0.000 HD 
BRANCH  23  25
HETATM   25  S   UNL     1      -9.206   3.994  72.880  1.00  0.00    -0.111 S  
HETATM   26  C   UNL     1      -8.163   4.139  74.316  1.00  0.00    -0.091 C  
HETATM   27  O   UNL     1      -9.825   2.687  72.922  1.00  0.00    -0.108 OA 
HETATM   28  O   UNL     1     -10.001   5.194  72.742  1.00  0.00    -0.156 OA 
ENDBRANCH  23  25
ENDBRANCH  20  23
ENDBRANCH  14  17
ENDBRANCH  13  14
ENDBRANCH  12  13
ENDBRANCH  11  12
ENDBRANCH   8  11
ENDBRANCH   7   8
ENDBRANCH   6   7
ENDBRANCH   5   6
ENDBRANCH   4   5
ENDBRANCH   3   4
ENDBRANCH   2   3
TORSDOF 14
ENDMDL
MODEL      311
REMARK 921   NORMALIZED FREE ENERGY PREDICTED BY IDOCK:   -1.94 KCAL/MOL
REMARK 922        TOTAL FREE ENERGY PREDICTED BY IDOCK:   -5.39 KCAL/MOL
REMARK 923 INTER-LIGAND FREE ENERGY PREDICTED BY IDOCK:   -4.80 KCAL/MOL
REMARK 924 INTRA-LIGAND FREE ENERGY PREDICTED BY IDOCK:   -0.59 KCAL/MOL
REMARK 927      BINDING AFFINITY PREDICTED BY RF-SCORE:    0.00 PKD
ROOT
HETATM    1  C   UNL     1      -5.780  11.049  70.351  1.00  0.00    -0.130 C  
HETATM    2  C   UNL     1      -5.810   9.727  69.606  1.00  0.00    -0.037 C  
ENDROOT
BRANCH   2   3
HETATM    3  C   UNL     1      -6.085   8.561  70.553  1.00  0.00    -0.032 C  
BRANCH   3   4
HETATM    4  C   UNL     1      -6.238   7.267  69.763  1.00  0.00    -0.031 C  
BRANCH   4   5
HETATM    5  C   UNL     1      -5.927   6.037  70.613  1.00  0.00    -0.029 C  
BRANCH   5   6
HETATM    6  C   UNL     1      -7.129   5.717  71.498  1.00  0.00    -0.077 C  
BRANCH   6   7
HETATM    7  C   UNL     1      -8.110   4.772  70.801  1.00  0.00    -0.085 C  
BRANCH   7   8
HETATM    8  N   UNL     1      -9.440   5.368  70.583  1.00  0.00    -0.160 NA 
BRANCH   8   9
HETATM    9  C   UNL     1      -9.801   6.412  71.560  1.00  0.00    -0.168 C  
HETATM   10  C   UNL     1     -11.266   6.466  71.984  1.00  0.00    -0.324 C  
ENDBRANCH   8   9
BRANCH   8  11
HETATM   11  C   UNL     1      -9.614   5.846  69.200  1.00  0.00    -0.136 C  
BRANCH  11  12
HETATM   12  C   UNL     1      -8.844   5.037  68.144  1.00  0.00    -0.110 C  
BRANCH  12  13
HETATM   13  C   UNL     1      -7.902   5.910  67.307  1.00  0.00    -0.102 C  
BRANCH  13  14
HETATM   14  C   UNL     1      -8.514   6.292  65.953  1.00  0.00    -0.146 C  
HETATM   15  H   UNL     1     -10.140   5.867  64.927  1.00  0.00     0.000 HD 
HETATM   16  O   UNL     1      -9.761   5.630  65.766  1.00  0.00    -0.060 OA 
BRANCH  14  17
HETATM   17  C   UNL     1      -8.700   7.793  65.826  1.00  0.00    -0.160 A  
HETATM   18  C   UNL     1      -9.797   8.412  66.442  1.00  0.00    -0.310 A  
HETATM   19  C   UNL     1     -10.031   9.779  66.278  1.00  0.00    -0.331 A  
HETATM   20  C   UNL     1      -9.172  10.542  65.492  1.00  0.00    -0.188 A  
HETATM   21  C   UNL     1      -7.815   8.590  65.076  1.00  0.00    -0.112 A  
HETATM   22  C   UNL     1      -8.048   9.958  64.913  1.00  0.00    -0.145 A  
BRANCH  20  23
HETATM   23  N   UNL     1      -9.452  11.924  65.296  1.00  0.00    -0.413 N  
HETATM   24  H   UNL     1      -8.712  12.581  65.047  1.00  0.00     0.000 HD 
BRANCH  23  25
HETATM   25  S   UNL     1     -11.047  12.441  65.487  1.00  0.00    -0.312 S  
HETATM   26  C   UNL     1     -11.758  11.966  63.926  1.00  0.00    -0.415 C  
HETATM   27  O   UNL     1     -10.983  13.886  65.515  1.00  0.00    -0.292 OA 
HETATM   28  O   UNL     1     -11.688  11.700  66.551  1.00  0.00    -0.498 OA 
ENDBRANCH  23  25
ENDBRANCH  20  23
ENDBRANCH  14  17
ENDBRANCH  13  14
ENDBRANCH  12  13
ENDBRANCH  11  12
ENDBRANCH   8  11
ENDBRANCH   7   8
ENDBRANCH   6   7
ENDBRANCH   5   6
ENDBRANCH   4   5
ENDBRANCH   3   4
ENDBRANCH   2   3
TORSDOF 14
ENDMDL
MODEL      312
REMARK 921   NORMALIZED FREE ENERGY PREDICTED BY IDOCK:   -1.93 KCAL/MOL
REMARK 922        TOTAL FREE ENERGY PREDICTED BY IDOCK:   -5.36 KCAL/MOL
REMARK 923 INTER-LIGAND FREE ENERGY PREDICTED BY IDOCK:   -4.40 KCAL/MOL
REMARK 924 INTRA-LIGAND FREE ENERGY PREDICTED BY IDOCK:   -0.96 KCAL/MOL
REMARK 927      BINDING AFFINITY PREDICTED BY RF-SCORE:    0.00 PKD
ROOT
HETATM    1  C   UNL     1      -7.951   1.606  62.719  1.00  0.00    -0.055 C  
HETATM    2  C   UNL     1      -8.647   2.017  64.003  1.00  0.00    -0.083 C  
ENDROOT
BRANCH   2   3
HETATM    3  C   UNL     1      -7.710   1.909  65.204  1.00  0.00    -0.072 C  
BRANCH   3   4
HETATM    4  C   UNL     1      -6.262   2.073  64.759  1.00  0.00    -0.018 C  
BRANCH   4   5
HETATM    5  C   UNL     1      -5.942   3.515  64.374  1.00  0.00    -0.018 C  
BRANCH   5   6
HETATM    6  C   UNL     1      -6.440   4.453  65.471  1.00  0.00    -0.040 C  
BRANCH   6   7
HETATM    7  C   UNL     1      -6.534   5.899  64.980  1.00  0.00    -0.042 C  
BRANCH   7   8
HETATM    8  N   UNL     1      -7.921   6.371  64.817  1.00  0.00    -0.118 NA 
BRANCH   8   9
HETATM    9  C   UNL     1      -8.765   6.185  66.011  1.00  0.00    -0.153 C  
HETATM   10  C   UNL     1      -9.991   5.291  65.842  1.00  0.00    -0.103 C  
ENDBRANCH   8   9
BRANCH   8  11
HETATM   11  C   UNL     1      -7.980   7.760  64.328  1.00  0.00    -0.120 C  
BRANCH  11  12
HETATM   12  C   UNL     1      -9.007   8.647  65.050  1.00  0.00    -0.060 C  
BRANCH  12  13
HETATM   13  C   UNL     1      -8.420   9.998  65.476  1.00  0.00    -0.155 C  
BRANCH  13  14
HETATM   14  C   UNL     1      -9.502  10.982  65.940  1.00  0.00    -0.214 C  
HETATM   15  H   UNL     1     -11.276  11.577  65.328  1.00  0.00     0.000 HD 
HETATM   16  O   UNL     1     -10.606  10.967  65.040  1.00  0.00    -0.292 OA 
BRANCH  14  17
HETATM   17  C   UNL     1      -9.975  10.671  67.347  1.00  0.00    -0.213 A  
HETATM   18  C   UNL     1      -9.058  10.210  68.304  1.00  0.00    -0.122 A  
HETATM   19  C   UNL     1      -9.483   9.846  69.584  1.00  0.00    -0.252 A  
HETATM   20  C   UNL     1     -10.831   9.933  69.920  1.00  0.00    -0.278 A  
HETATM   21  C   UNL     1     -11.326  10.800  67.722  1.00  0.00    -0.354 A  
HETATM   22  C   UNL     1     -11.751  10.436  69.002  1.00  0.00    -0.167 A  
BRANCH  20  23
HETATM   23  N   UNL     1     -11.254   9.513  71.212  1.00  0.00    -0.358 N  
HETATM   24  H   UNL     1     -11.058  10.076  72.040  1.00  0.00     0.000 HD 
BRANCH  23  25
HETATM   25  S   UNL     1     -12.092   8.052  71.331  1.00  0.00    -0.304 S  
HETATM   26  C   UNL     1     -11.420   7.386  72.840  1.00  0.00    -0.221 C  
HETATM   27  O   UNL     1     -11.603   7.238  70.240  1.00  0.00    -0.257 OA 
HETATM   28  O   UNL     1     -13.506   8.299  71.505  1.00  0.00    -0.332 OA 
ENDBRANCH  23  25
ENDBRANCH  20  23
ENDBRANCH  14  17
ENDBRANCH  13  14
ENDBRANCH  12  13
ENDBRANCH  11  12
ENDBRANCH   8  11
ENDBRANCH   7   8
ENDBRANCH   6   7
ENDBRANCH   5   6
ENDBRANCH   4   5
ENDBRANCH   3   4
ENDBRANCH   2   3
TORSDOF 14
ENDMDL
MODEL      313
REMARK 921   NORMALIZED FREE ENERGY PREDICTED BY IDOCK:   -1.92 KCAL/MOL
REMARK 922        TOTAL FREE ENERGY PREDICTED BY IDOCK:   -5.35 KCAL/MOL
REMARK 923 INTER-LIGAND FREE ENERGY PREDICTED BY IDOCK:   -4.62 KCAL/MOL
REMARK 924 INTRA-LIGAND FREE ENERGY PREDICTED BY IDOCK:   -0.73 KCAL/MOL
REMARK 927      BINDING AFFINITY PREDICTED BY RF-SCORE:    0.00 PKD
ROOT
HETATM    1  C   UNL     1      -5.945   9.014  73.240  1.00  0.00     0.005 C  
HETATM    2  C   UNL     1      -6.527   8.171  74.359  1.00  0.00    -0.136 C  
ENDROOT
BRANCH   2   3
HETATM    3  C   UNL     1      -8.025   8.419  74.522  1.00  0.00    -0.213 C  
BRANCH   3   4
HETATM    4  C   UNL     1      -8.813   7.189  74.087  1.00  0.00    -0.245 C  
BRANCH   4   5
HETATM    5  C   UNL     1      -9.254   7.277  72.629  1.00  0.00    -0.172 C  
BRANCH   5   6
HETATM    6  C   UNL     1      -8.356   6.385  71.775  1.00  0.00    -0.120 C  
BRANCH   6   7
HETATM    7  C   UNL     1      -8.544   4.904  72.110  1.00  0.00    -0.124 C  
BRANCH   7   8
HETATM    8  N   UNL     1      -8.233   4.007  70.982  1.00  0.00    -0.070 NA 
BRANCH   8   9
HETATM    9  C   UNL     1      -9.401   3.285  70.446  1.00  0.00    -0.167 C  
HETATM   10  C   UNL     1      -9.104   2.052  69.597  1.00  0.00    -0.167 C  
ENDBRANCH   8   9
BRANCH   8  11
HETATM   11  C   UNL     1      -7.490   4.698  69.913  1.00  0.00    -0.054 C  
BRANCH  11  12
HETATM   12  C   UNL     1      -8.372   5.478  68.925  1.00  0.00    -0.102 C  
BRANCH  12  13
HETATM   13  C   UNL     1      -8.098   5.098  67.466  1.00  0.00    -0.099 C  
BRANCH  13  14
HETATM   14  C   UNL     1      -9.291   5.406  66.550  1.00  0.00    -0.145 C  
HETATM   15  H   UNL     1     -11.195   4.916  66.441  1.00  0.00     0.000 HD 
HETATM   16  O   UNL     1     -10.456   4.726  67.008  1.00  0.00    -0.166 OA 
BRANCH  14  17
HETATM   17  C   UNL     1      -9.560   6.896  66.463  1.00  0.00    -0.197 A  
HETATM   18  C   UNL     1      -8.639   7.733  65.816  1.00  0.00    -0.162 A  
HETATM   19  C   UNL     1      -8.827   9.117  65.788  1.00  0.00    -0.210 A  
HETATM   20  C   UNL     1      -9.937   9.680  66.412  1.00  0.00    -0.255 A  
HETATM   21  C   UNL     1     -10.701   7.479  67.045  1.00  0.00    -0.367 A  
HETATM   22  C   UNL     1     -10.890   8.864  67.016  1.00  0.00    -0.039 A  
BRANCH  20  23
HETATM   23  N   UNL     1     -10.089  11.095  66.416  1.00  0.00    -0.219 N  
HETATM   24  H   UNL     1      -9.911  11.647  65.576  1.00  0.00     0.000 HD 
BRANCH  23  25
HETATM   25  S   UNL     1     -10.574  11.832  67.855  1.00  0.00    -0.210 S  
HETATM   26  C   UNL     1     -10.065  13.515  67.574  1.00  0.00    -0.234 C  
HETATM   27  O   UNL     1      -9.713  11.282  68.879  1.00  0.00    -0.196 OA 
HETATM   28  O   UNL     1     -12.014  11.783  67.982  1.00  0.00    -0.553 OA 
ENDBRANCH  23  25
ENDBRANCH  20  23
ENDBRANCH  14  17
ENDBRANCH  13  14
ENDBRANCH  12  13
ENDBRANCH  11  12
ENDBRANCH   8  11
ENDBRANCH   7   8
ENDBRANCH   6   7
ENDBRANCH   5   6
ENDBRANCH   4   5
ENDBRANCH   3   4
ENDBRANCH   2   3
TORSDOF 14
ENDMDL
MODEL      314
REMARK 921   NORMALIZED FREE ENERGY PREDICTED BY IDOCK:   -1.92 KCAL/MOL
REMARK 922        TOTAL FREE ENERGY PREDICTED BY IDOCK:   -5.34 KCAL/MOL
REMARK 923 INTER-LIGAND FREE ENERGY PREDICTED BY IDOCK:   -4.43 KCAL/MOL
REMARK 924 INTRA-LIGAND FREE ENERGY PREDICTED BY IDOCK:   -0.91 KCAL/MOL
REMARK 927      BINDING AFFINITY PREDICTED BY RF-SCORE:    0.00 PKD
ROOT
HETATM    1  C   UNL     1      -7.969   1.573  62.712  1.00  0.00    -0.055 C  
HETATM    2  C   UNL     1      -8.570   1.870  64.073  1.00  0.00    -0.082 C  
ENDROOT
BRANCH   2   3
HETATM    3  C   UNL     1      -7.500   1.882  65.164  1.00  0.00    -0.062 C  
BRANCH   3   4
HETATM    4  C   UNL     1      -6.189   2.425  64.609  1.00  0.00    -0.019 C  
BRANCH   4   5
HETATM    5  C   UNL     1      -6.235   3.938  64.410  1.00  0.00    -0.023 C  
BRANCH   5   6
HETATM    6  C   UNL     1      -6.743   4.601  65.688  1.00  0.00    -0.056 C  
BRANCH   6   7
HETATM    7  C   UNL     1      -7.275   6.011  65.422  1.00  0.00    -0.074 C  
BRANCH   7   8
HETATM    8  N   UNL     1      -8.737   6.123  65.582  1.00  0.00    -0.149 NA 
BRANCH   8   9
HETATM    9  C   UNL     1      -9.263   5.464  66.791  1.00  0.00    -0.128 C  
HETATM   10  C   UNL     1     -10.315   4.381  66.569  1.00  0.00    -0.054 C  
ENDBRANCH   8   9
BRANCH   8  11
HETATM   11  C   UNL     1      -9.200   7.519  65.486  1.00  0.00     0.304 C  
BRANCH  11  12
HETATM   12  C   UNL     1     -10.191   7.939  66.582  1.00  0.00    -0.303 C  
BRANCH  12  13
HETATM   13  C   UNL     1      -9.732   9.188  67.343  1.00  0.00    -0.211 C  
BRANCH  13  14
HETATM   14  C   UNL     1     -10.840   9.767  68.233  1.00  0.00    -0.210 C  
HETATM   15  H   UNL     1     -11.151  10.049  70.157  1.00  0.00     0.000 HD 
HETATM   16  O   UNL     1     -10.465   9.690  69.606  1.00  0.00    -0.201 OA 
BRANCH  14  17
HETATM   17  C   UNL     1     -11.162  11.203  67.864  1.00  0.00    -0.365 A  
HETATM   18  C   UNL     1     -10.983  11.638  66.542  1.00  0.00    -0.349 A  
HETATM   19  C   UNL     1     -11.201  12.973  66.194  1.00  0.00    -0.320 A  
HETATM   20  C   UNL     1     -11.596  13.889  67.165  1.00  0.00    -0.364 A  
HETATM   21  C   UNL     1     -11.610  12.133  68.820  1.00  0.00    -0.380 A  
HETATM   22  C   UNL     1     -11.829  13.468  68.472  1.00  0.00    -0.398 A  
BRANCH  20  23
HETATM   23  N   UNL     1     -11.768  15.255  66.803  1.00  0.00    -0.071 N  
HETATM   24  H   UNL     1     -12.504  15.541  66.157  1.00  0.00     0.000 HD 
BRANCH  23  25
HETATM   25  S   UNL     1     -10.712  16.388  67.476  1.00  0.00    -0.258 S  
HETATM   26  C   UNL     1     -10.354  17.413  66.065  1.00  0.00    -0.304 C  
HETATM   27  O   UNL     1      -9.510  15.651  67.796  1.00  0.00    -0.206 OA 
HETATM   28  O   UNL     1     -11.396  17.175  68.478  1.00  0.00    -0.089 OA 
ENDBRANCH  23  25
ENDBRANCH  20  23
ENDBRANCH  14  17
ENDBRANCH  13  14
ENDBRANCH  12  13
ENDBRANCH  11  12
ENDBRANCH   8  11
ENDBRANCH   7   8
ENDBRANCH   6   7
ENDBRANCH   5   6
ENDBRANCH   4   5
ENDBRANCH   3   4
ENDBRANCH   2   3
TORSDOF 14
ENDMDL
MODEL      315
REMARK 921   NORMALIZED FREE ENERGY PREDICTED BY IDOCK:   -1.88 KCAL/MOL
REMARK 922        TOTAL FREE ENERGY PREDICTED BY IDOCK:   -5.27 KCAL/MOL
REMARK 923 INTER-LIGAND FREE ENERGY PREDICTED BY IDOCK:   -4.04 KCAL/MOL
REMARK 924 INTRA-LIGAND FREE ENERGY PREDICTED BY IDOCK:   -1.23 KCAL/MOL
REMARK 927      BINDING AFFINITY PREDICTED BY RF-SCORE:    0.00 PKD
ROOT
HETATM    1  C   UNL     1     -10.108  15.770  66.323  1.00  0.00    -0.320 C  
HETATM    2  C   UNL     1      -9.896  15.148  67.690  1.00  0.00    -0.219 C  
ENDROOT
BRANCH   2   3
HETATM    3  C   UNL     1     -10.367  13.695  67.720  1.00  0.00    -0.241 C  
BRANCH   3   4
HETATM    4  C   UNL     1     -10.219  13.065  66.340  1.00  0.00    -0.283 C  
BRANCH   4   5
HETATM    5  C   UNL     1     -10.831  11.668  66.280  1.00  0.00    -0.333 C  
BRANCH   5   6
HETATM    6  C   UNL     1     -10.713  11.005  67.650  1.00  0.00    -0.281 C  
BRANCH   6   7
HETATM    7  C   UNL     1     -10.757   9.479  67.547  1.00  0.00    -0.245 C  
BRANCH   7   8
HETATM    8  N   UNL     1     -10.469   8.800  68.824  1.00  0.00    -0.211 NA 
BRANCH   8   9
HETATM    9  C   UNL     1     -10.079   7.387  68.680  1.00  0.00    -0.179 C  
HETATM   10  C   UNL     1     -10.888   6.558  67.686  1.00  0.00    -0.419 C  
ENDBRANCH   8   9
BRANCH   8  11
HETATM   11  C   UNL     1      -9.496   9.546  69.642  1.00  0.00    -0.199 C  
BRANCH  11  12
HETATM   12  C   UNL     1      -8.986   8.787  70.876  1.00  0.00    -0.247 C  
BRANCH  12  13
HETATM   13  C   UNL     1      -7.492   9.017  71.131  1.00  0.00    -0.119 C  
BRANCH  13  14
HETATM   14  C   UNL     1      -6.642   8.766  69.878  1.00  0.00    -0.041 C  
HETATM   15  H   UNL     1      -4.789   9.094  69.296  1.00  0.00     0.000 HD 
HETATM   16  O   UNL     1      -5.316   9.250  70.072  1.00  0.00    -0.028 OA 
BRANCH  14  17
HETATM   17  C   UNL     1      -6.609   7.295  69.509  1.00  0.00    -0.040 A  
HETATM   18  C   UNL     1      -6.895   6.901  68.194  1.00  0.00    -0.074 A  
HETATM   19  C   UNL     1      -6.944   5.549  67.847  1.00  0.00    -0.066 A  
HETATM   20  C   UNL     1      -6.712   4.574  68.815  1.00  0.00    -0.046 A  
HETATM   21  C   UNL     1      -6.327   6.297  70.461  1.00  0.00    -0.039 A  
HETATM   22  C   UNL     1      -6.375   4.944  70.115  1.00  0.00    -0.026 A  
BRANCH  20  23
HETATM   23  N   UNL     1      -6.813   3.201  68.456  1.00  0.00    -0.044 N  
HETATM   24  H   UNL     1      -5.981   2.648  68.247  1.00  0.00     0.000 HD 
BRANCH  23  25
HETATM   25  S   UNL     1      -8.354   2.514  68.388  1.00  0.00    -0.068 S  
HETATM   26  C   UNL     1      -8.344   1.490  69.844  1.00  0.00    -0.045 C  
HETATM   27  O   UNL     1      -8.334   1.637  67.238  1.00  0.00    -0.070 OA 
HETATM   28  O   UNL     1      -9.364   3.539  68.530  1.00  0.00    -0.153 OA 
ENDBRANCH  23  25
ENDBRANCH  20  23
ENDBRANCH  14  17
ENDBRANCH  13  14
ENDBRANCH  12  13
ENDBRANCH  11  12
ENDBRANCH   8  11
ENDBRANCH   7   8
ENDBRANCH   6   7
ENDBRANCH   5   6
ENDBRANCH   4   5
ENDBRANCH   3   4
ENDBRANCH   2   3
TORSDOF 14
ENDMDL
MODEL      316
REMARK 921   NORMALIZED FREE ENERGY PREDICTED BY IDOCK:   -1.84 KCAL/MOL
REMARK 922        TOTAL FREE ENERGY PREDICTED BY IDOCK:   -5.20 KCAL/MOL
REMARK 923 INTER-LIGAND FREE ENERGY PREDICTED BY IDOCK:   -4.67 KCAL/MOL
REMARK 924 INTRA-LIGAND FREE ENERGY PREDICTED BY IDOCK:   -0.53 KCAL/MOL
REMARK 927      BINDING AFFINITY PREDICTED BY RF-SCORE:    0.00 PKD
ROOT
HETATM    1  C   UNL     1     -12.218  12.157  70.422  1.00  0.00    -0.378 C  
HETATM    2  C   UNL     1     -11.308  12.129  69.208  1.00  0.00    -0.327 C  
ENDROOT
BRANCH   2   3
HETATM    3  C   UNL     1     -10.931  10.699  68.827  1.00  0.00    -0.292 C  
BRANCH   3   4
HETATM    4  C   UNL     1     -11.141  10.478  67.334  1.00  0.00    -0.322 C  
BRANCH   4   5
HETATM    5  C   UNL     1     -10.009   9.666  66.711  1.00  0.00    -0.289 C  
BRANCH   5   6
HETATM    6  C   UNL     1      -9.410   8.741  67.767  1.00  0.00    -0.157 C  
BRANCH   6   7
HETATM    7  C   UNL     1      -7.909   8.535  67.555  1.00  0.00    -0.099 C  
BRANCH   7   8
HETATM    8  N   UNL     1      -7.525   7.116  67.443  1.00  0.00    -0.098 NA 
BRANCH   8   9
HETATM    9  C   UNL     1      -7.087   6.715  66.094  1.00  0.00    -0.063 C  
HETATM   10  C   UNL     1      -6.634   5.266  65.932  1.00  0.00    -0.048 C  
ENDBRANCH   8   9
BRANCH   8  11
HETATM   11  C   UNL     1      -6.538   6.726  68.466  1.00  0.00    -0.058 C  
BRANCH  11  12
HETATM   12  C   UNL     1      -6.641   5.264  68.926  1.00  0.00    -0.051 C  
BRANCH  12  13
HETATM   13  C   UNL     1      -6.410   5.105  70.433  1.00  0.00    -0.030 C  
BRANCH  13  14
HETATM   14  C   UNL     1      -7.353   4.069  71.061  1.00  0.00    -0.040 C  
HETATM   15  H   UNL     1      -7.306   2.785  72.553  1.00  0.00     0.000 HD 
HETATM   16  O   UNL     1      -6.722   3.426  72.164  1.00  0.00    -0.018 OA 
BRANCH  14  17
HETATM   17  C   UNL     1      -8.660   4.699  71.506  1.00  0.00    -0.125 A  
HETATM   18  C   UNL     1      -9.732   4.788  70.605  1.00  0.00    -0.271 A  
HETATM   19  C   UNL     1     -10.918   5.430  70.968  1.00  0.00    -0.120 A  
HETATM   20  C   UNL     1     -11.044   5.995  72.234  1.00  0.00    -0.278 A  
HETATM   21  C   UNL     1      -8.824   5.232  72.798  1.00  0.00    -0.122 A  
HETATM   22  C   UNL     1     -10.011   5.873  73.161  1.00  0.00    -0.188 A  
BRANCH  20  23
HETATM   23  N   UNL     1     -12.241   6.687  72.571  1.00  0.00    -0.508 N  
HETATM   24  H   UNL     1     -12.787   6.427  73.392  1.00  0.00     0.000 HD 
BRANCH  23  25
HETATM   25  S   UNL     1     -12.729   7.954  71.567  1.00  0.00    -0.302 S  
HETATM   26  C   UNL     1     -13.519   9.041  72.735  1.00  0.00    -0.206 C  
HETATM   27  O   UNL     1     -13.762   7.398  70.721  1.00  0.00    -0.010 OA 
HETATM   28  O   UNL     1     -11.574   8.617  71.001  1.00  0.00    -0.275 OA 
ENDBRANCH  23  25
ENDBRANCH  20  23
ENDBRANCH  14  17
ENDBRANCH  13  14
ENDBRANCH  12  13
ENDBRANCH  11  12
ENDBRANCH   8  11
ENDBRANCH   7   8
ENDBRANCH   6   7
ENDBRANCH   5   6
ENDBRANCH   4   5
ENDBRANCH   3   4
ENDBRANCH   2   3
TORSDOF 14
ENDMDL
MODEL      317
REMARK 921   NORMALIZED FREE ENERGY PREDICTED BY IDOCK:   -1.72 KCAL/MOL
REMARK 922        TOTAL FREE ENERGY PREDICTED BY IDOCK:   -4.97 KCAL/MOL
REMARK 923 INTER-LIGAND FREE ENERGY PREDICTED BY IDOCK:   -5.55 KCAL/MOL
REMARK 924 INTRA-LIGAND FREE ENERGY PREDICTED BY IDOCK:    0.58 KCAL/MOL
REMARK 927      BINDING AFFINITY PREDICTED BY RF-SCORE:    0.00 PKD
ROOT
HETATM    1  C   UNL     1     -10.917  19.785  66.362  1.00  0.00    -0.245 C  
HETATM    2  C   UNL     1     -11.269  18.950  67.580  1.00  0.00     0.098 C  
ENDROOT
BRANCH   2   3
HETATM    3  C   UNL     1     -10.223  17.866  67.832  1.00  0.00    -0.375 C  
BRANCH   3   4
HETATM    4  C   UNL     1      -8.829  18.394  67.516  1.00  0.00    -0.267 C  
BRANCH   4   5
HETATM    5  C   UNL     1      -8.219  19.141  68.699  1.00  0.00    -0.404 C  
BRANCH   5   6
HETATM    6  C   UNL     1      -6.788  18.657  68.919  1.00  0.00    -0.304 C  
BRANCH   6   7
HETATM    7  C   UNL     1      -6.608  17.202  68.479  1.00  0.00    -0.167 C  
BRANCH   7   8
HETATM    8  N   UNL     1      -6.354  16.281  69.601  1.00  0.00    -0.198 NA 
BRANCH   8   9
HETATM    9  C   UNL     1      -5.559  16.867  70.695  1.00  0.00    -0.059 C  
HETATM   10  C   UNL     1      -5.130  18.321  70.516  1.00  0.00    -0.247 C  
ENDBRANCH   8   9
BRANCH   8  11
HETATM   11  C   UNL     1      -7.596  15.669  70.108  1.00  0.00     0.495 C  
BRANCH  11  12
HETATM   12  C   UNL     1      -8.506  15.078  69.020  1.00  0.00    -0.200 C  
BRANCH  12  13
HETATM   13  C   UNL     1      -9.973  15.003  69.459  1.00  0.00    -0.152 C  
BRANCH  13  14
HETATM   14  C   UNL     1     -10.826  14.165  68.496  1.00  0.00    -0.252 C  
HETATM   15  H   UNL     1     -10.825  13.716  66.579  1.00  0.00     0.000 HD 
HETATM   16  O   UNL     1     -10.297  14.235  67.175  1.00  0.00    -0.259 OA 
BRANCH  14  17
HETATM   17  C   UNL     1     -10.917  12.718  68.943  1.00  0.00    -0.275 A  
HETATM   18  C   UNL     1      -9.802  11.878  68.810  1.00  0.00    -0.078 A  
HETATM   19  C   UNL     1      -9.884  10.524  69.144  1.00  0.00    -0.233 A  
HETATM   20  C   UNL     1     -11.084   9.995  69.611  1.00  0.00    -0.259 A  
HETATM   21  C   UNL     1     -12.107  12.176  69.464  1.00  0.00    -0.263 A  
HETATM   22  C   UNL     1     -12.189  10.822  69.799  1.00  0.00    -0.359 A  
BRANCH  20  23
HETATM   23  N   UNL     1     -11.164   8.603  69.902  1.00  0.00    -0.440 N  
HETATM   24  H   UNL     1     -11.194   7.910  69.155  1.00  0.00     0.000 HD 
BRANCH  23  25
HETATM   25  S   UNL     1     -11.208   8.138  71.524  1.00  0.00    -0.272 S  
HETATM   26  C   UNL     1     -10.640   6.454  71.420  1.00  0.00    -0.230 C  
HETATM   27  O   UNL     1     -12.611   8.103  71.876  1.00  0.00    -0.311 OA 
HETATM   28  O   UNL     1     -10.263   8.916  72.294  1.00  0.00    -0.296 OA 
ENDBRANCH  23  25
ENDBRANCH  20  23
ENDBRANCH  14  17
ENDBRANCH  13  14
ENDBRANCH  12  13
ENDBRANCH  11  12
ENDBRANCH   8  11
ENDBRANCH   7   8
ENDBRANCH   6   7
ENDBRANCH   5   6
ENDBRANCH   4   5
ENDBRANCH   3   4
ENDBRANCH   2   3
TORSDOF 14
ENDMDL
MODEL      318
REMARK 921   NORMALIZED FREE ENERGY PREDICTED BY IDOCK:   -1.52 KCAL/MOL
REMARK 922        TOTAL FREE ENERGY PREDICTED BY IDOCK:   -4.61 KCAL/MOL
REMARK 923 INTER-LIGAND FREE ENERGY PREDICTED BY IDOCK:   -2.74 KCAL/MOL
REMARK 924 INTRA-LIGAND FREE ENERGY PREDICTED BY IDOCK:   -1.87 KCAL/MOL
REMARK 927      BINDING AFFINITY PREDICTED BY RF-SCORE:    0.00 PKD
ROOT
HETATM    1  C   UNL     1     -12.847  10.879  69.437  1.00  0.00     0.560 C  
HETATM    2  C   UNL     1     -11.551  11.255  68.743  1.00  0.00    -0.383 C  
ENDROOT
BRANCH   2   3
HETATM    3  C   UNL     1     -11.443  10.596  67.369  1.00  0.00    -0.022 C  
BRANCH   3   4
HETATM    4  C   UNL     1     -10.977  11.612  66.334  1.00  0.00    -0.345 C  
BRANCH   4   5
HETATM    5  C   UNL     1      -9.891  11.044  65.423  1.00  0.00    -0.301 C  
BRANCH   5   6
HETATM    6  C   UNL     1      -9.952   9.519  65.455  1.00  0.00    -0.209 C  
BRANCH   6   7
HETATM    7  C   UNL     1      -8.749   8.918  66.185  1.00  0.00    -0.153 C  
BRANCH   7   8
HETATM    8  N   UNL     1      -8.053   7.878  65.405  1.00  0.00    -0.123 NA 
BRANCH   8   9
HETATM    9  C   UNL     1      -7.613   8.320  64.069  1.00  0.00    -0.128 C  
HETATM   10  C   UNL     1      -6.348   7.664  63.521  1.00  0.00    -0.054 C  
ENDBRANCH   8   9
BRANCH   8  11
HETATM   11  C   UNL     1      -6.946   7.266  66.160  1.00  0.00    -0.065 C  
BRANCH  11  12
HETATM   12  C   UNL     1      -7.111   7.316  67.687  1.00  0.00    -0.085 C  
BRANCH  12  13
HETATM   13  C   UNL     1      -5.870   7.872  68.394  1.00  0.00    -0.036 C  
BRANCH  13  14
HETATM   14  C   UNL     1      -6.230   8.876  69.498  1.00  0.00    -0.043 C  
HETATM   15  H   UNL     1      -5.370   9.638  71.098  1.00  0.00     0.000 HD 
HETATM   16  O   UNL     1      -5.147   9.016  70.414  1.00  0.00    -0.024 OA 
BRANCH  14  17
HETATM   17  C   UNL     1      -6.602  10.230  68.924  1.00  0.00    -0.052 A  
HETATM   18  C   UNL     1      -7.721  10.914  69.424  1.00  0.00    -0.072 A  
HETATM   19  C   UNL     1      -8.128  12.126  68.862  1.00  0.00     0.130 A  
HETATM   20  C   UNL     1      -7.423  12.666  67.790  1.00  0.00    -0.131 A  
HETATM   21  C   UNL     1      -5.874  10.816  67.873  1.00  0.00    -0.042 A  
HETATM   22  C   UNL     1      -6.280  12.030  67.311  1.00  0.00    -0.149 A  
BRANCH  20  23
HETATM   23  N   UNL     1      -7.879  13.877  67.197  1.00  0.00    -0.363 N  
HETATM   24  H   UNL     1      -8.654  13.880  66.534  1.00  0.00     0.000 HD 
BRANCH  23  25
HETATM   25  S   UNL     1      -7.095  15.309  67.627  1.00  0.00    -0.195 S  
HETATM   26  C   UNL     1      -6.662  14.975  69.321  1.00  0.00    -0.141 C  
HETATM   27  O   UNL     1      -8.125  16.325  67.632  1.00  0.00    -0.142 OA 
HETATM   28  O   UNL     1      -5.888  15.472  66.847  1.00  0.00    -0.169 OA 
ENDBRANCH  23  25
ENDBRANCH  20  23
ENDBRANCH  14  17
ENDBRANCH  13  14
ENDBRANCH  12  13
ENDBRANCH  11  12
ENDBRANCH   8  11
ENDBRANCH   7   8
ENDBRANCH   6   7
ENDBRANCH   5   6
ENDBRANCH   4   5
ENDBRANCH   3   4
ENDBRANCH   2   3
TORSDOF 14
ENDMDL
MODEL      319
REMARK 921   NORMALIZED FREE ENERGY PREDICTED BY IDOCK:   -1.48 KCAL/MOL
REMARK 922        TOTAL FREE ENERGY PREDICTED BY IDOCK:   -4.54 KCAL/MOL
REMARK 923 INTER-LIGAND FREE ENERGY PREDICTED BY IDOCK:   -4.86 KCAL/MOL
REMARK 924 INTRA-LIGAND FREE ENERGY PREDICTED BY IDOCK:    0.31 KCAL/MOL
REMARK 927      BINDING AFFINITY PREDICTED BY RF-SCORE:    0.00 PKD
ROOT
HETATM    1  C   UNL     1     -12.194  12.093  70.620  1.00  0.00    -0.392 C  
HETATM    2  C   UNL     1     -11.299  12.337  69.418  1.00  0.00    -0.294 C  
ENDROOT
BRANCH   2   3
HETATM    3  C   UNL     1     -11.684  11.436  68.246  1.00  0.00    -0.359 C  
BRANCH   3   4
HETATM    4  C   UNL     1     -11.979  12.277  67.010  1.00  0.00    -0.213 C  
BRANCH   4   5
HETATM    5  C   UNL     1     -11.103  11.879  65.825  1.00  0.00    -0.367 C  
BRANCH   5   6
HETATM    6  C   UNL     1     -10.368  10.581  66.153  1.00  0.00    -0.276 C  
BRANCH   6   7
HETATM    7  C   UNL     1      -8.942  10.582  65.600  1.00  0.00    -0.180 C  
BRANCH   7   8
HETATM    8  N   UNL     1      -8.640   9.408  64.762  1.00  0.00    -0.170 NA 
BRANCH   8   9
HETATM    9  C   UNL     1      -8.738   9.659  63.313  1.00  0.00    -0.230 C  
HETATM   10  C   UNL     1      -8.357   8.500  62.397  1.00  0.00    -0.192 C  
ENDBRANCH   8   9
BRANCH   8  11
HETATM   11  C   UNL     1      -7.348   8.793  65.114  1.00  0.00    -0.088 C  
BRANCH  11  12
HETATM   12  C   UNL     1      -7.318   7.260  65.002  1.00  0.00    -0.079 C  
BRANCH  12  13
HETATM   13  C   UNL     1      -6.584   6.599  66.173  1.00  0.00    -0.044 C  
BRANCH  13  14
HETATM   14  C   UNL     1      -7.401   5.465  66.807  1.00  0.00    -0.086 C  
HETATM   15  H   UNL     1      -7.066   3.653  67.502  1.00  0.00     0.000 HD 
HETATM   16  O   UNL     1      -6.560   4.356  67.110  1.00  0.00    -0.044 OA 
BRANCH  14  17
HETATM   17  C   UNL     1      -8.122   5.926  68.060  1.00  0.00    -0.105 A  
HETATM   18  C   UNL     1      -7.551   5.687  69.319  1.00  0.00    -0.087 A  
HETATM   19  C   UNL     1      -8.229   6.035  70.489  1.00  0.00    -0.113 A  
HETATM   20  C   UNL     1      -9.490   6.623  70.413  1.00  0.00    -0.166 A  
HETATM   21  C   UNL     1      -9.374   6.566  68.003  1.00  0.00    -0.108 A  
HETATM   22  C   UNL     1     -10.052   6.916  69.173  1.00  0.00    -0.180 A  
BRANCH  20  23
HETATM   23  N   UNL     1     -10.188   6.927  71.615  1.00  0.00    -0.191 N  
HETATM   24  H   UNL     1     -10.731   7.787  71.706  1.00  0.00     0.000 HD 
BRANCH  23  25
HETATM   25  S   UNL     1     -10.090   5.822  72.887  1.00  0.00    -0.190 S  
HETATM   26  C   UNL     1      -9.789   6.904  74.268  1.00  0.00    -0.277 C  
HETATM   27  O   UNL     1      -8.876   5.070  72.650  1.00  0.00    -0.122 OA 
HETATM   28  O   UNL     1     -11.360   5.154  73.069  1.00  0.00    -0.302 OA 
ENDBRANCH  23  25
ENDBRANCH  20  23
ENDBRANCH  14  17
ENDBRANCH  13  14
ENDBRANCH  12  13
ENDBRANCH  11  12
ENDBRANCH   8  11
ENDBRANCH   7   8
ENDBRANCH   6   7
ENDBRANCH   5   6
ENDBRANCH   4   5
ENDBRANCH   3   4
ENDBRANCH   2   3
TORSDOF 14
ENDMDL
MODEL      320
REMARK 921   NORMALIZED FREE ENERGY PREDICTED BY IDOCK:   -1.45 KCAL/MOL
REMARK 922        TOTAL FREE ENERGY PREDICTED BY IDOCK:   -4.49 KCAL/MOL
REMARK 923 INTER-LIGAND FREE ENERGY PREDICTED BY IDOCK:   -3.50 KCAL/MOL
REMARK 924 INTRA-LIGAND FREE ENERGY PREDICTED BY IDOCK:   -0.98 KCAL/MOL
REMARK 927      BINDING AFFINITY PREDICTED BY RF-SCORE:    0.00 PKD
ROOT
HETATM    1  C   UNL     1      -8.191   1.538  62.484  1.00  0.00    -0.056 C  
HETATM    2  C   UNL     1      -8.685   2.396  63.634  1.00  0.00    -0.085 C  
ENDROOT
BRANCH   2   3
HETATM    3  C   UNL     1      -7.569   2.676  64.640  1.00  0.00    -0.075 C  
BRANCH   3   4
HETATM    4  C   UNL     1      -6.290   3.070  63.911  1.00  0.00    -0.022 C  
BRANCH   4   5
HETATM    5  C   UNL     1      -6.354   4.498  63.375  1.00  0.00    -0.026 C  
BRANCH   5   6
HETATM    6  C   UNL     1      -6.582   5.463  64.535  1.00  0.00    -0.042 C  
BRANCH   6   7
HETATM    7  C   UNL     1      -7.294   6.739  64.080  1.00  0.00    -0.085 C  
BRANCH   7   8
HETATM    8  N   UNL     1      -8.480   7.066  64.892  1.00  0.00    -0.004 NA 
BRANCH   8   9
HETATM    9  C   UNL     1      -8.605   6.268  66.126  1.00  0.00    -0.143 C  
HETATM   10  C   UNL     1      -9.872   5.428  66.264  1.00  0.00    -0.186 C  
ENDBRANCH   8   9
BRANCH   8  11
HETATM   11  C   UNL     1      -8.579   8.509  65.174  1.00  0.00    -0.152 C  
BRANCH  11  12
HETATM   12  C   UNL     1      -8.311   8.893  66.638  1.00  0.00    -0.111 C  
BRANCH  12  13
HETATM   13  C   UNL     1      -6.829   9.182  66.907  1.00  0.00    -0.080 C  
BRANCH  13  14
HETATM   14  C   UNL     1      -6.596   9.769  68.306  1.00  0.00    -0.056 C  
HETATM   15  H   UNL     1      -6.876  11.492  69.217  1.00  0.00     0.000 HD 
HETATM   16  O   UNL     1      -7.020  11.128  68.351  1.00  0.00    -0.066 OA 
BRANCH  14  17
HETATM   17  C   UNL     1      -7.311   8.967  69.377  1.00  0.00    -0.075 A  
HETATM   18  C   UNL     1      -7.274   7.565  69.337  1.00  0.00    -0.082 A  
HETATM   19  C   UNL     1      -7.986   6.804  70.267  1.00  0.00    -0.115 A  
HETATM   20  C   UNL     1      -8.747   7.438  71.246  1.00  0.00    -0.126 A  
HETATM   21  C   UNL     1      -8.046   9.588  70.403  1.00  0.00    -0.209 A  
HETATM   22  C   UNL     1      -8.758   8.828  71.335  1.00  0.00    -0.278 A  
BRANCH  20  23
HETATM   23  N   UNL     1      -9.505   6.648  72.156  1.00  0.00    -0.145 N  
HETATM   24  H   UNL     1      -9.049   6.115  72.897  1.00  0.00     0.000 HD 
BRANCH  23  25
HETATM   25  S   UNL     1     -11.183   6.623  71.971  1.00  0.00    -0.280 S  
HETATM   26  C   UNL     1     -11.336   6.409  70.210  1.00  0.00    -0.403 C  
HETATM   27  O   UNL     1     -11.625   7.963  72.287  1.00  0.00    -0.305 OA 
HETATM   28  O   UNL     1     -11.743   5.472  72.644  1.00  0.00    -0.293 OA 
ENDBRANCH  23  25
ENDBRANCH  20  23
ENDBRANCH  14  17
ENDBRANCH  13  14
ENDBRANCH  12  13
ENDBRANCH  11  12
ENDBRANCH   8  11
ENDBRANCH   7   8
ENDBRANCH   6   7
ENDBRANCH   5   6
ENDBRANCH   4   5
ENDBRANCH   3   4
ENDBRANCH   2   3
TORSDOF 14
ENDMDL
MODEL      321
REMARK 921   NORMALIZED FREE ENERGY PREDICTED BY IDOCK:   -1.30 KCAL/MOL
REMARK 922        TOTAL FREE ENERGY PREDICTED BY IDOCK:   -4.22 KCAL/MOL
REMARK 923 INTER-LIGAND FREE ENERGY PREDICTED BY IDOCK:   -3.23 KCAL/MOL
REMARK 924 INTRA-LIGAND FREE ENERGY PREDICTED BY IDOCK:   -0.99 KCAL/MOL
REMARK 927      BINDING AFFINITY PREDICTED BY RF-SCORE:    0.00 PKD
ROOT
HETATM    1  C   UNL     1      -8.000   1.581  62.686  1.00  0.00    -0.055 C  
HETATM    2  C   UNL     1      -8.473   1.847  64.104  1.00  0.00    -0.082 C  
ENDROOT
BRANCH   2   3
HETATM    3  C   UNL     1      -7.295   1.976  65.068  1.00  0.00    -0.061 C  
BRANCH   3   4
HETATM    4  C   UNL     1      -6.131   2.685  64.386  1.00  0.00    -0.018 C  
BRANCH   4   5
HETATM    5  C   UNL     1      -6.384   4.183  64.234  1.00  0.00    -0.030 C  
BRANCH   5   6
HETATM    6  C   UNL     1      -6.680   4.788  65.604  1.00  0.00    -0.056 C  
BRANCH   6   7
HETATM    7  C   UNL     1      -7.422   6.120  65.487  1.00  0.00    -0.082 C  
BRANCH   7   8
HETATM    8  N   UNL     1      -8.747   6.109  66.134  1.00  0.00    -0.143 NA 
BRANCH   8   9
HETATM    9  C   UNL     1      -8.789   5.368  67.407  1.00  0.00    -0.105 C  
HETATM   10  C   UNL     1      -9.810   4.237  67.499  1.00  0.00    -0.162 C  
ENDBRANCH   8   9
BRANCH   8  11
HETATM   11  C   UNL     1      -9.303   7.466  66.283  1.00  0.00    -0.111 C  
BRANCH  11  12
HETATM   12  C   UNL     1      -9.688   7.843  67.722  1.00  0.00    -0.189 C  
BRANCH  12  13
HETATM   13  C   UNL     1      -8.939   9.083  68.224  1.00  0.00    -0.133 C  
BRANCH  13  14
HETATM   14  C   UNL     1      -9.377   9.495  69.637  1.00  0.00    -0.200 C  
HETATM   15  H   UNL     1     -11.030  10.099  70.520  1.00  0.00     0.000 HD 
HETATM   16  O   UNL     1     -10.758   9.844  69.646  1.00  0.00    -0.221 OA 
BRANCH  14  17
HETATM   17  C   UNL     1      -9.113   8.395  70.648  1.00  0.00    -0.174 A  
HETATM   18  C   UNL     1      -8.019   7.535  70.470  1.00  0.00    -0.098 A  
HETATM   19  C   UNL     1      -7.799   6.469  71.346  1.00  0.00    -0.100 A  
HETATM   20  C   UNL     1      -8.673   6.249  72.407  1.00  0.00    -0.121 A  
HETATM   21  C   UNL     1      -9.957   8.186  71.754  1.00  0.00    -0.264 A  
HETATM   22  C   UNL     1      -9.736   7.121  72.631  1.00  0.00    -0.186 A  
BRANCH  20  23
HETATM   23  N   UNL     1      -8.462   5.130  73.262  1.00  0.00    -0.113 N  
HETATM   24  H   UNL     1      -7.626   5.061  73.842  1.00  0.00     0.000 HD 
BRANCH  23  25
HETATM   25  S   UNL     1      -9.640   3.921  73.284  1.00  0.00    -0.113 S  
HETATM   26  C   UNL     1      -8.634   2.453  73.255  1.00  0.00    -0.070 C  
HETATM   27  O   UNL     1     -10.312   4.015  72.007  1.00  0.00    -0.150 OA 
HETATM   28  O   UNL     1     -10.382   3.969  74.525  1.00  0.00    -0.193 OA 
ENDBRANCH  23  25
ENDBRANCH  20  23
ENDBRANCH  14  17
ENDBRANCH  13  14
ENDBRANCH  12  13
ENDBRANCH  11  12
ENDBRANCH   8  11
ENDBRANCH   7   8
ENDBRANCH   6   7
ENDBRANCH   5   6
ENDBRANCH   4   5
ENDBRANCH   3   4
ENDBRANCH   2   3
TORSDOF 14
ENDMDL
MODEL      322
REMARK 921   NORMALIZED FREE ENERGY PREDICTED BY IDOCK:   -1.05 KCAL/MOL
REMARK 922        TOTAL FREE ENERGY PREDICTED BY IDOCK:   -3.76 KCAL/MOL
REMARK 923 INTER-LIGAND FREE ENERGY PREDICTED BY IDOCK:   -2.92 KCAL/MOL
REMARK 924 INTRA-LIGAND FREE ENERGY PREDICTED BY IDOCK:   -0.85 KCAL/MOL
REMARK 927      BINDING AFFINITY PREDICTED BY RF-SCORE:    0.00 PKD
ROOT
HETATM    1  C   UNL     1     -10.241  20.413  65.092  1.00  0.00     0.567 C  
HETATM    2  C   UNL     1     -11.340  20.326  66.134  1.00  0.00     1.049 C  
ENDROOT
BRANCH   2   3
HETATM    3  C   UNL     1     -10.979  19.340  67.244  1.00  0.00    -0.443 C  
BRANCH   3   4
HETATM    4  C   UNL     1      -9.470  19.128  67.289  1.00  0.00    -0.367 C  
BRANCH   4   5
HETATM    5  C   UNL     1      -8.750  20.286  67.976  1.00  0.00    -0.148 C  
BRANCH   5   6
HETATM    6  C   UNL     1      -7.243  20.054  67.910  1.00  0.00    -0.325 C  
BRANCH   6   7
HETATM    7  C   UNL     1      -6.907  18.644  67.418  1.00  0.00    -0.204 C  
BRANCH   7   8
HETATM    8  N   UNL     1      -6.404  17.759  68.484  1.00  0.00    -0.181 NA 
BRANCH   8   9
HETATM    9  C   UNL     1      -5.671  18.460  69.553  1.00  0.00    -0.244 C  
HETATM   10  C   UNL     1      -5.243  17.613  70.749  1.00  0.00    -0.264 C  
ENDBRANCH   8   9
BRANCH   8  11
HETATM   11  C   UNL     1      -7.464  16.896  69.035  1.00  0.00    -0.220 C  
BRANCH  11  12
HETATM   12  C   UNL     1      -8.175  16.015  67.995  1.00  0.00    -0.151 C  
BRANCH  12  13
HETATM   13  C   UNL     1      -9.166  15.036  68.634  1.00  0.00    -0.198 C  
BRANCH  13  14
HETATM   14  C   UNL     1      -9.757  14.056  67.611  1.00  0.00    -0.228 C  
HETATM   15  H   UNL     1     -10.068  14.006  65.667  1.00  0.00     0.000 HD 
HETATM   16  O   UNL     1      -9.702  14.613  66.301  1.00  0.00    -0.276 OA 
BRANCH  14  17
HETATM   17  C   UNL     1      -9.040  12.720  67.637  1.00  0.00    -0.193 A  
HETATM   18  C   UNL     1      -7.737  12.619  67.126  1.00  0.00    -0.094 A  
HETATM   19  C   UNL     1      -7.085  11.385  67.070  1.00  0.00    -0.138 A  
HETATM   20  C   UNL     1      -7.730  10.236  67.521  1.00  0.00    -0.094 A  
HETATM   21  C   UNL     1      -9.656  11.556  68.134  1.00  0.00    -0.187 A  
HETATM   22  C   UNL     1      -9.003  10.322  68.080  1.00  0.00    -0.132 A  
BRANCH  20  23
HETATM   23  N   UNL     1      -7.070   8.980  67.413  1.00  0.00    -0.079 N  
HETATM   24  H   UNL     1      -6.257   8.761  67.990  1.00  0.00     0.000 HD 
BRANCH  23  25
HETATM   25  S   UNL     1      -7.675   7.864  66.301  1.00  0.00    -0.094 S  
HETATM   26  C   UNL     1      -6.286   6.765  66.118  1.00  0.00    -0.049 C  
HETATM   27  O   UNL     1      -7.818   8.595  65.061  1.00  0.00    -0.104 OA 
HETATM   28  O   UNL     1      -8.787   7.139  66.874  1.00  0.00    -0.121 OA 
ENDBRANCH  23  25
ENDBRANCH  20  23
ENDBRANCH  14  17
ENDBRANCH  13  14
ENDBRANCH  12  13
ENDBRANCH  11  12
ENDBRANCH   8  11
ENDBRANCH   7   8
ENDBRANCH   6   7
ENDBRANCH   5   6
ENDBRANCH   4   5
ENDBRANCH   3   4
ENDBRANCH   2   3
TORSDOF 14
ENDMDL
MODEL      323
REMARK 921   NORMALIZED FREE ENERGY PREDICTED BY IDOCK:   -0.24 KCAL/MOL
REMARK 922        TOTAL FREE ENERGY PREDICTED BY IDOCK:   -2.28 KCAL/MOL
REMARK 923 INTER-LIGAND FREE ENERGY PREDICTED BY IDOCK:   -1.43 KCAL/MOL
REMARK 924 INTRA-LIGAND FREE ENERGY PREDICTED BY IDOCK:   -0.85 KCAL/MOL
REMARK 927      BINDING AFFINITY PREDICTED BY RF-SCORE:    0.00 PKD
ROOT
HETATM    1  C   UNL     1     -11.342  18.581  68.148  1.00  0.00     0.901 C  
HETATM    2  C   UNL     1     -11.185  18.088  66.721  1.00  0.00     0.630 C  
ENDROOT
BRANCH   2   3
HETATM    3  C   UNL     1     -10.384  16.788  66.666  1.00  0.00    -0.297 C  
BRANCH   3   4
HETATM    4  C   UNL     1      -8.920  17.083  66.368  1.00  0.00    -0.308 C  
BRANCH   4   5
HETATM    5  C   UNL     1      -8.752  18.333  65.508  1.00  0.00     1.043 C  
BRANCH   5   6
HETATM    6  C   UNL     1      -8.558  19.547  66.413  1.00  0.00    -0.384 C  
BRANCH   6   7
HETATM    7  C   UNL     1      -7.193  20.203  66.198  1.00  0.00    -0.286 C  
BRANCH   7   8
HETATM    8  N   UNL     1      -6.104  19.231  65.992  1.00  0.00    -0.174 NA 
BRANCH   8   9
HETATM    9  C   UNL     1      -5.147  19.612  64.939  1.00  0.00    -0.154 C  
HETATM   10  C   UNL     1      -5.744  20.173  63.651  1.00  0.00    -0.310 C  
ENDBRANCH   8   9
BRANCH   8  11
HETATM   11  C   UNL     1      -5.414  18.897  67.251  1.00  0.00    -0.156 C  
BRANCH  11  12
HETATM   12  C   UNL     1      -6.073  17.770  68.061  1.00  0.00    -0.164 C  
BRANCH  12  13
HETATM   13  C   UNL     1      -5.502  16.389  67.718  1.00  0.00    -0.147 C  
BRANCH  13  14
HETATM   14  C   UNL     1      -5.387  15.484  68.953  1.00  0.00    -0.099 C  
HETATM   15  H   UNL     1      -5.862  15.574  70.862  1.00  0.00     0.000 HD 
HETATM   16  O   UNL     1      -5.933  16.134  70.097  1.00  0.00    -0.189 OA 
BRANCH  14  17
HETATM   17  C   UNL     1      -6.076  14.150  68.735  1.00  0.00    -0.085 A  
HETATM   18  C   UNL     1      -5.534  12.987  69.302  1.00  0.00    -0.076 A  
HETATM   19  C   UNL     1      -6.108  11.737  69.055  1.00  0.00    -0.066 A  
HETATM   20  C   UNL     1      -7.228  11.637  68.234  1.00  0.00    -0.085 A  
HETATM   21  C   UNL     1      -7.237  14.034  67.949  1.00  0.00    -0.164 A  
HETATM   22  C   UNL     1      -7.812  12.784  67.702  1.00  0.00    -0.165 A  
BRANCH  20  23
HETATM   23  N   UNL     1      -7.771  10.352  67.953  1.00  0.00    -0.089 N  
HETATM   24  H   UNL     1      -7.202   9.621  67.524  1.00  0.00     0.000 HD 
BRANCH  23  25
HETATM   25  S   UNL     1      -9.388  10.074  68.353  1.00  0.00    -0.141 S  
HETATM   26  C   UNL     1      -9.363   8.332  68.719  1.00  0.00    -0.143 C  
HETATM   27  O   UNL     1     -10.125  10.250  67.121  1.00  0.00    -0.191 OA 
HETATM   28  O   UNL     1      -9.741  10.809  69.548  1.00  0.00    -0.133 OA 
ENDBRANCH  23  25
ENDBRANCH  20  23
ENDBRANCH  14  17
ENDBRANCH  13  14
ENDBRANCH  12  13
ENDBRANCH  11  12
ENDBRANCH   8  11
ENDBRANCH   7   8
ENDBRANCH   6   7
ENDBRANCH   5   6
ENDBRANCH   4   5
ENDBRANCH   3   4
ENDBRANCH   2   3
TORSDOF 14
ENDMDL
MODEL      324
REMARK 921   NORMALIZED FREE ENERGY PREDICTED BY IDOCK:    0.05 KCAL/MOL
REMARK 922        TOTAL FREE ENERGY PREDICTED BY IDOCK:   -1.76 KCAL/MOL
REMARK 923 INTER-LIGAND FREE ENERGY PREDICTED BY IDOCK:   -2.36 KCAL/MOL
REMARK 924 INTRA-LIGAND FREE ENERGY PREDICTED BY IDOCK:    0.60 KCAL/MOL
REMARK 927      BINDING AFFINITY PREDICTED BY RF-SCORE:    0.00 PKD
ROOT
HETATM    1  C   UNL     1     -13.155  10.358  69.808  1.00  0.00     0.591 C  
HETATM    2  C   UNL     1     -11.758  10.930  69.960  1.00  0.00    -0.427 C  
ENDROOT
BRANCH   2   3
HETATM    3  C   UNL     1     -10.870  10.553  68.776  1.00  0.00    -0.269 C  
BRANCH   3   4
HETATM    4  C   UNL     1     -10.187  11.794  68.214  1.00  0.00    -0.209 C  
BRANCH   4   5
HETATM    5  C   UNL     1      -8.918  11.448  67.439  1.00  0.00    -0.154 C  
BRANCH   5   6
HETATM    6  C   UNL     1      -8.371  10.113  67.936  1.00  0.00    -0.117 C  
BRANCH   6   7
HETATM    7  C   UNL     1      -7.772  10.233  69.339  1.00  0.00    -0.146 C  
BRANCH   7   8
HETATM    8  N   UNL     1      -6.386  10.736  69.341  1.00  0.00    -0.059 NA 
BRANCH   8   9
HETATM    9  C   UNL     1      -6.272  12.188  69.113  1.00  0.00    -0.088 C  
HETATM   10  C   UNL     1      -6.125  13.060  70.357  1.00  0.00    -0.041 C  
ENDBRANCH   8   9
BRANCH   8  11
HETATM   11  C   UNL     1      -5.648  10.323  70.548  1.00  0.00    -0.078 C  
BRANCH  11  12
HETATM   12  C   UNL     1      -5.837   8.848  70.937  1.00  0.00    -0.039 C  
BRANCH  12  13
HETATM   13  C   UNL     1      -6.083   8.664  72.439  1.00  0.00    -0.076 C  
BRANCH  13  14
HETATM   14  C   UNL     1      -7.577   8.548  72.774  1.00  0.00     0.002 C  
HETATM   15  H   UNL     1      -9.285   9.136  71.990  1.00  0.00     0.000 HD 
HETATM   16  O   UNL     1      -8.360   9.208  71.783  1.00  0.00    -0.340 OA 
BRANCH  14  17
HETATM   17  C   UNL     1      -8.012   7.100  72.899  1.00  0.00    -0.114 A  
HETATM   18  C   UNL     1      -8.406   6.598  74.148  1.00  0.00    -0.146 A  
HETATM   19  C   UNL     1      -8.739   5.251  74.304  1.00  0.00    -0.116 A  
HETATM   20  C   UNL     1      -8.676   4.388  73.213  1.00  0.00    -0.100 A  
HETATM   21  C   UNL     1      -8.003   6.224  71.798  1.00  0.00    -0.102 A  
HETATM   22  C   UNL     1      -8.336   4.876  71.953  1.00  0.00    -0.119 A  
BRANCH  20  23
HETATM   23  N   UNL     1      -8.972   3.008  73.399  1.00  0.00    -0.085 N  
HETATM   24  H   UNL     1      -8.238   2.339  73.633  1.00  0.00     0.000 HD 
BRANCH  23  25
HETATM   25  S   UNL     1     -10.577   2.515  73.220  1.00  0.00    -0.174 S  
HETATM   26  C   UNL     1     -11.370   4.052  72.801  1.00  0.00     0.244 C  
HETATM   27  O   UNL     1     -11.016   2.146  74.548  1.00  0.00    -0.091 OA 
HETATM   28  O   UNL     1     -10.696   1.595  72.110  1.00  0.00    -0.111 OA 
ENDBRANCH  23  25
ENDBRANCH  20  23
ENDBRANCH  14  17
ENDBRANCH  13  14
ENDBRANCH  12  13
ENDBRANCH  11  12
ENDBRANCH   8  11
ENDBRANCH   7   8
ENDBRANCH   6   7
ENDBRANCH   5   6
ENDBRANCH   4   5
ENDBRANCH   3   4
ENDBRANCH   2   3
TORSDOF 14
ENDMDL
MODEL      325
REMARK 921   NORMALIZED FREE ENERGY PREDICTED BY IDOCK:    2.86 KCAL/MOL
REMARK 922        TOTAL FREE ENERGY PREDICTED BY IDOCK:    3.34 KCAL/MOL
REMARK 923 INTER-LIGAND FREE ENERGY PREDICTED BY IDOCK:   -2.23 KCAL/MOL
REMARK 924 INTRA-LIGAND FREE ENERGY PREDICTED BY IDOCK:    5.57 KCAL/MOL
REMARK 927      BINDING AFFINITY PREDICTED BY RF-SCORE:    0.00 PKD
ROOT
HETATM    1  C   UNL     1      -8.218   6.273  70.115  1.00  0.00    -0.121 C  
HETATM    2  C   UNL     1      -7.331   7.476  70.374  1.00  0.00    -0.072 C  
ENDROOT
BRANCH   2   3
HETATM    3  C   UNL     1      -7.742   8.668  69.511  1.00  0.00    -0.090 C  
BRANCH   3   4
HETATM    4  C   UNL     1      -6.512   9.313  68.884  1.00  0.00    -0.047 C  
BRANCH   4   5
HETATM    5  C   UNL     1      -5.740   8.336  68.003  1.00  0.00    -0.035 C  
BRANCH   5   6
HETATM    6  C   UNL     1      -6.579   7.991  66.775  1.00  0.00    -0.056 C  
BRANCH   6   7
HETATM    7  C   UNL     1      -7.049   9.247  66.038  1.00  0.00    -0.090 C  
BRANCH   7   8
HETATM    8  N   UNL     1      -8.419   9.655  66.398  1.00  0.00    -0.122 NA 
BRANCH   8   9
HETATM    9  C   UNL     1      -9.469   9.039  65.568  1.00  0.00    -0.150 C  
HETATM   10  C   UNL     1      -9.296   7.556  65.247  1.00  0.00     0.690 C  
ENDBRANCH   8   9
BRANCH   8  11
HETATM   11  C   UNL     1      -8.693   9.472  67.835  1.00  0.00    -0.119 C  
BRANCH  11  12
HETATM   12  C   UNL     1      -9.256  10.716  68.541  1.00  0.00    -0.170 C  
BRANCH  12  13
HETATM   13  C   UNL     1      -8.750  12.023  67.919  1.00  0.00    -0.170 C  
BRANCH  13  14
HETATM   14  C   UNL     1      -7.981  12.887  68.928  1.00  0.00     0.182 C  
HETATM   15  H   UNL     1      -6.440  12.676  70.136  1.00  0.00     0.000 HD 
HETATM   16  O   UNL     1      -6.917  12.141  69.512  1.00  0.00    -0.027 OA 
BRANCH  14  17
HETATM   17  C   UNL     1      -7.438  14.149  68.285  1.00  0.00    -0.125 A  
HETATM   18  C   UNL     1      -8.087  14.695  67.167  1.00  0.00    -0.213 A  
HETATM   19  C   UNL     1      -7.564  15.812  66.512  1.00  0.00     0.077 A  
HETATM   20  C   UNL     1      -6.383  16.394  66.965  1.00  0.00    -0.141 A  
HETATM   21  C   UNL     1      -6.272  14.780  68.757  1.00  0.00    -0.083 A  
HETATM   22  C   UNL     1      -5.749  15.899  68.103  1.00  0.00    -0.122 A  
BRANCH  20  23
HETATM   23  N   UNL     1      -5.838  17.502  66.258  1.00  0.00    -0.202 N  
HETATM   24  H   UNL     1      -4.992  17.404  65.694  1.00  0.00     0.000 HD 
BRANCH  23  25
HETATM   25  S   UNL     1      -6.634  18.985  66.380  1.00  0.00    -0.202 S  
HETATM   26  C   UNL     1      -7.490  18.795  67.931  1.00  0.00    -0.242 C  
HETATM   27  O   UNL     1      -7.629  18.976  65.330  1.00  0.00    -0.404 OA 
HETATM   28  O   UNL     1      -5.674  20.061  66.492  1.00  0.00    -0.171 OA 
ENDBRANCH  23  25
ENDBRANCH  20  23
ENDBRANCH  14  17
ENDBRANCH  13  14
ENDBRANCH  12  13
ENDBRANCH  11  12
ENDBRANCH   8  11
ENDBRANCH   7   8
ENDBRANCH   6   7
ENDBRANCH   5   6
ENDBRANCH   4   5
ENDBRANCH   3   4
ENDBRANCH   2   3
TORSDOF 14
ENDMDL
