MODEL        1
REMARK 921   NORMALIZED FREE ENERGY PREDICTED BY IDOCK:   -5.35 KCAL/MOL
REMARK 922        TOTAL FREE ENERGY PREDICTED BY IDOCK:  -12.59 KCAL/MOL
REMARK 923 INTER-LIGAND FREE ENERGY PREDICTED BY IDOCK:  -10.04 KCAL/MOL
REMARK 924 INTRA-LIGAND FREE ENERGY PREDICTED BY IDOCK:   -2.55 KCAL/MOL
REMARK 927      BINDING AFFINITY PREDICTED BY RF-SCORE:    0.00 PKD
ROOT
HETATM    1  C   UNL     1     -10.073  11.395  63.970  1.00  0.00    -0.369 C  
HETATM    2  C   UNL     1     -11.360  12.162  63.723  1.00  0.00    -0.451 C  
ENDROOT
BRANCH   2   3
HETATM    3  O   UNL     1     -11.195  13.472  64.279  1.00  0.00    -0.377 OA 
BRANCH   3   4
HETATM    4  C   UNL     1     -12.074  13.772  65.275  1.00  0.00    -0.407 C  
HETATM    5  O   UNL     1     -13.272  13.956  65.132  1.00  0.00    -0.768 OA 
BRANCH   4   6
HETATM    6  C   UNL     1     -11.344  13.735  66.590  1.00  0.00    -0.340 C  
BRANCH   6   7
HETATM    7  C   UNL     1     -11.820  12.544  67.428  1.00  0.00    -0.381 C  
BRANCH   7   8
HETATM    8  C   UNL     1     -10.703  11.967  68.284  1.00  0.00    -0.252 C  
BRANCH   8   9
HETATM    9  C   UNL     1     -11.201  10.906  69.235  1.00  0.00    -0.327 C  
HETATM   10  C   UNL     1     -11.997  11.123  70.294  1.00  0.00    -0.460 C  
BRANCH  10  11
HETATM   11  C   UNL     1     -12.384  12.479  70.787  1.00  0.00    -0.376 C  
BRANCH  11  12
HETATM   12  C   UNL     1     -13.371  12.489  71.914  1.00  0.00    -0.467 C  
HETATM   13  C   UNL     1     -14.025  13.593  72.317  1.00  0.00    -0.661 C  
BRANCH  13  14
HETATM   14  C   UNL     1     -13.935  14.995  71.757  1.00  0.00    -0.598 C  
BRANCH  14  15
HETATM   15  C   UNL     1     -12.756  15.805  72.232  1.00  0.00    -0.525 C  
HETATM   16  C   UNL     1     -11.777  16.303  71.461  1.00  0.00    -0.467 C  
BRANCH  16  17
HETATM   17  C   UNL     1     -11.592  15.989  70.013  1.00  0.00    -0.316 C  
BRANCH  17  18
HETATM   18  C   UNL     1     -10.361  15.138  69.849  1.00  0.00    -0.207 C  
HETATM   19  C   UNL     1      -9.221  15.553  69.277  1.00  0.00    -0.268 C  
BRANCH  19  20
HETATM   20  C   UNL     1      -9.014  16.911  68.696  1.00  0.00    -0.266 C  
BRANCH  20  21
HETATM   21  C   UNL     1      -9.317  16.954  67.228  1.00  0.00    -0.238 C  
HETATM   22  C   UNL     1     -10.071  17.896  66.640  1.00  0.00    -0.362 C  
BRANCH  22  23
HETATM   23  C   UNL     1     -10.761  19.026  67.341  1.00  0.00    -0.559 C  
HETATM   24  C   UNL     1     -10.031  20.341  67.139  1.00  0.00    -0.593 C  
ENDBRANCH  22  23
ENDBRANCH  20  21
ENDBRANCH  19  20
ENDBRANCH  17  18
ENDBRANCH  16  17
ENDBRANCH  14  15
ENDBRANCH  13  14
ENDBRANCH  11  12
ENDBRANCH  10  11
ENDBRANCH   8   9
ENDBRANCH   7   8
ENDBRANCH   6   7
ENDBRANCH   4   6
ENDBRANCH   3   4
ENDBRANCH   2   3
TORSDOF 15
ENDMDL
MODEL        2
REMARK 921   NORMALIZED FREE ENERGY PREDICTED BY IDOCK:   -5.15 KCAL/MOL
REMARK 922        TOTAL FREE ENERGY PREDICTED BY IDOCK:  -12.21 KCAL/MOL
REMARK 923 INTER-LIGAND FREE ENERGY PREDICTED BY IDOCK:   -8.71 KCAL/MOL
REMARK 924 INTRA-LIGAND FREE ENERGY PREDICTED BY IDOCK:   -3.50 KCAL/MOL
REMARK 927      BINDING AFFINITY PREDICTED BY RF-SCORE:    0.00 PKD
ROOT
HETATM    1  C   UNL     1     -12.599  14.094  65.943  1.00  0.00    -0.447 C  
HETATM    2  C   UNL     1     -12.248  14.450  64.510  1.00  0.00    -0.463 C  
ENDROOT
BRANCH   2   3
HETATM    3  O   UNL     1     -11.298  13.485  64.046  1.00  0.00    -0.363 OA 
BRANCH   3   4
HETATM    4  C   UNL     1     -11.827  12.256  63.790  1.00  0.00    -0.498 C  
HETATM    5  O   UNL     1     -12.938  12.044  63.330  1.00  0.00    -0.772 OA 
BRANCH   4   6
HETATM    6  C   UNL     1     -10.780  11.213  64.068  1.00  0.00    -0.409 C  
BRANCH   6   7
HETATM    7  C   UNL     1     -10.067  11.514  65.389  1.00  0.00    -0.304 C  
BRANCH   7   8
HETATM    8  C   UNL     1     -10.711  10.794  66.563  1.00  0.00    -0.245 C  
BRANCH   8   9
HETATM    9  C   UNL     1      -9.970  11.030  67.856  1.00  0.00    -0.192 C  
HETATM   10  C   UNL     1     -10.484  11.612  68.952  1.00  0.00    -0.201 C  
BRANCH  10  11
HETATM   11  C   UNL     1     -11.829  12.260  69.002  1.00  0.00    -0.358 C  
BRANCH  11  12
HETATM   12  C   UNL     1     -12.214  12.826  70.335  1.00  0.00    -0.371 C  
HETATM   13  C   UNL     1     -12.096  14.128  70.650  1.00  0.00    -0.421 C  
BRANCH  13  14
HETATM   14  C   UNL     1     -11.591  15.262  69.785  1.00  0.00    -0.335 C  
BRANCH  14  15
HETATM   15  C   UNL     1     -10.100  15.479  69.813  1.00  0.00    -0.291 C  
HETATM   16  C   UNL     1      -9.260  15.329  68.777  1.00  0.00    -0.203 C  
BRANCH  16  17
HETATM   17  C   UNL     1      -9.636  14.747  67.454  1.00  0.00    -0.210 C  
BRANCH  17  18
HETATM   18  C   UNL     1      -8.954  15.527  66.363  1.00  0.00    -0.359 C  
HETATM   19  C   UNL     1      -9.388  16.702  65.884  1.00  0.00    -0.192 C  
BRANCH  19  20
HETATM   20  C   UNL     1     -10.627  17.396  66.343  1.00  0.00    -0.192 C  
BRANCH  20  21
HETATM   21  C   UNL     1     -10.495  18.889  66.290  1.00  0.00    -0.510 C  
HETATM   22  C   UNL     1     -10.013  19.641  67.292  1.00  0.00    -0.518 C  
BRANCH  22  23
HETATM   23  C   UNL     1      -9.569  19.133  68.629  1.00  0.00    -0.471 C  
HETATM   24  C   UNL     1      -8.070  18.899  68.671  1.00  0.00    -0.382 C  
ENDBRANCH  22  23
ENDBRANCH  20  21
ENDBRANCH  19  20
ENDBRANCH  17  18
ENDBRANCH  16  17
ENDBRANCH  14  15
ENDBRANCH  13  14
ENDBRANCH  11  12
ENDBRANCH  10  11
ENDBRANCH   8   9
ENDBRANCH   7   8
ENDBRANCH   6   7
ENDBRANCH   4   6
ENDBRANCH   3   4
ENDBRANCH   2   3
TORSDOF 15
ENDMDL
MODEL        3
REMARK 921   NORMALIZED FREE ENERGY PREDICTED BY IDOCK:   -5.14 KCAL/MOL
REMARK 922        TOTAL FREE ENERGY PREDICTED BY IDOCK:  -12.20 KCAL/MOL
REMARK 923 INTER-LIGAND FREE ENERGY PREDICTED BY IDOCK:   -9.70 KCAL/MOL
REMARK 924 INTRA-LIGAND FREE ENERGY PREDICTED BY IDOCK:   -2.50 KCAL/MOL
REMARK 927      BINDING AFFINITY PREDICTED BY RF-SCORE:    0.00 PKD
ROOT
HETATM    1  C   UNL     1      -9.978  19.410  68.941  1.00  0.00    -0.519 C  
HETATM    2  C   UNL     1     -10.067  20.039  67.563  1.00  0.00    -0.425 C  
ENDROOT
BRANCH   2   3
HETATM    3  O   UNL     1      -9.480  19.124  66.631  1.00  0.00    -0.316 OA 
BRANCH   3   4
HETATM    4  C   UNL     1     -10.378  18.486  65.830  1.00  0.00    -0.315 C  
HETATM    5  O   UNL     1     -11.094  19.022  64.999  1.00  0.00    -0.393 OA 
BRANCH   4   6
HETATM    6  C   UNL     1     -10.267  17.004  66.065  1.00  0.00    -0.337 C  
BRANCH   6   7
HETATM    7  C   UNL     1     -11.111  16.239  65.042  1.00  0.00    -0.262 C  
BRANCH   7   8
HETATM    8  C   UNL     1     -10.721  14.771  64.964  1.00  0.00    -0.452 C  
BRANCH   8   9
HETATM    9  C   UNL     1     -11.813  13.919  64.365  1.00  0.00    -0.456 C  
HETATM   10  C   UNL     1     -11.652  12.681  63.873  1.00  0.00    -0.521 C  
BRANCH  10  11
HETATM   11  C   UNL     1     -10.326  12.016  63.698  1.00  0.00    -0.482 C  
BRANCH  11  12
HETATM   12  C   UNL     1     -10.155  10.728  64.443  1.00  0.00    -0.419 C  
HETATM   13  C   UNL     1     -10.039  10.655  65.782  1.00  0.00    -0.327 C  
BRANCH  13  14
HETATM   14  C   UNL     1     -10.064  11.783  66.789  1.00  0.00    -0.235 C  
BRANCH  14  15
HETATM   15  C   UNL     1     -10.816  11.492  68.063  1.00  0.00    -0.259 C  
HETATM   16  C   UNL     1     -11.674  12.318  68.681  1.00  0.00    -0.377 C  
BRANCH  16  17
HETATM   17  C   UNL     1     -11.900  13.746  68.304  1.00  0.00    -0.413 C  
BRANCH  17  18
HETATM   18  C   UNL     1     -10.759  14.577  68.826  1.00  0.00    -0.257 C  
HETATM   19  C   UNL     1     -10.862  15.470  69.821  1.00  0.00    -0.301 C  
BRANCH  19  20
HETATM   20  C   UNL     1     -12.129  15.791  70.541  1.00  0.00    -0.407 C  
BRANCH  20  21
HETATM   21  C   UNL     1     -11.981  15.682  72.028  1.00  0.00    -0.544 C  
HETATM   22  C   UNL     1     -12.715  14.869  72.804  1.00  0.00    -0.500 C  
BRANCH  22  23
HETATM   23  C   UNL     1     -13.818  13.973  72.330  1.00  0.00    -0.655 C  
HETATM   24  C   UNL     1     -13.307  12.585  71.991  1.00  0.00    -0.528 C  
ENDBRANCH  22  23
ENDBRANCH  20  21
ENDBRANCH  19  20
ENDBRANCH  17  18
ENDBRANCH  16  17
ENDBRANCH  14  15
ENDBRANCH  13  14
ENDBRANCH  11  12
ENDBRANCH  10  11
ENDBRANCH   8   9
ENDBRANCH   7   8
ENDBRANCH   6   7
ENDBRANCH   4   6
ENDBRANCH   3   4
ENDBRANCH   2   3
TORSDOF 15
ENDMDL
MODEL        4
REMARK 921   NORMALIZED FREE ENERGY PREDICTED BY IDOCK:   -5.12 KCAL/MOL
REMARK 922        TOTAL FREE ENERGY PREDICTED BY IDOCK:  -12.16 KCAL/MOL
REMARK 923 INTER-LIGAND FREE ENERGY PREDICTED BY IDOCK:  -10.16 KCAL/MOL
REMARK 924 INTRA-LIGAND FREE ENERGY PREDICTED BY IDOCK:   -2.00 KCAL/MOL
REMARK 927      BINDING AFFINITY PREDICTED BY RF-SCORE:    0.00 PKD
ROOT
HETATM    1  C   UNL     1     -12.511  16.006  74.246  1.00  0.00    -0.725 C  
HETATM    2  C   UNL     1     -11.956  15.768  72.853  1.00  0.00    -0.493 C  
ENDROOT
BRANCH   2   3
HETATM    3  O   UNL     1     -13.057  15.427  72.003  1.00  0.00    -0.354 OA 
BRANCH   3   4
HETATM    4  C   UNL     1     -13.332  14.094  71.950  1.00  0.00    -0.393 C  
HETATM    5  O   UNL     1     -14.217  13.526  72.569  1.00  0.00    -0.734 OA 
BRANCH   4   6
HETATM    6  C   UNL     1     -12.434  13.458  70.924  1.00  0.00    -0.439 C  
BRANCH   6   7
HETATM    7  C   UNL     1     -12.372  14.324  69.662  1.00  0.00    -0.312 C  
BRANCH   7   8
HETATM    8  C   UNL     1     -11.687  13.605  68.510  1.00  0.00    -0.392 C  
BRANCH   8   9
HETATM    9  C   UNL     1     -11.799  12.104  68.625  1.00  0.00    -0.358 C  
HETATM   10  C   UNL     1     -11.070  11.215  67.931  1.00  0.00    -0.331 C  
BRANCH  10  11
HETATM   11  C   UNL     1     -10.144  11.579  66.817  1.00  0.00    -0.245 C  
BRANCH  11  12
HETATM   12  C   UNL     1     -10.018  10.554  65.732  1.00  0.00    -0.318 C  
HETATM   13  C   UNL     1     -10.472  10.739  64.479  1.00  0.00    -0.351 C  
BRANCH  13  14
HETATM   14  C   UNL     1     -11.161  11.954  63.901  1.00  0.00    -0.497 C  
BRANCH  14  15
HETATM   15  C   UNL     1     -12.294  12.507  64.727  1.00  0.00    -0.544 C  
HETATM   16  C   UNL     1     -12.543  13.805  64.959  1.00  0.00    -0.427 C  
BRANCH  16  17
HETATM   17  C   UNL     1     -11.632  14.927  64.581  1.00  0.00    -0.395 C  
BRANCH  17  18
HETATM   18  C   UNL     1     -10.300  14.724  65.252  1.00  0.00    -0.425 C  
HETATM   19  C   UNL     1      -9.714  15.617  66.063  1.00  0.00    -0.378 C  
BRANCH  19  20
HETATM   20  C   UNL     1     -10.284  16.954  66.399  1.00  0.00    -0.326 C  
BRANCH  20  21
HETATM   21  C   UNL     1     -10.540  17.111  67.868  1.00  0.00    -0.376 C  
HETATM   22  C   UNL     1     -10.016  18.086  68.626  1.00  0.00    -0.396 C  
BRANCH  22  23
HETATM   23  C   UNL     1      -9.068  19.146  68.153  1.00  0.00    -0.371 C  
HETATM   24  C   UNL     1      -9.802  20.313  67.519  1.00  0.00    -0.576 C  
ENDBRANCH  22  23
ENDBRANCH  20  21
ENDBRANCH  19  20
ENDBRANCH  17  18
ENDBRANCH  16  17
ENDBRANCH  14  15
ENDBRANCH  13  14
ENDBRANCH  11  12
ENDBRANCH  10  11
ENDBRANCH   8   9
ENDBRANCH   7   8
ENDBRANCH   6   7
ENDBRANCH   4   6
ENDBRANCH   3   4
ENDBRANCH   2   3
TORSDOF 15
ENDMDL
MODEL        5
REMARK 921   NORMALIZED FREE ENERGY PREDICTED BY IDOCK:   -5.10 KCAL/MOL
REMARK 922        TOTAL FREE ENERGY PREDICTED BY IDOCK:  -12.13 KCAL/MOL
REMARK 923 INTER-LIGAND FREE ENERGY PREDICTED BY IDOCK:   -9.63 KCAL/MOL
REMARK 924 INTRA-LIGAND FREE ENERGY PREDICTED BY IDOCK:   -2.50 KCAL/MOL
REMARK 927      BINDING AFFINITY PREDICTED BY RF-SCORE:    0.00 PKD
ROOT
HETATM    1  C   UNL     1     -10.804   7.189  70.018  1.00  0.00    -0.276 C  
HETATM    2  C   UNL     1     -12.013   7.196  70.936  1.00  0.00    -0.334 C  
ENDROOT
BRANCH   2   3
HETATM    3  O   UNL     1     -12.022   8.450  71.627  1.00  0.00    -0.278 OA 
BRANCH   3   4
HETATM    4  C   UNL     1     -13.230   9.079  71.630  1.00  0.00    -0.371 C  
HETATM    5  O   UNL     1     -14.304   8.552  71.871  1.00  0.00    -0.433 OA 
BRANCH   4   6
HETATM    6  C   UNL     1     -13.010  10.548  71.391  1.00  0.00    -0.542 C  
BRANCH   6   7
HETATM    7  C   UNL     1     -11.693  10.773  70.643  1.00  0.00    -0.442 C  
BRANCH   7   8
HETATM    8  C   UNL     1     -11.919  11.096  69.174  1.00  0.00    -0.413 C  
BRANCH   8   9
HETATM    9  C   UNL     1     -11.015  10.299  68.267  1.00  0.00    -0.315 C  
HETATM   10  C   UNL     1     -10.572  10.698  67.064  1.00  0.00    -0.317 C  
BRANCH  10  11
HETATM   11  C   UNL     1     -11.038  11.935  66.369  1.00  0.00    -0.359 C  
BRANCH  11  12
HETATM   12  C   UNL     1     -10.876  11.929  64.880  1.00  0.00    -0.356 C  
HETATM   13  C   UNL     1     -11.272  12.940  64.086  1.00  0.00    -0.432 C  
BRANCH  13  14
HETATM   14  C   UNL     1     -11.922  14.247  64.483  1.00  0.00    -0.478 C  
BRANCH  14  15
HETATM   15  C   UNL     1     -10.973  15.329  64.931  1.00  0.00    -0.445 C  
HETATM   16  C   UNL     1     -10.780  15.738  66.194  1.00  0.00    -0.293 C  
BRANCH  16  17
HETATM   17  C   UNL     1     -11.608  15.312  67.362  1.00  0.00    -0.196 C  
BRANCH  17  18
HETATM   18  C   UNL     1     -10.701  14.778  68.438  1.00  0.00    -0.243 C  
HETATM   19  C   UNL     1     -11.011  14.736  69.741  1.00  0.00    -0.261 C  
BRANCH  19  20
HETATM   20  C   UNL     1     -12.292  15.236  70.321  1.00  0.00    -0.407 C  
BRANCH  20  21
HETATM   21  C   UNL     1     -12.957  14.216  71.195  1.00  0.00    -0.419 C  
HETATM   22  C   UNL     1     -13.449  14.473  72.417  1.00  0.00    -0.543 C  
BRANCH  22  23
HETATM   23  C   UNL     1     -13.382  15.791  73.125  1.00  0.00    -0.685 C  
HETATM   24  C   UNL     1     -12.342  15.782  74.230  1.00  0.00    -0.790 C  
ENDBRANCH  22  23
ENDBRANCH  20  21
ENDBRANCH  19  20
ENDBRANCH  17  18
ENDBRANCH  16  17
ENDBRANCH  14  15
ENDBRANCH  13  14
ENDBRANCH  11  12
ENDBRANCH  10  11
ENDBRANCH   8   9
ENDBRANCH   7   8
ENDBRANCH   6   7
ENDBRANCH   4   6
ENDBRANCH   3   4
ENDBRANCH   2   3
TORSDOF 15
ENDMDL
MODEL        6
REMARK 921   NORMALIZED FREE ENERGY PREDICTED BY IDOCK:   -5.10 KCAL/MOL
REMARK 922        TOTAL FREE ENERGY PREDICTED BY IDOCK:  -12.12 KCAL/MOL
REMARK 923 INTER-LIGAND FREE ENERGY PREDICTED BY IDOCK:   -9.22 KCAL/MOL
REMARK 924 INTRA-LIGAND FREE ENERGY PREDICTED BY IDOCK:   -2.90 KCAL/MOL
REMARK 927      BINDING AFFINITY PREDICTED BY RF-SCORE:    0.00 PKD
ROOT
HETATM    1  C   UNL     1     -10.972  11.533  63.606  1.00  0.00    -0.482 C  
HETATM    2  C   UNL     1     -12.390  12.066  63.519  1.00  0.00    -0.551 C  
ENDROOT
BRANCH   2   3
HETATM    3  O   UNL     1     -12.680  12.724  64.758  1.00  0.00    -0.644 OA 
BRANCH   3   4
HETATM    4  C   UNL     1     -12.333  14.041  64.787  1.00  0.00    -0.413 C  
HETATM    5  O   UNL     1     -12.653  14.877  63.958  1.00  0.00    -0.832 OA 
BRANCH   4   6
HETATM    6  C   UNL     1     -11.583  14.313  66.062  1.00  0.00    -0.362 C  
BRANCH   6   7
HETATM    7  C   UNL     1     -11.904  13.241  67.107  1.00  0.00    -0.424 C  
BRANCH   7   8
HETATM    8  C   UNL     1     -11.070  13.406  68.368  1.00  0.00    -0.301 C  
BRANCH   8   9
HETATM    9  C   UNL     1     -11.907  13.802  69.560  1.00  0.00    -0.394 C  
HETATM   10  C   UNL     1     -12.332  12.968  70.523  1.00  0.00    -0.365 C  
BRANCH  10  11
HETATM   11  C   UNL     1     -12.172  11.483  70.475  1.00  0.00    -0.469 C  
BRANCH  11  12
HETATM   12  C   UNL     1     -12.829  10.736  71.595  1.00  0.00    -0.562 C  
HETATM   13  C   UNL     1     -12.860   9.393  71.672  1.00  0.00    -0.461 C  
BRANCH  13  14
HETATM   14  C   UNL     1     -12.266   8.383  70.717  1.00  0.00    -0.006 C  
BRANCH  14  15
HETATM   15  C   UNL     1     -11.971   7.029  71.311  1.00  0.00    -0.388 C  
HETATM   16  C   UNL     1     -11.036   6.166  70.885  1.00  0.00    -0.359 C  
BRANCH  16  17
HETATM   17  C   UNL     1     -10.240   6.324  69.631  1.00  0.00    -0.233 C  
BRANCH  17  18
HETATM   18  C   UNL     1     -11.117   6.006  68.450  1.00  0.00    -0.271 C  
HETATM   19  C   UNL     1     -11.034   6.613  67.257  1.00  0.00    -0.456 C  
BRANCH  19  20
HETATM   20  C   UNL     1     -10.078   7.712  66.933  1.00  0.00    -0.348 C  
BRANCH  20  21
HETATM   21  C   UNL     1     -10.637   9.065  67.253  1.00  0.00    -0.301 C  
HETATM   22  C   UNL     1     -10.032   9.965  68.044  1.00  0.00    -0.179 C  
BRANCH  22  23
HETATM   23  C   UNL     1      -8.735   9.761  68.765  1.00  0.00    -0.128 C  
HETATM   24  C   UNL     1      -8.946   9.571  70.256  1.00  0.00    -0.288 C  
ENDBRANCH  22  23
ENDBRANCH  20  21
ENDBRANCH  19  20
ENDBRANCH  17  18
ENDBRANCH  16  17
ENDBRANCH  14  15
ENDBRANCH  13  14
ENDBRANCH  11  12
ENDBRANCH  10  11
ENDBRANCH   8   9
ENDBRANCH   7   8
ENDBRANCH   6   7
ENDBRANCH   4   6
ENDBRANCH   3   4
ENDBRANCH   2   3
TORSDOF 15
ENDMDL
MODEL        7
REMARK 921   NORMALIZED FREE ENERGY PREDICTED BY IDOCK:   -5.09 KCAL/MOL
REMARK 922        TOTAL FREE ENERGY PREDICTED BY IDOCK:  -12.10 KCAL/MOL
REMARK 923 INTER-LIGAND FREE ENERGY PREDICTED BY IDOCK:   -9.72 KCAL/MOL
REMARK 924 INTRA-LIGAND FREE ENERGY PREDICTED BY IDOCK:   -2.37 KCAL/MOL
REMARK 927      BINDING AFFINITY PREDICTED BY RF-SCORE:    0.00 PKD
ROOT
HETATM    1  C   UNL     1     -10.599  12.307  63.563  1.00  0.00    -0.488 C  
HETATM    2  C   UNL     1     -12.115  12.384  63.570  1.00  0.00    -0.558 C  
ENDROOT
BRANCH   2   3
HETATM    3  O   UNL     1     -12.478  13.755  63.374  1.00  0.00    -0.817 OA 
BRANCH   3   4
HETATM    4  C   UNL     1     -12.251  14.555  64.454  1.00  0.00    -0.458 C  
HETATM    5  O   UNL     1     -11.653  15.618  64.435  1.00  0.00    -0.395 OA 
BRANCH   4   6
HETATM    6  C   UNL     1     -12.949  13.962  65.647  1.00  0.00    -0.361 C  
BRANCH   6   7
HETATM    7  C   UNL     1     -12.027  13.992  66.870  1.00  0.00    -0.479 C  
BRANCH   7   8
HETATM    8  C   UNL     1     -11.889  12.621  67.514  1.00  0.00    -0.396 C  
BRANCH   8   9
HETATM    9  C   UNL     1     -10.526  12.412  68.126  1.00  0.00    -0.228 C  
HETATM   10  C   UNL     1     -10.116  11.293  68.745  1.00  0.00    -0.204 C  
BRANCH  10  11
HETATM   11  C   UNL     1     -11.006  10.137  69.063  1.00  0.00    -0.265 C  
BRANCH  11  12
HETATM   12  C   UNL     1     -11.192   9.858  70.522  1.00  0.00    -0.399 C  
HETATM   13  C   UNL     1     -11.995  10.585  71.321  1.00  0.00    -0.386 C  
BRANCH  13  14
HETATM   14  C   UNL     1     -12.856  11.773  70.955  1.00  0.00    -0.309 C  
BRANCH  14  15
HETATM   15  C   UNL     1     -13.527  12.464  72.115  1.00  0.00    -0.481 C  
HETATM   16  C   UNL     1     -13.343  13.739  72.489  1.00  0.00    -0.656 C  
BRANCH  16  17
HETATM   17  C   UNL     1     -12.302  14.650  71.925  1.00  0.00    -0.410 C  
BRANCH  17  18
HETATM   18  C   UNL     1     -12.760  15.145  70.580  1.00  0.00    -0.451 C  
HETATM   19  C   UNL     1     -11.971  15.763  69.689  1.00  0.00    -0.332 C  
BRANCH  19  20
HETATM   20  C   UNL     1     -10.529  16.074  69.910  1.00  0.00    -0.287 C  
BRANCH  20  21
HETATM   21  C   UNL     1      -9.735  16.024  68.640  1.00  0.00    -0.217 C  
HETATM   22  C   UNL     1      -9.673  17.025  67.747  1.00  0.00    -0.258 C  
BRANCH  22  23
HETATM   23  C   UNL     1     -10.407  18.327  67.844  1.00  0.00    -0.417 C  
HETATM   24  C   UNL     1      -9.551  19.407  68.481  1.00  0.00    -0.472 C  
ENDBRANCH  22  23
ENDBRANCH  20  21
ENDBRANCH  19  20
ENDBRANCH  17  18
ENDBRANCH  16  17
ENDBRANCH  14  15
ENDBRANCH  13  14
ENDBRANCH  11  12
ENDBRANCH  10  11
ENDBRANCH   8   9
ENDBRANCH   7   8
ENDBRANCH   6   7
ENDBRANCH   4   6
ENDBRANCH   3   4
ENDBRANCH   2   3
TORSDOF 15
ENDMDL
MODEL        8
REMARK 921   NORMALIZED FREE ENERGY PREDICTED BY IDOCK:   -5.08 KCAL/MOL
REMARK 922        TOTAL FREE ENERGY PREDICTED BY IDOCK:  -12.09 KCAL/MOL
REMARK 923 INTER-LIGAND FREE ENERGY PREDICTED BY IDOCK:   -9.67 KCAL/MOL
REMARK 924 INTRA-LIGAND FREE ENERGY PREDICTED BY IDOCK:   -2.42 KCAL/MOL
REMARK 927      BINDING AFFINITY PREDICTED BY RF-SCORE:    0.00 PKD
ROOT
HETATM    1  C   UNL     1     -14.208   7.766  71.629  1.00  0.00    -0.572 C  
HETATM    2  C   UNL     1     -13.519   8.933  72.313  1.00  0.00    -0.455 C  
ENDROOT
BRANCH   2   3
HETATM    3  O   UNL     1     -12.762   9.631  71.318  1.00  0.00    -0.322 OA 
BRANCH   3   4
HETATM    4  C   UNL     1     -12.879  10.987  71.375  1.00  0.00    -0.443 C  
HETATM    5  O   UNL     1     -13.517  11.610  72.208  1.00  0.00    -0.397 OA 
BRANCH   4   6
HETATM    6  C   UNL     1     -12.010  11.591  70.306  1.00  0.00    -0.455 C  
BRANCH   6   7
HETATM    7  C   UNL     1     -11.162  10.507  69.635  1.00  0.00    -0.342 C  
BRANCH   7   8
HETATM    8  C   UNL     1     -11.146  10.651  68.121  1.00  0.00    -0.343 C  
BRANCH   8   9
HETATM    9  C   UNL     1     -10.466   9.487  67.443  1.00  0.00    -0.336 C  
HETATM   10  C   UNL     1      -9.732   9.561  66.321  1.00  0.00    -0.310 C  
BRANCH  10  11
HETATM   11  C   UNL     1      -9.608  10.791  65.481  1.00  0.00    -0.269 C  
BRANCH  11  12
HETATM   12  C   UNL     1      -9.771  10.575  64.008  1.00  0.00    -0.383 C  
HETATM   13  C   UNL     1     -10.497  11.384  63.215  1.00  0.00    -0.397 C  
BRANCH  13  14
HETATM   14  C   UNL     1     -11.263  12.632  63.596  1.00  0.00    -0.525 C  
BRANCH  14  15
HETATM   15  C   UNL     1     -12.300  12.447  64.674  1.00  0.00    -0.518 C  
HETATM   16  C   UNL     1     -12.571  13.309  65.666  1.00  0.00    -0.469 C  
BRANCH  16  17
HETATM   17  C   UNL     1     -11.764  14.527  65.979  1.00  0.00    -0.347 C  
BRANCH  17  18
HETATM   18  C   UNL     1     -10.670  14.156  66.944  1.00  0.00    -0.286 C  
HETATM   19  C   UNL     1     -10.702  14.405  68.261  1.00  0.00    -0.246 C  
BRANCH  19  20
HETATM   20  C   UNL     1     -11.815  15.110  68.961  1.00  0.00    -0.331 C  
BRANCH  20  21
HETATM   21  C   UNL     1     -11.317  16.064  70.004  1.00  0.00    -0.353 C  
HETATM   22  C   UNL     1     -11.593  15.963  71.314  1.00  0.00    -0.509 C  
BRANCH  22  23
HETATM   23  C   UNL     1     -12.466  14.921  71.944  1.00  0.00    -0.403 C  
HETATM   24  C   UNL     1     -13.626  15.543  72.699  1.00  0.00    -0.657 C  
ENDBRANCH  22  23
ENDBRANCH  20  21
ENDBRANCH  19  20
ENDBRANCH  17  18
ENDBRANCH  16  17
ENDBRANCH  14  15
ENDBRANCH  13  14
ENDBRANCH  11  12
ENDBRANCH  10  11
ENDBRANCH   8   9
ENDBRANCH   7   8
ENDBRANCH   6   7
ENDBRANCH   4   6
ENDBRANCH   3   4
ENDBRANCH   2   3
TORSDOF 15
ENDMDL
MODEL        9
REMARK 921   NORMALIZED FREE ENERGY PREDICTED BY IDOCK:   -5.06 KCAL/MOL
REMARK 922        TOTAL FREE ENERGY PREDICTED BY IDOCK:  -12.05 KCAL/MOL
REMARK 923 INTER-LIGAND FREE ENERGY PREDICTED BY IDOCK:   -9.10 KCAL/MOL
REMARK 924 INTRA-LIGAND FREE ENERGY PREDICTED BY IDOCK:   -2.94 KCAL/MOL
REMARK 927      BINDING AFFINITY PREDICTED BY RF-SCORE:    0.00 PKD
ROOT
HETATM    1  C   UNL     1      -9.925  10.759  64.129  1.00  0.00    -0.405 C  
HETATM    2  C   UNL     1     -10.511  12.105  63.743  1.00  0.00    -0.437 C  
ENDROOT
BRANCH   2   3
HETATM    3  O   UNL     1     -11.704  12.293  64.512  1.00  0.00    -0.334 OA 
BRANCH   3   4
HETATM    4  C   UNL     1     -12.209  13.558  64.462  1.00  0.00    -0.398 C  
HETATM    5  O   UNL     1     -12.541  14.149  63.448  1.00  0.00    -0.818 OA 
BRANCH   4   6
HETATM    6  C   UNL     1     -12.387  14.061  65.868  1.00  0.00    -0.515 C  
BRANCH   6   7
HETATM    7  C   UNL     1     -12.151  12.929  66.873  1.00  0.00    -0.313 C  
BRANCH   7   8
HETATM    8  C   UNL     1     -10.925  13.180  67.737  1.00  0.00    -0.272 C  
BRANCH   8   9
HETATM    9  C   UNL     1      -9.727  12.387  67.275  1.00  0.00    -0.201 C  
HETATM   10  C   UNL     1      -8.444  12.742  67.453  1.00  0.00    -0.191 C  
BRANCH  10  11
HETATM   11  C   UNL     1      -8.009  14.063  67.999  1.00  0.00    -0.152 C  
BRANCH  11  12
HETATM   12  C   UNL     1      -7.951  15.177  67.001  1.00  0.00    -0.223 C  
HETATM   13  C   UNL     1      -8.513  16.383  67.201  1.00  0.00    -0.208 C  
BRANCH  13  14
HETATM   14  C   UNL     1      -9.276  16.874  68.411  1.00  0.00    -0.253 C  
BRANCH  14  15
HETATM   15  C   UNL     1     -10.777  16.767  68.314  1.00  0.00    -0.364 C  
HETATM   16  C   UNL     1     -11.594  16.246  69.242  1.00  0.00    -0.196 C  
BRANCH  16  17
HETATM   17  C   UNL     1     -11.139  15.517  70.463  1.00  0.00    -0.369 C  
BRANCH  17  18
HETATM   18  C   UNL     1     -11.801  16.124  71.671  1.00  0.00    -0.557 C  
HETATM   19  C   UNL     1     -12.976  15.721  72.176  1.00  0.00    -0.513 C  
BRANCH  19  20
HETATM   20  C   UNL     1     -13.815  14.631  71.598  1.00  0.00    -0.522 C  
BRANCH  20  21
HETATM   21  C   UNL     1     -13.701  13.354  72.374  1.00  0.00    -0.698 C  
HETATM   22  C   UNL     1     -13.080  12.251  71.927  1.00  0.00    -0.469 C  
BRANCH  22  23
HETATM   23  C   UNL     1     -12.440  12.094  70.581  1.00  0.00    -0.330 C  
HETATM   24  C   UNL     1     -12.305  10.633  70.191  1.00  0.00    -0.370 C  
ENDBRANCH  22  23
ENDBRANCH  20  21
ENDBRANCH  19  20
ENDBRANCH  17  18
ENDBRANCH  16  17
ENDBRANCH  14  15
ENDBRANCH  13  14
ENDBRANCH  11  12
ENDBRANCH  10  11
ENDBRANCH   8   9
ENDBRANCH   7   8
ENDBRANCH   6   7
ENDBRANCH   4   6
ENDBRANCH   3   4
ENDBRANCH   2   3
TORSDOF 15
ENDMDL
MODEL       10
REMARK 921   NORMALIZED FREE ENERGY PREDICTED BY IDOCK:   -5.05 KCAL/MOL
REMARK 922        TOTAL FREE ENERGY PREDICTED BY IDOCK:  -12.04 KCAL/MOL
REMARK 923 INTER-LIGAND FREE ENERGY PREDICTED BY IDOCK:   -9.90 KCAL/MOL
REMARK 924 INTRA-LIGAND FREE ENERGY PREDICTED BY IDOCK:   -2.14 KCAL/MOL
REMARK 927      BINDING AFFINITY PREDICTED BY RF-SCORE:    0.00 PKD
ROOT
HETATM    1  C   UNL     1     -10.480  11.692  63.542  1.00  0.00    -0.498 C  
HETATM    2  C   UNL     1     -11.897  12.168  63.802  1.00  0.00    -0.500 C  
ENDROOT
BRANCH   2   3
HETATM    3  O   UNL     1     -12.037  12.357  65.215  1.00  0.00    -0.429 OA 
BRANCH   3   4
HETATM    4  C   UNL     1     -12.380  13.624  65.579  1.00  0.00    -0.482 C  
HETATM    5  O   UNL     1     -13.472  14.141  65.407  1.00  0.00    -0.648 OA 
BRANCH   4   6
HETATM    6  C   UNL     1     -11.226  14.242  66.321  1.00  0.00    -0.337 C  
BRANCH   6   7
HETATM    7  C   UNL     1     -11.243  13.805  67.789  1.00  0.00    -0.312 C  
BRANCH   7   8
HETATM    8  C   UNL     1     -12.224  14.621  68.616  1.00  0.00    -0.138 C  
BRANCH   8   9
HETATM    9  C   UNL     1     -11.533  15.449  69.671  1.00  0.00    -0.331 C  
HETATM   10  C   UNL     1     -12.034  15.741  70.882  1.00  0.00    -0.453 C  
BRANCH  10  11
HETATM   11  C   UNL     1     -13.428  15.420  71.311  1.00  0.00    -0.598 C  
BRANCH  11  12
HETATM   12  C   UNL     1     -13.537  14.509  72.495  1.00  0.00    -0.586 C  
HETATM   13  C   UNL     1     -13.314  13.184  72.435  1.00  0.00    -0.591 C  
BRANCH  13  14
HETATM   14  C   UNL     1     -12.912  12.352  71.238  1.00  0.00    -0.297 C  
BRANCH  14  15
HETATM   15  C   UNL     1     -12.938  10.860  71.451  1.00  0.00    -0.527 C  
HETATM   16  C   UNL     1     -12.029   9.981  71.002  1.00  0.00    -0.469 C  
BRANCH  16  17
HETATM   17  C   UNL     1     -10.921  10.312  70.057  1.00  0.00    -0.371 C  
BRANCH  17  18
HETATM   18  C   UNL     1     -11.497  10.532  68.683  1.00  0.00    -0.290 C  
HETATM   19  C   UNL     1     -11.112   9.868  67.583  1.00  0.00    -0.170 C  
BRANCH  19  20
HETATM   20  C   UNL     1     -10.037   8.833  67.554  1.00  0.00    -0.281 C  
BRANCH  20  21
HETATM   21  C   UNL     1     -10.529   7.519  67.026  1.00  0.00    -0.409 C  
HETATM   22  C   UNL     1     -11.032   6.537  67.791  1.00  0.00    -0.407 C  
BRANCH  22  23
HETATM   23  C   UNL     1     -11.149   6.569  69.285  1.00  0.00    -0.393 C  
HETATM   24  C   UNL     1     -10.347   5.456  69.934  1.00  0.00    -0.377 C  
ENDBRANCH  22  23
ENDBRANCH  20  21
ENDBRANCH  19  20
ENDBRANCH  17  18
ENDBRANCH  16  17
ENDBRANCH  14  15
ENDBRANCH  13  14
ENDBRANCH  11  12
ENDBRANCH  10  11
ENDBRANCH   8   9
ENDBRANCH   7   8
ENDBRANCH   6   7
ENDBRANCH   4   6
ENDBRANCH   3   4
ENDBRANCH   2   3
TORSDOF 15
ENDMDL
MODEL       11
REMARK 921   NORMALIZED FREE ENERGY PREDICTED BY IDOCK:   -5.05 KCAL/MOL
REMARK 922        TOTAL FREE ENERGY PREDICTED BY IDOCK:  -12.02 KCAL/MOL
REMARK 923 INTER-LIGAND FREE ENERGY PREDICTED BY IDOCK:  -10.17 KCAL/MOL
REMARK 924 INTRA-LIGAND FREE ENERGY PREDICTED BY IDOCK:   -1.85 KCAL/MOL
REMARK 927      BINDING AFFINITY PREDICTED BY RF-SCORE:    0.00 PKD
ROOT
HETATM    1  C   UNL     1     -10.422  19.344  66.064  1.00  0.00    -0.596 C  
HETATM    2  C   UNL     1     -10.470  17.880  66.462  1.00  0.00    -0.313 C  
ENDROOT
BRANCH   2   3
HETATM    3  O   UNL     1     -10.562  17.108  65.259  1.00  0.00    -0.662 OA 
BRANCH   3   4
HETATM    4  C   UNL     1     -10.591  15.761  65.459  1.00  0.00    -0.406 C  
HETATM    5  O   UNL     1      -9.919  15.150  66.275  1.00  0.00    -0.257 OA 
BRANCH   4   6
HETATM    6  C   UNL     1     -11.659  15.166  64.583  1.00  0.00    -0.357 C  
BRANCH   6   7
HETATM    7  C   UNL     1     -12.466  14.123  65.363  1.00  0.00    -0.488 C  
BRANCH   7   8
HETATM    8  C   UNL     1     -12.504  12.781  64.649  1.00  0.00    -0.525 C  
BRANCH   8   9
HETATM    9  C   UNL     1     -11.130  12.313  64.237  1.00  0.00    -0.401 C  
HETATM   10  C   UNL     1     -10.368  11.443  64.920  1.00  0.00    -0.347 C  
BRANCH  10  11
HETATM   11  C   UNL     1     -10.702  10.925  66.280  1.00  0.00    -0.241 C  
BRANCH  11  12
HETATM   12  C   UNL     1     -10.071  11.667  67.417  1.00  0.00    -0.218 C  
HETATM   13  C   UNL     1      -9.765  11.096  68.597  1.00  0.00    -0.202 C  
BRANCH  13  14
HETATM   14  C   UNL     1      -9.959   9.658  69.023  1.00  0.00    -0.189 C  
BRANCH  14  15
HETATM   15  C   UNL     1     -10.111   9.441  70.507  1.00  0.00    -0.335 C  
HETATM   16  C   UNL     1     -11.234   9.613  71.220  1.00  0.00    -0.446 C  
BRANCH  16  17
HETATM   17  C   UNL     1     -12.491  10.225  70.693  1.00  0.00    -0.407 C  
BRANCH  17  18
HETATM   18  C   UNL     1     -13.233  10.877  71.829  1.00  0.00    -0.513 C  
HETATM   19  C   UNL     1     -13.285  12.200  72.042  1.00  0.00    -0.496 C  
BRANCH  19  20
HETATM   20  C   UNL     1     -12.593  13.219  71.201  1.00  0.00    -0.412 C  
BRANCH  20  21
HETATM   21  C   UNL     1     -13.379  14.491  71.087  1.00  0.00    -0.415 C  
HETATM   22  C   UNL     1     -13.098  15.615  71.765  1.00  0.00    -0.546 C  
BRANCH  22  23
HETATM   23  C   UNL     1     -11.995  15.779  72.766  1.00  0.00    -0.598 C  
HETATM   24  C   UNL     1     -12.508  15.664  74.190  1.00  0.00    -0.804 C  
ENDBRANCH  22  23
ENDBRANCH  20  21
ENDBRANCH  19  20
ENDBRANCH  17  18
ENDBRANCH  16  17
ENDBRANCH  14  15
ENDBRANCH  13  14
ENDBRANCH  11  12
ENDBRANCH  10  11
ENDBRANCH   8   9
ENDBRANCH   7   8
ENDBRANCH   6   7
ENDBRANCH   4   6
ENDBRANCH   3   4
ENDBRANCH   2   3
TORSDOF 15
ENDMDL
MODEL       12
REMARK 921   NORMALIZED FREE ENERGY PREDICTED BY IDOCK:   -5.03 KCAL/MOL
REMARK 922        TOTAL FREE ENERGY PREDICTED BY IDOCK:  -11.99 KCAL/MOL
REMARK 923 INTER-LIGAND FREE ENERGY PREDICTED BY IDOCK:   -9.29 KCAL/MOL
REMARK 924 INTRA-LIGAND FREE ENERGY PREDICTED BY IDOCK:   -2.70 KCAL/MOL
REMARK 927      BINDING AFFINITY PREDICTED BY RF-SCORE:    0.00 PKD
ROOT
HETATM    1  C   UNL     1     -10.869  11.510  63.534  1.00  0.00    -0.473 C  
HETATM    2  C   UNL     1     -11.948  12.577  63.495  1.00  0.00    -0.543 C  
ENDROOT
BRANCH   2   3
HETATM    3  O   UNL     1     -11.447  13.722  64.195  1.00  0.00    -0.364 OA 
BRANCH   3   4
HETATM    4  C   UNL     1     -12.196  14.094  65.270  1.00  0.00    -0.434 C  
HETATM    5  O   UNL     1     -13.408  13.986  65.361  1.00  0.00    -0.721 OA 
BRANCH   4   6
HETATM    6  C   UNL     1     -11.274  14.561  66.362  1.00  0.00    -0.341 C  
BRANCH   6   7
HETATM    7  C   UNL     1     -11.867  14.234  67.736  1.00  0.00    -0.414 C  
BRANCH   7   8
HETATM    8  C   UNL     1     -10.789  13.965  68.774  1.00  0.00    -0.282 C  
BRANCH   8   9
HETATM    9  C   UNL     1      -9.483  14.637  68.430  1.00  0.00    -0.209 C  
HETATM   10  C   UNL     1      -8.346  14.004  68.101  1.00  0.00    -0.164 C  
BRANCH  10  11
HETATM   11  C   UNL     1      -8.158  12.524  68.181  1.00  0.00    -0.167 C  
BRANCH  11  12
HETATM   12  C   UNL     1      -8.207  11.804  66.869  1.00  0.00    -0.166 C  
HETATM   13  C   UNL     1      -8.895  10.664  66.674  1.00  0.00    -0.149 C  
BRANCH  13  14
HETATM   14  C   UNL     1      -9.738   9.894  67.665  1.00  0.00    -0.183 C  
BRANCH  14  15
HETATM   15  C   UNL     1     -11.169  10.350  67.785  1.00  0.00    -0.309 C  
HETATM   16  C   UNL     1     -11.785  10.735  68.914  1.00  0.00    -0.338 C  
BRANCH  16  17
HETATM   17  C   UNL     1     -11.205  10.609  70.284  1.00  0.00    -0.365 C  
BRANCH  17  18
HETATM   18  C   UNL     1     -12.318  10.367  71.268  1.00  0.00    -0.507 C  
HETATM   19  C   UNL     1     -13.134  11.321  71.741  1.00  0.00    -0.527 C  
BRANCH  19  20
HETATM   20  C   UNL     1     -13.040  12.767  71.384  1.00  0.00    -0.318 C  
BRANCH  20  21
HETATM   21  C   UNL     1     -13.862  13.631  72.292  1.00  0.00    -0.689 C  
HETATM   22  C   UNL     1     -13.409  14.745  72.889  1.00  0.00    -0.582 C  
BRANCH  22  23
HETATM   23  C   UNL     1     -12.016  15.285  72.786  1.00  0.00    -0.522 C  
HETATM   24  C   UNL     1     -11.849  16.180  71.571  1.00  0.00    -0.528 C  
ENDBRANCH  22  23
ENDBRANCH  20  21
ENDBRANCH  19  20
ENDBRANCH  17  18
ENDBRANCH  16  17
ENDBRANCH  14  15
ENDBRANCH  13  14
ENDBRANCH  11  12
ENDBRANCH  10  11
ENDBRANCH   8   9
ENDBRANCH   7   8
ENDBRANCH   6   7
ENDBRANCH   4   6
ENDBRANCH   3   4
ENDBRANCH   2   3
TORSDOF 15
ENDMDL
MODEL       13
REMARK 921   NORMALIZED FREE ENERGY PREDICTED BY IDOCK:   -5.02 KCAL/MOL
REMARK 922        TOTAL FREE ENERGY PREDICTED BY IDOCK:  -11.98 KCAL/MOL
REMARK 923 INTER-LIGAND FREE ENERGY PREDICTED BY IDOCK:   -9.71 KCAL/MOL
REMARK 924 INTRA-LIGAND FREE ENERGY PREDICTED BY IDOCK:   -2.27 KCAL/MOL
REMARK 927      BINDING AFFINITY PREDICTED BY RF-SCORE:    0.00 PKD
ROOT
HETATM    1  C   UNL     1     -10.826  11.511  63.536  1.00  0.00    -0.473 C  
HETATM    2  C   UNL     1     -12.259  12.001  63.433  1.00  0.00    -0.519 C  
ENDROOT
BRANCH   2   3
HETATM    3  O   UNL     1     -12.223  13.432  63.387  1.00  0.00    -0.661 OA 
BRANCH   3   4
HETATM    4  C   UNL     1     -12.275  14.034  64.608  1.00  0.00    -0.435 C  
HETATM    5  O   UNL     1     -13.253  14.078  65.337  1.00  0.00    -0.761 OA 
BRANCH   4   6
HETATM    6  C   UNL     1     -10.901  14.540  64.954  1.00  0.00    -0.436 C  
BRANCH   6   7
HETATM    7  C   UNL     1     -10.947  16.043  65.247  1.00  0.00    -0.309 C  
BRANCH   7   8
HETATM    8  C   UNL     1      -9.695  16.523  65.964  1.00  0.00    -0.331 C  
BRANCH   8   9
HETATM    9  C   UNL     1      -9.952  17.747  66.809  1.00  0.00    -0.333 C  
HETATM   10  C   UNL     1     -10.145  17.747  68.138  1.00  0.00    -0.362 C  
BRANCH  10  11
HETATM   11  C   UNL     1     -10.291  16.511  68.963  1.00  0.00    -0.296 C  
BRANCH  11  12
HETATM   12  C   UNL     1     -11.680  15.955  69.037  1.00  0.00    -0.377 C  
HETATM   13  C   UNL     1     -11.968  14.653  68.861  1.00  0.00    -0.309 C  
BRANCH  13  14
HETATM   14  C   UNL     1     -11.018  13.511  68.579  1.00  0.00    -0.291 C  
BRANCH  14  15
HETATM   15  C   UNL     1     -11.647  12.285  67.968  1.00  0.00    -0.408 C  
HETATM   16  C   UNL     1     -11.849  11.110  68.584  1.00  0.00    -0.357 C  
BRANCH  16  17
HETATM   17  C   UNL     1     -11.322  10.756  69.936  1.00  0.00    -0.385 C  
BRANCH  17  18
HETATM   18  C   UNL     1     -12.321  11.181  70.979  1.00  0.00    -0.487 C  
HETATM   19  C   UNL     1     -13.048  10.335  71.723  1.00  0.00    -0.570 C  
BRANCH  19  20
HETATM   20  C   UNL     1     -12.994   8.848  71.608  1.00  0.00    -0.404 C  
BRANCH  20  21
HETATM   21  C   UNL     1     -11.955   8.246  72.506  1.00  0.00    -0.420 C  
HETATM   22  C   UNL     1     -11.074   7.311  72.119  1.00  0.00    -0.281 C  
BRANCH  22  23
HETATM   23  C   UNL     1     -11.003   6.687  70.759  1.00  0.00    -0.318 C  
HETATM   24  C   UNL     1      -9.932   7.334  69.900  1.00  0.00    -0.183 C  
ENDBRANCH  22  23
ENDBRANCH  20  21
ENDBRANCH  19  20
ENDBRANCH  17  18
ENDBRANCH  16  17
ENDBRANCH  14  15
ENDBRANCH  13  14
ENDBRANCH  11  12
ENDBRANCH  10  11
ENDBRANCH   8   9
ENDBRANCH   7   8
ENDBRANCH   6   7
ENDBRANCH   4   6
ENDBRANCH   3   4
ENDBRANCH   2   3
TORSDOF 15
ENDMDL
MODEL       14
REMARK 921   NORMALIZED FREE ENERGY PREDICTED BY IDOCK:   -5.01 KCAL/MOL
REMARK 922        TOTAL FREE ENERGY PREDICTED BY IDOCK:  -11.95 KCAL/MOL
REMARK 923 INTER-LIGAND FREE ENERGY PREDICTED BY IDOCK:   -9.52 KCAL/MOL
REMARK 924 INTRA-LIGAND FREE ENERGY PREDICTED BY IDOCK:   -2.43 KCAL/MOL
REMARK 927      BINDING AFFINITY PREDICTED BY RF-SCORE:    0.00 PKD
ROOT
HETATM    1  C   UNL     1     -10.866  16.554  69.632  1.00  0.00    -0.322 C  
HETATM    2  C   UNL     1     -11.656  15.607  70.517  1.00  0.00    -0.360 C  
ENDROOT
BRANCH   2   3
HETATM    3  O   UNL     1     -11.794  16.230  71.800  1.00  0.00    -0.487 OA 
BRANCH   3   4
HETATM    4  C   UNL     1     -12.854  15.781  72.528  1.00  0.00    -0.458 C  
HETATM    5  O   UNL     1     -13.190  16.201  73.624  1.00  0.00    -0.638 OA 
BRANCH   4   6
HETATM    6  C   UNL     1     -13.602  14.761  71.714  1.00  0.00    -0.485 C  
BRANCH   6   7
HETATM    7  C   UNL     1     -13.606  13.408  72.431  1.00  0.00    -0.708 C  
BRANCH   7   8
HETATM    8  C   UNL     1     -12.837  12.349  71.656  1.00  0.00    -0.375 C  
BRANCH   8   9
HETATM    9  C   UNL     1     -13.410  10.967  71.853  1.00  0.00    -0.423 C  
HETATM   10  C   UNL     1     -12.740   9.816  71.684  1.00  0.00    -0.517 C  
BRANCH  10  11
HETATM   11  C   UNL     1     -11.360   9.726  71.119  1.00  0.00    -0.459 C  
BRANCH  11  12
HETATM   12  C   UNL     1     -10.526   8.602  71.652  1.00  0.00    -0.366 C  
HETATM   13  C   UNL     1     -10.617   7.335  71.208  1.00  0.00    -0.236 C  
BRANCH  13  14
HETATM   14  C   UNL     1     -11.516   6.782  70.125  1.00  0.00    -0.404 C  
BRANCH  14  15
HETATM   15  C   UNL     1     -10.821   5.973  69.060  1.00  0.00    -0.412 C  
HETATM   16  C   UNL     1     -10.413   6.424  67.864  1.00  0.00    -0.276 C  
BRANCH  16  17
HETATM   17  C   UNL     1     -10.737   7.772  67.308  1.00  0.00    -0.326 C  
BRANCH  17  18
HETATM   18  C   UNL     1      -9.607   8.716  67.619  1.00  0.00    -0.190 C  
HETATM   19  C   UNL     1      -9.710  10.053  67.608  1.00  0.00    -0.185 C  
BRANCH  19  20
HETATM   20  C   UNL     1     -10.953  10.803  67.261  1.00  0.00    -0.359 C  
BRANCH  20  21
HETATM   21  C   UNL     1     -11.320  11.811  68.307  1.00  0.00    -0.343 C  
HETATM   22  C   UNL     1     -11.806  13.034  68.040  1.00  0.00    -0.391 C  
BRANCH  22  23
HETATM   23  C   UNL     1     -12.023  13.608  66.673  1.00  0.00    -0.458 C  
HETATM   24  C   UNL     1     -11.068  14.752  66.387  1.00  0.00    -0.340 C  
ENDBRANCH  22  23
ENDBRANCH  20  21
ENDBRANCH  19  20
ENDBRANCH  17  18
ENDBRANCH  16  17
ENDBRANCH  14  15
ENDBRANCH  13  14
ENDBRANCH  11  12
ENDBRANCH  10  11
ENDBRANCH   8   9
ENDBRANCH   7   8
ENDBRANCH   6   7
ENDBRANCH   4   6
ENDBRANCH   3   4
ENDBRANCH   2   3
TORSDOF 15
ENDMDL
MODEL       15
REMARK 921   NORMALIZED FREE ENERGY PREDICTED BY IDOCK:   -5.01 KCAL/MOL
REMARK 922        TOTAL FREE ENERGY PREDICTED BY IDOCK:  -11.95 KCAL/MOL
REMARK 923 INTER-LIGAND FREE ENERGY PREDICTED BY IDOCK:   -9.53 KCAL/MOL
REMARK 924 INTRA-LIGAND FREE ENERGY PREDICTED BY IDOCK:   -2.42 KCAL/MOL
REMARK 927      BINDING AFFINITY PREDICTED BY RF-SCORE:    0.00 PKD
ROOT
HETATM    1  C   UNL     1     -10.311  10.827  64.203  1.00  0.00    -0.382 C  
HETATM    2  C   UNL     1     -10.660  12.263  63.857  1.00  0.00    -0.427 C  
ENDROOT
BRANCH   2   3
HETATM    3  O   UNL     1     -10.790  12.984  65.088  1.00  0.00    -0.286 OA 
BRANCH   3   4
HETATM    4  C   UNL     1     -12.035  12.931  65.638  1.00  0.00    -0.440 C  
HETATM    5  O   UNL     1     -13.052  12.581  65.061  1.00  0.00    -0.765 OA 
BRANCH   4   6
HETATM    6  C   UNL     1     -11.931  13.274  67.099  1.00  0.00    -0.400 C  
BRANCH   6   7
HETATM    7  C   UNL     1     -11.680  12.009  67.925  1.00  0.00    -0.393 C  
BRANCH   7   8
HETATM    8  C   UNL     1     -11.513  12.317  69.405  1.00  0.00    -0.341 C  
BRANCH   8   9
HETATM    9  C   UNL     1     -12.300  11.372  70.279  1.00  0.00    -0.379 C  
HETATM   10  C   UNL     1     -12.978  11.717  71.386  1.00  0.00    -0.408 C  
BRANCH  10  11
HETATM   11  C   UNL     1     -12.924  13.073  72.011  1.00  0.00    -0.395 C  
BRANCH  11  12
HETATM   12  C   UNL     1     -13.754  14.120  71.335  1.00  0.00    -0.345 C  
HETATM   13  C   UNL     1     -13.314  15.366  71.081  1.00  0.00    -0.580 C  
BRANCH  13  14
HETATM   14  C   UNL     1     -11.959  15.964  71.385  1.00  0.00    -0.515 C  
BRANCH  14  15
HETATM   15  C   UNL     1     -10.809  15.388  70.598  1.00  0.00    -0.318 C  
HETATM   16  C   UNL     1     -10.280  15.904  69.479  1.00  0.00    -0.279 C  
BRANCH  16  17
HETATM   17  C   UNL     1     -10.856  17.052  68.716  1.00  0.00    -0.258 C  
BRANCH  17  18
HETATM   18  C   UNL     1     -10.569  16.862  67.251  1.00  0.00    -0.270 C  
HETATM   19  C   UNL     1     -10.333  17.860  66.388  1.00  0.00    -0.365 C  
BRANCH  19  20
HETATM   20  C   UNL     1     -10.347  19.309  66.746  1.00  0.00    -0.527 C  
BRANCH  20  21
HETATM   21  C   UNL     1      -9.048  19.986  66.426  1.00  0.00    -0.427 C  
HETATM   22  C   UNL     1      -7.985  20.008  67.245  1.00  0.00    -0.348 C  
BRANCH  22  23
HETATM   23  C   UNL     1      -7.927  19.405  68.615  1.00  0.00    -0.403 C  
HETATM   24  C   UNL     1      -7.172  18.088  68.616  1.00  0.00    -0.276 C  
ENDBRANCH  22  23
ENDBRANCH  20  21
ENDBRANCH  19  20
ENDBRANCH  17  18
ENDBRANCH  16  17
ENDBRANCH  14  15
ENDBRANCH  13  14
ENDBRANCH  11  12
ENDBRANCH  10  11
ENDBRANCH   8   9
ENDBRANCH   7   8
ENDBRANCH   6   7
ENDBRANCH   4   6
ENDBRANCH   3   4
ENDBRANCH   2   3
TORSDOF 15
ENDMDL
MODEL       16
REMARK 921   NORMALIZED FREE ENERGY PREDICTED BY IDOCK:   -5.00 KCAL/MOL
REMARK 922        TOTAL FREE ENERGY PREDICTED BY IDOCK:  -11.94 KCAL/MOL
REMARK 923 INTER-LIGAND FREE ENERGY PREDICTED BY IDOCK:   -8.54 KCAL/MOL
REMARK 924 INTRA-LIGAND FREE ENERGY PREDICTED BY IDOCK:   -3.40 KCAL/MOL
REMARK 927      BINDING AFFINITY PREDICTED BY RF-SCORE:    0.00 PKD
ROOT
HETATM    1  C   UNL     1     -12.353  16.444  73.928  1.00  0.00    -0.584 C  
HETATM    2  C   UNL     1     -12.309  14.939  73.742  1.00  0.00    -0.442 C  
ENDROOT
BRANCH   2   3
HETATM    3  O   UNL     1     -13.546  14.542  73.138  1.00  0.00    -0.591 OA 
BRANCH   3   4
HETATM    4  C   UNL     1     -13.410  13.653  72.115  1.00  0.00    -0.494 C  
HETATM    5  O   UNL     1     -13.477  12.438  72.217  1.00  0.00    -0.541 OA 
BRANCH   4   6
HETATM    6  C   UNL     1     -13.271  14.417  70.827  1.00  0.00    -0.288 C  
BRANCH   6   7
HETATM    7  C   UNL     1     -12.129  13.838  69.986  1.00  0.00    -0.416 C  
BRANCH   7   8
HETATM    8  C   UNL     1     -10.896  14.728  70.009  1.00  0.00    -0.146 C  
BRANCH   8   9
HETATM    9  C   UNL     1     -11.236  16.183  69.796  1.00  0.00    -0.343 C  
HETATM   10  C   UNL     1     -11.152  16.837  68.627  1.00  0.00    -0.247 C  
BRANCH  10  11
HETATM   11  C   UNL     1     -10.555  16.261  67.385  1.00  0.00    -0.307 C  
BRANCH  11  12
HETATM   12  C   UNL     1      -9.065  16.374  67.283  1.00  0.00    -0.211 C  
HETATM   13  C   UNL     1      -8.263  15.343  66.961  1.00  0.00    -0.270 C  
BRANCH  13  14
HETATM   14  C   UNL     1      -8.650  13.919  66.633  1.00  0.00     0.040 C  
BRANCH  14  15
HETATM   15  C   UNL     1      -8.509  12.935  67.766  1.00  0.00    -0.185 C  
HETATM   16  C   UNL     1      -9.260  11.841  67.962  1.00  0.00    -0.181 C  
BRANCH  16  17
HETATM   17  C   UNL     1     -10.488  11.502  67.182  1.00  0.00    -0.259 C  
BRANCH  17  18
HETATM   18  C   UNL     1     -10.221  10.274  66.355  1.00  0.00    -0.290 C  
HETATM   19  C   UNL     1      -9.984  10.284  65.035  1.00  0.00    -0.393 C  
BRANCH  19  20
HETATM   20  C   UNL     1      -9.975  11.511  64.187  1.00  0.00    -0.327 C  
BRANCH  20  21
HETATM   21  C   UNL     1     -11.280  11.723  63.480  1.00  0.00    -0.494 C  
HETATM   22  C   UNL     1     -12.052  12.811  63.630  1.00  0.00    -0.624 C  
BRANCH  22  23
HETATM   23  C   UNL     1     -11.770  13.963  64.545  1.00  0.00    -0.430 C  
HETATM   24  C   UNL     1     -12.774  14.036  65.681  1.00  0.00    -0.515 C  
ENDBRANCH  22  23
ENDBRANCH  20  21
ENDBRANCH  19  20
ENDBRANCH  17  18
ENDBRANCH  16  17
ENDBRANCH  14  15
ENDBRANCH  13  14
ENDBRANCH  11  12
ENDBRANCH  10  11
ENDBRANCH   8   9
ENDBRANCH   7   8
ENDBRANCH   6   7
ENDBRANCH   4   6
ENDBRANCH   3   4
ENDBRANCH   2   3
TORSDOF 15
ENDMDL
MODEL       17
REMARK 921   NORMALIZED FREE ENERGY PREDICTED BY IDOCK:   -5.00 KCAL/MOL
REMARK 922        TOTAL FREE ENERGY PREDICTED BY IDOCK:  -11.94 KCAL/MOL
REMARK 923 INTER-LIGAND FREE ENERGY PREDICTED BY IDOCK:   -9.88 KCAL/MOL
REMARK 924 INTRA-LIGAND FREE ENERGY PREDICTED BY IDOCK:   -2.06 KCAL/MOL
REMARK 927      BINDING AFFINITY PREDICTED BY RF-SCORE:    0.00 PKD
ROOT
HETATM    1  C   UNL     1     -10.524  19.030  65.871  1.00  0.00    -0.468 C  
HETATM    2  C   UNL     1     -10.377  17.535  66.095  1.00  0.00    -0.329 C  
ENDROOT
BRANCH   2   3
HETATM    3  O   UNL     1     -10.904  16.873  64.939  1.00  0.00    -0.715 OA 
BRANCH   3   4
HETATM    4  C   UNL     1     -10.774  15.517  64.964  1.00  0.00    -0.441 C  
HETATM    5  O   UNL     1      -9.827  14.903  65.429  1.00  0.00    -0.342 OA 
BRANCH   4   6
HETATM    6  C   UNL     1     -12.034  14.902  64.419  1.00  0.00    -0.408 C  
BRANCH   6   7
HETATM    7  C   UNL     1     -12.596  13.876  65.409  1.00  0.00    -0.538 C  
BRANCH   7   8
HETATM    8  C   UNL     1     -12.676  12.484  64.803  1.00  0.00    -0.415 C  
BRANCH   8   9
HETATM    9  C   UNL     1     -11.816  12.345  63.570  1.00  0.00    -0.605 C  
HETATM   10  C   UNL     1     -10.574  11.836  63.542  1.00  0.00    -0.499 C  
BRANCH  10  11
HETATM   11  C   UNL     1      -9.790  11.473  64.760  1.00  0.00    -0.286 C  
BRANCH  11  12
HETATM   12  C   UNL     1      -9.819  10.021  65.127  1.00  0.00    -0.388 C  
HETATM   13  C   UNL     1     -10.271   9.563  66.308  1.00  0.00    -0.290 C  
BRANCH  13  14
HETATM   14  C   UNL     1     -10.834  10.353  67.468  1.00  0.00    -0.358 C  
BRANCH  14  15
HETATM   15  C   UNL     1      -9.980  11.502  67.940  1.00  0.00    -0.193 C  
HETATM   16  C   UNL     1     -10.418  12.615  68.548  1.00  0.00    -0.249 C  
BRANCH  16  17
HETATM   17  C   UNL     1     -11.856  12.988  68.706  1.00  0.00    -0.355 C  
BRANCH  17  18
HETATM   18  C   UNL     1     -12.134  13.266  70.159  1.00  0.00    -0.403 C  
HETATM   19  C   UNL     1     -12.460  12.330  71.062  1.00  0.00    -0.361 C  
BRANCH  19  20
HETATM   20  C   UNL     1     -12.622  10.879  70.755  1.00  0.00    -0.470 C  
BRANCH  20  21
HETATM   21  C   UNL     1     -13.337  10.143  71.848  1.00  0.00    -0.505 C  
HETATM   22  C   UNL     1     -12.983   8.928  72.297  1.00  0.00    -0.479 C  
BRANCH  22  23
HETATM   23  C   UNL     1     -11.857   8.095  71.766  1.00  0.00    -0.346 C  
HETATM   24  C   UNL     1     -10.773   7.888  72.808  1.00  0.00    -0.435 C  
ENDBRANCH  22  23
ENDBRANCH  20  21
ENDBRANCH  19  20
ENDBRANCH  17  18
ENDBRANCH  16  17
ENDBRANCH  14  15
ENDBRANCH  13  14
ENDBRANCH  11  12
ENDBRANCH  10  11
ENDBRANCH   8   9
ENDBRANCH   7   8
ENDBRANCH   6   7
ENDBRANCH   4   6
ENDBRANCH   3   4
ENDBRANCH   2   3
TORSDOF 15
ENDMDL
MODEL       18
REMARK 921   NORMALIZED FREE ENERGY PREDICTED BY IDOCK:   -5.00 KCAL/MOL
REMARK 922        TOTAL FREE ENERGY PREDICTED BY IDOCK:  -11.93 KCAL/MOL
REMARK 923 INTER-LIGAND FREE ENERGY PREDICTED BY IDOCK:   -9.00 KCAL/MOL
REMARK 924 INTRA-LIGAND FREE ENERGY PREDICTED BY IDOCK:   -2.93 KCAL/MOL
REMARK 927      BINDING AFFINITY PREDICTED BY RF-SCORE:    0.00 PKD
ROOT
HETATM    1  C   UNL     1      -7.464  19.131  66.018  1.00  0.00    -0.287 C  
HETATM    2  C   UNL     1      -7.974  19.480  67.404  1.00  0.00    -0.270 C  
ENDROOT
BRANCH   2   3
HETATM    3  O   UNL     1      -8.761  18.375  67.865  1.00  0.00    -0.273 OA 
BRANCH   3   4
HETATM    4  C   UNL     1     -10.092  18.485  67.594  1.00  0.00    -0.364 C  
HETATM    5  O   UNL     1     -10.707  19.532  67.470  1.00  0.00    -0.465 OA 
BRANCH   4   6
HETATM    6  C   UNL     1     -10.653  17.108  67.369  1.00  0.00    -0.297 C  
BRANCH   6   7
HETATM    7  C   UNL     1      -9.520  16.103  67.137  1.00  0.00    -0.231 C  
BRANCH   7   8
HETATM    8  C   UNL     1      -9.932  14.988  66.189  1.00  0.00    -0.313 C  
BRANCH   8   9
HETATM    9  C   UNL     1     -10.792  15.489  65.054  1.00  0.00    -0.468 C  
HETATM   10  C   UNL     1     -11.879  14.868  64.570  1.00  0.00    -0.404 C  
BRANCH  10  11
HETATM   11  C   UNL     1     -12.314  13.499  64.979  1.00  0.00    -0.468 C  
BRANCH  11  12
HETATM   12  C   UNL     1     -12.379  12.494  63.871  1.00  0.00    -0.576 C  
HETATM   13  C   UNL     1     -11.394  11.617  63.606  1.00  0.00    -0.485 C  
BRANCH  13  14
HETATM   14  C   UNL     1     -10.076  11.439  64.326  1.00  0.00    -0.347 C  
BRANCH  14  15
HETATM   15  C   UNL     1     -10.021  10.286  65.295  1.00  0.00    -0.387 C  
HETATM   16  C   UNL     1     -10.247  10.353  66.616  1.00  0.00    -0.292 C  
BRANCH  16  17
HETATM   17  C   UNL     1     -10.421  11.620  67.387  1.00  0.00    -0.239 C  
BRANCH  17  18
HETATM   18  C   UNL     1     -11.295  11.352  68.582  1.00  0.00    -0.327 C  
HETATM   19  C   UNL     1     -12.000  12.289  69.233  1.00  0.00    -0.308 C  
BRANCH  19  20
HETATM   20  C   UNL     1     -12.002  13.740  68.885  1.00  0.00    -0.394 C  
BRANCH  20  21
HETATM   21  C   UNL     1     -11.378  14.583  69.956  1.00  0.00    -0.274 C  
HETATM   22  C   UNL     1     -12.043  15.074  71.014  1.00  0.00    -0.381 C  
BRANCH  22  23
HETATM   23  C   UNL     1     -13.507  14.902  71.281  1.00  0.00    -0.500 C  
HETATM   24  C   UNL     1     -13.779  13.692  72.156  1.00  0.00    -0.649 C  
ENDBRANCH  22  23
ENDBRANCH  20  21
ENDBRANCH  19  20
ENDBRANCH  17  18
ENDBRANCH  16  17
ENDBRANCH  14  15
ENDBRANCH  13  14
ENDBRANCH  11  12
ENDBRANCH  10  11
ENDBRANCH   8   9
ENDBRANCH   7   8
ENDBRANCH   6   7
ENDBRANCH   4   6
ENDBRANCH   3   4
ENDBRANCH   2   3
TORSDOF 15
ENDMDL
MODEL       19
REMARK 921   NORMALIZED FREE ENERGY PREDICTED BY IDOCK:   -4.99 KCAL/MOL
REMARK 922        TOTAL FREE ENERGY PREDICTED BY IDOCK:  -11.93 KCAL/MOL
REMARK 923 INTER-LIGAND FREE ENERGY PREDICTED BY IDOCK:  -10.05 KCAL/MOL
REMARK 924 INTRA-LIGAND FREE ENERGY PREDICTED BY IDOCK:   -1.88 KCAL/MOL
REMARK 927      BINDING AFFINITY PREDICTED BY RF-SCORE:    0.00 PKD
ROOT
HETATM    1  C   UNL     1      -8.292  17.792  66.369  1.00  0.00    -0.281 C  
HETATM    2  C   UNL     1      -8.418  16.279  66.346  1.00  0.00    -0.330 C  
ENDROOT
BRANCH   2   3
HETATM    3  O   UNL     1      -9.804  15.965  66.159  1.00  0.00    -0.271 OA 
BRANCH   3   4
HETATM    4  C   UNL     1     -10.161  14.727  66.600  1.00  0.00    -0.269 C  
HETATM    5  O   UNL     1      -9.390  13.819  66.868  1.00  0.00    -0.243 OA 
BRANCH   4   6
HETATM    6  C   UNL     1     -11.651  14.699  66.803  1.00  0.00    -0.370 C  
BRANCH   6   7
HETATM    7  C   UNL     1     -12.296  13.673  65.866  1.00  0.00    -0.516 C  
BRANCH   7   8
HETATM    8  C   UNL     1     -11.937  13.926  64.410  1.00  0.00    -0.480 C  
BRANCH   8   9
HETATM    9  C   UNL     1     -12.153  12.707  63.547  1.00  0.00    -0.648 C  
HETATM   10  C   UNL     1     -11.373  11.614  63.537  1.00  0.00    -0.447 C  
BRANCH  10  11
HETATM   11  C   UNL     1     -10.075  11.505  64.268  1.00  0.00    -0.338 C  
BRANCH  11  12
HETATM   12  C   UNL     1      -9.740  10.135  64.771  1.00  0.00    -0.389 C  
HETATM   13  C   UNL     1     -10.028   9.710  66.015  1.00  0.00    -0.344 C  
BRANCH  13  14
HETATM   14  C   UNL     1     -10.725  10.462  67.126  1.00  0.00    -0.316 C  
BRANCH  14  15
HETATM   15  C   UNL     1     -10.244  10.145  68.519  1.00  0.00    -0.194 C  
HETATM   16  C   UNL     1     -10.915  10.374  69.658  1.00  0.00    -0.325 C  
BRANCH  16  17
HETATM   17  C   UNL     1     -12.188  11.150  69.754  1.00  0.00    -0.369 C  
BRANCH  17  18
HETATM   18  C   UNL     1     -11.873  12.620  69.689  1.00  0.00    -0.379 C  
HETATM   19  C   UNL     1     -12.274  13.524  70.595  1.00  0.00    -0.434 C  
BRANCH  19  20
HETATM   20  C   UNL     1     -13.114  13.209  71.788  1.00  0.00    -0.478 C  
BRANCH  20  21
HETATM   21  C   UNL     1     -14.179  14.239  72.021  1.00  0.00    -0.631 C  
HETATM   22  C   UNL     1     -13.955  15.449  72.557  1.00  0.00    -0.640 C  
BRANCH  22  23
HETATM   23  C   UNL     1     -12.633  15.956  73.045  1.00  0.00    -0.606 C  
HETATM   24  C   UNL     1     -12.430  15.664  74.521  1.00  0.00    -0.749 C  
ENDBRANCH  22  23
ENDBRANCH  20  21
ENDBRANCH  19  20
ENDBRANCH  17  18
ENDBRANCH  16  17
ENDBRANCH  14  15
ENDBRANCH  13  14
ENDBRANCH  11  12
ENDBRANCH  10  11
ENDBRANCH   8   9
ENDBRANCH   7   8
ENDBRANCH   6   7
ENDBRANCH   4   6
ENDBRANCH   3   4
ENDBRANCH   2   3
TORSDOF 15
ENDMDL
MODEL       20
REMARK 921   NORMALIZED FREE ENERGY PREDICTED BY IDOCK:   -4.99 KCAL/MOL
REMARK 922        TOTAL FREE ENERGY PREDICTED BY IDOCK:  -11.92 KCAL/MOL
REMARK 923 INTER-LIGAND FREE ENERGY PREDICTED BY IDOCK:   -8.81 KCAL/MOL
REMARK 924 INTRA-LIGAND FREE ENERGY PREDICTED BY IDOCK:   -3.11 KCAL/MOL
REMARK 927      BINDING AFFINITY PREDICTED BY RF-SCORE:    0.00 PKD
ROOT
HETATM    1  C   UNL     1     -12.429  16.097  74.161  1.00  0.00    -0.711 C  
HETATM    2  C   UNL     1     -13.513  15.914  73.115  1.00  0.00    -0.563 C  
ENDROOT
BRANCH   2   3
HETATM    3  O   UNL     1     -13.882  14.530  73.113  1.00  0.00    -0.470 OA 
BRANCH   3   4
HETATM    4  C   UNL     1     -13.436  13.833  72.031  1.00  0.00    -0.470 C  
HETATM    5  O   UNL     1     -13.302  12.621  71.973  1.00  0.00    -0.502 OA 
BRANCH   4   6
HETATM    6  C   UNL     1     -13.239  14.791  70.888  1.00  0.00    -0.408 C  
BRANCH   6   7
HETATM    7  C   UNL     1     -12.222  14.227  69.891  1.00  0.00    -0.407 C  
BRANCH   7   8
HETATM    8  C   UNL     1     -11.731  15.287  68.917  1.00  0.00    -0.362 C  
BRANCH   8   9
HETATM    9  C   UNL     1     -10.641  16.147  69.508  1.00  0.00    -0.306 C  
HETATM   10  C   UNL     1     -10.088  17.217  68.916  1.00  0.00    -0.322 C  
BRANCH  10  11
HETATM   11  C   UNL     1     -10.358  17.625  67.505  1.00  0.00    -0.365 C  
BRANCH  11  12
HETATM   12  C   UNL     1     -10.835  19.034  67.330  1.00  0.00    -0.494 C  
HETATM   13  C   UNL     1     -10.025  20.056  66.995  1.00  0.00    -0.582 C  
BRANCH  13  14
HETATM   14  C   UNL     1      -8.539  20.024  66.719  1.00  0.00    -0.396 C  
BRANCH  14  15
HETATM   15  C   UNL     1      -7.658  19.957  67.941  1.00  0.00    -0.336 C  
HETATM   16  C   UNL     1      -6.760  18.999  68.216  1.00  0.00    -0.263 C  
BRANCH  16  17
HETATM   17  C   UNL     1      -6.602  17.733  67.440  1.00  0.00    -0.181 C  
BRANCH  17  18
HETATM   18  C   UNL     1      -6.439  16.586  68.400  1.00  0.00    -0.133 C  
HETATM   19  C   UNL     1      -6.996  15.376  68.241  1.00  0.00    -0.119 C  
BRANCH  19  20
HETATM   20  C   UNL     1      -7.881  14.997  67.101  1.00  0.00    -0.224 C  
BRANCH  20  21
HETATM   21  C   UNL     1      -8.680  13.762  67.388  1.00  0.00    -0.210 C  
HETATM   22  C   UNL     1      -9.689  13.319  66.621  1.00  0.00    -0.270 C  
BRANCH  22  23
HETATM   23  C   UNL     1     -10.208  13.993  65.388  1.00  0.00    -0.368 C  
HETATM   24  C   UNL     1     -11.696  14.275  65.488  1.00  0.00    -0.353 C  
ENDBRANCH  22  23
ENDBRANCH  20  21
ENDBRANCH  19  20
ENDBRANCH  17  18
ENDBRANCH  16  17
ENDBRANCH  14  15
ENDBRANCH  13  14
ENDBRANCH  11  12
ENDBRANCH  10  11
ENDBRANCH   8   9
ENDBRANCH   7   8
ENDBRANCH   6   7
ENDBRANCH   4   6
ENDBRANCH   3   4
ENDBRANCH   2   3
TORSDOF 15
ENDMDL
MODEL       21
REMARK 921   NORMALIZED FREE ENERGY PREDICTED BY IDOCK:   -4.99 KCAL/MOL
REMARK 922        TOTAL FREE ENERGY PREDICTED BY IDOCK:  -11.92 KCAL/MOL
REMARK 923 INTER-LIGAND FREE ENERGY PREDICTED BY IDOCK:   -8.78 KCAL/MOL
REMARK 924 INTRA-LIGAND FREE ENERGY PREDICTED BY IDOCK:   -3.14 KCAL/MOL
REMARK 927      BINDING AFFINITY PREDICTED BY RF-SCORE:    0.00 PKD
ROOT
HETATM    1  C   UNL     1     -12.685  10.575  71.122  1.00  0.00    -0.518 C  
HETATM    2  C   UNL     1     -11.778   9.461  71.613  1.00  0.00    -0.398 C  
ENDROOT
BRANCH   2   3
HETATM    3  O   UNL     1     -11.029   8.987  70.488  1.00  0.00    -0.234 OA 
BRANCH   3   4
HETATM    4  C   UNL     1      -9.714   9.344  70.502  1.00  0.00    -0.271 C  
HETATM    5  O   UNL     1      -8.964   9.256  71.461  1.00  0.00    -0.316 OA 
BRANCH   4   6
HETATM    6  C   UNL     1      -9.315   9.764  69.114  1.00  0.00    -0.185 C  
BRANCH   6   7
HETATM    7  C   UNL     1      -9.894  11.144  68.789  1.00  0.00    -0.201 C  
BRANCH   7   8
HETATM    8  C   UNL     1     -10.754  11.121  67.535  1.00  0.00    -0.280 C  
BRANCH   8   9
HETATM    9  C   UNL     1     -10.340  10.031  66.576  1.00  0.00    -0.268 C  
HETATM   10  C   UNL     1     -10.032  10.211  65.282  1.00  0.00    -0.381 C  
BRANCH  10  11
HETATM   11  C   UNL     1     -10.208  11.501  64.550  1.00  0.00    -0.338 C  
BRANCH  11  12
HETATM   12  C   UNL     1     -11.478  11.619  63.763  1.00  0.00    -0.457 C  
HETATM   13  C   UNL     1     -12.410  12.560  63.996  1.00  0.00    -0.557 C  
BRANCH  13  14
HETATM   14  C   UNL     1     -12.394  13.662  65.033  1.00  0.00    -0.462 C  
BRANCH  14  15
HETATM   15  C   UNL     1     -11.575  14.874  64.671  1.00  0.00    -0.395 C  
HETATM   16  C   UNL     1     -10.416  15.243  65.238  1.00  0.00    -0.436 C  
BRANCH  16  17
HETATM   17  C   UNL     1      -9.823  14.607  66.453  1.00  0.00    -0.302 C  
BRANCH  17  18
HETATM   18  C   UNL     1      -9.593  15.665  67.497  1.00  0.00    -0.224 C  
HETATM   19  C   UNL     1     -10.471  15.989  68.458  1.00  0.00    -0.258 C  
BRANCH  19  20
HETATM   20  C   UNL     1     -11.817  15.365  68.617  1.00  0.00    -0.317 C  
BRANCH  20  21
HETATM   21  C   UNL     1     -11.799  14.209  69.570  1.00  0.00    -0.373 C  
HETATM   22  C   UNL     1     -12.321  14.240  70.806  1.00  0.00    -0.427 C  
BRANCH  22  23
HETATM   23  C   UNL     1     -12.965  15.429  71.452  1.00  0.00    -0.532 C  
HETATM   24  C   UNL     1     -12.014  16.137  72.399  1.00  0.00    -0.649 C  
ENDBRANCH  22  23
ENDBRANCH  20  21
ENDBRANCH  19  20
ENDBRANCH  17  18
ENDBRANCH  16  17
ENDBRANCH  14  15
ENDBRANCH  13  14
ENDBRANCH  11  12
ENDBRANCH  10  11
ENDBRANCH   8   9
ENDBRANCH   7   8
ENDBRANCH   6   7
ENDBRANCH   4   6
ENDBRANCH   3   4
ENDBRANCH   2   3
TORSDOF 15
ENDMDL
MODEL       22
REMARK 921   NORMALIZED FREE ENERGY PREDICTED BY IDOCK:   -4.97 KCAL/MOL
REMARK 922        TOTAL FREE ENERGY PREDICTED BY IDOCK:  -11.88 KCAL/MOL
REMARK 923 INTER-LIGAND FREE ENERGY PREDICTED BY IDOCK:   -9.80 KCAL/MOL
REMARK 924 INTRA-LIGAND FREE ENERGY PREDICTED BY IDOCK:   -2.08 KCAL/MOL
REMARK 927      BINDING AFFINITY PREDICTED BY RF-SCORE:    0.00 PKD
ROOT
HETATM    1  C   UNL     1      -9.240  10.376  62.751  1.00  0.00    -0.323 C  
HETATM    2  C   UNL     1      -9.945  11.633  63.226  1.00  0.00    -0.419 C  
ENDROOT
BRANCH   2   3
HETATM    3  O   UNL     1     -11.195  11.236  63.802  1.00  0.00    -0.359 OA 
BRANCH   3   4
HETATM    4  C   UNL     1     -12.026  12.272  64.105  1.00  0.00    -0.432 C  
HETATM    5  O   UNL     1     -13.006  12.609  63.459  1.00  0.00    -0.683 OA 
BRANCH   4   6
HETATM    6  C   UNL     1     -11.599  12.864  65.420  1.00  0.00    -0.386 C  
BRANCH   6   7
HETATM    7  C   UNL     1     -11.228  11.753  66.407  1.00  0.00    -0.382 C  
BRANCH   7   8
HETATM    8  C   UNL     1     -11.337  12.213  67.852  1.00  0.00    -0.361 C  
BRANCH   8   9
HETATM    9  C   UNL     1     -11.377  11.056  68.821  1.00  0.00    -0.349 C  
HETATM   10  C   UNL     1     -11.852  11.110  70.075  1.00  0.00    -0.441 C  
BRANCH  10  11
HETATM   11  C   UNL     1     -12.268  12.370  70.761  1.00  0.00    -0.336 C  
BRANCH  11  12
HETATM   12  C   UNL     1     -13.147  12.183  71.959  1.00  0.00    -0.462 C  
HETATM   13  C   UNL     1     -13.971  13.136  72.431  1.00  0.00    -0.497 C  
BRANCH  13  14
HETATM   14  C   UNL     1     -14.203  14.529  71.890  1.00  0.00    -0.622 C  
BRANCH  14  15
HETATM   15  C   UNL     1     -13.560  15.641  72.679  1.00  0.00    -0.667 C  
HETATM   16  C   UNL     1     -12.341  16.160  72.464  1.00  0.00    -0.564 C  
BRANCH  16  17
HETATM   17  C   UNL     1     -11.335  15.602  71.512  1.00  0.00    -0.454 C  
BRANCH  17  18
HETATM   18  C   UNL     1     -11.705  16.010  70.111  1.00  0.00    -0.290 C  
HETATM   19  C   UNL     1     -10.833  16.138  69.101  1.00  0.00    -0.298 C  
BRANCH  19  20
HETATM   20  C   UNL     1      -9.362  15.920  69.223  1.00  0.00    -0.259 C  
BRANCH  20  21
HETATM   21  C   UNL     1      -8.890  14.752  68.410  1.00  0.00    -0.181 C  
HETATM   22  C   UNL     1      -8.644  14.800  67.091  1.00  0.00    -0.248 C  
BRANCH  22  23
HETATM   23  C   UNL     1      -8.834  15.998  66.211  1.00  0.00    -0.379 C  
HETATM   24  C   UNL     1     -10.221  16.028  65.595  1.00  0.00    -0.412 C  
ENDBRANCH  22  23
ENDBRANCH  20  21
ENDBRANCH  19  20
ENDBRANCH  17  18
ENDBRANCH  16  17
ENDBRANCH  14  15
ENDBRANCH  13  14
ENDBRANCH  11  12
ENDBRANCH  10  11
ENDBRANCH   8   9
ENDBRANCH   7   8
ENDBRANCH   6   7
ENDBRANCH   4   6
ENDBRANCH   3   4
ENDBRANCH   2   3
TORSDOF 15
ENDMDL
MODEL       23
REMARK 921   NORMALIZED FREE ENERGY PREDICTED BY IDOCK:   -4.97 KCAL/MOL
REMARK 922        TOTAL FREE ENERGY PREDICTED BY IDOCK:  -11.88 KCAL/MOL
REMARK 923 INTER-LIGAND FREE ENERGY PREDICTED BY IDOCK:   -9.03 KCAL/MOL
REMARK 924 INTRA-LIGAND FREE ENERGY PREDICTED BY IDOCK:   -2.85 KCAL/MOL
REMARK 927      BINDING AFFINITY PREDICTED BY RF-SCORE:    0.00 PKD
ROOT
HETATM    1  C   UNL     1     -11.154  15.862  64.753  1.00  0.00    -0.397 C  
HETATM    2  C   UNL     1     -12.082  14.694  64.474  1.00  0.00    -0.475 C  
ENDROOT
BRANCH   2   3
HETATM    3  O   UNL     1     -11.266  13.564  64.144  1.00  0.00    -0.379 OA 
BRANCH   3   4
HETATM    4  C   UNL     1     -11.949  12.389  64.048  1.00  0.00    -0.460 C  
HETATM    5  O   UNL     1     -13.099  12.267  63.656  1.00  0.00    -0.780 OA 
BRANCH   4   6
HETATM    6  C   UNL     1     -11.020  11.261  64.402  1.00  0.00    -0.331 C  
BRANCH   6   7
HETATM    7  C   UNL     1     -10.302  11.558  65.722  1.00  0.00    -0.295 C  
BRANCH   7   8
HETATM    8  C   UNL     1     -11.236  11.444  66.918  1.00  0.00    -0.331 C  
BRANCH   8   9
HETATM    9  C   UNL     1     -10.729  10.465  67.948  1.00  0.00    -0.307 C  
HETATM   10  C   UNL     1     -11.034  10.486  69.256  1.00  0.00    -0.291 C  
BRANCH  10  11
HETATM   11  C   UNL     1     -11.799  11.583  69.920  1.00  0.00    -0.430 C  
BRANCH  11  12
HETATM   12  C   UNL     1     -12.861  11.132  70.875  1.00  0.00    -0.374 C  
HETATM   13  C   UNL     1     -13.276  11.866  71.924  1.00  0.00    -0.467 C  
BRANCH  13  14
HETATM   14  C   UNL     1     -12.810  13.239  72.352  1.00  0.00    -0.210 C  
BRANCH  14  15
HETATM   15  C   UNL     1     -13.721  14.377  71.970  1.00  0.00    -0.533 C  
HETATM   16  C   UNL     1     -13.445  15.347  71.084  1.00  0.00    -0.565 C  
BRANCH  16  17
HETATM   17  C   UNL     1     -12.111  15.566  70.451  1.00  0.00    -0.426 C  
BRANCH  17  18
HETATM   18  C   UNL     1     -12.123  14.982  69.064  1.00  0.00    -0.243 C  
HETATM   19  C   UNL     1     -11.028  14.761  68.322  1.00  0.00    -0.264 C  
BRANCH  19  20
HETATM   20  C   UNL     1      -9.637  15.086  68.752  1.00  0.00    -0.220 C  
BRANCH  20  21
HETATM   21  C   UNL     1      -8.855  15.775  67.675  1.00  0.00    -0.180 C  
HETATM   22  C   UNL     1      -8.910  17.093  67.426  1.00  0.00    -0.218 C  
BRANCH  22  23
HETATM   23  C   UNL     1      -9.779  18.081  68.142  1.00  0.00    -0.323 C  
HETATM   24  C   UNL     1     -10.659  18.856  67.179  1.00  0.00    -0.531 C  
ENDBRANCH  22  23
ENDBRANCH  20  21
ENDBRANCH  19  20
ENDBRANCH  17  18
ENDBRANCH  16  17
ENDBRANCH  14  15
ENDBRANCH  13  14
ENDBRANCH  11  12
ENDBRANCH  10  11
ENDBRANCH   8   9
ENDBRANCH   7   8
ENDBRANCH   6   7
ENDBRANCH   4   6
ENDBRANCH   3   4
ENDBRANCH   2   3
TORSDOF 15
ENDMDL
MODEL       24
REMARK 921   NORMALIZED FREE ENERGY PREDICTED BY IDOCK:   -4.94 KCAL/MOL
REMARK 922        TOTAL FREE ENERGY PREDICTED BY IDOCK:  -11.83 KCAL/MOL
REMARK 923 INTER-LIGAND FREE ENERGY PREDICTED BY IDOCK:   -8.27 KCAL/MOL
REMARK 924 INTRA-LIGAND FREE ENERGY PREDICTED BY IDOCK:   -3.56 KCAL/MOL
REMARK 927      BINDING AFFINITY PREDICTED BY RF-SCORE:    0.00 PKD
ROOT
HETATM    1  C   UNL     1     -12.550  15.859  73.892  1.00  0.00    -0.746 C  
HETATM    2  C   UNL     1     -13.434  15.715  72.667  1.00  0.00    -0.566 C  
ENDROOT
BRANCH   2   3
HETATM    3  O   UNL     1     -12.576  15.572  71.529  1.00  0.00    -0.354 OA 
BRANCH   3   4
HETATM    4  C   UNL     1     -12.531  14.311  71.017  1.00  0.00    -0.362 C  
HETATM    5  O   UNL     1     -13.081  13.331  71.493  1.00  0.00    -0.363 OA 
BRANCH   4   6
HETATM    6  C   UNL     1     -11.782  14.347  69.713  1.00  0.00    -0.361 C  
BRANCH   6   7
HETATM    7  C   UNL     1     -11.656  12.935  69.133  1.00  0.00    -0.375 C  
BRANCH   7   8
HETATM    8  C   UNL     1     -11.807  12.924  67.620  1.00  0.00    -0.400 C  
BRANCH   8   9
HETATM    9  C   UNL     1     -12.003  14.310  67.054  1.00  0.00    -0.463 C  
HETATM   10  C   UNL     1     -11.635  14.707  65.826  1.00  0.00    -0.328 C  
BRANCH  10  11
HETATM   11  C   UNL     1     -10.827  13.876  64.884  1.00  0.00    -0.413 C  
BRANCH  11  12
HETATM   12  C   UNL     1     -11.611  12.896  64.066  1.00  0.00    -0.486 C  
HETATM   13  C   UNL     1     -11.190  11.647  63.799  1.00  0.00    -0.498 C  
BRANCH  13  14
HETATM   14  C   UNL     1      -9.912  10.971  64.244  1.00  0.00    -0.373 C  
BRANCH  14  15
HETATM   15  C   UNL     1      -9.953  10.358  65.620  1.00  0.00    -0.337 C  
HETATM   16  C   UNL     1      -9.268  10.780  66.695  1.00  0.00    -0.184 C  
BRANCH  16  17
HETATM   17  C   UNL     1      -8.206  11.830  66.668  1.00  0.00    -0.117 C  
BRANCH  17  18
HETATM   18  C   UNL     1      -8.161  12.517  68.006  1.00  0.00    -0.166 C  
HETATM   19  C   UNL     1      -8.107  13.846  68.177  1.00  0.00    -0.150 C  
BRANCH  19  20
HETATM   20  C   UNL     1      -8.058  14.839  67.065  1.00  0.00    -0.177 C  
BRANCH  20  21
HETATM   21  C   UNL     1      -7.452  16.142  67.492  1.00  0.00    -0.179 C  
HETATM   22  C   UNL     1      -8.079  17.326  67.422  1.00  0.00    -0.205 C  
BRANCH  22  23
HETATM   23  C   UNL     1      -9.455  17.554  66.875  1.00  0.00    -0.278 C  
HETATM   24  C   UNL     1     -10.500  17.574  67.976  1.00  0.00    -0.387 C  
ENDBRANCH  22  23
ENDBRANCH  20  21
ENDBRANCH  19  20
ENDBRANCH  17  18
ENDBRANCH  16  17
ENDBRANCH  14  15
ENDBRANCH  13  14
ENDBRANCH  11  12
ENDBRANCH  10  11
ENDBRANCH   8   9
ENDBRANCH   7   8
ENDBRANCH   6   7
ENDBRANCH   4   6
ENDBRANCH   3   4
ENDBRANCH   2   3
TORSDOF 15
ENDMDL
MODEL       25
REMARK 921   NORMALIZED FREE ENERGY PREDICTED BY IDOCK:   -4.94 KCAL/MOL
REMARK 922        TOTAL FREE ENERGY PREDICTED BY IDOCK:  -11.83 KCAL/MOL
REMARK 923 INTER-LIGAND FREE ENERGY PREDICTED BY IDOCK:   -8.69 KCAL/MOL
REMARK 924 INTRA-LIGAND FREE ENERGY PREDICTED BY IDOCK:   -3.14 KCAL/MOL
REMARK 927      BINDING AFFINITY PREDICTED BY RF-SCORE:    0.00 PKD
ROOT
HETATM    1  C   UNL     1     -13.090  15.246  73.296  1.00  0.00    -0.630 C  
HETATM    2  C   UNL     1     -13.922  14.858  72.088  1.00  0.00    -0.496 C  
ENDROOT
BRANCH   2   3
HETATM    3  O   UNL     1     -13.518  15.696  70.999  1.00  0.00    -0.575 OA 
BRANCH   3   4
HETATM    4  C   UNL     1     -12.336  15.336  70.424  1.00  0.00    -0.380 C  
HETATM    5  O   UNL     1     -11.364  16.061  70.288  1.00  0.00    -0.339 OA 
BRANCH   4   6
HETATM    6  C   UNL     1     -12.392  13.872  70.083  1.00  0.00    -0.400 C  
BRANCH   6   7
HETATM    7  C   UNL     1     -11.811  13.630  68.686  1.00  0.00    -0.409 C  
BRANCH   7   8
HETATM    8  C   UNL     1     -11.901  12.168  68.277  1.00  0.00    -0.361 C  
BRANCH   8   9
HETATM    9  C   UNL     1     -12.029  11.248  69.467  1.00  0.00    -0.421 C  
HETATM   10  C   UNL     1     -11.201  10.231  69.756  1.00  0.00    -0.339 C  
BRANCH  10  11
HETATM   11  C   UNL     1     -10.112   9.755  68.852  1.00  0.00    -0.194 C  
BRANCH  11  12
HETATM   12  C   UNL     1      -8.733  10.208  69.223  1.00  0.00    -0.186 C  
HETATM   13  C   UNL     1      -8.017  11.080  68.490  1.00  0.00    -0.137 C  
BRANCH  13  14
HETATM   14  C   UNL     1      -8.412  11.776  67.207  1.00  0.00    -0.160 C  
BRANCH  14  15
HETATM   15  C   UNL     1      -8.045  11.048  65.939  1.00  0.00    -0.075 C  
HETATM   16  C   UNL     1      -8.889  10.695  64.958  1.00  0.00    -0.212 C  
BRANCH  16  17
HETATM   17  C   UNL     1     -10.376  10.808  65.033  1.00  0.00    -0.357 C  
BRANCH  17  18
HETATM   18  C   UNL     1     -10.897  11.321  63.718  1.00  0.00    -0.424 C  
HETATM   19  C   UNL     1     -11.720  12.371  63.584  1.00  0.00    -0.596 C  
BRANCH  19  20
HETATM   20  C   UNL     1     -12.262  13.170  64.721  1.00  0.00    -0.477 C  
BRANCH  20  21
HETATM   21  C   UNL     1     -12.025  14.640  64.547  1.00  0.00    -0.473 C  
HETATM   22  C   UNL     1     -10.948  15.292  65.013  1.00  0.00    -0.450 C  
BRANCH  22  23
HETATM   23  C   UNL     1      -9.835  14.681  65.810  1.00  0.00    -0.359 C  
HETATM   24  C   UNL     1      -9.459  15.544  67.000  1.00  0.00    -0.238 C  
ENDBRANCH  22  23
ENDBRANCH  20  21
ENDBRANCH  19  20
ENDBRANCH  17  18
ENDBRANCH  16  17
ENDBRANCH  14  15
ENDBRANCH  13  14
ENDBRANCH  11  12
ENDBRANCH  10  11
ENDBRANCH   8   9
ENDBRANCH   7   8
ENDBRANCH   6   7
ENDBRANCH   4   6
ENDBRANCH   3   4
ENDBRANCH   2   3
TORSDOF 15
ENDMDL
MODEL       26
REMARK 921   NORMALIZED FREE ENERGY PREDICTED BY IDOCK:   -4.94 KCAL/MOL
REMARK 922        TOTAL FREE ENERGY PREDICTED BY IDOCK:  -11.82 KCAL/MOL
REMARK 923 INTER-LIGAND FREE ENERGY PREDICTED BY IDOCK:   -9.19 KCAL/MOL
REMARK 924 INTRA-LIGAND FREE ENERGY PREDICTED BY IDOCK:   -2.63 KCAL/MOL
REMARK 927      BINDING AFFINITY PREDICTED BY RF-SCORE:    0.00 PKD
ROOT
HETATM    1  C   UNL     1     -12.190  12.713  63.563  1.00  0.00    -0.638 C  
HETATM    2  C   UNL     1     -10.743  12.256  63.603  1.00  0.00    -0.467 C  
ENDROOT
BRANCH   2   3
HETATM    3  O   UNL     1     -10.744  10.827  63.712  1.00  0.00    -0.231 OA 
BRANCH   3   4
HETATM    4  C   UNL     1      -9.509  10.277  63.874  1.00  0.00    -0.302 C  
HETATM    5  O   UNL     1      -8.873   9.695  63.010  1.00  0.00    -0.219 OA 
BRANCH   4   6
HETATM    6  C   UNL     1      -9.016  10.596  65.259  1.00  0.00    -0.209 C  
BRANCH   6   7
HETATM    7  C   UNL     1      -9.863   9.867  66.306  1.00  0.00    -0.308 C  
BRANCH   7   8
HETATM    8  C   UNL     1     -10.571  10.834  67.242  1.00  0.00    -0.304 C  
BRANCH   8   9
HETATM    9  C   UNL     1      -9.965  10.840  68.624  1.00  0.00    -0.189 C  
HETATM   10  C   UNL     1     -10.621  10.560  69.761  1.00  0.00    -0.274 C  
BRANCH  10  11
HETATM   11  C   UNL     1     -12.098  10.353  69.847  1.00  0.00    -0.252 C  
BRANCH  11  12
HETATM   12  C   UNL     1     -12.647  10.249  71.237  1.00  0.00    -0.522 C  
HETATM   13  C   UNL     1     -13.132  11.299  71.923  1.00  0.00    -0.510 C  
BRANCH  13  14
HETATM   14  C   UNL     1     -13.245  12.740  71.479  1.00  0.00    -0.330 C  
BRANCH  14  15
HETATM   15  C   UNL     1     -13.671  13.713  72.549  1.00  0.00    -0.663 C  
HETATM   16  C   UNL     1     -13.025  14.836  72.900  1.00  0.00    -0.583 C  
BRANCH  16  17
HETATM   17  C   UNL     1     -11.670  15.226  72.407  1.00  0.00    -0.538 C  
BRANCH  17  18
HETATM   18  C   UNL     1     -11.823  16.198  71.268  1.00  0.00    -0.458 C  
HETATM   19  C   UNL     1     -11.602  15.898  69.979  1.00  0.00    -0.346 C  
BRANCH  19  20
HETATM   20  C   UNL     1     -11.146  14.565  69.488  1.00  0.00    -0.285 C  
BRANCH  20  21
HETATM   21  C   UNL     1     -11.976  14.067  68.343  1.00  0.00    -0.378 C  
HETATM   22  C   UNL     1     -11.719  14.331  67.053  1.00  0.00    -0.427 C  
BRANCH  22  23
HETATM   23  C   UNL     1     -10.602  15.189  66.543  1.00  0.00    -0.304 C  
HETATM   24  C   UNL     1     -10.856  15.655  65.121  1.00  0.00    -0.448 C  
ENDBRANCH  22  23
ENDBRANCH  20  21
ENDBRANCH  19  20
ENDBRANCH  17  18
ENDBRANCH  16  17
ENDBRANCH  14  15
ENDBRANCH  13  14
ENDBRANCH  11  12
ENDBRANCH  10  11
ENDBRANCH   8   9
ENDBRANCH   7   8
ENDBRANCH   6   7
ENDBRANCH   4   6
ENDBRANCH   3   4
ENDBRANCH   2   3
TORSDOF 15
ENDMDL
MODEL       27
REMARK 921   NORMALIZED FREE ENERGY PREDICTED BY IDOCK:   -4.93 KCAL/MOL
REMARK 922        TOTAL FREE ENERGY PREDICTED BY IDOCK:  -11.81 KCAL/MOL
REMARK 923 INTER-LIGAND FREE ENERGY PREDICTED BY IDOCK:   -9.71 KCAL/MOL
REMARK 924 INTRA-LIGAND FREE ENERGY PREDICTED BY IDOCK:   -2.09 KCAL/MOL
REMARK 927      BINDING AFFINITY PREDICTED BY RF-SCORE:    0.00 PKD
ROOT
HETATM    1  C   UNL     1      -7.957  20.314  67.055  1.00  0.00    -0.366 C  
HETATM    2  C   UNL     1      -8.423  18.877  66.908  1.00  0.00    -0.286 C  
ENDROOT
BRANCH   2   3
HETATM    3  O   UNL     1      -9.573  18.882  66.055  1.00  0.00    -0.468 OA 
BRANCH   3   4
HETATM    4  C   UNL     1     -10.303  17.732  66.092  1.00  0.00    -0.340 C  
HETATM    5  O   UNL     1     -10.630  17.067  65.122  1.00  0.00    -0.688 OA 
BRANCH   4   6
HETATM    6  C   UNL     1     -10.546  17.362  67.529  1.00  0.00    -0.330 C  
BRANCH   6   7
HETATM    7  C   UNL     1     -10.606  15.839  67.684  1.00  0.00    -0.301 C  
BRANCH   7   8
HETATM    8  C   UNL     1     -11.654  15.410  68.699  1.00  0.00    -0.373 C  
BRANCH   8   9
HETATM    9  C   UNL     1     -11.348  15.918  70.087  1.00  0.00    -0.369 C  
HETATM   10  C   UNL     1     -12.128  15.748  71.166  1.00  0.00    -0.475 C  
BRANCH  10  11
HETATM   11  C   UNL     1     -13.501  15.162  71.123  1.00  0.00    -0.533 C  
BRANCH  11  12
HETATM   12  C   UNL     1     -13.813  14.189  72.218  1.00  0.00    -0.643 C  
HETATM   13  C   UNL     1     -13.416  12.904  72.204  1.00  0.00    -0.619 C  
BRANCH  13  14
HETATM   14  C   UNL     1     -12.600  12.185  71.153  1.00  0.00    -0.360 C  
BRANCH  14  15
HETATM   15  C   UNL     1     -12.601  10.681  71.254  1.00  0.00    -0.533 C  
HETATM   16  C   UNL     1     -11.663   9.855  70.766  1.00  0.00    -0.424 C  
BRANCH  16  17
HETATM   17  C   UNL     1     -10.537  10.276  69.878  1.00  0.00    -0.324 C  
BRANCH  17  18
HETATM   18  C   UNL     1     -10.603   9.490  68.596  1.00  0.00    -0.239 C  
HETATM   19  C   UNL     1     -10.509  10.026  67.371  1.00  0.00    -0.316 C  
BRANCH  19  20
HETATM   20  C   UNL     1     -10.352  11.484  67.096  1.00  0.00    -0.248 C  
BRANCH  20  21
HETATM   21  C   UNL     1     -11.668  12.203  67.071  1.00  0.00    -0.373 C  
HETATM   22  C   UNL     1     -12.247  12.681  65.959  1.00  0.00    -0.329 C  
BRANCH  22  23
HETATM   23  C   UNL     1     -11.669  12.617  64.578  1.00  0.00    -0.416 C  
HETATM   24  C   UNL     1     -10.587  13.662  64.374  1.00  0.00    -0.360 C  
ENDBRANCH  22  23
ENDBRANCH  20  21
ENDBRANCH  19  20
ENDBRANCH  17  18
ENDBRANCH  16  17
ENDBRANCH  14  15
ENDBRANCH  13  14
ENDBRANCH  11  12
ENDBRANCH  10  11
ENDBRANCH   8   9
ENDBRANCH   7   8
ENDBRANCH   6   7
ENDBRANCH   4   6
ENDBRANCH   3   4
ENDBRANCH   2   3
TORSDOF 15
ENDMDL
MODEL       28
REMARK 921   NORMALIZED FREE ENERGY PREDICTED BY IDOCK:   -4.92 KCAL/MOL
REMARK 922        TOTAL FREE ENERGY PREDICTED BY IDOCK:  -11.78 KCAL/MOL
REMARK 923 INTER-LIGAND FREE ENERGY PREDICTED BY IDOCK:   -9.59 KCAL/MOL
REMARK 924 INTRA-LIGAND FREE ENERGY PREDICTED BY IDOCK:   -2.19 KCAL/MOL
REMARK 927      BINDING AFFINITY PREDICTED BY RF-SCORE:    0.00 PKD
ROOT
HETATM    1  C   UNL     1      -9.302  15.976  65.841  1.00  0.00    -0.335 C  
HETATM    2  C   UNL     1     -10.097  14.777  65.358  1.00  0.00    -0.374 C  
ENDROOT
BRANCH   2   3
HETATM    3  O   UNL     1     -11.483  15.059  65.584  1.00  0.00    -0.331 OA 
BRANCH   3   4
HETATM    4  C   UNL     1     -12.264  13.952  65.726  1.00  0.00    -0.460 C  
HETATM    5  O   UNL     1     -13.218  13.661  65.022  1.00  0.00    -0.729 OA 
BRANCH   4   6
HETATM    6  C   UNL     1     -11.693  13.097  66.824  1.00  0.00    -0.439 C  
BRANCH   6   7
HETATM    7  C   UNL     1     -12.148  13.616  68.192  1.00  0.00    -0.310 C  
BRANCH   7   8
HETATM    8  C   UNL     1     -10.975  14.061  69.051  1.00  0.00    -0.287 C  
BRANCH   8   9
HETATM    9  C   UNL     1     -10.967  15.552  69.281  1.00  0.00    -0.268 C  
HETATM   10  C   UNL     1     -11.337  16.166  70.417  1.00  0.00    -0.377 C  
BRANCH  10  11
HETATM   11  C   UNL     1     -11.966  15.469  71.578  1.00  0.00    -0.463 C  
BRANCH  11  12
HETATM   12  C   UNL     1     -13.460  15.378  71.534  1.00  0.00    -0.601 C  
HETATM   13  C   UNL     1     -14.148  14.278  71.890  1.00  0.00    -0.586 C  
BRANCH  13  14
HETATM   14  C   UNL     1     -13.612  12.959  72.399  1.00  0.00    -0.577 C  
BRANCH  14  15
HETATM   15  C   UNL     1     -12.838  12.146  71.393  1.00  0.00    -0.378 C  
HETATM   16  C   UNL     1     -12.888  10.813  71.247  1.00  0.00    -0.540 C  
BRANCH  16  17
HETATM   17  C   UNL     1     -13.591   9.882  72.179  1.00  0.00    -0.392 C  
BRANCH  17  18
HETATM   18  C   UNL     1     -13.579   8.497  71.590  1.00  0.00    -0.393 C  
HETATM   19  C   UNL     1     -12.624   7.583  71.817  1.00  0.00    -0.363 C  
BRANCH  19  20
HETATM   20  C   UNL     1     -11.418   7.814  72.665  1.00  0.00    -0.430 C  
BRANCH  20  21
HETATM   21  C   UNL     1     -10.258   8.339  71.874  1.00  0.00    -0.314 C  
HETATM   22  C   UNL     1      -9.379   7.564  71.218  1.00  0.00    -0.157 C  
BRANCH  22  23
HETATM   23  C   UNL     1      -9.381   6.066  71.198  1.00  0.00    -0.174 C  
HETATM   24  C   UNL     1     -10.074   5.523  69.962  1.00  0.00    -0.311 C  
ENDBRANCH  22  23
ENDBRANCH  20  21
ENDBRANCH  19  20
ENDBRANCH  17  18
ENDBRANCH  16  17
ENDBRANCH  14  15
ENDBRANCH  13  14
ENDBRANCH  11  12
ENDBRANCH  10  11
ENDBRANCH   8   9
ENDBRANCH   7   8
ENDBRANCH   6   7
ENDBRANCH   4   6
ENDBRANCH   3   4
ENDBRANCH   2   3
TORSDOF 15
ENDMDL
MODEL       29
REMARK 921   NORMALIZED FREE ENERGY PREDICTED BY IDOCK:   -4.92 KCAL/MOL
REMARK 922        TOTAL FREE ENERGY PREDICTED BY IDOCK:  -11.78 KCAL/MOL
REMARK 923 INTER-LIGAND FREE ENERGY PREDICTED BY IDOCK:   -9.24 KCAL/MOL
REMARK 924 INTRA-LIGAND FREE ENERGY PREDICTED BY IDOCK:   -2.54 KCAL/MOL
REMARK 927      BINDING AFFINITY PREDICTED BY RF-SCORE:    0.00 PKD
ROOT
HETATM    1  C   UNL     1     -11.078  16.106  64.773  1.00  0.00    -0.345 C  
HETATM    2  C   UNL     1     -11.782  14.827  65.188  1.00  0.00    -0.337 C  
ENDROOT
BRANCH   2   3
HETATM    3  O   UNL     1     -11.765  13.941  64.062  1.00  0.00    -0.370 OA 
BRANCH   3   4
HETATM    4  C   UNL     1     -12.262  12.699  64.319  1.00  0.00    -0.445 C  
HETATM    5  O   UNL     1     -12.929  12.028  63.549  1.00  0.00    -0.774 OA 
BRANCH   4   6
HETATM    6  C   UNL     1     -11.763  12.250  65.666  1.00  0.00    -0.440 C  
BRANCH   6   7
HETATM    7  C   UNL     1     -10.392  11.582  65.530  1.00  0.00    -0.322 C  
BRANCH   7   8
HETATM    8  C   UNL     1     -10.101  10.636  66.684  1.00  0.00    -0.270 C  
BRANCH   8   9
HETATM    9  C   UNL     1     -10.454   9.206  66.355  1.00  0.00    -0.141 C  
HETATM   10  C   UNL     1     -10.339   8.164  67.194  1.00  0.00    -0.391 C  
BRANCH  10  11
HETATM   11  C   UNL     1      -9.691   8.239  68.538  1.00  0.00    -0.165 C  
BRANCH  11  12
HETATM   12  C   UNL     1     -10.619   8.073  69.702  1.00  0.00    -0.223 C  
HETATM   13  C   UNL     1     -11.113   9.106  70.409  1.00  0.00    -0.293 C  
BRANCH  13  14
HETATM   14  C   UNL     1     -10.877  10.585  70.202  1.00  0.00    -0.291 C  
BRANCH  14  15
HETATM   15  C   UNL     1     -12.063  11.361  69.689  1.00  0.00    -0.373 C  
HETATM   16  C   UNL     1     -12.035  12.604  69.183  1.00  0.00    -0.293 C  
BRANCH  16  17
HETATM   17  C   UNL     1     -10.844  13.505  69.204  1.00  0.00    -0.173 C  
BRANCH  17  18
HETATM   18  C   UNL     1     -11.308  14.933  69.112  1.00  0.00    -0.309 C  
HETATM   19  C   UNL     1     -11.479  15.746  70.165  1.00  0.00    -0.366 C  
BRANCH  19  20
HETATM   20  C   UNL     1     -11.261  15.346  71.585  1.00  0.00    -0.386 C  
BRANCH  20  21
HETATM   21  C   UNL     1     -12.250  15.985  72.514  1.00  0.00    -0.612 C  
HETATM   22  C   UNL     1     -13.519  15.575  72.666  1.00  0.00    -0.642 C  
BRANCH  22  23
HETATM   23  C   UNL     1     -14.169  14.452  71.916  1.00  0.00    -0.610 C  
HETATM   24  C   UNL     1     -13.650  13.100  72.370  1.00  0.00    -0.667 C  
ENDBRANCH  22  23
ENDBRANCH  20  21
ENDBRANCH  19  20
ENDBRANCH  17  18
ENDBRANCH  16  17
ENDBRANCH  14  15
ENDBRANCH  13  14
ENDBRANCH  11  12
ENDBRANCH  10  11
ENDBRANCH   8   9
ENDBRANCH   7   8
ENDBRANCH   6   7
ENDBRANCH   4   6
ENDBRANCH   3   4
ENDBRANCH   2   3
TORSDOF 15
ENDMDL
MODEL       30
REMARK 921   NORMALIZED FREE ENERGY PREDICTED BY IDOCK:   -4.91 KCAL/MOL
REMARK 922        TOTAL FREE ENERGY PREDICTED BY IDOCK:  -11.77 KCAL/MOL
REMARK 923 INTER-LIGAND FREE ENERGY PREDICTED BY IDOCK:   -8.74 KCAL/MOL
REMARK 924 INTRA-LIGAND FREE ENERGY PREDICTED BY IDOCK:   -3.03 KCAL/MOL
REMARK 927      BINDING AFFINITY PREDICTED BY RF-SCORE:    0.00 PKD
ROOT
HETATM    1  C   UNL     1     -10.700  16.303  69.592  1.00  0.00    -0.338 C  
HETATM    2  C   UNL     1     -11.127  15.322  70.669  1.00  0.00    -0.308 C  
ENDROOT
BRANCH   2   3
HETATM    3  O   UNL     1     -11.932  16.039  71.611  1.00  0.00    -0.441 OA 
BRANCH   3   4
HETATM    4  C   UNL     1     -12.977  15.323  72.114  1.00  0.00    -0.366 C  
HETATM    5  O   UNL     1     -13.598  15.593  73.129  1.00  0.00    -0.541 OA 
BRANCH   4   6
HETATM    6  C   UNL     1     -13.303  14.210  71.158  1.00  0.00    -0.330 C  
BRANCH   6   7
HETATM    7  C   UNL     1     -13.195  12.854  71.863  1.00  0.00    -0.521 C  
BRANCH   7   8
HETATM    8  C   UNL     1     -12.545  11.801  70.980  1.00  0.00    -0.409 C  
BRANCH   8   9
HETATM    9  C   UNL     1     -12.894  10.398  71.411  1.00  0.00    -0.556 C  
HETATM   10  C   UNL     1     -12.058   9.347  71.388  1.00  0.00    -0.442 C  
BRANCH  10  11
HETATM   11  C   UNL     1     -10.694   9.375  70.780  1.00  0.00    -0.373 C  
BRANCH  11  12
HETATM   12  C   UNL     1     -10.013   8.045  70.681  1.00  0.00    -0.198 C  
HETATM   13  C   UNL     1     -10.118   7.236  69.611  1.00  0.00    -0.195 C  
BRANCH  13  14
HETATM   14  C   UNL     1     -10.887   7.467  68.329  1.00  0.00    -0.052 C  
BRANCH  14  15
HETATM   15  C   UNL     1     -10.092   8.075  67.202  1.00  0.00    -0.334 C  
HETATM   16  C   UNL     1     -10.053   9.375  66.872  1.00  0.00    -0.314 C  
BRANCH  16  17
HETATM   17  C   UNL     1     -10.934  10.428  67.460  1.00  0.00    -0.358 C  
BRANCH  17  18
HETATM   18  C   UNL     1     -10.094  11.620  67.831  1.00  0.00    -0.198 C  
HETATM   19  C   UNL     1     -10.555  12.876  67.921  1.00  0.00    -0.232 C  
BRANCH  19  20
HETATM   20  C   UNL     1     -11.963  13.281  67.639  1.00  0.00    -0.366 C  
BRANCH  20  21
HETATM   21  C   UNL     1     -12.062  14.225  66.479  1.00  0.00    -0.454 C  
HETATM   22  C   UNL     1     -12.327  13.848  65.218  1.00  0.00    -0.485 C  
BRANCH  22  23
HETATM   23  C   UNL     1     -12.525  12.438  64.753  1.00  0.00    -0.480 C  
HETATM   24  C   UNL     1     -11.256  11.862  64.151  1.00  0.00    -0.446 C  
ENDBRANCH  22  23
ENDBRANCH  20  21
ENDBRANCH  19  20
ENDBRANCH  17  18
ENDBRANCH  16  17
ENDBRANCH  14  15
ENDBRANCH  13  14
ENDBRANCH  11  12
ENDBRANCH  10  11
ENDBRANCH   8   9
ENDBRANCH   7   8
ENDBRANCH   6   7
ENDBRANCH   4   6
ENDBRANCH   3   4
ENDBRANCH   2   3
TORSDOF 15
ENDMDL
MODEL       31
REMARK 921   NORMALIZED FREE ENERGY PREDICTED BY IDOCK:   -4.88 KCAL/MOL
REMARK 922        TOTAL FREE ENERGY PREDICTED BY IDOCK:  -11.71 KCAL/MOL
REMARK 923 INTER-LIGAND FREE ENERGY PREDICTED BY IDOCK:   -8.98 KCAL/MOL
REMARK 924 INTRA-LIGAND FREE ENERGY PREDICTED BY IDOCK:   -2.73 KCAL/MOL
REMARK 927      BINDING AFFINITY PREDICTED BY RF-SCORE:    0.00 PKD
ROOT
HETATM    1  C   UNL     1     -14.224   7.654  71.493  1.00  0.00    -0.564 C  
HETATM    2  C   UNL     1     -12.798   7.145  71.596  1.00  0.00    -0.379 C  
ENDROOT
BRANCH   2   3
HETATM    3  O   UNL     1     -11.980   7.982  70.771  1.00  0.00    -0.242 OA 
BRANCH   3   4
HETATM    4  C   UNL     1     -11.204   8.864  71.463  1.00  0.00    -0.326 C  
HETATM    5  O   UNL     1     -10.686   8.653  72.548  1.00  0.00    -0.307 OA 
BRANCH   4   6
HETATM    6  C   UNL     1     -11.008  10.095  70.622  1.00  0.00    -0.357 C  
BRANCH   6   7
HETATM    7  C   UNL     1     -12.360  10.730  70.284  1.00  0.00    -0.423 C  
BRANCH   7   8
HETATM    8  C   UNL     1     -12.441  12.178  70.740  1.00  0.00    -0.362 C  
BRANCH   8   9
HETATM    9  C   UNL     1     -13.384  12.359  71.905  1.00  0.00    -0.450 C  
HETATM   10  C   UNL     1     -14.057  13.485  72.192  1.00  0.00    -0.506 C  
BRANCH  10  11
HETATM   11  C   UNL     1     -13.852  14.786  71.488  1.00  0.00    -0.529 C  
BRANCH  11  12
HETATM   12  C   UNL     1     -12.807  15.676  72.086  1.00  0.00    -0.517 C  
HETATM   13  C   UNL     1     -11.696  16.060  71.431  1.00  0.00    -0.536 C  
BRANCH  13  14
HETATM   14  C   UNL     1     -11.272  15.717  70.020  1.00  0.00    -0.346 C  
BRANCH  14  15
HETATM   15  C   UNL     1     -10.657  16.850  69.239  1.00  0.00    -0.325 C  
HETATM   16  C   UNL     1     -10.438  16.871  67.915  1.00  0.00    -0.344 C  
BRANCH  16  17
HETATM   17  C   UNL     1     -10.606  15.697  67.007  1.00  0.00    -0.311 C  
BRANCH  17  18
HETATM   18  C   UNL     1      -9.264  15.054  66.782  1.00  0.00    -0.280 C  
HETATM   19  C   UNL     1      -8.914  13.844  67.243  1.00  0.00    -0.225 C  
BRANCH  19  20
HETATM   20  C   UNL     1      -9.795  12.967  68.068  1.00  0.00    -0.224 C  
BRANCH  20  21
HETATM   21  C   UNL     1     -10.045  11.639  67.419  1.00  0.00    -0.218 C  
HETATM   22  C   UNL     1     -10.867  11.452  66.375  1.00  0.00    -0.323 C  
BRANCH  22  23
HETATM   23  C   UNL     1     -11.694  12.512  65.714  1.00  0.00    -0.478 C  
HETATM   24  C   UNL     1     -11.252  12.758  64.283  1.00  0.00    -0.409 C  
ENDBRANCH  22  23
ENDBRANCH  20  21
ENDBRANCH  19  20
ENDBRANCH  17  18
ENDBRANCH  16  17
ENDBRANCH  14  15
ENDBRANCH  13  14
ENDBRANCH  11  12
ENDBRANCH  10  11
ENDBRANCH   8   9
ENDBRANCH   7   8
ENDBRANCH   6   7
ENDBRANCH   4   6
ENDBRANCH   3   4
ENDBRANCH   2   3
TORSDOF 15
ENDMDL
MODEL       32
REMARK 921   NORMALIZED FREE ENERGY PREDICTED BY IDOCK:   -4.86 KCAL/MOL
REMARK 922        TOTAL FREE ENERGY PREDICTED BY IDOCK:  -11.68 KCAL/MOL
REMARK 923 INTER-LIGAND FREE ENERGY PREDICTED BY IDOCK:   -9.33 KCAL/MOL
REMARK 924 INTRA-LIGAND FREE ENERGY PREDICTED BY IDOCK:   -2.35 KCAL/MOL
REMARK 927      BINDING AFFINITY PREDICTED BY RF-SCORE:    0.00 PKD
ROOT
HETATM    1  C   UNL     1     -10.423  16.833  67.815  1.00  0.00    -0.335 C  
HETATM    2  C   UNL     1     -10.189  16.755  66.317  1.00  0.00    -0.332 C  
ENDROOT
BRANCH   2   3
HETATM    3  O   UNL     1     -10.826  15.563  65.843  1.00  0.00    -0.326 OA 
BRANCH   3   4
HETATM    4  C   UNL     1     -11.522  15.723  64.683  1.00  0.00    -0.282 C  
HETATM    5  O   UNL     1     -11.495  16.714  63.971  1.00  0.00    -1.192 OA 
BRANCH   4   6
HETATM    6  C   UNL     1     -12.242  14.440  64.371  1.00  0.00    -0.481 C  
BRANCH   6   7
HETATM    7  C   UNL     1     -12.541  13.671  65.662  1.00  0.00    -0.531 C  
BRANCH   7   8
HETATM    8  C   UNL     1     -12.029  12.241  65.605  1.00  0.00    -0.373 C  
BRANCH   8   9
HETATM    9  C   UNL     1     -10.581  12.168  65.184  1.00  0.00    -0.324 C  
HETATM   10  C   UNL     1      -9.526  12.240  66.011  1.00  0.00    -0.194 C  
BRANCH  10  11
HETATM   11  C   UNL     1      -9.623  12.566  67.465  1.00  0.00    -0.187 C  
BRANCH  11  12
HETATM   12  C   UNL     1      -9.312  11.433  68.394  1.00  0.00    -0.194 C  
HETATM   13  C   UNL     1     -10.240  10.816  69.149  1.00  0.00    -0.229 C  
BRANCH  13  14
HETATM   14  C   UNL     1     -11.724  11.094  69.226  1.00  0.00    -0.401 C  
BRANCH  14  15
HETATM   15  C   UNL     1     -12.192  11.752  70.499  1.00  0.00    -0.438 C  
HETATM   16  C   UNL     1     -12.843  11.151  71.507  1.00  0.00    -0.542 C  
BRANCH  16  17
HETATM   17  C   UNL     1     -13.376   9.757  71.463  1.00  0.00    -0.468 C  
BRANCH  17  18
HETATM   18  C   UNL     1     -12.745   8.956  72.570  1.00  0.00    -0.382 C  
HETATM   19  C   UNL     1     -11.730   8.096  72.403  1.00  0.00    -0.461 C  
BRANCH  19  20
HETATM   20  C   UNL     1     -11.092   7.787  71.089  1.00  0.00    -0.269 C  
BRANCH  20  21
HETATM   21  C   UNL     1     -11.402   6.397  70.620  1.00  0.00    -0.419 C  
HETATM   22  C   UNL     1     -11.037   5.904  69.427  1.00  0.00    -0.369 C  
BRANCH  22  23
HETATM   23  C   UNL     1     -10.305   6.657  68.358  1.00  0.00    -0.220 C  
HETATM   24  C   UNL     1     -10.590   6.092  66.978  1.00  0.00    -0.385 C  
ENDBRANCH  22  23
ENDBRANCH  20  21
ENDBRANCH  19  20
ENDBRANCH  17  18
ENDBRANCH  16  17
ENDBRANCH  14  15
ENDBRANCH  13  14
ENDBRANCH  11  12
ENDBRANCH  10  11
ENDBRANCH   8   9
ENDBRANCH   7   8
ENDBRANCH   6   7
ENDBRANCH   4   6
ENDBRANCH   3   4
ENDBRANCH   2   3
TORSDOF 15
ENDMDL
MODEL       33
REMARK 921   NORMALIZED FREE ENERGY PREDICTED BY IDOCK:   -4.85 KCAL/MOL
REMARK 922        TOTAL FREE ENERGY PREDICTED BY IDOCK:  -11.65 KCAL/MOL
REMARK 923 INTER-LIGAND FREE ENERGY PREDICTED BY IDOCK:   -9.07 KCAL/MOL
REMARK 924 INTRA-LIGAND FREE ENERGY PREDICTED BY IDOCK:   -2.58 KCAL/MOL
REMARK 927      BINDING AFFINITY PREDICTED BY RF-SCORE:    0.00 PKD
ROOT
HETATM    1  C   UNL     1     -12.177   9.900  71.222  1.00  0.00    -0.480 C  
HETATM    2  C   UNL     1     -13.171  10.912  71.763  1.00  0.00    -0.408 C  
ENDROOT
BRANCH   2   3
HETATM    3  O   UNL     1     -12.850  12.183  71.185  1.00  0.00    -0.326 OA 
BRANCH   3   4
HETATM    4  C   UNL     1     -13.276  13.253  71.913  1.00  0.00    -0.431 C  
HETATM    5  O   UNL     1     -14.218  13.252  72.690  1.00  0.00    -0.724 OA 
BRANCH   4   6
HETATM    6  C   UNL     1     -12.333  14.401  71.682  1.00  0.00    -0.415 C  
BRANCH   6   7
HETATM    7  C   UNL     1     -12.896  15.345  70.615  1.00  0.00    -0.484 C  
BRANCH   7   8
HETATM    8  C   UNL     1     -11.909  15.580  69.483  1.00  0.00    -0.390 C  
BRANCH   8   9
HETATM    9  C   UNL     1     -10.918  14.450  69.343  1.00  0.00    -0.261 C  
HETATM   10  C   UNL     1     -10.984  13.466  68.432  1.00  0.00    -0.291 C  
BRANCH  10  11
HETATM   11  C   UNL     1     -12.142  13.253  67.513  1.00  0.00    -0.312 C  
BRANCH  11  12
HETATM   12  C   UNL     1     -12.285  14.268  66.421  1.00  0.00    -0.426 C  
HETATM   13  C   UNL     1     -12.512  13.946  65.134  1.00  0.00    -0.479 C  
BRANCH  13  14
HETATM   14  C   UNL     1     -12.680  12.572  64.525  1.00  0.00    -0.440 C  
BRANCH  14  15
HETATM   15  C   UNL     1     -11.675  12.212  63.461  1.00  0.00    -0.579 C  
HETATM   16  C   UNL     1     -10.661  11.343  63.594  1.00  0.00    -0.476 C  
BRANCH  16  17
HETATM   17  C   UNL     1     -10.244  10.712  64.882  1.00  0.00    -0.395 C  
BRANCH  17  18
HETATM   18  C   UNL     1      -9.378  11.678  65.644  1.00  0.00    -0.195 C  
HETATM   19  C   UNL     1      -8.584  11.340  66.670  1.00  0.00    -0.167 C  
BRANCH  19  20
HETATM   20  C   UNL     1      -8.462   9.960  67.225  1.00  0.00    -0.121 C  
BRANCH  20  21
HETATM   21  C   UNL     1      -9.531   9.656  68.232  1.00  0.00    -0.145 C  
HETATM   22  C   UNL     1     -10.375   8.616  68.147  1.00  0.00    -0.267 C  
BRANCH  22  23
HETATM   23  C   UNL     1     -10.422   7.619  67.029  1.00  0.00    -0.419 C  
HETATM   24  C   UNL     1     -10.852   6.248  67.518  1.00  0.00    -0.436 C  
ENDBRANCH  22  23
ENDBRANCH  20  21
ENDBRANCH  19  20
ENDBRANCH  17  18
ENDBRANCH  16  17
ENDBRANCH  14  15
ENDBRANCH  13  14
ENDBRANCH  11  12
ENDBRANCH  10  11
ENDBRANCH   8   9
ENDBRANCH   7   8
ENDBRANCH   6   7
ENDBRANCH   4   6
ENDBRANCH   3   4
ENDBRANCH   2   3
TORSDOF 15
ENDMDL
MODEL       34
REMARK 921   NORMALIZED FREE ENERGY PREDICTED BY IDOCK:   -4.84 KCAL/MOL
REMARK 922        TOTAL FREE ENERGY PREDICTED BY IDOCK:  -11.63 KCAL/MOL
REMARK 923 INTER-LIGAND FREE ENERGY PREDICTED BY IDOCK:   -8.66 KCAL/MOL
REMARK 924 INTRA-LIGAND FREE ENERGY PREDICTED BY IDOCK:   -2.98 KCAL/MOL
REMARK 927      BINDING AFFINITY PREDICTED BY RF-SCORE:    0.00 PKD
ROOT
HETATM    1  C   UNL     1     -10.731  19.287  66.328  1.00  0.00    -0.477 C  
HETATM    2  C   UNL     1      -9.232  19.513  66.418  1.00  0.00    -0.371 C  
ENDROOT
BRANCH   2   3
HETATM    3  O   UNL     1      -8.588  18.338  65.912  1.00  0.00    -0.502 OA 
BRANCH   3   4
HETATM    4  C   UNL     1      -7.517  17.927  66.646  1.00  0.00    -0.227 C  
HETATM    5  O   UNL     1      -6.423  17.623  66.197  1.00  0.00    -0.219 OA 
BRANCH   4   6
HETATM    6  C   UNL     1      -7.871  18.011  68.106  1.00  0.00    -0.274 C  
BRANCH   6   7
HETATM    7  C   UNL     1      -7.684  16.648  68.778  1.00  0.00    -0.233 C  
BRANCH   7   8
HETATM    8  C   UNL     1      -8.472  15.552  68.076  1.00  0.00    -0.143 C  
BRANCH   8   9
HETATM    9  C   UNL     1      -9.959  15.810  68.103  1.00  0.00    -0.214 C  
HETATM   10  C   UNL     1     -10.799  15.617  67.074  1.00  0.00    -0.294 C  
BRANCH  10  11
HETATM   11  C   UNL     1     -10.362  15.266  65.690  1.00  0.00    -0.389 C  
BRANCH  11  12
HETATM   12  C   UNL     1     -11.433  15.341  64.645  1.00  0.00    -0.356 C  
HETATM   13  C   UNL     1     -12.277  14.328  64.373  1.00  0.00    -0.471 C  
BRANCH  13  14
HETATM   14  C   UNL     1     -12.349  12.966  65.025  1.00  0.00    -0.541 C  
BRANCH  14  15
HETATM   15  C   UNL     1     -11.224  12.025  64.679  1.00  0.00    -0.380 C  
HETATM   16  C   UNL     1     -10.368  11.462  65.546  1.00  0.00    -0.317 C  
BRANCH  16  17
HETATM   17  C   UNL     1     -10.273  11.812  66.995  1.00  0.00    -0.240 C  
BRANCH  17  18
HETATM   18  C   UNL     1     -11.201  10.921  67.777  1.00  0.00    -0.384 C  
HETATM   19  C   UNL     1     -11.908  11.313  68.847  1.00  0.00    -0.413 C  
BRANCH  19  20
HETATM   20  C   UNL     1     -11.859  12.682  69.437  1.00  0.00    -0.356 C  
BRANCH  20  21
HETATM   21  C   UNL     1     -12.425  12.724  70.825  1.00  0.00    -0.357 C  
HETATM   22  C   UNL     1     -12.864  13.840  71.428  1.00  0.00    -0.449 C  
BRANCH  22  23
HETATM   23  C   UNL     1     -12.827  15.220  70.846  1.00  0.00    -0.511 C  
HETATM   24  C   UNL     1     -11.661  16.026  71.388  1.00  0.00    -0.536 C  
ENDBRANCH  22  23
ENDBRANCH  20  21
ENDBRANCH  19  20
ENDBRANCH  17  18
ENDBRANCH  16  17
ENDBRANCH  14  15
ENDBRANCH  13  14
ENDBRANCH  11  12
ENDBRANCH  10  11
ENDBRANCH   8   9
ENDBRANCH   7   8
ENDBRANCH   6   7
ENDBRANCH   4   6
ENDBRANCH   3   4
ENDBRANCH   2   3
TORSDOF 15
ENDMDL
MODEL       35
REMARK 921   NORMALIZED FREE ENERGY PREDICTED BY IDOCK:   -4.83 KCAL/MOL
REMARK 922        TOTAL FREE ENERGY PREDICTED BY IDOCK:  -11.62 KCAL/MOL
REMARK 923 INTER-LIGAND FREE ENERGY PREDICTED BY IDOCK:   -9.26 KCAL/MOL
REMARK 924 INTRA-LIGAND FREE ENERGY PREDICTED BY IDOCK:   -2.36 KCAL/MOL
REMARK 927      BINDING AFFINITY PREDICTED BY RF-SCORE:    0.00 PKD
ROOT
HETATM    1  C   UNL     1      -9.496   9.504  70.362  1.00  0.00    -0.317 C  
HETATM    2  C   UNL     1     -10.101   8.944  71.636  1.00  0.00    -0.341 C  
ENDROOT
BRANCH   2   3
HETATM    3  O   UNL     1     -10.842   7.770  71.282  1.00  0.00    -0.228 OA 
BRANCH   3   4
HETATM    4  C   UNL     1     -12.193   7.906  71.395  1.00  0.00    -0.313 C  
HETATM    5  O   UNL     1     -13.023   7.114  70.979  1.00  0.00    -0.325 OA 
BRANCH   4   6
HETATM    6  C   UNL     1     -12.488   9.136  72.209  1.00  0.00    -0.403 C  
BRANCH   6   7
HETATM    7  C   UNL     1     -13.406  10.082  71.428  1.00  0.00    -0.432 C  
BRANCH   7   8
HETATM    8  C   UNL     1     -12.810  11.474  71.294  1.00  0.00    -0.463 C  
BRANCH   8   9
HETATM    9  C   UNL     1     -13.555  12.498  72.115  1.00  0.00    -0.458 C  
HETATM   10  C   UNL     1     -13.305  13.817  72.125  1.00  0.00    -0.569 C  
BRANCH  10  11
HETATM   11  C   UNL     1     -12.141  14.454  71.440  1.00  0.00    -0.397 C  
BRANCH  11  12
HETATM   12  C   UNL     1     -12.489  15.339  70.283  1.00  0.00    -0.405 C  
HETATM   13  C   UNL     1     -11.966  15.190  69.052  1.00  0.00    -0.295 C  
BRANCH  13  14
HETATM   14  C   UNL     1     -10.977  14.153  68.571  1.00  0.00    -0.271 C  
BRANCH  14  15
HETATM   15  C   UNL     1     -11.574  12.825  68.179  1.00  0.00    -0.380 C  
HETATM   16  C   UNL     1     -11.911  12.446  66.937  1.00  0.00    -0.377 C  
BRANCH  16  17
HETATM   17  C   UNL     1     -11.915  13.345  65.745  1.00  0.00    -0.447 C  
BRANCH  17  18
HETATM   18  C   UNL     1     -12.544  12.620  64.585  1.00  0.00    -0.517 C  
HETATM   19  C   UNL     1     -11.858  12.029  63.597  1.00  0.00    -0.602 C  
BRANCH  19  20
HETATM   20  C   UNL     1     -10.370  12.025  63.486  1.00  0.00    -0.492 C  
BRANCH  20  21
HETATM   21  C   UNL     1      -9.818  10.645  63.289  1.00  0.00    -0.364 C  
HETATM   22  C   UNL     1      -9.351   9.869  64.279  1.00  0.00    -0.313 C  
BRANCH  22  23
HETATM   23  C   UNL     1      -9.263  10.257  65.724  1.00  0.00    -0.215 C  
HETATM   24  C   UNL     1     -10.106   9.348  66.600  1.00  0.00    -0.332 C  
ENDBRANCH  22  23
ENDBRANCH  20  21
ENDBRANCH  19  20
ENDBRANCH  17  18
ENDBRANCH  16  17
ENDBRANCH  14  15
ENDBRANCH  13  14
ENDBRANCH  11  12
ENDBRANCH  10  11
ENDBRANCH   8   9
ENDBRANCH   7   8
ENDBRANCH   6   7
ENDBRANCH   4   6
ENDBRANCH   3   4
ENDBRANCH   2   3
TORSDOF 15
ENDMDL
MODEL       36
REMARK 921   NORMALIZED FREE ENERGY PREDICTED BY IDOCK:   -4.83 KCAL/MOL
REMARK 922        TOTAL FREE ENERGY PREDICTED BY IDOCK:  -11.61 KCAL/MOL
REMARK 923 INTER-LIGAND FREE ENERGY PREDICTED BY IDOCK:   -8.81 KCAL/MOL
REMARK 924 INTRA-LIGAND FREE ENERGY PREDICTED BY IDOCK:   -2.81 KCAL/MOL
REMARK 927      BINDING AFFINITY PREDICTED BY RF-SCORE:    0.00 PKD
ROOT
HETATM    1  C   UNL     1     -12.110  14.136  67.108  1.00  0.00    -0.432 C  
HETATM    2  C   UNL     1     -12.623  13.739  65.736  1.00  0.00    -0.480 C  
ENDROOT
BRANCH   2   3
HETATM    3  O   UNL     1     -11.983  12.509  65.375  1.00  0.00    -0.406 OA 
BRANCH   3   4
HETATM    4  C   UNL     1     -12.023  12.226  64.043  1.00  0.00    -0.462 C  
HETATM    5  O   UNL     1     -13.035  12.124  63.370  1.00  0.00    -0.776 OA 
BRANCH   4   6
HETATM    6  C   UNL     1     -10.614  12.166  63.521  1.00  0.00    -0.501 C  
BRANCH   6   7
HETATM    7  C   UNL     1     -10.093  10.726  63.559  1.00  0.00    -0.364 C  
BRANCH   7   8
HETATM    8  C   UNL     1      -9.182  10.480  64.751  1.00  0.00    -0.266 C  
BRANCH   8   9
HETATM    9  C   UNL     1      -9.502   9.186  65.458  1.00  0.00    -0.276 C  
HETATM   10  C   UNL     1     -10.164   9.079  66.621  1.00  0.00    -0.333 C  
BRANCH  10  11
HETATM   11  C   UNL     1     -10.549  10.242  67.476  1.00  0.00    -0.320 C  
BRANCH  11  12
HETATM   12  C   UNL     1      -9.454  10.785  68.342  1.00  0.00    -0.174 C  
HETATM   13  C   UNL     1      -9.068  10.213  69.497  1.00  0.00    -0.213 C  
BRANCH  13  14
HETATM   14  C   UNL     1      -9.604   8.958  70.148  1.00  0.00    -0.199 C  
BRANCH  14  15
HETATM   15  C   UNL     1      -9.017   7.666  69.639  1.00  0.00    -0.140 C  
HETATM   16  C   UNL     1      -9.704   6.564  69.302  1.00  0.00    -0.152 C  
BRANCH  16  17
HETATM   17  C   UNL     1     -11.164   6.365  69.544  1.00  0.00    -0.477 C  
BRANCH  17  18
HETATM   18  C   UNL     1     -11.377   5.998  70.988  1.00  0.00    -0.299 C  
HETATM   19  C   UNL     1     -12.274   6.582  71.796  1.00  0.00    -0.374 C  
BRANCH  19  20
HETATM   20  C   UNL     1     -13.175   7.700  71.390  1.00  0.00    -0.337 C  
BRANCH  20  21
HETATM   21  C   UNL     1     -13.090   8.867  72.327  1.00  0.00    -0.491 C  
HETATM   22  C   UNL     1     -12.894  10.137  71.937  1.00  0.00    -0.526 C  
BRANCH  22  23
HETATM   23  C   UNL     1     -12.690  10.594  70.526  1.00  0.00    -0.395 C  
HETATM   24  C   UNL     1     -12.248  12.045  70.465  1.00  0.00    -0.414 C  
ENDBRANCH  22  23
ENDBRANCH  20  21
ENDBRANCH  19  20
ENDBRANCH  17  18
ENDBRANCH  16  17
ENDBRANCH  14  15
ENDBRANCH  13  14
ENDBRANCH  11  12
ENDBRANCH  10  11
ENDBRANCH   8   9
ENDBRANCH   7   8
ENDBRANCH   6   7
ENDBRANCH   4   6
ENDBRANCH   3   4
ENDBRANCH   2   3
TORSDOF 15
ENDMDL
MODEL       37
REMARK 921   NORMALIZED FREE ENERGY PREDICTED BY IDOCK:   -4.82 KCAL/MOL
REMARK 922        TOTAL FREE ENERGY PREDICTED BY IDOCK:  -11.59 KCAL/MOL
REMARK 923 INTER-LIGAND FREE ENERGY PREDICTED BY IDOCK:   -9.16 KCAL/MOL
REMARK 924 INTRA-LIGAND FREE ENERGY PREDICTED BY IDOCK:   -2.44 KCAL/MOL
REMARK 927      BINDING AFFINITY PREDICTED BY RF-SCORE:    0.00 PKD
ROOT
HETATM    1  C   UNL     1     -12.616  15.962  74.264  1.00  0.00    -0.725 C  
HETATM    2  C   UNL     1     -13.181  15.416  72.966  1.00  0.00    -0.531 C  
ENDROOT
BRANCH   2   3
HETATM    3  O   UNL     1     -12.641  16.200  71.896  1.00  0.00    -0.432 OA 
BRANCH   3   4
HETATM    4  C   UNL     1     -12.216  15.471  70.826  1.00  0.00    -0.403 C  
HETATM    5  O   UNL     1     -11.693  15.925  69.821  1.00  0.00    -0.332 OA 
BRANCH   4   6
HETATM    6  C   UNL     1     -12.401  14.011  71.134  1.00  0.00    -0.443 C  
BRANCH   6   7
HETATM    7  C   UNL     1     -12.010  13.158  69.923  1.00  0.00    -0.387 C  
BRANCH   7   8
HETATM    8  C   UNL     1     -11.989  11.674  70.254  1.00  0.00    -0.445 C  
BRANCH   8   9
HETATM    9  C   UNL     1     -12.931  11.325  71.380  1.00  0.00    -0.482 C  
HETATM   10  C   UNL     1     -13.058  10.110  71.938  1.00  0.00    -0.571 C  
BRANCH  10  11
HETATM   11  C   UNL     1     -12.396   8.876  71.418  1.00  0.00    -0.368 C  
BRANCH  11  12
HETATM   12  C   UNL     1     -11.282   8.346  72.267  1.00  0.00    -0.446 C  
HETATM   13  C   UNL     1     -10.131   7.864  71.763  1.00  0.00    -0.236 C  
BRANCH  13  14
HETATM   14  C   UNL     1      -9.709   7.763  70.315  1.00  0.00    -0.179 C  
BRANCH  14  15
HETATM   15  C   UNL     1      -8.810   8.870  69.826  1.00  0.00    -0.144 C  
HETATM   16  C   UNL     1      -9.103   9.761  68.867  1.00  0.00    -0.148 C  
BRANCH  16  17
HETATM   17  C   UNL     1     -10.310   9.699  67.989  1.00  0.00    -0.262 C  
BRANCH  17  18
HETATM   18  C   UNL     1      -9.951   8.994  66.709  1.00  0.00    -0.332 C  
HETATM   19  C   UNL     1      -9.663   9.614  65.555  1.00  0.00    -0.372 C  
BRANCH  19  20
HETATM   20  C   UNL     1      -9.683  11.094  65.363  1.00  0.00    -0.275 C  
BRANCH  20  21
HETATM   21  C   UNL     1     -10.749  11.528  64.403  1.00  0.00    -0.404 C  
HETATM   22  C   UNL     1     -11.810  12.278  64.741  1.00  0.00    -0.428 C  
BRANCH  22  23
HETATM   23  C   UNL     1     -12.129  12.768  66.120  1.00  0.00    -0.429 C  
HETATM   24  C   UNL     1     -11.600  14.171  66.353  1.00  0.00    -0.380 C  
ENDBRANCH  22  23
ENDBRANCH  20  21
ENDBRANCH  19  20
ENDBRANCH  17  18
ENDBRANCH  16  17
ENDBRANCH  14  15
ENDBRANCH  13  14
ENDBRANCH  11  12
ENDBRANCH  10  11
ENDBRANCH   8   9
ENDBRANCH   7   8
ENDBRANCH   6   7
ENDBRANCH   4   6
ENDBRANCH   3   4
ENDBRANCH   2   3
TORSDOF 15
ENDMDL
MODEL       38
REMARK 921   NORMALIZED FREE ENERGY PREDICTED BY IDOCK:   -4.82 KCAL/MOL
REMARK 922        TOTAL FREE ENERGY PREDICTED BY IDOCK:  -11.59 KCAL/MOL
REMARK 923 INTER-LIGAND FREE ENERGY PREDICTED BY IDOCK:   -9.11 KCAL/MOL
REMARK 924 INTRA-LIGAND FREE ENERGY PREDICTED BY IDOCK:   -2.48 KCAL/MOL
REMARK 927      BINDING AFFINITY PREDICTED BY RF-SCORE:    0.00 PKD
ROOT
HETATM    1  C   UNL     1      -9.983  19.803  66.944  1.00  0.00    -0.537 C  
HETATM    2  C   UNL     1     -10.550  18.998  65.789  1.00  0.00    -0.318 C  
ENDROOT
BRANCH   2   3
HETATM    3  O   UNL     1     -10.018  17.671  65.886  1.00  0.00    -0.517 OA 
BRANCH   3   4
HETATM    4  C   UNL     1     -10.757  16.723  65.246  1.00  0.00    -0.169 C  
HETATM    5  O   UNL     1     -11.365  16.884  64.200  1.00  0.00    -1.208 OA 
BRANCH   4   6
HETATM    6  C   UNL     1     -10.613  15.420  65.983  1.00  0.00    -0.330 C  
BRANCH   6   7
HETATM    7  C   UNL     1     -11.621  14.395  65.455  1.00  0.00    -0.347 C  
BRANCH   7   8
HETATM    8  C   UNL     1     -11.791  13.220  66.405  1.00  0.00    -0.446 C  
BRANCH   8   9
HETATM    9  C   UNL     1     -10.533  12.929  67.186  1.00  0.00    -0.241 C  
HETATM   10  C   UNL     1     -10.182  11.729  67.674  1.00  0.00    -0.216 C  
BRANCH  10  11
HETATM   11  C   UNL     1     -11.065  10.525  67.654  1.00  0.00    -0.375 C  
BRANCH  11  12
HETATM   12  C   UNL     1     -10.634   9.434  66.723  1.00  0.00    -0.210 C  
HETATM   13  C   UNL     1     -10.353   8.182  67.128  1.00  0.00    -0.391 C  
BRANCH  13  14
HETATM   14  C   UNL     1     -10.414   7.610  68.526  1.00  0.00    -0.206 C  
BRANCH  14  15
HETATM   15  C   UNL     1      -9.134   7.705  69.317  1.00  0.00    -0.145 C  
HETATM   16  C   UNL     1      -8.912   8.507  70.370  1.00  0.00    -0.161 C  
BRANCH  16  17
HETATM   17  C   UNL     1      -9.843   9.579  70.833  1.00  0.00    -0.279 C  
BRANCH  17  18
HETATM   18  C   UNL     1     -10.860   8.978  71.765  1.00  0.00    -0.437 C  
HETATM   19  C   UNL     1     -12.152   9.334  71.812  1.00  0.00    -0.457 C  
BRANCH  19  20
HETATM   20  C   UNL     1     -12.766  10.399  70.966  1.00  0.00    -0.490 C  
BRANCH  20  21
HETATM   21  C   UNL     1     -13.219  11.577  71.774  1.00  0.00    -0.456 C  
HETATM   22  C   UNL     1     -12.949  12.855  71.464  1.00  0.00    -0.388 C  
BRANCH  22  23
HETATM   23  C   UNL     1     -12.128  13.315  70.298  1.00  0.00    -0.405 C  
HETATM   24  C   UNL     1     -12.160  14.825  70.151  1.00  0.00    -0.382 C  
ENDBRANCH  22  23
ENDBRANCH  20  21
ENDBRANCH  19  20
ENDBRANCH  17  18
ENDBRANCH  16  17
ENDBRANCH  14  15
ENDBRANCH  13  14
ENDBRANCH  11  12
ENDBRANCH  10  11
ENDBRANCH   8   9
ENDBRANCH   7   8
ENDBRANCH   6   7
ENDBRANCH   4   6
ENDBRANCH   3   4
ENDBRANCH   2   3
TORSDOF 15
ENDMDL
MODEL       39
REMARK 921   NORMALIZED FREE ENERGY PREDICTED BY IDOCK:   -4.81 KCAL/MOL
REMARK 922        TOTAL FREE ENERGY PREDICTED BY IDOCK:  -11.59 KCAL/MOL
REMARK 923 INTER-LIGAND FREE ENERGY PREDICTED BY IDOCK:   -9.03 KCAL/MOL
REMARK 924 INTRA-LIGAND FREE ENERGY PREDICTED BY IDOCK:   -2.56 KCAL/MOL
REMARK 927      BINDING AFFINITY PREDICTED BY RF-SCORE:    0.00 PKD
ROOT
HETATM    1  C   UNL     1     -10.550  18.947  67.361  1.00  0.00    -0.534 C  
HETATM    2  C   UNL     1     -10.139  18.042  68.508  1.00  0.00    -0.393 C  
ENDROOT
BRANCH   2   3
HETATM    3  O   UNL     1     -10.254  16.689  68.053  1.00  0.00    -0.259 OA 
BRANCH   3   4
HETATM    4  C   UNL     1     -10.684  15.813  69.004  1.00  0.00    -0.235 C  
HETATM    5  O   UNL     1     -11.162  16.117  70.085  1.00  0.00    -0.343 OA 
BRANCH   4   6
HETATM    6  C   UNL     1     -10.569  14.416  68.459  1.00  0.00    -0.256 C  
BRANCH   6   7
HETATM    7  C   UNL     1     -11.844  14.035  67.700  1.00  0.00    -0.430 C  
BRANCH   7   8
HETATM    8  C   UNL     1     -11.686  14.206  66.197  1.00  0.00    -0.402 C  
BRANCH   8   9
HETATM    9  C   UNL     1     -12.420  13.141  65.419  1.00  0.00    -0.535 C  
HETATM   10  C   UNL     1     -11.889  12.383  64.447  1.00  0.00    -0.461 C  
BRANCH  10  11
HETATM   11  C   UNL     1     -10.524  12.590  63.875  1.00  0.00    -0.464 C  
BRANCH  11  12
HETATM   12  C   UNL     1      -9.975  11.430  63.103  1.00  0.00    -0.402 C  
HETATM   13  C   UNL     1      -9.324  10.400  63.675  1.00  0.00    -0.329 C  
BRANCH  13  14
HETATM   14  C   UNL     1      -9.024  10.176  65.140  1.00  0.00    -0.225 C  
BRANCH  14  15
HETATM   15  C   UNL     1     -10.014   9.310  65.876  1.00  0.00    -0.289 C  
HETATM   16  C   UNL     1     -10.632   9.618  67.026  1.00  0.00    -0.267 C  
BRANCH  16  17
HETATM   17  C   UNL     1     -10.310  10.806  67.873  1.00  0.00    -0.216 C  
BRANCH  17  18
HETATM   18  C   UNL     1     -10.036  10.345  69.280  1.00  0.00    -0.248 C  
HETATM   19  C   UNL     1     -10.927  10.392  70.281  1.00  0.00    -0.353 C  
BRANCH  19  20
HETATM   20  C   UNL     1     -12.312  10.931  70.156  1.00  0.00    -0.399 C  
BRANCH  20  21
HETATM   21  C   UNL     1     -12.988  11.079  71.486  1.00  0.00    -0.553 C  
HETATM   22  C   UNL     1     -13.308  12.257  72.044  1.00  0.00    -0.491 C  
BRANCH  22  23
HETATM   23  C   UNL     1     -13.015  13.606  71.463  1.00  0.00    -0.443 C  
HETATM   24  C   UNL     1     -13.380  14.722  72.425  1.00  0.00    -0.503 C  
ENDBRANCH  22  23
ENDBRANCH  20  21
ENDBRANCH  19  20
ENDBRANCH  17  18
ENDBRANCH  16  17
ENDBRANCH  14  15
ENDBRANCH  13  14
ENDBRANCH  11  12
ENDBRANCH  10  11
ENDBRANCH   8   9
ENDBRANCH   7   8
ENDBRANCH   6   7
ENDBRANCH   4   6
ENDBRANCH   3   4
ENDBRANCH   2   3
TORSDOF 15
ENDMDL
MODEL       40
REMARK 921   NORMALIZED FREE ENERGY PREDICTED BY IDOCK:   -4.81 KCAL/MOL
REMARK 922        TOTAL FREE ENERGY PREDICTED BY IDOCK:  -11.57 KCAL/MOL
REMARK 923 INTER-LIGAND FREE ENERGY PREDICTED BY IDOCK:   -8.69 KCAL/MOL
REMARK 924 INTRA-LIGAND FREE ENERGY PREDICTED BY IDOCK:   -2.88 KCAL/MOL
REMARK 927      BINDING AFFINITY PREDICTED BY RF-SCORE:    0.00 PKD
ROOT
HETATM    1  C   UNL     1     -10.565  19.691  65.841  1.00  0.00    -0.566 C  
HETATM    2  C   UNL     1     -10.173  18.583  66.802  1.00  0.00    -0.393 C  
ENDROOT
BRANCH   2   3
HETATM    3  O   UNL     1      -9.392  17.633  66.068  1.00  0.00    -0.494 OA 
BRANCH   3   4
HETATM    4  C   UNL     1      -9.406  16.374  66.590  1.00  0.00    -0.259 C  
HETATM    5  O   UNL     1      -9.368  16.098  67.778  1.00  0.00    -0.210 OA 
BRANCH   4   6
HETATM    6  C   UNL     1      -9.582  15.389  65.467  1.00  0.00    -0.253 C  
BRANCH   6   7
HETATM    7  C   UNL     1     -10.973  15.537  64.843  1.00  0.00    -0.452 C  
BRANCH   7   8
HETATM    8  C   UNL     1     -11.806  14.275  65.003  1.00  0.00    -0.396 C  
BRANCH   8   9
HETATM    9  C   UNL     1     -11.295  13.140  64.150  1.00  0.00    -0.440 C  
HETATM   10  C   UNL     1     -10.678  12.039  64.609  1.00  0.00    -0.355 C  
BRANCH  10  11
HETATM   11  C   UNL     1     -10.260  11.845  66.030  1.00  0.00    -0.262 C  
BRANCH  11  12
HETATM   12  C   UNL     1     -11.296  11.231  66.921  1.00  0.00    -0.231 C  
HETATM   13  C   UNL     1     -11.664  11.757  68.103  1.00  0.00    -0.377 C  
BRANCH  13  14
HETATM   14  C   UNL     1     -11.163  13.020  68.766  1.00  0.00    -0.325 C  
BRANCH  14  15
HETATM   15  C   UNL     1     -12.092  14.204  68.683  1.00  0.00    -0.320 C  
HETATM   16  C   UNL     1     -12.503  14.960  69.713  1.00  0.00    -0.222 C  
BRANCH  16  17
HETATM   17  C   UNL     1     -12.247  14.649  71.151  1.00  0.00    -0.405 C  
BRANCH  17  18
HETATM   18  C   UNL     1     -13.488  14.042  71.749  1.00  0.00    -0.473 C  
HETATM   19  C   UNL     1     -13.610  12.753  72.098  1.00  0.00    -0.547 C  
BRANCH  19  20
HETATM   20  C   UNL     1     -12.544  11.724  71.920  1.00  0.00    -0.063 C  
BRANCH  20  21
HETATM   21  C   UNL     1     -13.084  10.432  71.386  1.00  0.00    -0.512 C  
HETATM   22  C   UNL     1     -12.371   9.299  71.284  1.00  0.00    -0.403 C  
BRANCH  22  23
HETATM   23  C   UNL     1     -10.923   9.145  71.640  1.00  0.00    -0.445 C  
HETATM   24  C   UNL     1     -10.033   9.222  70.413  1.00  0.00    -0.287 C  
ENDBRANCH  22  23
ENDBRANCH  20  21
ENDBRANCH  19  20
ENDBRANCH  17  18
ENDBRANCH  16  17
ENDBRANCH  14  15
ENDBRANCH  13  14
ENDBRANCH  11  12
ENDBRANCH  10  11
ENDBRANCH   8   9
ENDBRANCH   7   8
ENDBRANCH   6   7
ENDBRANCH   4   6
ENDBRANCH   3   4
ENDBRANCH   2   3
TORSDOF 15
ENDMDL
MODEL       41
REMARK 921   NORMALIZED FREE ENERGY PREDICTED BY IDOCK:   -4.80 KCAL/MOL
REMARK 922        TOTAL FREE ENERGY PREDICTED BY IDOCK:  -11.57 KCAL/MOL
REMARK 923 INTER-LIGAND FREE ENERGY PREDICTED BY IDOCK:   -8.83 KCAL/MOL
REMARK 924 INTRA-LIGAND FREE ENERGY PREDICTED BY IDOCK:   -2.73 KCAL/MOL
REMARK 927      BINDING AFFINITY PREDICTED BY RF-SCORE:    0.00 PKD
ROOT
HETATM    1  C   UNL     1     -12.585  16.152  73.884  1.00  0.00    -0.703 C  
HETATM    2  C   UNL     1     -13.453  15.332  72.947  1.00  0.00    -0.512 C  
ENDROOT
BRANCH   2   3
HETATM    3  O   UNL     1     -13.183  15.772  71.611  1.00  0.00    -0.486 OA 
BRANCH   3   4
HETATM    4  C   UNL     1     -12.273  15.008  70.944  1.00  0.00    -0.329 C  
HETATM    5  O   UNL     1     -11.302  15.430  70.337  1.00  0.00    -0.273 OA 
BRANCH   4   6
HETATM    6  C   UNL     1     -12.605  13.558  71.167  1.00  0.00    -0.438 C  
BRANCH   6   7
HETATM    7  C   UNL     1     -11.833  12.678  70.180  1.00  0.00    -0.326 C  
BRANCH   7   8
HETATM    8  C   UNL     1     -12.399  11.268  70.109  1.00  0.00    -0.354 C  
BRANCH   8   9
HETATM    9  C   UNL     1     -12.887  10.780  71.451  1.00  0.00    -0.557 C  
HETATM   10  C   UNL     1     -12.484   9.654  72.062  1.00  0.00    -0.412 C  
BRANCH  10  11
HETATM   11  C   UNL     1     -11.602   8.628  71.429  1.00  0.00    -0.354 C  
BRANCH  11  12
HETATM   12  C   UNL     1     -10.154   8.717  71.800  1.00  0.00    -0.380 C  
HETATM   13  C   UNL     1      -9.215   9.259  71.003  1.00  0.00    -0.273 C  
BRANCH  13  14
HETATM   14  C   UNL     1      -9.390   9.880  69.636  1.00  0.00    -0.247 C  
BRANCH  14  15
HETATM   15  C   UNL     1      -8.277  10.798  69.198  1.00  0.00    -0.124 C  
HETATM   16  C   UNL     1      -8.378  11.792  68.302  1.00  0.00    -0.159 C  
BRANCH  16  17
HETATM   17  C   UNL     1      -9.576  12.049  67.448  1.00  0.00    -0.176 C  
BRANCH  17  18
HETATM   18  C   UNL     1      -9.774  13.535  67.316  1.00  0.00    -0.236 C  
HETATM   19  C   UNL     1     -10.917  14.117  66.925  1.00  0.00    -0.302 C  
BRANCH  19  20
HETATM   20  C   UNL     1     -12.154  13.376  66.540  1.00  0.00    -0.444 C  
BRANCH  20  21
HETATM   21  C   UNL     1     -12.669  13.791  65.195  1.00  0.00    -0.439 C  
HETATM   22  C   UNL     1     -12.409  13.137  64.052  1.00  0.00    -0.425 C  
BRANCH  22  23
HETATM   23  C   UNL     1     -11.541  11.924  63.918  1.00  0.00    -0.515 C  
HETATM   24  C   UNL     1     -10.103  12.295  63.605  1.00  0.00    -0.369 C  
ENDBRANCH  22  23
ENDBRANCH  20  21
ENDBRANCH  19  20
ENDBRANCH  17  18
ENDBRANCH  16  17
ENDBRANCH  14  15
ENDBRANCH  13  14
ENDBRANCH  11  12
ENDBRANCH  10  11
ENDBRANCH   8   9
ENDBRANCH   7   8
ENDBRANCH   6   7
ENDBRANCH   4   6
ENDBRANCH   3   4
ENDBRANCH   2   3
TORSDOF 15
ENDMDL
MODEL       42
REMARK 921   NORMALIZED FREE ENERGY PREDICTED BY IDOCK:   -4.80 KCAL/MOL
REMARK 922        TOTAL FREE ENERGY PREDICTED BY IDOCK:  -11.56 KCAL/MOL
REMARK 923 INTER-LIGAND FREE ENERGY PREDICTED BY IDOCK:   -9.35 KCAL/MOL
REMARK 924 INTRA-LIGAND FREE ENERGY PREDICTED BY IDOCK:   -2.21 KCAL/MOL
REMARK 927      BINDING AFFINITY PREDICTED BY RF-SCORE:    0.00 PKD
ROOT
HETATM    1  C   UNL     1     -10.800   6.090  70.739  1.00  0.00    -0.358 C  
HETATM    2  C   UNL     1     -11.871   6.510  71.729  1.00  0.00    -0.335 C  
ENDROOT
BRANCH   2   3
HETATM    3  O   UNL     1     -12.015   7.932  71.633  1.00  0.00    -0.273 OA 
BRANCH   3   4
HETATM    4  C   UNL     1     -13.300   8.373  71.737  1.00  0.00    -0.357 C  
HETATM    5  O   UNL     1     -14.295   7.666  71.740  1.00  0.00    -0.413 OA 
BRANCH   4   6
HETATM    6  C   UNL     1     -13.282   9.861  71.953  1.00  0.00    -0.558 C  
BRANCH   6   7
HETATM    7  C   UNL     1     -12.391  10.540  70.909  1.00  0.00    -0.490 C  
BRANCH   7   8
HETATM    8  C   UNL     1     -12.573  12.050  70.898  1.00  0.00    -0.347 C  
BRANCH   8   9
HETATM    9  C   UNL     1     -13.389  12.536  72.071  1.00  0.00    -0.528 C  
HETATM   10  C   UNL     1     -13.901  13.770  72.202  1.00  0.00    -0.649 C  
BRANCH  10  11
HETATM   11  C   UNL     1     -13.606  14.903  71.275  1.00  0.00    -0.504 C  
BRANCH  11  12
HETATM   12  C   UNL     1     -12.361  15.675  71.590  1.00  0.00    -0.494 C  
HETATM   13  C   UNL     1     -11.429  15.986  70.670  1.00  0.00    -0.427 C  
BRANCH  13  14
HETATM   14  C   UNL     1     -11.423  15.663  69.193  1.00  0.00    -0.365 C  
BRANCH  14  15
HETATM   15  C   UNL     1     -10.796  16.710  68.307  1.00  0.00    -0.356 C  
HETATM   16  C   UNL     1     -10.232  16.497  67.109  1.00  0.00    -0.284 C  
BRANCH  16  17
HETATM   17  C   UNL     1      -9.969  15.149  66.520  1.00  0.00    -0.279 C  
BRANCH  17  18
HETATM   18  C   UNL     1     -10.641  15.061  65.177  1.00  0.00    -0.440 C  
HETATM   19  C   UNL     1     -11.012  13.915  64.587  1.00  0.00    -0.406 C  
BRANCH  19  20
HETATM   20  C   UNL     1     -10.789  12.557  65.164  1.00  0.00    -0.323 C  
BRANCH  20  21
HETATM   21  C   UNL     1     -11.784  12.223  66.234  1.00  0.00    -0.431 C  
HETATM   22  C   UNL     1     -11.494  11.526  67.344  1.00  0.00    -0.349 C  
BRANCH  22  23
HETATM   23  C   UNL     1     -10.159  10.934  67.679  1.00  0.00    -0.206 C  
HETATM   24  C   UNL     1      -9.281  11.921  68.428  1.00  0.00    -0.173 C  
ENDBRANCH  22  23
ENDBRANCH  20  21
ENDBRANCH  19  20
ENDBRANCH  17  18
ENDBRANCH  16  17
ENDBRANCH  14  15
ENDBRANCH  13  14
ENDBRANCH  11  12
ENDBRANCH  10  11
ENDBRANCH   8   9
ENDBRANCH   7   8
ENDBRANCH   6   7
ENDBRANCH   4   6
ENDBRANCH   3   4
ENDBRANCH   2   3
TORSDOF 15
ENDMDL
MODEL       43
REMARK 921   NORMALIZED FREE ENERGY PREDICTED BY IDOCK:   -4.80 KCAL/MOL
REMARK 922        TOTAL FREE ENERGY PREDICTED BY IDOCK:  -11.55 KCAL/MOL
REMARK 923 INTER-LIGAND FREE ENERGY PREDICTED BY IDOCK:   -8.52 KCAL/MOL
REMARK 924 INTRA-LIGAND FREE ENERGY PREDICTED BY IDOCK:   -3.03 KCAL/MOL
REMARK 927      BINDING AFFINITY PREDICTED BY RF-SCORE:    0.00 PKD
ROOT
HETATM    1  C   UNL     1     -12.725  12.804  64.721  1.00  0.00    -0.469 C  
HETATM    2  C   UNL     1     -12.044  12.296  63.463  1.00  0.00    -0.553 C  
ENDROOT
BRANCH   2   3
HETATM    3  O   UNL     1     -10.630  12.417  63.660  1.00  0.00    -0.424 OA 
BRANCH   3   4
HETATM    4  C   UNL     1      -9.948  11.242  63.556  1.00  0.00    -0.376 C  
HETATM    5  O   UNL     1      -9.299  10.881  62.587  1.00  0.00    -0.293 OA 
BRANCH   4   6
HETATM    6  C   UNL     1     -10.041  10.513  64.869  1.00  0.00    -0.403 C  
BRANCH   6   7
HETATM    7  C   UNL     1      -9.109  11.156  65.901  1.00  0.00    -0.218 C  
BRANCH   7   8
HETATM    8  C   UNL     1      -9.881  11.824  67.028  1.00  0.00    -0.213 C  
BRANCH   8   9
HETATM    9  C   UNL     1      -9.647  13.314  67.077  1.00  0.00    -0.243 C  
HETATM   10  C   UNL     1     -10.458  14.210  67.661  1.00  0.00    -0.245 C  
BRANCH  10  11
HETATM   11  C   UNL     1     -11.805  13.881  68.219  1.00  0.00    -0.412 C  
BRANCH  11  12
HETATM   12  C   UNL     1     -12.045  14.348  69.622  1.00  0.00    -0.381 C  
HETATM   13  C   UNL     1     -12.229  13.513  70.660  1.00  0.00    -0.434 C  
BRANCH  13  14
HETATM   14  C   UNL     1     -12.224  12.001  70.662  1.00  0.00    -0.409 C  
BRANCH  14  15
HETATM   15  C   UNL     1     -13.089  11.355  71.713  1.00  0.00    -0.523 C  
HETATM   16  C   UNL     1     -13.101  10.053  72.037  1.00  0.00    -0.541 C  
BRANCH  16  17
HETATM   17  C   UNL     1     -12.381   8.983  71.283  1.00  0.00    -0.361 C  
BRANCH  17  18
HETATM   18  C   UNL     1     -11.031   8.763  71.913  1.00  0.00    -0.435 C  
HETATM   19  C   UNL     1      -9.863   9.081  71.337  1.00  0.00    -0.381 C  
BRANCH  19  20
HETATM   20  C   UNL     1      -9.727   9.675  69.975  1.00  0.00    -0.280 C  
BRANCH  20  21
HETATM   21  C   UNL     1      -8.723   8.945  69.134  1.00  0.00    -0.132 C  
HETATM   22  C   UNL     1      -9.040   8.070  68.167  1.00  0.00    -0.134 C  
BRANCH  22  23
HETATM   23  C   UNL     1     -10.428   7.647  67.794  1.00  0.00    -0.282 C  
HETATM   24  C   UNL     1     -10.894   6.461  68.618  1.00  0.00    -0.379 C  
ENDBRANCH  22  23
ENDBRANCH  20  21
ENDBRANCH  19  20
ENDBRANCH  17  18
ENDBRANCH  16  17
ENDBRANCH  14  15
ENDBRANCH  13  14
ENDBRANCH  11  12
ENDBRANCH  10  11
ENDBRANCH   8   9
ENDBRANCH   7   8
ENDBRANCH   6   7
ENDBRANCH   4   6
ENDBRANCH   3   4
ENDBRANCH   2   3
TORSDOF 15
ENDMDL
MODEL       44
REMARK 921   NORMALIZED FREE ENERGY PREDICTED BY IDOCK:   -4.79 KCAL/MOL
REMARK 922        TOTAL FREE ENERGY PREDICTED BY IDOCK:  -11.55 KCAL/MOL
REMARK 923 INTER-LIGAND FREE ENERGY PREDICTED BY IDOCK:   -8.66 KCAL/MOL
REMARK 924 INTRA-LIGAND FREE ENERGY PREDICTED BY IDOCK:   -2.89 KCAL/MOL
REMARK 927      BINDING AFFINITY PREDICTED BY RF-SCORE:    0.00 PKD
ROOT
HETATM    1  C   UNL     1     -13.522  14.461  71.628  1.00  0.00    -0.451 C  
HETATM    2  C   UNL     1     -13.403  13.032  72.124  1.00  0.00    -0.524 C  
ENDROOT
BRANCH   2   3
HETATM    3  O   UNL     1     -12.630  12.305  71.162  1.00  0.00    -0.364 OA 
BRANCH   3   4
HETATM    4  C   UNL     1     -12.588  10.960  71.377  1.00  0.00    -0.403 C  
HETATM    5  O   UNL     1     -13.417  10.315  72.000  1.00  0.00    -0.393 OA 
BRANCH   4   6
HETATM    6  C   UNL     1     -11.413  10.389  70.633  1.00  0.00    -0.438 C  
BRANCH   6   7
HETATM    7  C   UNL     1     -11.414  10.877  69.181  1.00  0.00    -0.373 C  
BRANCH   7   8
HETATM    8  C   UNL     1     -10.024  11.281  68.714  1.00  0.00    -0.203 C  
BRANCH   8   9
HETATM    9  C   UNL     1      -9.277  10.131  68.082  1.00  0.00    -0.137 C  
HETATM   10  C   UNL     1      -9.389   9.741  66.802  1.00  0.00    -0.190 C  
BRANCH  10  11
HETATM   11  C   UNL     1     -10.395  10.290  65.844  1.00  0.00    -0.241 C  
BRANCH  11  12
HETATM   12  C   UNL     1      -9.850  10.692  64.508  1.00  0.00    -0.388 C  
HETATM   13  C   UNL     1     -10.529  11.447  63.626  1.00  0.00    -0.472 C  
BRANCH  13  14
HETATM   14  C   UNL     1     -11.911  12.043  63.769  1.00  0.00    -0.588 C  
BRANCH  14  15
HETATM   15  C   UNL     1     -11.967  13.549  63.768  1.00  0.00    -0.475 C  
HETATM   16  C   UNL     1     -11.465  14.360  64.713  1.00  0.00    -0.402 C  
BRANCH  16  17
HETATM   17  C   UNL     1     -10.918  13.900  66.024  1.00  0.00    -0.285 C  
BRANCH  17  18
HETATM   18  C   UNL     1     -12.014  13.941  67.055  1.00  0.00    -0.459 C  
HETATM   19  C   UNL     1     -11.880  14.456  68.286  1.00  0.00    -0.361 C  
BRANCH  19  20
HETATM   20  C   UNL     1     -10.617  15.039  68.825  1.00  0.00    -0.240 C  
BRANCH  20  21
HETATM   21  C   UNL     1     -10.761  16.492  69.165  1.00  0.00    -0.335 C  
HETATM   22  C   UNL     1     -10.548  17.495  68.298  1.00  0.00    -0.354 C  
BRANCH  22  23
HETATM   23  C   UNL     1     -10.097  17.340  66.878  1.00  0.00    -0.304 C  
HETATM   24  C   UNL     1      -8.583  17.322  66.769  1.00  0.00    -0.275 C  
ENDBRANCH  22  23
ENDBRANCH  20  21
ENDBRANCH  19  20
ENDBRANCH  17  18
ENDBRANCH  16  17
ENDBRANCH  14  15
ENDBRANCH  13  14
ENDBRANCH  11  12
ENDBRANCH  10  11
ENDBRANCH   8   9
ENDBRANCH   7   8
ENDBRANCH   6   7
ENDBRANCH   4   6
ENDBRANCH   3   4
ENDBRANCH   2   3
TORSDOF 15
ENDMDL
MODEL       45
REMARK 921   NORMALIZED FREE ENERGY PREDICTED BY IDOCK:   -4.79 KCAL/MOL
REMARK 922        TOTAL FREE ENERGY PREDICTED BY IDOCK:  -11.53 KCAL/MOL
REMARK 923 INTER-LIGAND FREE ENERGY PREDICTED BY IDOCK:   -8.96 KCAL/MOL
REMARK 924 INTRA-LIGAND FREE ENERGY PREDICTED BY IDOCK:   -2.58 KCAL/MOL
REMARK 927      BINDING AFFINITY PREDICTED BY RF-SCORE:    0.00 PKD
ROOT
HETATM    1  C   UNL     1     -10.191   7.223  73.500  1.00  0.00    -0.404 C  
HETATM    2  C   UNL     1     -10.674   8.120  72.375  1.00  0.00    -0.334 C  
ENDROOT
BRANCH   2   3
HETATM    3  O   UNL     1     -12.077   8.336  72.567  1.00  0.00    -0.385 OA 
BRANCH   3   4
HETATM    4  C   UNL     1     -12.641   9.191  71.669  1.00  0.00    -0.360 C  
HETATM    5  O   UNL     1     -13.836   9.401  71.543  1.00  0.00    -0.336 OA 
BRANCH   4   6
HETATM    6  C   UNL     1     -11.543   9.909  70.933  1.00  0.00    -0.456 C  
BRANCH   6   7
HETATM    7  C   UNL     1     -12.043  11.262  70.419  1.00  0.00    -0.474 C  
BRANCH   7   8
HETATM    8  C   UNL     1     -11.787  11.438  68.930  1.00  0.00    -0.413 C  
BRANCH   8   9
HETATM    9  C   UNL     1     -10.830  12.568  68.644  1.00  0.00    -0.280 C  
HETATM   10  C   UNL     1     -11.037  13.557  67.760  1.00  0.00    -0.291 C  
BRANCH  10  11
HETATM   11  C   UNL     1     -12.186  13.600  66.805  1.00  0.00    -0.416 C  
BRANCH  11  12
HETATM   12  C   UNL     1     -11.969  14.442  65.586  1.00  0.00    -0.356 C  
HETATM   13  C   UNL     1     -12.006  13.955  64.332  1.00  0.00    -0.480 C  
BRANCH  13  14
HETATM   14  C   UNL     1     -12.272  12.536  63.883  1.00  0.00    -0.590 C  
BRANCH  14  15
HETATM   15  C   UNL     1     -11.072  11.793  63.353  1.00  0.00    -0.448 C  
HETATM   16  C   UNL     1     -10.302  10.939  64.044  1.00  0.00    -0.417 C  
BRANCH  16  17
HETATM   17  C   UNL     1     -10.395  10.712  65.518  1.00  0.00    -0.297 C  
BRANCH  17  18
HETATM   18  C   UNL     1      -9.089  10.148  66.011  1.00  0.00    -0.185 C  
HETATM   19  C   UNL     1      -8.979   9.194  66.946  1.00  0.00    -0.143 C  
BRANCH  19  20
HETATM   20  C   UNL     1     -10.133   8.568  67.655  1.00  0.00    -0.271 C  
BRANCH  20  21
HETATM   21  C   UNL     1     -10.436   7.192  67.143  1.00  0.00    -0.389 C  
HETATM   22  C   UNL     1     -10.849   6.173  67.913  1.00  0.00    -0.406 C  
BRANCH  22  23
HETATM   23  C   UNL     1     -11.037   6.222  69.399  1.00  0.00    -0.477 C  
HETATM   24  C   UNL     1     -10.252   5.128  70.100  1.00  0.00    -0.348 C  
ENDBRANCH  22  23
ENDBRANCH  20  21
ENDBRANCH  19  20
ENDBRANCH  17  18
ENDBRANCH  16  17
ENDBRANCH  14  15
ENDBRANCH  13  14
ENDBRANCH  11  12
ENDBRANCH  10  11
ENDBRANCH   8   9
ENDBRANCH   7   8
ENDBRANCH   6   7
ENDBRANCH   4   6
ENDBRANCH   3   4
ENDBRANCH   2   3
TORSDOF 15
ENDMDL
MODEL       46
REMARK 921   NORMALIZED FREE ENERGY PREDICTED BY IDOCK:   -4.79 KCAL/MOL
REMARK 922        TOTAL FREE ENERGY PREDICTED BY IDOCK:  -11.53 KCAL/MOL
REMARK 923 INTER-LIGAND FREE ENERGY PREDICTED BY IDOCK:   -9.14 KCAL/MOL
REMARK 924 INTRA-LIGAND FREE ENERGY PREDICTED BY IDOCK:   -2.39 KCAL/MOL
REMARK 927      BINDING AFFINITY PREDICTED BY RF-SCORE:    0.00 PKD
ROOT
HETATM    1  C   UNL     1      -9.490   9.146  65.502  1.00  0.00    -0.276 C  
HETATM    2  C   UNL     1      -9.646  10.340  64.578  1.00  0.00    -0.316 C  
ENDROOT
BRANCH   2   3
HETATM    3  O   UNL     1     -10.629  11.207  65.156  1.00  0.00    -0.284 OA 
BRANCH   3   4
HETATM    4  C   UNL     1     -11.138  12.130  64.292  1.00  0.00    -0.346 C  
HETATM    5  O   UNL     1     -10.653  12.438  63.216  1.00  0.00    -0.410 OA 
BRANCH   4   6
HETATM    6  C   UNL     1     -12.449  12.627  64.837  1.00  0.00    -0.564 C  
BRANCH   6   7
HETATM    7  C   UNL     1     -12.281  14.030  65.430  1.00  0.00    -0.453 C  
BRANCH   7   8
HETATM    8  C   UNL     1     -12.063  13.990  66.934  1.00  0.00    -0.465 C  
BRANCH   8   9
HETATM    9  C   UNL     1     -10.646  14.342  67.317  1.00  0.00    -0.278 C  
HETATM   10  C   UNL     1     -10.209  14.555  68.568  1.00  0.00    -0.240 C  
BRANCH  10  11
HETATM   11  C   UNL     1     -11.099  14.632  69.765  1.00  0.00    -0.268 C  
BRANCH  11  12
HETATM   12  C   UNL     1     -11.320  16.011  70.306  1.00  0.00    -0.391 C  
HETATM   13  C   UNL     1     -11.725  16.258  71.565  1.00  0.00    -0.467 C  
BRANCH  13  14
HETATM   14  C   UNL     1     -12.023  15.266  72.667  1.00  0.00    -0.535 C  
BRANCH  14  15
HETATM   15  C   UNL     1     -13.415  14.689  72.656  1.00  0.00    -0.580 C  
HETATM   16  C   UNL     1     -13.755  13.452  72.262  1.00  0.00    -0.705 C  
BRANCH  16  17
HETATM   17  C   UNL     1     -12.830  12.488  71.596  1.00  0.00    -0.368 C  
BRANCH  17  18
HETATM   18  C   UNL     1     -13.286  11.085  71.895  1.00  0.00    -0.503 C  
HETATM   19  C   UNL     1     -12.596   9.979  71.580  1.00  0.00    -0.525 C  
BRANCH  19  20
HETATM   20  C   UNL     1     -11.288   9.975  70.862  1.00  0.00    -0.439 C  
BRANCH  20  21
HETATM   21  C   UNL     1     -11.432  10.332  69.414  1.00  0.00    -0.248 C  
HETATM   22  C   UNL     1     -10.406  10.642  68.606  1.00  0.00    -0.202 C  
BRANCH  22  23
HETATM   23  C   UNL     1      -8.967  10.724  69.015  1.00  0.00    -0.141 C  
HETATM   24  C   UNL     1      -8.151  11.545  68.033  1.00  0.00    -0.136 C  
ENDBRANCH  22  23
ENDBRANCH  20  21
ENDBRANCH  19  20
ENDBRANCH  17  18
ENDBRANCH  16  17
ENDBRANCH  14  15
ENDBRANCH  13  14
ENDBRANCH  11  12
ENDBRANCH  10  11
ENDBRANCH   8   9
ENDBRANCH   7   8
ENDBRANCH   6   7
ENDBRANCH   4   6
ENDBRANCH   3   4
ENDBRANCH   2   3
TORSDOF 15
ENDMDL
MODEL       47
REMARK 921   NORMALIZED FREE ENERGY PREDICTED BY IDOCK:   -4.78 KCAL/MOL
REMARK 922        TOTAL FREE ENERGY PREDICTED BY IDOCK:  -11.52 KCAL/MOL
REMARK 923 INTER-LIGAND FREE ENERGY PREDICTED BY IDOCK:   -8.50 KCAL/MOL
REMARK 924 INTRA-LIGAND FREE ENERGY PREDICTED BY IDOCK:   -3.03 KCAL/MOL
REMARK 927      BINDING AFFINITY PREDICTED BY RF-SCORE:    0.00 PKD
ROOT
HETATM    1  C   UNL     1     -12.534  15.261  74.011  1.00  0.00    -0.757 C  
HETATM    2  C   UNL     1     -12.267  16.176  72.830  1.00  0.00    -0.531 C  
ENDROOT
BRANCH   2   3
HETATM    3  O   UNL     1     -12.899  15.596  71.683  1.00  0.00    -0.415 OA 
BRANCH   3   4
HETATM    4  C   UNL     1     -12.106  15.539  70.576  1.00  0.00    -0.386 C  
HETATM    5  O   UNL     1     -11.244  16.349  70.278  1.00  0.00    -0.367 OA 
BRANCH   4   6
HETATM    6  C   UNL     1     -12.398  14.260  69.840  1.00  0.00    -0.377 C  
BRANCH   6   7
HETATM    7  C   UNL     1     -12.228  13.058  70.773  1.00  0.00    -0.359 C  
BRANCH   7   8
HETATM    8  C   UNL     1     -12.049  11.759  70.004  1.00  0.00    -0.387 C  
BRANCH   8   9
HETATM    9  C   UNL     1     -12.027  11.976  68.511  1.00  0.00    -0.273 C  
HETATM   10  C   UNL     1     -11.410  11.185  67.619  1.00  0.00    -0.356 C  
BRANCH  10  11
HETATM   11  C   UNL     1     -10.512  10.050  67.987  1.00  0.00    -0.260 C  
BRANCH  11  12
HETATM   12  C   UNL     1      -9.373  10.406  68.893  1.00  0.00    -0.190 C  
HETATM   13  C   UNL     1      -8.546  11.444  68.672  1.00  0.00    -0.126 C  
BRANCH  13  14
HETATM   14  C   UNL     1      -8.574  12.442  67.536  1.00  0.00    -0.177 C  
BRANCH  14  15
HETATM   15  C   UNL     1      -8.758  13.881  67.947  1.00  0.00    -0.184 C  
HETATM   16  C   UNL     1      -9.519  14.791  67.320  1.00  0.00    -0.217 C  
BRANCH  16  17
HETATM   17  C   UNL     1     -10.179  14.581  65.997  1.00  0.00    -0.329 C  
BRANCH  17  18
HETATM   18  C   UNL     1     -11.671  14.542  66.194  1.00  0.00    -0.355 C  
HETATM   19  C   UNL     1     -12.551  14.159  65.257  1.00  0.00    -0.460 C  
BRANCH  19  20
HETATM   20  C   UNL     1     -12.183  13.741  63.873  1.00  0.00    -0.402 C  
BRANCH  20  21
HETATM   21  C   UNL     1     -12.352  12.267  63.660  1.00  0.00    -0.664 C  
HETATM   22  C   UNL     1     -11.357  11.371  63.754  1.00  0.00    -0.310 C  
BRANCH  22  23
HETATM   23  C   UNL     1      -9.922  11.688  64.042  1.00  0.00    -0.328 C  
HETATM   24  C   UNL     1      -9.164  10.466  64.528  1.00  0.00    -0.287 C  
ENDBRANCH  22  23
ENDBRANCH  20  21
ENDBRANCH  19  20
ENDBRANCH  17  18
ENDBRANCH  16  17
ENDBRANCH  14  15
ENDBRANCH  13  14
ENDBRANCH  11  12
ENDBRANCH  10  11
ENDBRANCH   8   9
ENDBRANCH   7   8
ENDBRANCH   6   7
ENDBRANCH   4   6
ENDBRANCH   3   4
ENDBRANCH   2   3
TORSDOF 15
ENDMDL
MODEL       48
REMARK 921   NORMALIZED FREE ENERGY PREDICTED BY IDOCK:   -4.77 KCAL/MOL
REMARK 922        TOTAL FREE ENERGY PREDICTED BY IDOCK:  -11.50 KCAL/MOL
REMARK 923 INTER-LIGAND FREE ENERGY PREDICTED BY IDOCK:   -8.53 KCAL/MOL
REMARK 924 INTRA-LIGAND FREE ENERGY PREDICTED BY IDOCK:   -2.97 KCAL/MOL
REMARK 927      BINDING AFFINITY PREDICTED BY RF-SCORE:    0.00 PKD
ROOT
HETATM    1  C   UNL     1      -8.503  16.431  66.755  1.00  0.00    -0.279 C  
HETATM    2  C   UNL     1      -9.983  16.373  66.423  1.00  0.00    -0.303 C  
ENDROOT
BRANCH   2   3
HETATM    3  O   UNL     1     -10.102  15.974  65.053  1.00  0.00    -0.463 OA 
BRANCH   3   4
HETATM    4  C   UNL     1     -11.383  15.747  64.645  1.00  0.00    -0.337 C  
HETATM    5  O   UNL     1     -12.004  16.431  63.848  1.00  0.00    -1.023 OA 
BRANCH   4   6
HETATM    6  C   UNL     1     -11.863  14.460  65.257  1.00  0.00    -0.373 C  
BRANCH   6   7
HETATM    7  C   UNL     1     -11.927  13.358  64.196  1.00  0.00    -0.505 C  
BRANCH   7   8
HETATM    8  C   UNL     1     -11.688  11.979  64.791  1.00  0.00    -0.342 C  
BRANCH   8   9
HETATM    9  C   UNL     1     -10.520  11.272  64.149  1.00  0.00    -0.431 C  
HETATM   10  C   UNL     1      -9.840  10.247  64.687  1.00  0.00    -0.396 C  
BRANCH  10  11
HETATM   11  C   UNL     1     -10.039   9.750  66.081  1.00  0.00    -0.315 C  
BRANCH  11  12
HETATM   12  C   UNL     1      -8.875   9.010  66.666  1.00  0.00    -0.152 C  
HETATM   13  C   UNL     1      -8.790   8.668  67.964  1.00  0.00    -0.141 C  
BRANCH  13  14
HETATM   14  C   UNL     1      -9.789   8.922  69.070  1.00  0.00    -0.182 C  
BRANCH  14  15
HETATM   15  C   UNL     1     -10.640   7.739  69.454  1.00  0.00    -0.211 C  
HETATM   16  C   UNL     1     -11.373   7.622  70.572  1.00  0.00    -0.266 C  
BRANCH  16  17
HETATM   17  C   UNL     1     -11.332   8.577  71.719  1.00  0.00    -0.377 C  
BRANCH  17  18
HETATM   18  C   UNL     1     -12.670   9.256  71.840  1.00  0.00    -0.474 C  
HETATM   19  C   UNL     1     -12.964  10.453  71.312  1.00  0.00    -0.517 C  
BRANCH  19  20
HETATM   20  C   UNL     1     -12.001  11.300  70.549  1.00  0.00    -0.467 C  
BRANCH  20  21
HETATM   21  C   UNL     1     -12.376  11.425  69.103  1.00  0.00    -0.097 C  
HETATM   22  C   UNL     1     -11.737  12.212  68.223  1.00  0.00    -0.401 C  
BRANCH  22  23
HETATM   23  C   UNL     1     -10.585  13.117  68.536  1.00  0.00    -0.274 C  
HETATM   24  C   UNL     1      -9.288  12.600  67.941  1.00  0.00    -0.204 C  
ENDBRANCH  22  23
ENDBRANCH  20  21
ENDBRANCH  19  20
ENDBRANCH  17  18
ENDBRANCH  16  17
ENDBRANCH  14  15
ENDBRANCH  13  14
ENDBRANCH  11  12
ENDBRANCH  10  11
ENDBRANCH   8   9
ENDBRANCH   7   8
ENDBRANCH   6   7
ENDBRANCH   4   6
ENDBRANCH   3   4
ENDBRANCH   2   3
TORSDOF 15
ENDMDL
MODEL       49
REMARK 921   NORMALIZED FREE ENERGY PREDICTED BY IDOCK:   -4.76 KCAL/MOL
REMARK 922        TOTAL FREE ENERGY PREDICTED BY IDOCK:  -11.49 KCAL/MOL
REMARK 923 INTER-LIGAND FREE ENERGY PREDICTED BY IDOCK:   -8.90 KCAL/MOL
REMARK 924 INTRA-LIGAND FREE ENERGY PREDICTED BY IDOCK:   -2.60 KCAL/MOL
REMARK 927      BINDING AFFINITY PREDICTED BY RF-SCORE:    0.00 PKD
ROOT
HETATM    1  C   UNL     1     -10.254   5.294  69.751  1.00  0.00    -0.364 C  
HETATM    2  C   UNL     1     -11.442   6.220  69.938  1.00  0.00    -0.389 C  
ENDROOT
BRANCH   2   3
HETATM    3  O   UNL     1     -11.160   7.063  71.061  1.00  0.00    -0.248 OA 
BRANCH   3   4
HETATM    4  C   UNL     1     -12.105   8.016  71.298  1.00  0.00    -0.291 C  
HETATM    5  O   UNL     1     -13.269   7.802  71.593  1.00  0.00    -0.336 OA 
BRANCH   4   6
HETATM    6  C   UNL     1     -11.450   9.369  71.240  1.00  0.00    -0.433 C  
BRANCH   6   7
HETATM    7  C   UNL     1     -12.489  10.472  71.465  1.00  0.00    -0.493 C  
BRANCH   7   8
HETATM    8  C   UNL     1     -12.256  11.669  70.557  1.00  0.00    -0.451 C  
BRANCH   8   9
HETATM    9  C   UNL     1     -11.810  11.260  69.175  1.00  0.00    -0.423 C  
HETATM   10  C   UNL     1     -11.609  12.097  68.144  1.00  0.00    -0.397 C  
BRANCH  10  11
HETATM   11  C   UNL     1     -11.952  13.550  68.165  1.00  0.00    -0.376 C  
BRANCH  11  12
HETATM   12  C   UNL     1     -10.807  14.471  68.456  1.00  0.00    -0.256 C  
HETATM   13  C   UNL     1      -9.899  14.840  67.535  1.00  0.00    -0.218 C  
BRANCH  13  14
HETATM   14  C   UNL     1      -9.830  14.449  66.075  1.00  0.00    -0.342 C  
BRANCH  14  15
HETATM   15  C   UNL     1     -10.640  15.309  65.139  1.00  0.00    -0.453 C  
HETATM   16  C   UNL     1     -11.812  14.979  64.576  1.00  0.00    -0.377 C  
BRANCH  16  17
HETATM   17  C   UNL     1     -12.434  13.622  64.641  1.00  0.00    -0.359 C  
BRANCH  17  18
HETATM   18  C   UNL     1     -12.008  12.829  63.434  1.00  0.00    -0.613 C  
HETATM   19  C   UNL     1     -11.197  11.763  63.473  1.00  0.00    -0.494 C  
BRANCH  19  20
HETATM   20  C   UNL     1     -10.574  11.220  64.716  1.00  0.00    -0.376 C  
BRANCH  20  21
HETATM   21  C   UNL     1      -9.603  10.114  64.429  1.00  0.00    -0.366 C  
HETATM   22  C   UNL     1      -9.096   9.293  65.362  1.00  0.00    -0.277 C  
BRANCH  22  23
HETATM   23  C   UNL     1      -9.375   9.365  66.833  1.00  0.00    -0.188 C  
HETATM   24  C   UNL     1     -10.465   8.393  67.245  1.00  0.00    -0.373 C  
ENDBRANCH  22  23
ENDBRANCH  20  21
ENDBRANCH  19  20
ENDBRANCH  17  18
ENDBRANCH  16  17
ENDBRANCH  14  15
ENDBRANCH  13  14
ENDBRANCH  11  12
ENDBRANCH  10  11
ENDBRANCH   8   9
ENDBRANCH   7   8
ENDBRANCH   6   7
ENDBRANCH   4   6
ENDBRANCH   3   4
ENDBRANCH   2   3
TORSDOF 15
ENDMDL
MODEL       50
REMARK 921   NORMALIZED FREE ENERGY PREDICTED BY IDOCK:   -4.76 KCAL/MOL
REMARK 922        TOTAL FREE ENERGY PREDICTED BY IDOCK:  -11.49 KCAL/MOL
REMARK 923 INTER-LIGAND FREE ENERGY PREDICTED BY IDOCK:   -8.86 KCAL/MOL
REMARK 924 INTRA-LIGAND FREE ENERGY PREDICTED BY IDOCK:   -2.63 KCAL/MOL
REMARK 927      BINDING AFFINITY PREDICTED BY RF-SCORE:    0.00 PKD
ROOT
HETATM    1  C   UNL     1     -10.638  18.318  66.150  1.00  0.00    -0.326 C  
HETATM    2  C   UNL     1     -10.228  19.678  66.686  1.00  0.00    -0.465 C  
ENDROOT
BRANCH   2   3
HETATM    3  O   UNL     1      -9.045  20.078  65.984  1.00  0.00    -0.361 OA 
BRANCH   3   4
HETATM    4  C   UNL     1      -7.946  19.323  66.262  1.00  0.00    -0.308 C  
HETATM    5  O   UNL     1      -7.280  18.710  65.443  1.00  0.00    -0.520 OA 
BRANCH   4   6
HETATM    6  C   UNL     1      -7.628  19.456  67.727  1.00  0.00    -0.302 C  
BRANCH   6   7
HETATM    7  C   UNL     1      -7.119  18.123  68.283  1.00  0.00    -0.249 C  
BRANCH   7   8
HETATM    8  C   UNL     1      -8.251  17.255  68.810  1.00  0.00    -0.231 C  
BRANCH   8   9
HETATM    9  C   UNL     1      -7.780  15.874  69.196  1.00  0.00    -0.220 C  
HETATM   10  C   UNL     1      -8.118  14.735  68.570  1.00  0.00    -0.146 C  
BRANCH  10  11
HETATM   11  C   UNL     1      -9.143  14.646  67.487  1.00  0.00    -0.192 C  
BRANCH  11  12
HETATM   12  C   UNL     1     -10.342  13.810  67.812  1.00  0.00    -0.241 C  
HETATM   13  C   UNL     1     -11.445  14.296  68.410  1.00  0.00    -0.331 C  
BRANCH  13  14
HETATM   14  C   UNL     1     -11.725  15.713  68.855  1.00  0.00    -0.396 C  
BRANCH  14  15
HETATM   15  C   UNL     1     -11.352  16.026  70.282  1.00  0.00    -0.391 C  
HETATM   16  C   UNL     1     -12.129  15.840  71.361  1.00  0.00    -0.494 C  
BRANCH  16  17
HETATM   17  C   UNL     1     -13.571  15.455  71.314  1.00  0.00    -0.585 C  
BRANCH  17  18
HETATM   18  C   UNL     1     -13.863  14.511  72.449  1.00  0.00    -0.587 C  
HETATM   19  C   UNL     1     -13.572  13.202  72.442  1.00  0.00    -0.667 C  
BRANCH  19  20
HETATM   20  C   UNL     1     -12.939  12.483  71.298  1.00  0.00    -0.301 C  
BRANCH  20  21
HETATM   21  C   UNL     1     -12.935  10.996  71.493  1.00  0.00    -0.553 C  
HETATM   22  C   UNL     1     -12.271  10.133  70.708  1.00  0.00    -0.434 C  
BRANCH  22  23
HETATM   23  C   UNL     1     -11.466  10.496  69.497  1.00  0.00    -0.339 C  
HETATM   24  C   UNL     1      -9.986  10.236  69.709  1.00  0.00    -0.222 C  
ENDBRANCH  22  23
ENDBRANCH  20  21
ENDBRANCH  19  20
ENDBRANCH  17  18
ENDBRANCH  16  17
ENDBRANCH  14  15
ENDBRANCH  13  14
ENDBRANCH  11  12
ENDBRANCH  10  11
ENDBRANCH   8   9
ENDBRANCH   7   8
ENDBRANCH   6   7
ENDBRANCH   4   6
ENDBRANCH   3   4
ENDBRANCH   2   3
TORSDOF 15
ENDMDL
MODEL       51
REMARK 921   NORMALIZED FREE ENERGY PREDICTED BY IDOCK:   -4.76 KCAL/MOL
REMARK 922        TOTAL FREE ENERGY PREDICTED BY IDOCK:  -11.48 KCAL/MOL
REMARK 923 INTER-LIGAND FREE ENERGY PREDICTED BY IDOCK:   -7.93 KCAL/MOL
REMARK 924 INTRA-LIGAND FREE ENERGY PREDICTED BY IDOCK:   -3.55 KCAL/MOL
REMARK 927      BINDING AFFINITY PREDICTED BY RF-SCORE:    0.00 PKD
ROOT
HETATM    1  C   UNL     1     -10.574  19.825  66.024  1.00  0.00    -0.573 C  
HETATM    2  C   UNL     1      -9.131  19.539  66.400  1.00  0.00    -0.370 C  
ENDROOT
BRANCH   2   3
HETATM    3  O   UNL     1      -8.815  18.224  65.927  1.00  0.00    -0.501 OA 
BRANCH   3   4
HETATM    4  C   UNL     1      -8.014  17.506  66.764  1.00  0.00    -0.241 C  
HETATM    5  O   UNL     1      -6.927  17.865  67.187  1.00  0.00    -0.173 OA 
BRANCH   4   6
HETATM    6  C   UNL     1      -8.737  16.249  67.162  1.00  0.00    -0.213 C  
BRANCH   6   7
HETATM    7  C   UNL     1      -9.082  15.419  65.921  1.00  0.00    -0.188 C  
BRANCH   7   8
HETATM    8  C   UNL     1     -10.115  14.344  66.223  1.00  0.00    -0.308 C  
BRANCH   8   9
HETATM    9  C   UNL     1     -11.526  14.825  65.990  1.00  0.00    -0.316 C  
HETATM   10  C   UNL     1     -12.587  14.036  65.754  1.00  0.00    -0.512 C  
BRANCH  10  11
HETATM   11  C   UNL     1     -12.500  12.562  65.527  1.00  0.00    -0.228 C  
BRANCH  11  12
HETATM   12  C   UNL     1     -12.777  12.116  64.124  1.00  0.00    -0.416 C  
HETATM   13  C   UNL     1     -11.811  11.881  63.217  1.00  0.00    -0.418 C  
BRANCH  13  14
HETATM   14  C   UNL     1     -10.313  11.991  63.389  1.00  0.00    -0.468 C  
BRANCH  14  15
HETATM   15  C   UNL     1      -9.577  10.680  63.488  1.00  0.00    -0.366 C  
HETATM   16  C   UNL     1      -9.187  10.075  64.620  1.00  0.00    -0.310 C  
BRANCH  16  17
HETATM   17  C   UNL     1      -9.259  10.688  65.980  1.00  0.00    -0.208 C  
BRANCH  17  18
HETATM   18  C   UNL     1     -10.192   9.874  66.836  1.00  0.00    -0.302 C  
HETATM   19  C   UNL     1     -10.783  10.322  67.954  1.00  0.00    -0.310 C  
BRANCH  19  20
HETATM   20  C   UNL     1     -10.581  11.684  68.529  1.00  0.00    -0.241 C  
BRANCH  20  21
HETATM   21  C   UNL     1     -11.816  12.206  69.200  1.00  0.00    -0.361 C  
HETATM   22  C   UNL     1     -11.949  13.456  69.671  1.00  0.00    -0.386 C  
BRANCH  22  23
HETATM   23  C   UNL     1     -10.890  14.516  69.644  1.00  0.00    -0.180 C  
HETATM   24  C   UNL     1     -11.490  15.905  69.526  1.00  0.00    -0.342 C  
ENDBRANCH  22  23
ENDBRANCH  20  21
ENDBRANCH  19  20
ENDBRANCH  17  18
ENDBRANCH  16  17
ENDBRANCH  14  15
ENDBRANCH  13  14
ENDBRANCH  11  12
ENDBRANCH  10  11
ENDBRANCH   8   9
ENDBRANCH   7   8
ENDBRANCH   6   7
ENDBRANCH   4   6
ENDBRANCH   3   4
ENDBRANCH   2   3
TORSDOF 15
ENDMDL
MODEL       52
REMARK 921   NORMALIZED FREE ENERGY PREDICTED BY IDOCK:   -4.76 KCAL/MOL
REMARK 922        TOTAL FREE ENERGY PREDICTED BY IDOCK:  -11.48 KCAL/MOL
REMARK 923 INTER-LIGAND FREE ENERGY PREDICTED BY IDOCK:   -9.26 KCAL/MOL
REMARK 924 INTRA-LIGAND FREE ENERGY PREDICTED BY IDOCK:   -2.23 KCAL/MOL
REMARK 927      BINDING AFFINITY PREDICTED BY RF-SCORE:    0.00 PKD
ROOT
HETATM    1  C   UNL     1      -5.268  18.030  65.707  1.00  0.00    -0.234 C  
HETATM    2  C   UNL     1      -6.570  18.767  65.449  1.00  0.00    -0.247 C  
ENDROOT
BRANCH   2   3
HETATM    3  O   UNL     1      -7.642  17.864  65.743  1.00  0.00    -0.531 OA 
BRANCH   3   4
HETATM    4  C   UNL     1      -8.222  18.060  66.960  1.00  0.00    -0.227 C  
HETATM    5  O   UNL     1      -8.234  19.112  67.579  1.00  0.00    -0.275 OA 
BRANCH   4   6
HETATM    6  C   UNL     1      -8.931  16.797  67.365  1.00  0.00    -0.211 C  
BRANCH   6   7
HETATM    7  C   UNL     1     -10.262  16.671  66.617  1.00  0.00    -0.304 C  
BRANCH   7   8
HETATM    8  C   UNL     1     -10.305  15.436  65.732  1.00  0.00    -0.381 C  
BRANCH   8   9
HETATM    9  C   UNL     1     -11.315  15.565  64.618  1.00  0.00    -0.363 C  
HETATM   10  C   UNL     1     -12.297  14.689  64.354  1.00  0.00    -0.420 C  
BRANCH  10  11
HETATM   11  C   UNL     1     -12.443  13.365  65.031  1.00  0.00    -0.479 C  
BRANCH  11  12
HETATM   12  C   UNL     1     -11.819  12.209  64.310  1.00  0.00    -0.460 C  
HETATM   13  C   UNL     1     -10.899  11.398  64.863  1.00  0.00    -0.323 C  
BRANCH  13  14
HETATM   14  C   UNL     1     -10.322  11.449  66.260  1.00  0.00    -0.287 C  
BRANCH  14  15
HETATM   15  C   UNL     1     -11.273  11.065  67.365  1.00  0.00    -0.355 C  
HETATM   16  C   UNL     1     -11.611  11.825  68.417  1.00  0.00    -0.380 C  
BRANCH  16  17
HETATM   17  C   UNL     1     -10.964  13.124  68.770  1.00  0.00    -0.298 C  
BRANCH  17  18
HETATM   18  C   UNL     1     -11.994  14.220  68.703  1.00  0.00    -0.348 C  
HETATM   19  C   UNL     1     -12.132  15.190  69.619  1.00  0.00    -0.336 C  
BRANCH  19  20
HETATM   20  C   UNL     1     -11.302  15.311  70.853  1.00  0.00    -0.380 C  
BRANCH  20  21
HETATM   21  C   UNL     1     -12.043  15.978  71.973  1.00  0.00    -0.606 C  
HETATM   22  C   UNL     1     -13.246  15.587  72.422  1.00  0.00    -0.546 C  
BRANCH  22  23
HETATM   23  C   UNL     1     -14.062  14.461  71.863  1.00  0.00    -0.596 C  
HETATM   24  C   UNL     1     -13.600  13.116  72.393  1.00  0.00    -0.667 C  
ENDBRANCH  22  23
ENDBRANCH  20  21
ENDBRANCH  19  20
ENDBRANCH  17  18
ENDBRANCH  16  17
ENDBRANCH  14  15
ENDBRANCH  13  14
ENDBRANCH  11  12
ENDBRANCH  10  11
ENDBRANCH   8   9
ENDBRANCH   7   8
ENDBRANCH   6   7
ENDBRANCH   4   6
ENDBRANCH   3   4
ENDBRANCH   2   3
TORSDOF 15
ENDMDL
MODEL       53
REMARK 921   NORMALIZED FREE ENERGY PREDICTED BY IDOCK:   -4.75 KCAL/MOL
REMARK 922        TOTAL FREE ENERGY PREDICTED BY IDOCK:  -11.46 KCAL/MOL
REMARK 923 INTER-LIGAND FREE ENERGY PREDICTED BY IDOCK:   -8.36 KCAL/MOL
REMARK 924 INTRA-LIGAND FREE ENERGY PREDICTED BY IDOCK:   -3.11 KCAL/MOL
REMARK 927      BINDING AFFINITY PREDICTED BY RF-SCORE:    0.00 PKD
ROOT
HETATM    1  C   UNL     1     -13.248   9.749  71.929  1.00  0.00    -0.545 C  
HETATM    2  C   UNL     1     -12.831  11.092  71.358  1.00  0.00    -0.439 C  
ENDROOT
BRANCH   2   3
HETATM    3  O   UNL     1     -13.500  12.109  72.113  1.00  0.00    -0.494 OA 
BRANCH   3   4
HETATM    4  C   UNL     1     -13.174  13.381  71.751  1.00  0.00    -0.407 C  
HETATM    5  O   UNL     1     -13.506  14.395  72.345  1.00  0.00    -0.386 OA 
BRANCH   4   6
HETATM    6  C   UNL     1     -12.251  13.323  70.565  1.00  0.00    -0.416 C  
BRANCH   6   7
HETATM    7  C   UNL     1     -11.987  14.733  70.028  1.00  0.00    -0.369 C  
BRANCH   7   8
HETATM    8  C   UNL     1     -11.656  14.725  68.544  1.00  0.00    -0.348 C  
BRANCH   8   9
HETATM    9  C   UNL     1     -10.559  15.702  68.197  1.00  0.00    -0.274 C  
HETATM   10  C   UNL     1      -9.959  15.805  67.000  1.00  0.00    -0.240 C  
BRANCH  10  11
HETATM   11  C   UNL     1     -10.178  14.853  65.869  1.00  0.00    -0.333 C  
BRANCH  11  12
HETATM   12  C   UNL     1     -11.279  15.228  64.925  1.00  0.00    -0.422 C  
HETATM   13  C   UNL     1     -12.129  14.336  64.385  1.00  0.00    -0.490 C  
BRANCH  13  14
HETATM   14  C   UNL     1     -12.182  12.840  64.600  1.00  0.00    -0.510 C  
BRANCH  14  15
HETATM   15  C   UNL     1     -11.587  12.009  63.492  1.00  0.00    -0.553 C  
HETATM   16  C   UNL     1     -10.523  11.198  63.596  1.00  0.00    -0.438 C  
BRANCH  16  17
HETATM   17  C   UNL     1      -9.632  11.113  64.791  1.00  0.00    -0.279 C  
BRANCH  17  18
HETATM   18  C   UNL     1     -10.069   9.955  65.648  1.00  0.00    -0.307 C  
HETATM   19  C   UNL     1     -10.338  10.038  66.959  1.00  0.00    -0.305 C  
BRANCH  19  20
HETATM   20  C   UNL     1     -10.218  11.286  67.768  1.00  0.00    -0.203 C  
BRANCH  20  21
HETATM   21  C   UNL     1      -9.054  11.242  68.712  1.00  0.00    -0.122 C  
HETATM   22  C   UNL     1      -7.920  11.941  68.547  1.00  0.00    -0.137 C  
BRANCH  22  23
HETATM   23  C   UNL     1      -7.610  12.839  67.389  1.00  0.00    -0.152 C  
HETATM   24  C   UNL     1      -6.846  14.075  67.827  1.00  0.00    -0.187 C  
ENDBRANCH  22  23
ENDBRANCH  20  21
ENDBRANCH  19  20
ENDBRANCH  17  18
ENDBRANCH  16  17
ENDBRANCH  14  15
ENDBRANCH  13  14
ENDBRANCH  11  12
ENDBRANCH  10  11
ENDBRANCH   8   9
ENDBRANCH   7   8
ENDBRANCH   6   7
ENDBRANCH   4   6
ENDBRANCH   3   4
ENDBRANCH   2   3
TORSDOF 15
ENDMDL
MODEL       54
REMARK 921   NORMALIZED FREE ENERGY PREDICTED BY IDOCK:   -4.75 KCAL/MOL
REMARK 922        TOTAL FREE ENERGY PREDICTED BY IDOCK:  -11.46 KCAL/MOL
REMARK 923 INTER-LIGAND FREE ENERGY PREDICTED BY IDOCK:   -7.86 KCAL/MOL
REMARK 924 INTRA-LIGAND FREE ENERGY PREDICTED BY IDOCK:   -3.60 KCAL/MOL
REMARK 927      BINDING AFFINITY PREDICTED BY RF-SCORE:    0.00 PKD
ROOT
HETATM    1  C   UNL     1     -10.823   8.516  72.147  1.00  0.00    -0.427 C  
HETATM    2  C   UNL     1     -10.984   9.586  71.082  1.00  0.00    -0.368 C  
ENDROOT
BRANCH   2   3
HETATM    3  O   UNL     1     -12.260  10.205  71.283  1.00  0.00    -0.340 OA 
BRANCH   3   4
HETATM    4  C   UNL     1     -12.362  11.459  70.759  1.00  0.00    -0.386 C  
HETATM    5  O   UNL     1     -12.902  12.411  71.299  1.00  0.00    -0.353 OA 
BRANCH   4   6
HETATM    6  C   UNL     1     -11.609  11.501  69.458  1.00  0.00    -0.400 C  
BRANCH   6   7
HETATM    7  C   UNL     1     -11.690  12.901  68.842  1.00  0.00    -0.370 C  
BRANCH   7   8
HETATM    8  C   UNL     1     -11.761  12.852  67.323  1.00  0.00    -0.431 C  
BRANCH   8   9
HETATM    9  C   UNL     1     -11.849  14.229  66.711  1.00  0.00    -0.449 C  
HETATM   10  C   UNL     1     -11.400  14.566  65.491  1.00  0.00    -0.335 C  
BRANCH  10  11
HETATM   11  C   UNL     1     -10.599  13.661  64.613  1.00  0.00    -0.446 C  
BRANCH  11  12
HETATM   12  C   UNL     1     -11.400  12.708  63.780  1.00  0.00    -0.529 C  
HETATM   13  C   UNL     1     -11.032  11.435  63.548  1.00  0.00    -0.406 C  
BRANCH  13  14
HETATM   14  C   UNL     1      -9.806  10.705  64.052  1.00  0.00    -0.399 C  
BRANCH  14  15
HETATM   15  C   UNL     1      -9.938  10.097  65.424  1.00  0.00    -0.377 C  
HETATM   16  C   UNL     1      -9.316  10.516  66.538  1.00  0.00    -0.189 C  
BRANCH  16  17
HETATM   17  C   UNL     1      -8.244  11.555  66.573  1.00  0.00    -0.129 C  
BRANCH  17  18
HETATM   18  C   UNL     1      -8.005  11.964  68.002  1.00  0.00    -0.147 C  
HETATM   19  C   UNL     1      -8.006  13.231  68.440  1.00  0.00    -0.132 C  
BRANCH  19  20
HETATM   20  C   UNL     1      -8.219  14.425  67.570  1.00  0.00    -0.201 C  
BRANCH  20  21
HETATM   21  C   UNL     1      -8.906  15.542  68.297  1.00  0.00    -0.179 C  
HETATM   22  C   UNL     1      -9.193  16.735  67.751  1.00  0.00    -0.222 C  
BRANCH  22  23
HETATM   23  C   UNL     1      -8.846  17.163  66.358  1.00  0.00    -0.288 C  
HETATM   24  C   UNL     1      -7.377  17.520  66.231  1.00  0.00    -0.355 C  
ENDBRANCH  22  23
ENDBRANCH  20  21
ENDBRANCH  19  20
ENDBRANCH  17  18
ENDBRANCH  16  17
ENDBRANCH  14  15
ENDBRANCH  13  14
ENDBRANCH  11  12
ENDBRANCH  10  11
ENDBRANCH   8   9
ENDBRANCH   7   8
ENDBRANCH   6   7
ENDBRANCH   4   6
ENDBRANCH   3   4
ENDBRANCH   2   3
TORSDOF 15
ENDMDL
MODEL       55
REMARK 921   NORMALIZED FREE ENERGY PREDICTED BY IDOCK:   -4.74 KCAL/MOL
REMARK 922        TOTAL FREE ENERGY PREDICTED BY IDOCK:  -11.45 KCAL/MOL
REMARK 923 INTER-LIGAND FREE ENERGY PREDICTED BY IDOCK:   -8.99 KCAL/MOL
REMARK 924 INTRA-LIGAND FREE ENERGY PREDICTED BY IDOCK:   -2.46 KCAL/MOL
REMARK 927      BINDING AFFINITY PREDICTED BY RF-SCORE:    0.00 PKD
ROOT
HETATM    1  C   UNL     1     -10.327  19.299  66.542  1.00  0.00    -0.538 C  
HETATM    2  C   UNL     1      -9.234  18.245  66.532  1.00  0.00    -0.292 C  
ENDROOT
BRANCH   2   3
HETATM    3  O   UNL     1      -9.434  17.405  67.675  1.00  0.00    -0.246 OA 
BRANCH   3   4
HETATM    4  C   UNL     1      -8.625  16.310  67.713  1.00  0.00    -0.171 C  
HETATM    5  O   UNL     1      -7.753  16.100  68.540  1.00  0.00    -0.154 OA 
BRANCH   4   6
HETATM    6  C   UNL     1      -9.055  15.356  66.632  1.00  0.00    -0.310 C  
BRANCH   6   7
HETATM    7  C   UNL     1     -10.288  14.566  67.080  1.00  0.00    -0.263 C  
BRANCH   7   8
HETATM    8  C   UNL     1     -11.534  14.966  66.305  1.00  0.00    -0.269 C  
BRANCH   8   9
HETATM    9  C   UNL     1     -12.521  13.830  66.183  1.00  0.00    -0.466 C  
HETATM   10  C   UNL     1     -12.527  12.908  65.207  1.00  0.00    -0.552 C  
BRANCH  10  11
HETATM   11  C   UNL     1     -11.649  12.959  64.000  1.00  0.00    -0.486 C  
BRANCH  11  12
HETATM   12  C   UNL     1     -11.082  11.642  63.569  1.00  0.00    -0.476 C  
HETATM   13  C   UNL     1     -10.197  10.939  64.299  1.00  0.00    -0.430 C  
BRANCH  13  14
HETATM   14  C   UNL     1      -9.612  11.283  65.651  1.00  0.00    -0.260 C  
BRANCH  14  15
HETATM   15  C   UNL     1      -9.684  10.187  66.683  1.00  0.00    -0.242 C  
HETATM   16  C   UNL     1     -10.209  10.293  67.913  1.00  0.00    -0.217 C  
BRANCH  16  17
HETATM   17  C   UNL     1     -10.655  11.573  68.540  1.00  0.00    -0.236 C  
BRANCH  17  18
HETATM   18  C   UNL     1     -11.685  11.270  69.595  1.00  0.00    -0.420 C  
HETATM   19  C   UNL     1     -12.215  12.182  70.423  1.00  0.00    -0.378 C  
BRANCH  19  20
HETATM   20  C   UNL     1     -11.842  13.627  70.440  1.00  0.00    -0.308 C  
BRANCH  20  21
HETATM   21  C   UNL     1     -13.023  14.516  70.690  1.00  0.00    -0.358 C  
HETATM   22  C   UNL     1     -13.053  15.489  71.614  1.00  0.00    -0.561 C  
BRANCH  22  23
HETATM   23  C   UNL     1     -11.946  15.823  72.566  1.00  0.00    -0.600 C  
HETATM   24  C   UNL     1     -12.278  15.395  73.984  1.00  0.00    -0.757 C  
ENDBRANCH  22  23
ENDBRANCH  20  21
ENDBRANCH  19  20
ENDBRANCH  17  18
ENDBRANCH  16  17
ENDBRANCH  14  15
ENDBRANCH  13  14
ENDBRANCH  11  12
ENDBRANCH  10  11
ENDBRANCH   8   9
ENDBRANCH   7   8
ENDBRANCH   6   7
ENDBRANCH   4   6
ENDBRANCH   3   4
ENDBRANCH   2   3
TORSDOF 15
ENDMDL
MODEL       56
REMARK 921   NORMALIZED FREE ENERGY PREDICTED BY IDOCK:   -4.74 KCAL/MOL
REMARK 922        TOTAL FREE ENERGY PREDICTED BY IDOCK:  -11.45 KCAL/MOL
REMARK 923 INTER-LIGAND FREE ENERGY PREDICTED BY IDOCK:   -8.71 KCAL/MOL
REMARK 924 INTRA-LIGAND FREE ENERGY PREDICTED BY IDOCK:   -2.73 KCAL/MOL
REMARK 927      BINDING AFFINITY PREDICTED BY RF-SCORE:    0.00 PKD
ROOT
HETATM    1  C   UNL     1      -9.372   9.453  70.374  1.00  0.00    -0.317 C  
HETATM    2  C   UNL     1      -9.876   8.694  71.589  1.00  0.00    -0.281 C  
ENDROOT
BRANCH   2   3
HETATM    3  O   UNL     1     -10.661   7.593  71.114  1.00  0.00    -0.220 OA 
BRANCH   3   4
HETATM    4  C   UNL     1     -11.998   7.719  71.344  1.00  0.00    -0.306 C  
HETATM    5  O   UNL     1     -12.870   7.014  70.863  1.00  0.00    -0.306 OA 
BRANCH   4   6
HETATM    6  C   UNL     1     -12.211   8.800  72.368  1.00  0.00    -0.396 C  
BRANCH   6   7
HETATM    7  C   UNL     1     -13.322   9.751  71.914  1.00  0.00    -0.530 C  
BRANCH   7   8
HETATM    8  C   UNL     1     -12.786  11.133  71.574  1.00  0.00    -0.542 C  
BRANCH   8   9
HETATM    9  C   UNL     1     -13.643  12.236  72.146  1.00  0.00    -0.348 C  
HETATM   10  C   UNL     1     -13.434  13.551  71.974  1.00  0.00    -0.584 C  
BRANCH  10  11
HETATM   11  C   UNL     1     -12.222  14.128  71.317  1.00  0.00    -0.419 C  
BRANCH  11  12
HETATM   12  C   UNL     1     -12.454  14.721  69.961  1.00  0.00    -0.327 C  
HETATM   13  C   UNL     1     -11.808  14.314  68.853  1.00  0.00    -0.372 C  
BRANCH  13  14
HETATM   14  C   UNL     1     -10.771  13.222  68.719  1.00  0.00    -0.253 C  
BRANCH  14  15
HETATM   15  C   UNL     1     -11.312  11.857  68.380  1.00  0.00    -0.331 C  
HETATM   16  C   UNL     1     -11.163  11.214  67.212  1.00  0.00    -0.347 C  
BRANCH  16  17
HETATM   17  C   UNL     1     -10.581  11.820  65.977  1.00  0.00    -0.302 C  
BRANCH  17  18
HETATM   18  C   UNL     1     -11.568  11.680  64.849  1.00  0.00    -0.155 C  
HETATM   19  C   UNL     1     -12.444  12.628  64.484  1.00  0.00    -0.525 C  
BRANCH  19  20
HETATM   20  C   UNL     1     -12.586  13.951  65.159  1.00  0.00    -0.466 C  
BRANCH  20  21
HETATM   21  C   UNL     1     -12.097  15.081  64.304  1.00  0.00    -0.323 C  
HETATM   22  C   UNL     1     -11.080  15.892  64.633  1.00  0.00    -0.368 C  
BRANCH  22  23
HETATM   23  C   UNL     1     -10.298  15.837  65.910  1.00  0.00    -0.372 C  
HETATM   24  C   UNL     1     -10.184  17.205  66.558  1.00  0.00    -0.322 C  
ENDBRANCH  22  23
ENDBRANCH  20  21
ENDBRANCH  19  20
ENDBRANCH  17  18
ENDBRANCH  16  17
ENDBRANCH  14  15
ENDBRANCH  13  14
ENDBRANCH  11  12
ENDBRANCH  10  11
ENDBRANCH   8   9
ENDBRANCH   7   8
ENDBRANCH   6   7
ENDBRANCH   4   6
ENDBRANCH   3   4
ENDBRANCH   2   3
TORSDOF 15
ENDMDL
MODEL       57
REMARK 921   NORMALIZED FREE ENERGY PREDICTED BY IDOCK:   -4.74 KCAL/MOL
REMARK 922        TOTAL FREE ENERGY PREDICTED BY IDOCK:  -11.44 KCAL/MOL
REMARK 923 INTER-LIGAND FREE ENERGY PREDICTED BY IDOCK:   -8.45 KCAL/MOL
REMARK 924 INTRA-LIGAND FREE ENERGY PREDICTED BY IDOCK:   -3.00 KCAL/MOL
REMARK 927      BINDING AFFINITY PREDICTED BY RF-SCORE:    0.00 PKD
ROOT
HETATM    1  C   UNL     1     -14.189  14.954  71.587  1.00  0.00    -0.633 C  
HETATM    2  C   UNL     1     -12.822  15.551  71.306  1.00  0.00    -0.475 C  
ENDROOT
BRANCH   2   3
HETATM    3  O   UNL     1     -12.590  15.454  69.896  1.00  0.00    -0.291 OA 
BRANCH   3   4
HETATM    4  C   UNL     1     -11.286  15.258  69.555  1.00  0.00    -0.288 C  
HETATM    5  O   UNL     1     -10.336  15.885  69.994  1.00  0.00    -0.289 OA 
BRANCH   4   6
HETATM    6  C   UNL     1     -11.203  14.075  68.630  1.00  0.00    -0.294 C  
BRANCH   6   7
HETATM    7  C   UNL     1     -11.969  14.358  67.334  1.00  0.00    -0.407 C  
BRANCH   7   8
HETATM    8  C   UNL     1     -12.134  13.107  66.484  1.00  0.00    -0.423 C  
BRANCH   8   9
HETATM    9  C   UNL     1     -10.913  12.821  65.644  1.00  0.00    -0.302 C  
HETATM   10  C   UNL     1     -10.173  11.703  65.705  1.00  0.00    -0.281 C  
BRANCH  10  11
HETATM   11  C   UNL     1     -10.354  10.633  66.732  1.00  0.00    -0.299 C  
BRANCH  11  12
HETATM   12  C   UNL     1      -9.506  10.776  67.958  1.00  0.00    -0.166 C  
HETATM   13  C   UNL     1      -9.961  10.555  69.205  1.00  0.00    -0.236 C  
BRANCH  13  14
HETATM   14  C   UNL     1     -11.345  10.123  69.637  1.00  0.00    -0.289 C  
BRANCH  14  15
HETATM   15  C   UNL     1     -12.159  11.178  70.340  1.00  0.00    -0.475 C  
HETATM   16  C   UNL     1     -12.827  11.023  71.493  1.00  0.00    -0.555 C  
BRANCH  16  17
HETATM   17  C   UNL     1     -13.026   9.718  72.192  1.00  0.00    -0.483 C  
BRANCH  17  18
HETATM   18  C   UNL     1     -14.103   8.941  71.485  1.00  0.00    -0.344 C  
HETATM   19  C   UNL     1     -14.068   7.618  71.268  1.00  0.00    -0.396 C  
BRANCH  19  20
HETATM   20  C   UNL     1     -12.943   6.725  71.671  1.00  0.00    -0.292 C  
BRANCH  20  21
HETATM   21  C   UNL     1     -11.863   6.667  70.634  1.00  0.00    -0.443 C  
HETATM   22  C   UNL     1     -10.561   6.879  70.885  1.00  0.00    -0.243 C  
BRANCH  22  23
HETATM   23  C   UNL     1      -9.977   7.245  72.215  1.00  0.00    -0.199 C  
HETATM   24  C   UNL     1      -9.308   8.607  72.178  1.00  0.00    -0.343 C  
ENDBRANCH  22  23
ENDBRANCH  20  21
ENDBRANCH  19  20
ENDBRANCH  17  18
ENDBRANCH  16  17
ENDBRANCH  14  15
ENDBRANCH  13  14
ENDBRANCH  11  12
ENDBRANCH  10  11
ENDBRANCH   8   9
ENDBRANCH   7   8
ENDBRANCH   6   7
ENDBRANCH   4   6
ENDBRANCH   3   4
ENDBRANCH   2   3
TORSDOF 15
ENDMDL
MODEL       58
REMARK 921   NORMALIZED FREE ENERGY PREDICTED BY IDOCK:   -4.74 KCAL/MOL
REMARK 922        TOTAL FREE ENERGY PREDICTED BY IDOCK:  -11.44 KCAL/MOL
REMARK 923 INTER-LIGAND FREE ENERGY PREDICTED BY IDOCK:   -8.70 KCAL/MOL
REMARK 924 INTRA-LIGAND FREE ENERGY PREDICTED BY IDOCK:   -2.74 KCAL/MOL
REMARK 927      BINDING AFFINITY PREDICTED BY RF-SCORE:    0.00 PKD
ROOT
HETATM    1  C   UNL     1     -10.366  18.616  66.742  1.00  0.00    -0.449 C  
HETATM    2  C   UNL     1     -10.534  17.429  67.673  1.00  0.00    -0.368 C  
ENDROOT
BRANCH   2   3
HETATM    3  O   UNL     1     -10.992  16.324  66.885  1.00  0.00    -0.213 OA 
BRANCH   3   4
HETATM    4  C   UNL     1     -11.342  15.225  67.610  1.00  0.00    -0.312 C  
HETATM    5  O   UNL     1     -11.767  15.237  68.754  1.00  0.00    -0.340 OA 
BRANCH   4   6
HETATM    6  C   UNL     1     -11.218  14.009  66.734  1.00  0.00    -0.323 C  
BRANCH   6   7
HETATM    7  C   UNL     1     -12.399  13.932  65.761  1.00  0.00    -0.518 C  
BRANCH   7   8
HETATM    8  C   UNL     1     -11.947  13.976  64.310  1.00  0.00    -0.463 C  
BRANCH   8   9
HETATM    9  C   UNL     1     -12.232  12.684  63.583  1.00  0.00    -0.624 C  
HETATM   10  C   UNL     1     -11.439  11.602  63.582  1.00  0.00    -0.458 C  
BRANCH  10  11
HETATM   11  C   UNL     1     -10.068  11.567  64.175  1.00  0.00    -0.354 C  
BRANCH  11  12
HETATM   12  C   UNL     1      -9.534  10.198  64.465  1.00  0.00    -0.364 C  
HETATM   13  C   UNL     1      -9.404   9.700  65.708  1.00  0.00    -0.286 C  
BRANCH  13  14
HETATM   14  C   UNL     1      -9.756  10.357  67.024  1.00  0.00    -0.216 C  
BRANCH  14  15
HETATM   15  C   UNL     1     -11.229  10.428  67.335  1.00  0.00    -0.205 C  
HETATM   16  C   UNL     1     -11.773  10.770  68.513  1.00  0.00    -0.259 C  
BRANCH  16  17
HETATM   17  C   UNL     1     -11.006  10.969  69.778  1.00  0.00    -0.258 C  
BRANCH  17  18
HETATM   18  C   UNL     1     -11.854  10.529  70.941  1.00  0.00    -0.455 C  
HETATM   19  C   UNL     1     -11.745   9.341  71.554  1.00  0.00    -0.450 C  
BRANCH  19  20
HETATM   20  C   UNL     1     -10.784   8.271  71.158  1.00  0.00    -0.270 C  
BRANCH  20  21
HETATM   21  C   UNL     1     -11.479   7.018  70.716  1.00  0.00    -0.360 C  
HETATM   22  C   UNL     1     -11.278   6.420  69.532  1.00  0.00    -0.477 C  
BRANCH  22  23
HETATM   23  C   UNL     1     -10.370   6.914  68.447  1.00  0.00    -0.213 C  
HETATM   24  C   UNL     1     -10.964   6.682  67.070  1.00  0.00    -0.463 C  
ENDBRANCH  22  23
ENDBRANCH  20  21
ENDBRANCH  19  20
ENDBRANCH  17  18
ENDBRANCH  16  17
ENDBRANCH  14  15
ENDBRANCH  13  14
ENDBRANCH  11  12
ENDBRANCH  10  11
ENDBRANCH   8   9
ENDBRANCH   7   8
ENDBRANCH   6   7
ENDBRANCH   4   6
ENDBRANCH   3   4
ENDBRANCH   2   3
TORSDOF 15
ENDMDL
MODEL       59
REMARK 921   NORMALIZED FREE ENERGY PREDICTED BY IDOCK:   -4.73 KCAL/MOL
REMARK 922        TOTAL FREE ENERGY PREDICTED BY IDOCK:  -11.42 KCAL/MOL
REMARK 923 INTER-LIGAND FREE ENERGY PREDICTED BY IDOCK:   -8.53 KCAL/MOL
REMARK 924 INTRA-LIGAND FREE ENERGY PREDICTED BY IDOCK:   -2.89 KCAL/MOL
REMARK 927      BINDING AFFINITY PREDICTED BY RF-SCORE:    0.00 PKD
ROOT
HETATM    1  C   UNL     1      -9.212  15.372  66.268  1.00  0.00    -0.354 C  
HETATM    2  C   UNL     1     -10.431  15.783  65.463  1.00  0.00    -0.403 C  
ENDROOT
BRANCH   2   3
HETATM    3  O   UNL     1     -10.752  14.700  64.582  1.00  0.00    -0.393 OA 
BRANCH   3   4
HETATM    4  C   UNL     1     -12.087  14.455  64.459  1.00  0.00    -0.481 C  
HETATM    5  O   UNL     1     -12.783  14.779  63.511  1.00  0.00    -0.593 OA 
BRANCH   4   6
HETATM    6  C   UNL     1     -12.535  13.628  65.634  1.00  0.00    -0.540 C  
BRANCH   6   7
HETATM    7  C   UNL     1     -11.784  12.294  65.662  1.00  0.00    -0.440 C  
BRANCH   7   8
HETATM    8  C   UNL     1     -11.772  11.676  67.052  1.00  0.00    -0.176 C  
BRANCH   8   9
HETATM    9  C   UNL     1     -11.747  12.720  68.142  1.00  0.00    -0.392 C  
HETATM   10  C   UNL     1     -11.733  12.466  69.460  1.00  0.00    -0.388 C  
BRANCH  10  11
HETATM   11  C   UNL     1     -11.901  11.105  70.053  1.00  0.00    -0.441 C  
BRANCH  11  12
HETATM   12  C   UNL     1     -12.871  11.022  71.192  1.00  0.00    -0.491 C  
HETATM   13  C   UNL     1     -13.112   9.891  71.879  1.00  0.00    -0.559 C  
BRANCH  13  14
HETATM   14  C   UNL     1     -12.492   8.525  71.688  1.00  0.00    -0.370 C  
BRANCH  14  15
HETATM   15  C   UNL     1     -11.453   8.140  72.710  1.00  0.00    -0.397 C  
HETATM   16  C   UNL     1     -10.125   8.275  72.576  1.00  0.00    -0.376 C  
BRANCH  16  17
HETATM   17  C   UNL     1      -9.433   8.669  71.312  1.00  0.00    -0.289 C  
BRANCH  17  18
HETATM   18  C   UNL     1      -9.230   7.444  70.461  1.00  0.00    -0.157 C  
HETATM   19  C   UNL     1      -9.668   7.314  69.200  1.00  0.00    -0.160 C  
BRANCH  19  20
HETATM   20  C   UNL     1     -10.444   8.354  68.464  1.00  0.00    -0.201 C  
BRANCH  20  21
HETATM   21  C   UNL     1     -10.347   8.189  66.977  1.00  0.00    -0.403 C  
HETATM   22  C   UNL     1      -9.464   8.839  66.201  1.00  0.00    -0.315 C  
BRANCH  22  23
HETATM   23  C   UNL     1      -8.468   9.853  66.673  1.00  0.00    -0.126 C  
HETATM   24  C   UNL     1      -7.125   9.219  66.984  1.00  0.00    -0.086 C  
ENDBRANCH  22  23
ENDBRANCH  20  21
ENDBRANCH  19  20
ENDBRANCH  17  18
ENDBRANCH  16  17
ENDBRANCH  14  15
ENDBRANCH  13  14
ENDBRANCH  11  12
ENDBRANCH  10  11
ENDBRANCH   8   9
ENDBRANCH   7   8
ENDBRANCH   6   7
ENDBRANCH   4   6
ENDBRANCH   3   4
ENDBRANCH   2   3
TORSDOF 15
ENDMDL
MODEL       60
REMARK 921   NORMALIZED FREE ENERGY PREDICTED BY IDOCK:   -4.73 KCAL/MOL
REMARK 922        TOTAL FREE ENERGY PREDICTED BY IDOCK:  -11.42 KCAL/MOL
REMARK 923 INTER-LIGAND FREE ENERGY PREDICTED BY IDOCK:   -8.83 KCAL/MOL
REMARK 924 INTRA-LIGAND FREE ENERGY PREDICTED BY IDOCK:   -2.59 KCAL/MOL
REMARK 927      BINDING AFFINITY PREDICTED BY RF-SCORE:    0.00 PKD
ROOT
HETATM    1  C   UNL     1     -10.895   6.912  68.582  1.00  0.00    -0.236 C  
HETATM    2  C   UNL     1     -11.138   6.113  69.849  1.00  0.00    -0.410 C  
ENDROOT
BRANCH   2   3
HETATM    3  O   UNL     1     -10.992   7.007  70.958  1.00  0.00    -0.240 OA 
BRANCH   3   4
HETATM    4  C   UNL     1     -12.154   7.590  71.365  1.00  0.00    -0.327 C  
HETATM    5  O   UNL     1     -13.269   7.107  71.248  1.00  0.00    -0.377 OA 
BRANCH   4   6
HETATM    6  C   UNL     1     -11.826   8.874  72.076  1.00  0.00    -0.438 C  
BRANCH   6   7
HETATM    7  C   UNL     1     -12.332  10.073  71.267  1.00  0.00    -0.496 C  
BRANCH   7   8
HETATM    8  C   UNL     1     -11.334  10.506  70.204  1.00  0.00    -0.400 C  
BRANCH   8   9
HETATM    9  C   UNL     1     -11.995  11.244  69.066  1.00  0.00    -0.393 C  
HETATM   10  C   UNL     1     -11.470  11.416  67.843  1.00  0.00    -0.361 C  
BRANCH  10  11
HETATM   11  C   UNL     1     -10.074  11.036  67.469  1.00  0.00    -0.208 C  
BRANCH  11  12
HETATM   12  C   UNL     1      -9.961   9.887  66.514  1.00  0.00    -0.291 C  
HETATM   13  C   UNL     1      -9.882  10.037  65.179  1.00  0.00    -0.388 C  
BRANCH  13  14
HETATM   14  C   UNL     1      -9.875  11.318  64.377  1.00  0.00    -0.316 C  
BRANCH  14  15
HETATM   15  C   UNL     1     -11.017  11.477  63.405  1.00  0.00    -0.397 C  
HETATM   16  C   UNL     1     -12.060  12.310  63.540  1.00  0.00    -0.649 C  
BRANCH  16  17
HETATM   17  C   UNL     1     -12.362  13.102  64.770  1.00  0.00    -0.477 C  
BRANCH  17  18
HETATM   18  C   UNL     1     -11.944  14.531  64.548  1.00  0.00    -0.482 C  
HETATM   19  C   UNL     1     -11.223  15.254  65.416  1.00  0.00    -0.307 C  
BRANCH  19  20
HETATM   20  C   UNL     1     -10.751  14.759  66.742  1.00  0.00    -0.309 C  
BRANCH  20  21
HETATM   21  C   UNL     1     -11.690  15.124  67.853  1.00  0.00    -0.275 C  
HETATM   22  C   UNL     1     -11.367  15.918  68.885  1.00  0.00    -0.377 C  
BRANCH  22  23
HETATM   23  C   UNL     1     -10.022  16.534  69.125  1.00  0.00    -0.275 C  
HETATM   24  C   UNL     1      -9.985  17.987  68.687  1.00  0.00    -0.396 C  
ENDBRANCH  22  23
ENDBRANCH  20  21
ENDBRANCH  19  20
ENDBRANCH  17  18
ENDBRANCH  16  17
ENDBRANCH  14  15
ENDBRANCH  13  14
ENDBRANCH  11  12
ENDBRANCH  10  11
ENDBRANCH   8   9
ENDBRANCH   7   8
ENDBRANCH   6   7
ENDBRANCH   4   6
ENDBRANCH   3   4
ENDBRANCH   2   3
TORSDOF 15
ENDMDL
MODEL       61
REMARK 921   NORMALIZED FREE ENERGY PREDICTED BY IDOCK:   -4.72 KCAL/MOL
REMARK 922        TOTAL FREE ENERGY PREDICTED BY IDOCK:  -11.41 KCAL/MOL
REMARK 923 INTER-LIGAND FREE ENERGY PREDICTED BY IDOCK:   -8.10 KCAL/MOL
REMARK 924 INTRA-LIGAND FREE ENERGY PREDICTED BY IDOCK:   -3.31 KCAL/MOL
REMARK 927      BINDING AFFINITY PREDICTED BY RF-SCORE:    0.00 PKD
ROOT
HETATM    1  C   UNL     1     -11.184   6.255  69.178  1.00  0.00    -0.439 C  
HETATM    2  C   UNL     1     -11.232   6.313  70.694  1.00  0.00    -0.337 C  
ENDROOT
BRANCH   2   3
HETATM    3  O   UNL     1     -12.517   6.826  71.066  1.00  0.00    -0.367 OA 
BRANCH   3   4
HETATM    4  C   UNL     1     -12.473   7.842  71.973  1.00  0.00    -0.304 C  
HETATM    5  O   UNL     1     -11.637   7.973  72.852  1.00  0.00    -0.397 OA 
BRANCH   4   6
HETATM    6  C   UNL     1     -13.561   8.828  71.645  1.00  0.00    -0.425 C  
BRANCH   6   7
HETATM    7  C   UNL     1     -12.979  10.239  71.518  1.00  0.00    -0.556 C  
BRANCH   7   8
HETATM    8  C   UNL     1     -12.406  10.497  70.133  1.00  0.00    -0.339 C  
BRANCH   8   9
HETATM    9  C   UNL     1     -10.910  10.307  70.088  1.00  0.00    -0.362 C  
HETATM   10  C   UNL     1     -10.189  10.075  68.979  1.00  0.00    -0.216 C  
BRANCH  10  11
HETATM   11  C   UNL     1     -10.783   9.811  67.634  1.00  0.00    -0.334 C  
BRANCH  11  12
HETATM   12  C   UNL     1      -9.987   8.896  66.754  1.00  0.00    -0.338 C  
HETATM   13  C   UNL     1      -9.504   9.257  65.552  1.00  0.00    -0.309 C  
BRANCH  13  14
HETATM   14  C   UNL     1      -9.630  10.592  64.852  1.00  0.00    -0.334 C  
BRANCH  14  15
HETATM   15  C   UNL     1     -10.837  10.742  63.961  1.00  0.00     0.124 C  
HETATM   16  C   UNL     1     -11.390  11.899  63.568  1.00  0.00    -0.516 C  
BRANCH  16  17
HETATM   17  C   UNL     1     -11.009  13.245  64.090  1.00  0.00    -0.380 C  
BRANCH  17  18
HETATM   18  C   UNL     1     -12.207  13.872  64.752  1.00  0.00    -0.441 C  
HETATM   19  C   UNL     1     -12.573  13.655  66.024  1.00  0.00    -0.441 C  
BRANCH  19  20
HETATM   20  C   UNL     1     -11.861  12.740  66.963  1.00  0.00    -0.428 C  
BRANCH  20  21
HETATM   21  C   UNL     1     -11.198  13.480  68.085  1.00  0.00    -0.302 C  
HETATM   22  C   UNL     1      -9.913  13.866  68.080  1.00  0.00    -0.240 C  
BRANCH  22  23
HETATM   23  C   UNL     1      -8.924  13.593  66.988  1.00  0.00    -0.244 C  
HETATM   24  C   UNL     1      -7.869  12.592  67.424  1.00  0.00    -0.175 C  
ENDBRANCH  22  23
ENDBRANCH  20  21
ENDBRANCH  19  20
ENDBRANCH  17  18
ENDBRANCH  16  17
ENDBRANCH  14  15
ENDBRANCH  13  14
ENDBRANCH  11  12
ENDBRANCH  10  11
ENDBRANCH   8   9
ENDBRANCH   7   8
ENDBRANCH   6   7
ENDBRANCH   4   6
ENDBRANCH   3   4
ENDBRANCH   2   3
TORSDOF 15
ENDMDL
MODEL       62
REMARK 921   NORMALIZED FREE ENERGY PREDICTED BY IDOCK:   -4.71 KCAL/MOL
REMARK 922        TOTAL FREE ENERGY PREDICTED BY IDOCK:  -11.40 KCAL/MOL
REMARK 923 INTER-LIGAND FREE ENERGY PREDICTED BY IDOCK:   -8.90 KCAL/MOL
REMARK 924 INTRA-LIGAND FREE ENERGY PREDICTED BY IDOCK:   -2.50 KCAL/MOL
REMARK 927      BINDING AFFINITY PREDICTED BY RF-SCORE:    0.00 PKD
ROOT
HETATM    1  C   UNL     1     -10.755   5.204  73.963  1.00  0.00    -0.320 C  
HETATM    2  C   UNL     1     -11.410   5.604  72.653  1.00  0.00    -0.305 C  
ENDROOT
BRANCH   2   3
HETATM    3  O   UNL     1     -11.515   7.032  72.641  1.00  0.00    -0.267 OA 
BRANCH   3   4
HETATM    4  C   UNL     1     -12.120   7.540  71.531  1.00  0.00    -0.316 C  
HETATM    5  O   UNL     1     -13.310   7.789  71.423  1.00  0.00    -0.321 OA 
BRANCH   4   6
HETATM    6  C   UNL     1     -11.065   7.840  70.502  1.00  0.00    -0.265 C  
BRANCH   6   7
HETATM    7  C   UNL     1     -10.122   8.935  71.011  1.00  0.00    -0.324 C  
BRANCH   7   8
HETATM    8  C   UNL     1      -9.866  10.002  69.959  1.00  0.00    -0.247 C  
BRANCH   8   9
HETATM    9  C   UNL     1     -11.045  10.191  69.036  1.00  0.00    -0.249 C  
HETATM   10  C   UNL     1     -11.984  11.143  69.159  1.00  0.00    -0.413 C  
BRANCH  10  11
HETATM   11  C   UNL     1     -12.090  12.069  70.326  1.00  0.00    -0.395 C  
BRANCH  11  12
HETATM   12  C   UNL     1     -12.927  11.567  71.462  1.00  0.00    -0.485 C  
HETATM   13  C   UNL     1     -13.655  12.371  72.259  1.00  0.00    -0.371 C  
BRANCH  13  14
HETATM   14  C   UNL     1     -13.802  13.875  72.194  1.00  0.00    -0.636 C  
BRANCH  14  15
HETATM   15  C   UNL     1     -12.742  14.659  72.924  1.00  0.00    -0.506 C  
HETATM   16  C   UNL     1     -11.963  15.616  72.397  1.00  0.00    -0.569 C  
BRANCH  16  17
HETATM   17  C   UNL     1     -11.890  15.949  70.943  1.00  0.00    -0.453 C  
BRANCH  17  18
HETATM   18  C   UNL     1     -10.563  15.491  70.401  1.00  0.00    -0.294 C  
HETATM   19  C   UNL     1     -10.358  15.078  69.141  1.00  0.00    -0.249 C  
BRANCH  19  20
HETATM   20  C   UNL     1     -11.422  14.988  68.098  1.00  0.00    -0.355 C  
BRANCH  20  21
HETATM   21  C   UNL     1     -10.899  15.287  66.726  1.00  0.00    -0.312 C  
HETATM   22  C   UNL     1     -11.277  14.636  65.615  1.00  0.00    -0.342 C  
BRANCH  22  23
HETATM   23  C   UNL     1     -12.240  13.489  65.560  1.00  0.00    -0.490 C  
HETATM   24  C   UNL     1     -11.543  12.160  65.791  1.00  0.00    -0.414 C  
ENDBRANCH  22  23
ENDBRANCH  20  21
ENDBRANCH  19  20
ENDBRANCH  17  18
ENDBRANCH  16  17
ENDBRANCH  14  15
ENDBRANCH  13  14
ENDBRANCH  11  12
ENDBRANCH  10  11
ENDBRANCH   8   9
ENDBRANCH   7   8
ENDBRANCH   6   7
ENDBRANCH   4   6
ENDBRANCH   3   4
ENDBRANCH   2   3
TORSDOF 15
ENDMDL
MODEL       63
REMARK 921   NORMALIZED FREE ENERGY PREDICTED BY IDOCK:   -4.71 KCAL/MOL
REMARK 922        TOTAL FREE ENERGY PREDICTED BY IDOCK:  -11.39 KCAL/MOL
REMARK 923 INTER-LIGAND FREE ENERGY PREDICTED BY IDOCK:   -8.82 KCAL/MOL
REMARK 924 INTRA-LIGAND FREE ENERGY PREDICTED BY IDOCK:   -2.57 KCAL/MOL
REMARK 927      BINDING AFFINITY PREDICTED BY RF-SCORE:    0.00 PKD
ROOT
HETATM    1  C   UNL     1     -11.380  15.635  70.196  1.00  0.00    -0.354 C  
HETATM    2  C   UNL     1     -11.706  16.000  71.633  1.00  0.00    -0.506 C  
ENDROOT
BRANCH   2   3
HETATM    3  O   UNL     1     -12.042  14.789  72.320  1.00  0.00    -0.332 OA 
BRANCH   3   4
HETATM    4  C   UNL     1     -13.309  14.345  72.086  1.00  0.00    -0.398 C  
HETATM    5  O   UNL     1     -14.265  15.047  71.799  1.00  0.00    -0.449 OA 
BRANCH   4   6
HETATM    6  C   UNL     1     -13.310  12.842  72.138  1.00  0.00    -0.593 C  
BRANCH   6   7
HETATM    7  C   UNL     1     -12.549  12.268  70.939  1.00  0.00    -0.334 C  
BRANCH   7   8
HETATM    8  C   UNL     1     -12.895  10.808  70.690  1.00  0.00    -0.377 C  
BRANCH   8   9
HETATM    9  C   UNL     1     -11.987   9.868  71.445  1.00  0.00    -0.489 C  
HETATM   10  C   UNL     1     -10.898   9.267  70.940  1.00  0.00    -0.365 C  
BRANCH  10  11
HETATM   11  C   UNL     1     -10.507   9.314  69.499  1.00  0.00    -0.229 C  
BRANCH  11  12
HETATM   12  C   UNL     1      -9.616  10.456  69.118  1.00  0.00    -0.226 C  
HETATM   13  C   UNL     1      -9.785  11.189  68.003  1.00  0.00    -0.183 C  
BRANCH  13  14
HETATM   14  C   UNL     1     -10.855  11.053  66.943  1.00  0.00    -0.324 C  
BRANCH  14  15
HETATM   15  C   UNL     1     -10.348  10.905  65.531  1.00  0.00    -0.316 C  
HETATM   16  C   UNL     1     -10.910  11.428  64.430  1.00  0.00    -0.397 C  
BRANCH  16  17
HETATM   17  C   UNL     1     -12.242  12.103  64.394  1.00  0.00    -0.435 C  
BRANCH  17  18
HETATM   18  C   UNL     1     -12.090  13.454  63.748  1.00  0.00    -0.516 C  
HETATM   19  C   UNL     1     -11.835  14.590  64.414  1.00  0.00    -0.419 C  
BRANCH  19  20
HETATM   20  C   UNL     1     -11.692  14.687  65.896  1.00  0.00    -0.301 C  
BRANCH  20  21
HETATM   21  C   UNL     1     -10.260  14.607  66.335  1.00  0.00    -0.296 C  
HETATM   22  C   UNL     1      -9.462  15.672  66.504  1.00  0.00    -0.300 C  
BRANCH  22  23
HETATM   23  C   UNL     1      -9.843  17.099  66.248  1.00  0.00    -0.306 C  
HETATM   24  C   UNL     1     -10.435  17.751  67.484  1.00  0.00    -0.376 C  
ENDBRANCH  22  23
ENDBRANCH  20  21
ENDBRANCH  19  20
ENDBRANCH  17  18
ENDBRANCH  16  17
ENDBRANCH  14  15
ENDBRANCH  13  14
ENDBRANCH  11  12
ENDBRANCH  10  11
ENDBRANCH   8   9
ENDBRANCH   7   8
ENDBRANCH   6   7
ENDBRANCH   4   6
ENDBRANCH   3   4
ENDBRANCH   2   3
TORSDOF 15
ENDMDL
MODEL       64
REMARK 921   NORMALIZED FREE ENERGY PREDICTED BY IDOCK:   -4.71 KCAL/MOL
REMARK 922        TOTAL FREE ENERGY PREDICTED BY IDOCK:  -11.38 KCAL/MOL
REMARK 923 INTER-LIGAND FREE ENERGY PREDICTED BY IDOCK:   -7.89 KCAL/MOL
REMARK 924 INTRA-LIGAND FREE ENERGY PREDICTED BY IDOCK:   -3.49 KCAL/MOL
REMARK 927      BINDING AFFINITY PREDICTED BY RF-SCORE:    0.00 PKD
ROOT
HETATM    1  C   UNL     1     -13.276  10.705  71.971  1.00  0.00    -0.473 C  
HETATM    2  C   UNL     1     -13.430   9.195  71.968  1.00  0.00    -0.448 C  
ENDROOT
BRANCH   2   3
HETATM    3  O   UNL     1     -12.190   8.634  72.413  1.00  0.00    -0.374 OA 
BRANCH   3   4
HETATM    4  C   UNL     1     -11.873   7.443  71.832  1.00  0.00    -0.297 C  
HETATM    5  O   UNL     1     -12.160   6.341  72.271  1.00  0.00    -0.304 OA 
BRANCH   4   6
HETATM    6  C   UNL     1     -11.207   7.714  70.511  1.00  0.00    -0.275 C  
BRANCH   6   7
HETATM    7  C   UNL     1      -9.937   8.544  70.717  1.00  0.00    -0.230 C  
BRANCH   7   8
HETATM    8  C   UNL     1      -9.973   9.847  69.932  1.00  0.00    -0.292 C  
BRANCH   8   9
HETATM    9  C   UNL     1     -11.188   9.945  69.042  1.00  0.00    -0.131 C  
HETATM   10  C   UNL     1     -11.748  11.088  68.615  1.00  0.00    -0.367 C  
BRANCH  10  11
HETATM   11  C   UNL     1     -11.346  12.446  69.089  1.00  0.00    -0.327 C  
BRANCH  11  12
HETATM   12  C   UNL     1     -10.366  13.162  68.212  1.00  0.00    -0.256 C  
HETATM   13  C   UNL     1     -10.696  13.726  67.036  1.00  0.00    -0.283 C  
BRANCH  13  14
HETATM   14  C   UNL     1     -12.052  13.780  66.368  1.00  0.00    -0.483 C  
BRANCH  14  15
HETATM   15  C   UNL     1     -12.054  14.301  64.954  1.00  0.00    -0.442 C  
HETATM   16  C   UNL     1     -12.156  13.561  63.839  1.00  0.00    -0.493 C  
BRANCH  16  17
HETATM   17  C   UNL     1     -12.108  12.068  63.802  1.00  0.00    -0.599 C  
BRANCH  17  18
HETATM   18  C   UNL     1     -10.740  11.633  63.350  1.00  0.00    -0.460 C  
HETATM   19  C   UNL     1      -9.924  10.836  64.056  1.00  0.00    -0.403 C  
BRANCH  19  20
HETATM   20  C   UNL     1     -10.242  10.285  65.405  1.00  0.00    -0.312 C  
BRANCH  20  21
HETATM   21  C   UNL     1      -9.013  10.081  66.240  1.00  0.00    -0.170 C  
HETATM   22  C   UNL     1      -8.503   8.879  66.553  1.00  0.00    -0.124 C  
BRANCH  22  23
HETATM   23  C   UNL     1      -9.087   7.555  66.164  1.00  0.00    -0.179 C  
HETATM   24  C   UNL     1      -9.767   6.876  67.339  1.00  0.00    -0.172 C  
ENDBRANCH  22  23
ENDBRANCH  20  21
ENDBRANCH  19  20
ENDBRANCH  17  18
ENDBRANCH  16  17
ENDBRANCH  14  15
ENDBRANCH  13  14
ENDBRANCH  11  12
ENDBRANCH  10  11
ENDBRANCH   8   9
ENDBRANCH   7   8
ENDBRANCH   6   7
ENDBRANCH   4   6
ENDBRANCH   3   4
ENDBRANCH   2   3
TORSDOF 15
ENDMDL
MODEL       65
REMARK 921   NORMALIZED FREE ENERGY PREDICTED BY IDOCK:   -4.71 KCAL/MOL
REMARK 922        TOTAL FREE ENERGY PREDICTED BY IDOCK:  -11.38 KCAL/MOL
REMARK 923 INTER-LIGAND FREE ENERGY PREDICTED BY IDOCK:   -8.54 KCAL/MOL
REMARK 924 INTRA-LIGAND FREE ENERGY PREDICTED BY IDOCK:   -2.84 KCAL/MOL
REMARK 927      BINDING AFFINITY PREDICTED BY RF-SCORE:    0.00 PKD
ROOT
HETATM    1  C   UNL     1     -11.427  11.636  63.802  1.00  0.00    -0.457 C  
HETATM    2  C   UNL     1     -12.028  12.964  63.378  1.00  0.00    -0.537 C  
ENDROOT
BRANCH   2   3
HETATM    3  O   UNL     1     -11.557  13.962  64.292  1.00  0.00    -0.390 OA 
BRANCH   3   4
HETATM    4  C   UNL     1     -12.324  14.105  65.408  1.00  0.00    -0.463 C  
HETATM    5  O   UNL     1     -13.531  13.930  65.468  1.00  0.00    -0.657 OA 
BRANCH   4   6
HETATM    6  C   UNL     1     -11.425  14.411  66.575  1.00  0.00    -0.369 C  
BRANCH   6   7
HETATM    7  C   UNL     1     -12.148  14.124  67.894  1.00  0.00    -0.309 C  
BRANCH   7   8
HETATM    8  C   UNL     1     -11.252  14.361  69.099  1.00  0.00    -0.300 C  
BRANCH   8   9
HETATM    9  C   UNL     1     -10.542  15.691  69.032  1.00  0.00    -0.234 C  
HETATM   10  C   UNL     1      -9.214  15.858  68.932  1.00  0.00    -0.232 C  
BRANCH  10  11
HETATM   11  C   UNL     1      -8.219  14.748  69.032  1.00  0.00    -0.141 C  
BRANCH  11  12
HETATM   12  C   UNL     1      -7.842  14.112  67.730  1.00  0.00    -0.177 C  
HETATM   13  C   UNL     1      -8.091  12.823  67.434  1.00  0.00    -0.185 C  
BRANCH  13  14
HETATM   14  C   UNL     1      -8.779  11.780  68.285  1.00  0.00    -0.167 C  
BRANCH  14  15
HETATM   15  C   UNL     1      -9.997  11.143  67.666  1.00  0.00    -0.195 C  
HETATM   16  C   UNL     1     -11.031  10.604  68.329  1.00  0.00    -0.314 C  
BRANCH  16  17
HETATM   17  C   UNL     1     -11.072  10.382  69.805  1.00  0.00    -0.352 C  
BRANCH  17  18
HETATM   18  C   UNL     1     -12.205  11.182  70.390  1.00  0.00    -0.457 C  
HETATM   19  C   UNL     1     -12.919  10.814  71.464  1.00  0.00    -0.562 C  
BRANCH  19  20
HETATM   20  C   UNL     1     -12.714   9.545  72.221  1.00  0.00    -0.388 C  
BRANCH  20  21
HETATM   21  C   UNL     1     -13.754   8.515  71.897  1.00  0.00    -0.455 C  
HETATM   22  C   UNL     1     -13.479   7.271  71.474  1.00  0.00    -0.439 C  
BRANCH  22  23
HETATM   23  C   UNL     1     -12.110   6.718  71.218  1.00  0.00    -0.421 C  
HETATM   24  C   UNL     1     -11.609   5.897  72.392  1.00  0.00    -0.341 C  
ENDBRANCH  22  23
ENDBRANCH  20  21
ENDBRANCH  19  20
ENDBRANCH  17  18
ENDBRANCH  16  17
ENDBRANCH  14  15
ENDBRANCH  13  14
ENDBRANCH  11  12
ENDBRANCH  10  11
ENDBRANCH   8   9
ENDBRANCH   7   8
ENDBRANCH   6   7
ENDBRANCH   4   6
ENDBRANCH   3   4
ENDBRANCH   2   3
TORSDOF 15
ENDMDL
MODEL       66
REMARK 921   NORMALIZED FREE ENERGY PREDICTED BY IDOCK:   -4.70 KCAL/MOL
REMARK 922        TOTAL FREE ENERGY PREDICTED BY IDOCK:  -11.38 KCAL/MOL
REMARK 923 INTER-LIGAND FREE ENERGY PREDICTED BY IDOCK:   -8.64 KCAL/MOL
REMARK 924 INTRA-LIGAND FREE ENERGY PREDICTED BY IDOCK:   -2.74 KCAL/MOL
REMARK 927      BINDING AFFINITY PREDICTED BY RF-SCORE:    0.00 PKD
ROOT
HETATM    1  C   UNL     1     -10.610   7.403  66.980  1.00  0.00    -0.414 C  
HETATM    2  C   UNL     1      -9.861   7.101  68.265  1.00  0.00    -0.151 C  
ENDROOT
BRANCH   2   3
HETATM    3  O   UNL     1     -10.120   8.174  69.178  1.00  0.00    -0.191 OA 
BRANCH   3   4
HETATM    4  C   UNL     1      -9.596   7.989  70.422  1.00  0.00    -0.174 C  
HETATM    5  O   UNL     1      -8.828   7.097  70.743  1.00  0.00    -0.146 OA 
BRANCH   4   6
HETATM    6  C   UNL     1     -10.036   9.126  71.303  1.00  0.00    -0.373 C  
BRANCH   6   7
HETATM    7  C   UNL     1     -11.558   9.106  71.476  1.00  0.00    -0.439 C  
BRANCH   7   8
HETATM    8  C   UNL     1     -12.216  10.337  70.874  1.00  0.00    -0.465 C  
BRANCH   8   9
HETATM    9  C   UNL     1     -13.193  10.986  71.823  1.00  0.00    -0.505 C  
HETATM   10  C   UNL     1     -13.383  12.308  71.961  1.00  0.00    -0.491 C  
BRANCH  10  11
HETATM   11  C   UNL     1     -12.537  13.348  71.303  1.00  0.00    -0.411 C  
BRANCH  11  12
HETATM   12  C   UNL     1     -12.769  14.750  71.775  1.00  0.00    -0.396 C  
HETATM   13  C   UNL     1     -12.146  15.822  71.252  1.00  0.00    -0.487 C  
BRANCH  13  14
HETATM   14  C   UNL     1     -11.139  15.866  70.125  1.00  0.00    -0.369 C  
BRANCH  14  15
HETATM   15  C   UNL     1     -11.722  15.795  68.736  1.00  0.00    -0.387 C  
HETATM   16  C   UNL     1     -11.543  14.801  67.854  1.00  0.00    -0.373 C  
BRANCH  16  17
HETATM   17  C   UNL     1     -10.587  13.668  68.031  1.00  0.00    -0.256 C  
BRANCH  17  18
HETATM   18  C   UNL     1     -11.363  12.383  68.142  1.00  0.00    -0.341 C  
HETATM   19  C   UNL     1     -11.055  11.251  67.493  1.00  0.00    -0.346 C  
BRANCH  19  20
HETATM   20  C   UNL     1      -9.913  11.105  66.544  1.00  0.00    -0.252 C  
BRANCH  20  21
HETATM   21  C   UNL     1     -10.365  10.737  65.163  1.00  0.00    -0.341 C  
HETATM   22  C   UNL     1     -10.653  11.626  64.200  1.00  0.00    -0.411 C  
BRANCH  22  23
HETATM   23  C   UNL     1     -10.615  13.117  64.349  1.00  0.00    -0.441 C  
HETATM   24  C   UNL     1     -12.001  13.726  64.250  1.00  0.00    -0.481 C  
ENDBRANCH  22  23
ENDBRANCH  20  21
ENDBRANCH  19  20
ENDBRANCH  17  18
ENDBRANCH  16  17
ENDBRANCH  14  15
ENDBRANCH  13  14
ENDBRANCH  11  12
ENDBRANCH  10  11
ENDBRANCH   8   9
ENDBRANCH   7   8
ENDBRANCH   6   7
ENDBRANCH   4   6
ENDBRANCH   3   4
ENDBRANCH   2   3
TORSDOF 15
ENDMDL
MODEL       67
REMARK 921   NORMALIZED FREE ENERGY PREDICTED BY IDOCK:   -4.70 KCAL/MOL
REMARK 922        TOTAL FREE ENERGY PREDICTED BY IDOCK:  -11.38 KCAL/MOL
REMARK 923 INTER-LIGAND FREE ENERGY PREDICTED BY IDOCK:   -9.18 KCAL/MOL
REMARK 924 INTRA-LIGAND FREE ENERGY PREDICTED BY IDOCK:   -2.19 KCAL/MOL
REMARK 927      BINDING AFFINITY PREDICTED BY RF-SCORE:    0.00 PKD
ROOT
HETATM    1  C   UNL     1     -12.168  16.716  74.244  1.00  0.00    -0.382 C  
HETATM    2  C   UNL     1     -12.225  15.233  73.926  1.00  0.00    -0.610 C  
ENDROOT
BRANCH   2   3
HETATM    3  O   UNL     1     -13.475  14.979  73.274  1.00  0.00    -0.492 OA 
BRANCH   3   4
HETATM    4  C   UNL     1     -13.462  13.903  72.438  1.00  0.00    -0.560 C  
HETATM    5  O   UNL     1     -14.323  13.040  72.380  1.00  0.00    -0.458 OA 
BRANCH   4   6
HETATM    6  C   UNL     1     -12.269  14.014  71.529  1.00  0.00    -0.285 C  
BRANCH   6   7
HETATM    7  C   UNL     1     -12.655  14.726  70.229  1.00  0.00    -0.365 C  
BRANCH   7   8
HETATM    8  C   UNL     1     -12.263  13.923  69.000  1.00  0.00    -0.274 C  
BRANCH   8   9
HETATM    9  C   UNL     1     -11.256  14.647  68.140  1.00  0.00    -0.304 C  
HETATM   10  C   UNL     1     -11.307  14.751  66.802  1.00  0.00    -0.347 C  
BRANCH  10  11
HETATM   11  C   UNL     1     -12.290  14.025  65.943  1.00  0.00    -0.515 C  
BRANCH  11  12
HETATM   12  C   UNL     1     -11.830  13.745  64.546  1.00  0.00    -0.445 C  
HETATM   13  C   UNL     1     -11.256  12.587  64.172  1.00  0.00    -0.437 C  
BRANCH  13  14
HETATM   14  C   UNL     1     -10.968  11.366  65.015  1.00  0.00    -0.271 C  
BRANCH  14  15
HETATM   15  C   UNL     1      -9.812  11.502  65.973  1.00  0.00    -0.255 C  
HETATM   16  C   UNL     1      -9.667  10.847  67.136  1.00  0.00    -0.199 C  
BRANCH  16  17
HETATM   17  C   UNL     1     -10.719   9.996  67.769  1.00  0.00    -0.333 C  
BRANCH  17  18
HETATM   18  C   UNL     1     -11.465  10.816  68.788  1.00  0.00    -0.364 C  
HETATM   19  C   UNL     1     -11.404  10.618  70.113  1.00  0.00    -0.402 C  
BRANCH  19  20
HETATM   20  C   UNL     1     -10.609   9.541  70.772  1.00  0.00    -0.387 C  
BRANCH  20  21
HETATM   21  C   UNL     1     -11.464   8.627  71.596  1.00  0.00    -0.375 C  
HETATM   22  C   UNL     1     -11.774   7.367  71.252  1.00  0.00    -0.316 C  
BRANCH  22  23
HETATM   23  C   UNL     1     -11.359   6.681  69.987  1.00  0.00    -0.440 C  
HETATM   24  C   UNL     1     -10.434   5.509  70.261  1.00  0.00    -0.365 C  
ENDBRANCH  22  23
ENDBRANCH  20  21
ENDBRANCH  19  20
ENDBRANCH  17  18
ENDBRANCH  16  17
ENDBRANCH  14  15
ENDBRANCH  13  14
ENDBRANCH  11  12
ENDBRANCH  10  11
ENDBRANCH   8   9
ENDBRANCH   7   8
ENDBRANCH   6   7
ENDBRANCH   4   6
ENDBRANCH   3   4
ENDBRANCH   2   3
TORSDOF 15
ENDMDL
MODEL       68
REMARK 921   NORMALIZED FREE ENERGY PREDICTED BY IDOCK:   -4.70 KCAL/MOL
REMARK 922        TOTAL FREE ENERGY PREDICTED BY IDOCK:  -11.38 KCAL/MOL
REMARK 923 INTER-LIGAND FREE ENERGY PREDICTED BY IDOCK:   -8.42 KCAL/MOL
REMARK 924 INTRA-LIGAND FREE ENERGY PREDICTED BY IDOCK:   -2.95 KCAL/MOL
REMARK 927      BINDING AFFINITY PREDICTED BY RF-SCORE:    0.00 PKD
ROOT
HETATM    1  C   UNL     1     -12.837  15.795  73.585  1.00  0.00    -0.716 C  
HETATM    2  C   UNL     1     -13.884  15.439  72.545  1.00  0.00    -0.553 C  
ENDROOT
BRANCH   2   3
HETATM    3  O   UNL     1     -13.370  14.349  71.770  1.00  0.00    -0.325 OA 
BRANCH   3   4
HETATM    4  C   UNL     1     -12.717  14.728  70.636  1.00  0.00    -0.358 C  
HETATM    5  O   UNL     1     -12.879  15.782  70.042  1.00  0.00    -0.225 OA 
BRANCH   4   6
HETATM    6  C   UNL     1     -11.691  13.681  70.299  1.00  0.00    -0.259 C  
BRANCH   6   7
HETATM    7  C   UNL     1     -12.203  12.779  69.172  1.00  0.00    -0.065 C  
BRANCH   7   8
HETATM    8  C   UNL     1     -11.176  12.612  68.063  1.00  0.00    -0.308 C  
BRANCH   8   9
HETATM    9  C   UNL     1     -10.807  13.928  67.422  1.00  0.00    -0.291 C  
HETATM   10  C   UNL     1     -11.473  14.517  66.417  1.00  0.00    -0.362 C  
BRANCH  10  11
HETATM   11  C   UNL     1     -12.596  13.877  65.668  1.00  0.00    -0.553 C  
BRANCH  11  12
HETATM   12  C   UNL     1     -12.480  13.930  64.176  1.00  0.00    -0.286 C  
HETATM   13  C   UNL     1     -11.966  12.930  63.436  1.00  0.00    -0.612 C  
BRANCH  13  14
HETATM   14  C   UNL     1     -11.430  11.595  63.903  1.00  0.00    -0.433 C  
BRANCH  14  15
HETATM   15  C   UNL     1     -10.001  11.606  64.381  1.00  0.00    -0.298 C  
HETATM   16  C   UNL     1      -9.427  10.693  65.179  1.00  0.00    -0.276 C  
BRANCH  16  17
HETATM   17  C   UNL     1     -10.159   9.595  65.879  1.00  0.00    -0.304 C  
BRANCH  17  18
HETATM   18  C   UNL     1      -9.176   8.777  66.672  1.00  0.00    -0.223 C  
HETATM   19  C   UNL     1      -9.337   8.431  67.958  1.00  0.00    -0.146 C  
BRANCH  19  20
HETATM   20  C   UNL     1     -10.503   8.830  68.800  1.00  0.00    -0.214 C  
BRANCH  20  21
HETATM   21  C   UNL     1     -10.088   9.603  70.016  1.00  0.00    -0.293 C  
HETATM   22  C   UNL     1     -10.880   9.824  71.077  1.00  0.00    -0.378 C  
BRANCH  22  23
HETATM   23  C   UNL     1     -12.305   9.379  71.211  1.00  0.00    -0.422 C  
HETATM   24  C   UNL     1     -13.136  10.386  71.984  1.00  0.00    -0.521 C  
ENDBRANCH  22  23
ENDBRANCH  20  21
ENDBRANCH  19  20
ENDBRANCH  17  18
ENDBRANCH  16  17
ENDBRANCH  14  15
ENDBRANCH  13  14
ENDBRANCH  11  12
ENDBRANCH  10  11
ENDBRANCH   8   9
ENDBRANCH   7   8
ENDBRANCH   6   7
ENDBRANCH   4   6
ENDBRANCH   3   4
ENDBRANCH   2   3
TORSDOF 15
ENDMDL
MODEL       69
REMARK 921   NORMALIZED FREE ENERGY PREDICTED BY IDOCK:   -4.70 KCAL/MOL
REMARK 922        TOTAL FREE ENERGY PREDICTED BY IDOCK:  -11.37 KCAL/MOL
REMARK 923 INTER-LIGAND FREE ENERGY PREDICTED BY IDOCK:   -9.03 KCAL/MOL
REMARK 924 INTRA-LIGAND FREE ENERGY PREDICTED BY IDOCK:   -2.34 KCAL/MOL
REMARK 927      BINDING AFFINITY PREDICTED BY RF-SCORE:    0.00 PKD
ROOT
HETATM    1  C   UNL     1     -13.508  15.199  71.564  1.00  0.00    -0.549 C  
HETATM    2  C   UNL     1     -12.215  15.964  71.345  1.00  0.00    -0.448 C  
ENDROOT
BRANCH   2   3
HETATM    3  O   UNL     1     -11.484  15.290  70.314  1.00  0.00    -0.253 OA 
BRANCH   3   4
HETATM    4  C   UNL     1     -11.116  16.090  69.274  1.00  0.00    -0.331 C  
HETATM    5  O   UNL     1     -10.513  17.146  69.371  1.00  0.00    -0.321 OA 
BRANCH   4   6
HETATM    6  C   UNL     1     -11.482  15.405  67.986  1.00  0.00    -0.333 C  
BRANCH   6   7
HETATM    7  C   UNL     1     -11.608  13.894  68.205  1.00  0.00    -0.370 C  
BRANCH   7   8
HETATM    8  C   UNL     1     -11.958  13.159  66.920  1.00  0.00    -0.421 C  
BRANCH   8   9
HETATM    9  C   UNL     1     -11.826  14.041  65.702  1.00  0.00    -0.384 C  
HETATM   10  C   UNL     1     -11.875  13.619  64.429  1.00  0.00    -0.460 C  
BRANCH  10  11
HETATM   11  C   UNL     1     -11.910  12.182  64.023  1.00  0.00    -0.523 C  
BRANCH  11  12
HETATM   12  C   UNL     1     -10.619  11.637  63.494  1.00  0.00    -0.496 C  
HETATM   13  C   UNL     1      -9.643  11.147  64.279  1.00  0.00    -0.288 C  
BRANCH  13  14
HETATM   14  C   UNL     1      -9.624  11.023  65.786  1.00  0.00    -0.260 C  
BRANCH  14  15
HETATM   15  C   UNL     1     -10.331   9.814  66.343  1.00  0.00    -0.247 C  
HETATM   16  C   UNL     1     -10.612   9.587  67.635  1.00  0.00    -0.329 C  
BRANCH  16  17
HETATM   17  C   UNL     1     -10.112  10.418  68.772  1.00  0.00    -0.198 C  
BRANCH  17  18
HETATM   18  C   UNL     1     -11.266  10.752  69.679  1.00  0.00    -0.355 C  
HETATM   19  C   UNL     1     -11.472  10.197  70.883  1.00  0.00    -0.444 C  
BRANCH  19  20
HETATM   20  C   UNL     1     -10.602   9.147  71.489  1.00  0.00    -0.428 C  
BRANCH  20  21
HETATM   21  C   UNL     1     -11.398   8.061  72.148  1.00  0.00    -0.387 C  
HETATM   22  C   UNL     1     -11.742   6.908  71.552  1.00  0.00    -0.351 C  
BRANCH  22  23
HETATM   23  C   UNL     1     -11.432   6.531  70.136  1.00  0.00    -0.477 C  
HETATM   24  C   UNL     1     -10.417   5.405  70.065  1.00  0.00    -0.373 C  
ENDBRANCH  22  23
ENDBRANCH  20  21
ENDBRANCH  19  20
ENDBRANCH  17  18
ENDBRANCH  16  17
ENDBRANCH  14  15
ENDBRANCH  13  14
ENDBRANCH  11  12
ENDBRANCH  10  11
ENDBRANCH   8   9
ENDBRANCH   7   8
ENDBRANCH   6   7
ENDBRANCH   4   6
ENDBRANCH   3   4
ENDBRANCH   2   3
TORSDOF 15
ENDMDL
MODEL       70
REMARK 921   NORMALIZED FREE ENERGY PREDICTED BY IDOCK:   -4.70 KCAL/MOL
REMARK 922        TOTAL FREE ENERGY PREDICTED BY IDOCK:  -11.36 KCAL/MOL
REMARK 923 INTER-LIGAND FREE ENERGY PREDICTED BY IDOCK:   -8.94 KCAL/MOL
REMARK 924 INTRA-LIGAND FREE ENERGY PREDICTED BY IDOCK:   -2.42 KCAL/MOL
REMARK 927      BINDING AFFINITY PREDICTED BY RF-SCORE:    0.00 PKD
ROOT
HETATM    1  C   UNL     1     -12.485  16.728  74.317  1.00  0.00    -0.208 C  
HETATM    2  C   UNL     1     -12.587  15.249  73.990  1.00  0.00    -0.552 C  
ENDROOT
BRANCH   2   3
HETATM    3  O   UNL     1     -13.559  15.104  72.948  1.00  0.00    -0.474 OA 
BRANCH   3   4
HETATM    4  C   UNL     1     -13.434  13.958  72.222  1.00  0.00    -0.526 C  
HETATM    5  O   UNL     1     -14.088  12.941  72.383  1.00  0.00    -0.476 OA 
BRANCH   4   6
HETATM    6  C   UNL     1     -12.433  14.191  71.123  1.00  0.00    -0.445 C  
BRANCH   6   7
HETATM    7  C   UNL     1     -12.776  15.469  70.353  1.00  0.00    -0.382 C  
BRANCH   7   8
HETATM    8  C   UNL     1     -12.106  15.510  68.988  1.00  0.00    -0.246 C  
BRANCH   8   9
HETATM    9  C   UNL     1     -10.909  16.429  68.965  1.00  0.00    -0.331 C  
HETATM   10  C   UNL     1      -9.913  16.384  68.067  1.00  0.00    -0.242 C  
BRANCH  10  11
HETATM   11  C   UNL     1      -9.757  15.310  67.040  1.00  0.00    -0.232 C  
BRANCH  11  12
HETATM   12  C   UNL     1     -10.041  15.730  65.631  1.00  0.00    -0.401 C  
HETATM   13  C   UNL     1     -11.077  15.263  64.911  1.00  0.00    -0.435 C  
BRANCH  13  14
HETATM   14  C   UNL     1     -12.142  14.275  65.332  1.00  0.00    -0.396 C  
BRANCH  14  15
HETATM   15  C   UNL     1     -11.736  12.824  65.270  1.00  0.00    -0.403 C  
HETATM   16  C   UNL     1     -11.659  11.980  66.311  1.00  0.00    -0.378 C  
BRANCH  16  17
HETATM   17  C   UNL     1     -11.793  12.382  67.743  1.00  0.00    -0.362 C  
BRANCH  17  18
HETATM   18  C   UNL     1     -10.499  12.095  68.456  1.00  0.00    -0.248 C  
HETATM   19  C   UNL     1     -10.297  11.051  69.273  1.00  0.00    -0.181 C  
BRANCH  19  20
HETATM   20  C   UNL     1     -11.333  10.035  69.618  1.00  0.00    -0.253 C  
BRANCH  20  21
HETATM   21  C   UNL     1     -12.247  10.502  70.711  1.00  0.00    -0.468 C  
HETATM   22  C   UNL     1     -12.604   9.756  71.768  1.00  0.00    -0.506 C  
BRANCH  22  23
HETATM   23  C   UNL     1     -12.192   8.337  72.013  1.00  0.00    -0.398 C  
HETATM   24  C   UNL     1     -10.696   8.218  72.241  1.00  0.00    -0.399 C  
ENDBRANCH  22  23
ENDBRANCH  20  21
ENDBRANCH  19  20
ENDBRANCH  17  18
ENDBRANCH  16  17
ENDBRANCH  14  15
ENDBRANCH  13  14
ENDBRANCH  11  12
ENDBRANCH  10  11
ENDBRANCH   8   9
ENDBRANCH   7   8
ENDBRANCH   6   7
ENDBRANCH   4   6
ENDBRANCH   3   4
ENDBRANCH   2   3
TORSDOF 15
ENDMDL
MODEL       71
REMARK 921   NORMALIZED FREE ENERGY PREDICTED BY IDOCK:   -4.68 KCAL/MOL
REMARK 922        TOTAL FREE ENERGY PREDICTED BY IDOCK:  -11.34 KCAL/MOL
REMARK 923 INTER-LIGAND FREE ENERGY PREDICTED BY IDOCK:   -9.00 KCAL/MOL
REMARK 924 INTRA-LIGAND FREE ENERGY PREDICTED BY IDOCK:   -2.34 KCAL/MOL
REMARK 927      BINDING AFFINITY PREDICTED BY RF-SCORE:    0.00 PKD
ROOT
HETATM    1  C   UNL     1     -14.398  15.346  72.146  1.00  0.00    -0.642 C  
HETATM    2  C   UNL     1     -13.620  14.070  72.408  1.00  0.00    -0.557 C  
ENDROOT
BRANCH   2   3
HETATM    3  O   UNL     1     -12.997  13.685  71.177  1.00  0.00    -0.321 OA 
BRANCH   3   4
HETATM    4  C   UNL     1     -11.977  14.499  70.787  1.00  0.00    -0.322 C  
HETATM    5  O   UNL     1     -11.138  14.988  71.526  1.00  0.00    -0.283 OA 
BRANCH   4   6
HETATM    6  C   UNL     1     -11.994  14.610  69.287  1.00  0.00    -0.337 C  
BRANCH   6   7
HETATM    7  C   UNL     1     -11.572  13.281  68.652  1.00  0.00    -0.362 C  
BRANCH   7   8
HETATM    8  C   UNL     1     -11.124  13.456  67.209  1.00  0.00    -0.300 C  
BRANCH   8   9
HETATM    9  C   UNL     1     -12.106  14.268  66.400  1.00  0.00    -0.442 C  
HETATM   10  C   UNL     1     -12.721  13.854  65.281  1.00  0.00    -0.485 C  
BRANCH  10  11
HETATM   11  C   UNL     1     -12.405  12.576  64.575  1.00  0.00    -0.545 C  
BRANCH  11  12
HETATM   12  C   UNL     1     -11.312  12.665  63.554  1.00  0.00    -0.527 C  
HETATM   13  C   UNL     1     -10.291  11.792  63.482  1.00  0.00    -0.490 C  
BRANCH  13  14
HETATM   14  C   UNL     1     -10.027  10.581  64.349  1.00  0.00    -0.410 C  
BRANCH  14  15
HETATM   15  C   UNL     1      -9.187  10.837  65.574  1.00  0.00    -0.230 C  
HETATM   16  C   UNL     1      -9.343  10.259  66.775  1.00  0.00    -0.187 C  
BRANCH  16  17
HETATM   17  C   UNL     1     -10.495   9.388  67.156  1.00  0.00    -0.315 C  
BRANCH  17  18
HETATM   18  C   UNL     1     -10.084   7.946  67.027  1.00  0.00    -0.347 C  
HETATM   19  C   UNL     1     -10.209   7.030  67.998  1.00  0.00    -0.217 C  
BRANCH  19  20
HETATM   20  C   UNL     1     -10.750   7.312  69.360  1.00  0.00    -0.236 C  
BRANCH  20  21
HETATM   21  C   UNL     1      -9.759   8.024  70.230  1.00  0.00    -0.175 C  
HETATM   22  C   UNL     1     -10.091   8.813  71.264  1.00  0.00    -0.336 C  
BRANCH  22  23
HETATM   23  C   UNL     1     -11.486   9.147  71.694  1.00  0.00    -0.451 C  
HETATM   24  C   UNL     1     -11.999  10.401  71.010  1.00  0.00    -0.481 C  
ENDBRANCH  22  23
ENDBRANCH  20  21
ENDBRANCH  19  20
ENDBRANCH  17  18
ENDBRANCH  16  17
ENDBRANCH  14  15
ENDBRANCH  13  14
ENDBRANCH  11  12
ENDBRANCH  10  11
ENDBRANCH   8   9
ENDBRANCH   7   8
ENDBRANCH   6   7
ENDBRANCH   4   6
ENDBRANCH   3   4
ENDBRANCH   2   3
TORSDOF 15
ENDMDL
MODEL       72
REMARK 921   NORMALIZED FREE ENERGY PREDICTED BY IDOCK:   -4.68 KCAL/MOL
REMARK 922        TOTAL FREE ENERGY PREDICTED BY IDOCK:  -11.34 KCAL/MOL
REMARK 923 INTER-LIGAND FREE ENERGY PREDICTED BY IDOCK:   -8.83 KCAL/MOL
REMARK 924 INTRA-LIGAND FREE ENERGY PREDICTED BY IDOCK:   -2.51 KCAL/MOL
REMARK 927      BINDING AFFINITY PREDICTED BY RF-SCORE:    0.00 PKD
ROOT
HETATM    1  C   UNL     1     -11.666   6.464  70.361  1.00  0.00    -0.389 C  
HETATM    2  C   UNL     1     -12.179   6.729  71.765  1.00  0.00    -0.358 C  
ENDROOT
BRANCH   2   3
HETATM    3  O   UNL     1     -12.013   8.128  72.028  1.00  0.00    -0.301 OA 
BRANCH   3   4
HETATM    4  C   UNL     1     -13.098   8.889  71.712  1.00  0.00    -0.374 C  
HETATM    5  O   UNL     1     -14.258   8.613  71.972  1.00  0.00    -0.427 OA 
BRANCH   4   6
HETATM    6  C   UNL     1     -12.622  10.171  71.086  1.00  0.00    -0.486 C  
BRANCH   6   7
HETATM    7  C   UNL     1     -11.133  10.073  70.741  1.00  0.00    -0.407 C  
BRANCH   7   8
HETATM    8  C   UNL     1     -10.749  11.003  69.601  1.00  0.00    -0.193 C  
BRANCH   8   9
HETATM    9  C   UNL     1     -11.605  10.790  68.376  1.00  0.00    -0.311 C  
HETATM   10  C   UNL     1     -11.149  10.456  67.158  1.00  0.00    -0.195 C  
BRANCH  10  11
HETATM   11  C   UNL     1      -9.702  10.400  66.792  1.00  0.00    -0.224 C  
BRANCH  11  12
HETATM   12  C   UNL     1      -9.388   9.620  65.552  1.00  0.00    -0.309 C  
HETATM   13  C   UNL     1      -9.510  10.120  64.309  1.00  0.00    -0.366 C  
BRANCH  13  14
HETATM   14  C   UNL     1      -9.950  11.506  63.894  1.00  0.00    -0.360 C  
BRANCH  14  15
HETATM   15  C   UNL     1     -11.392  11.624  63.471  1.00  0.00    -0.447 C  
HETATM   16  C   UNL     1     -12.171  12.707  63.611  1.00  0.00    -0.624 C  
BRANCH  16  17
HETATM   17  C   UNL     1     -11.794  13.933  64.377  1.00  0.00    -0.456 C  
BRANCH  17  18
HETATM   18  C   UNL     1     -12.640  14.016  65.619  1.00  0.00    -0.542 C  
HETATM   19  C   UNL     1     -12.154  14.110  66.865  1.00  0.00    -0.466 C  
BRANCH  19  20
HETATM   20  C   UNL     1     -10.701  14.119  67.207  1.00  0.00    -0.279 C  
BRANCH  20  21
HETATM   21  C   UNL     1     -10.401  14.990  68.389  1.00  0.00    -0.231 C  
HETATM   22  C   UNL     1     -11.132  15.013  69.515  1.00  0.00    -0.292 C  
BRANCH  22  23
HETATM   23  C   UNL     1     -12.377  14.218  69.764  1.00  0.00    -0.342 C  
HETATM   24  C   UNL     1     -12.562  13.913  71.239  1.00  0.00    -0.450 C  
ENDBRANCH  22  23
ENDBRANCH  20  21
ENDBRANCH  19  20
ENDBRANCH  17  18
ENDBRANCH  16  17
ENDBRANCH  14  15
ENDBRANCH  13  14
ENDBRANCH  11  12
ENDBRANCH  10  11
ENDBRANCH   8   9
ENDBRANCH   7   8
ENDBRANCH   6   7
ENDBRANCH   4   6
ENDBRANCH   3   4
ENDBRANCH   2   3
TORSDOF 15
ENDMDL
MODEL       73
REMARK 921   NORMALIZED FREE ENERGY PREDICTED BY IDOCK:   -4.66 KCAL/MOL
REMARK 922        TOTAL FREE ENERGY PREDICTED BY IDOCK:  -11.31 KCAL/MOL
REMARK 923 INTER-LIGAND FREE ENERGY PREDICTED BY IDOCK:   -8.38 KCAL/MOL
REMARK 924 INTRA-LIGAND FREE ENERGY PREDICTED BY IDOCK:   -2.92 KCAL/MOL
REMARK 927      BINDING AFFINITY PREDICTED BY RF-SCORE:    0.00 PKD
ROOT
HETATM    1  C   UNL     1     -10.532  10.073  67.005  1.00  0.00    -0.302 C  
HETATM    2  C   UNL     1     -10.521  10.014  68.522  1.00  0.00    -0.202 C  
ENDROOT
BRANCH   2   3
HETATM    3  O   UNL     1     -11.696  10.688  68.988  1.00  0.00    -0.277 OA 
BRANCH   3   4
HETATM    4  C   UNL     1     -11.802  10.754  70.345  1.00  0.00    -0.358 C  
HETATM    5  O   UNL     1     -11.484   9.871  71.125  1.00  0.00    -0.350 OA 
BRANCH   4   6
HETATM    6  C   UNL     1     -12.276  12.130  70.725  1.00  0.00    -0.367 C  
BRANCH   6   7
HETATM    7  C   UNL     1     -13.179  12.058  71.960  1.00  0.00    -0.481 C  
BRANCH   7   8
HETATM    8  C   UNL     1     -13.988  13.332  72.150  1.00  0.00    -0.471 C  
BRANCH   8   9
HETATM    9  C   UNL     1     -13.236  14.375  72.941  1.00  0.00    -0.613 C  
HETATM   10  C   UNL     1     -12.658  15.472  72.427  1.00  0.00    -0.490 C  
BRANCH  10  11
HETATM   11  C   UNL     1     -12.535  15.748  70.964  1.00  0.00    -0.473 C  
BRANCH  11  12
HETATM   12  C   UNL     1     -11.168  16.152  70.504  1.00  0.00    -0.381 C  
HETATM   13  C   UNL     1     -10.809  16.213  69.209  1.00  0.00    -0.310 C  
BRANCH  13  14
HETATM   14  C   UNL     1     -11.650  15.921  67.987  1.00  0.00    -0.168 C  
BRANCH  14  15
HETATM   15  C   UNL     1     -11.838  14.460  67.668  1.00  0.00    -0.412 C  
HETATM   16  C   UNL     1     -10.992  13.688  66.969  1.00  0.00    -0.298 C  
BRANCH  16  17
HETATM   17  C   UNL     1      -9.795  14.191  66.230  1.00  0.00    -0.321 C  
BRANCH  17  18
HETATM   18  C   UNL     1      -8.574  14.005  67.091  1.00  0.00    -0.220 C  
HETATM   19  C   UNL     1      -7.706  14.980  67.399  1.00  0.00    -0.227 C  
BRANCH  19  20
HETATM   20  C   UNL     1      -7.808  16.387  66.912  1.00  0.00    -0.273 C  
BRANCH  20  21
HETATM   21  C   UNL     1      -7.486  17.384  67.984  1.00  0.00    -0.201 C  
HETATM   22  C   UNL     1      -8.136  18.546  68.155  1.00  0.00    -0.310 C  
BRANCH  22  23
HETATM   23  C   UNL     1      -9.249  19.058  67.293  1.00  0.00    -0.321 C  
HETATM   24  C   UNL     1     -10.300  19.788  68.109  1.00  0.00    -0.561 C  
ENDBRANCH  22  23
ENDBRANCH  20  21
ENDBRANCH  19  20
ENDBRANCH  17  18
ENDBRANCH  16  17
ENDBRANCH  14  15
ENDBRANCH  13  14
ENDBRANCH  11  12
ENDBRANCH  10  11
ENDBRANCH   8   9
ENDBRANCH   7   8
ENDBRANCH   6   7
ENDBRANCH   4   6
ENDBRANCH   3   4
ENDBRANCH   2   3
TORSDOF 15
ENDMDL
MODEL       74
REMARK 921   NORMALIZED FREE ENERGY PREDICTED BY IDOCK:   -4.66 KCAL/MOL
REMARK 922        TOTAL FREE ENERGY PREDICTED BY IDOCK:  -11.30 KCAL/MOL
REMARK 923 INTER-LIGAND FREE ENERGY PREDICTED BY IDOCK:   -8.40 KCAL/MOL
REMARK 924 INTRA-LIGAND FREE ENERGY PREDICTED BY IDOCK:   -2.91 KCAL/MOL
REMARK 927      BINDING AFFINITY PREDICTED BY RF-SCORE:    0.00 PKD
ROOT
HETATM    1  C   UNL     1     -12.119  11.024  70.104  1.00  0.00    -0.438 C  
HETATM    2  C   UNL     1     -12.921  10.642  71.335  1.00  0.00    -0.443 C  
ENDROOT
BRANCH   2   3
HETATM    3  O   UNL     1     -12.338   9.452  71.878  1.00  0.00    -0.359 OA 
BRANCH   3   4
HETATM    4  C   UNL     1     -13.125   8.344  71.774  1.00  0.00    -0.351 C  
HETATM    5  O   UNL     1     -14.342   8.345  71.681  1.00  0.00    -0.431 OA 
BRANCH   4   6
HETATM    6  C   UNL     1     -12.241   7.131  71.687  1.00  0.00    -0.385 C  
BRANCH   6   7
HETATM    7  C   UNL     1     -10.918   7.485  71.002  1.00  0.00    -0.266 C  
BRANCH   7   8
HETATM    8  C   UNL     1     -10.427   6.366  70.097  1.00  0.00    -0.269 C  
BRANCH   8   9
HETATM    9  C   UNL     1     -11.237   6.259  68.828  1.00  0.00    -0.357 C  
HETATM   10  C   UNL     1     -10.891   6.776  67.639  1.00  0.00    -0.361 C  
BRANCH  10  11
HETATM   11  C   UNL     1      -9.719   7.678  67.427  1.00  0.00    -0.208 C  
BRANCH  11  12
HETATM   12  C   UNL     1     -10.006   9.141  67.575  1.00  0.00    -0.258 C  
HETATM   13  C   UNL     1      -9.947  10.016  66.554  1.00  0.00    -0.286 C  
BRANCH  13  14
HETATM   14  C   UNL     1      -9.611   9.746  65.105  1.00  0.00    -0.356 C  
BRANCH  14  15
HETATM   15  C   UNL     1      -9.224  10.958  64.296  1.00  0.00    -0.221 C  
HETATM   16  C   UNL     1     -10.064  11.882  63.806  1.00  0.00    -0.423 C  
BRANCH  16  17
HETATM   17  C   UNL     1     -11.553  11.774  63.826  1.00  0.00    -0.508 C  
BRANCH  17  18
HETATM   18  C   UNL     1     -12.142  13.140  64.056  1.00  0.00    -0.511 C  
HETATM   19  C   UNL     1     -12.331  13.692  65.263  1.00  0.00    -0.498 C  
BRANCH  19  20
HETATM   20  C   UNL     1     -12.012  13.023  66.558  1.00  0.00    -0.457 C  
BRANCH  20  21
HETATM   21  C   UNL     1     -11.452  13.977  67.569  1.00  0.00    -0.369 C  
HETATM   22  C   UNL     1     -10.157  14.322  67.645  1.00  0.00    -0.229 C  
BRANCH  22  23
HETATM   23  C   UNL     1      -9.059  13.791  66.775  1.00  0.00    -0.235 C  
HETATM   24  C   UNL     1      -8.030  13.018  67.579  1.00  0.00    -0.177 C  
ENDBRANCH  22  23
ENDBRANCH  20  21
ENDBRANCH  19  20
ENDBRANCH  17  18
ENDBRANCH  16  17
ENDBRANCH  14  15
ENDBRANCH  13  14
ENDBRANCH  11  12
ENDBRANCH  10  11
ENDBRANCH   8   9
ENDBRANCH   7   8
ENDBRANCH   6   7
ENDBRANCH   4   6
ENDBRANCH   3   4
ENDBRANCH   2   3
TORSDOF 15
ENDMDL
MODEL       75
REMARK 921   NORMALIZED FREE ENERGY PREDICTED BY IDOCK:   -4.66 KCAL/MOL
REMARK 922        TOTAL FREE ENERGY PREDICTED BY IDOCK:  -11.30 KCAL/MOL
REMARK 923 INTER-LIGAND FREE ENERGY PREDICTED BY IDOCK:   -8.21 KCAL/MOL
REMARK 924 INTRA-LIGAND FREE ENERGY PREDICTED BY IDOCK:   -3.09 KCAL/MOL
REMARK 927      BINDING AFFINITY PREDICTED BY RF-SCORE:    0.00 PKD
ROOT
HETATM    1  C   UNL     1      -8.755  10.512  62.914  1.00  0.00    -0.221 C  
HETATM    2  C   UNL     1     -10.048  10.859  63.630  1.00  0.00    -0.355 C  
ENDROOT
BRANCH   2   3
HETATM    3  O   UNL     1     -10.556  12.064  63.046  1.00  0.00    -0.304 OA 
BRANCH   3   4
HETATM    4  C   UNL     1     -11.708  12.519  63.612  1.00  0.00    -0.515 C  
HETATM    5  O   UNL     1     -12.832  12.120  63.352  1.00  0.00    -0.765 OA 
BRANCH   4   6
HETATM    6  C   UNL     1     -11.358  13.515  64.683  1.00  0.00    -0.375 C  
BRANCH   6   7
HETATM    7  C   UNL     1     -12.226  13.288  65.925  1.00  0.00    -0.497 C  
BRANCH   7   8
HETATM    8  C   UNL     1     -11.541  12.392  66.944  1.00  0.00    -0.437 C  
BRANCH   8   9
HETATM    9  C   UNL     1     -11.572  12.979  68.334  1.00  0.00    -0.370 C  
HETATM   10  C   UNL     1     -11.710  12.278  69.471  1.00  0.00    -0.398 C  
BRANCH  10  11
HETATM   11  C   UNL     1     -12.014  10.816  69.522  1.00  0.00    -0.364 C  
BRANCH  11  12
HETATM   12  C   UNL     1     -12.816  10.373  70.707  1.00  0.00    -0.450 C  
HETATM   13  C   UNL     1     -12.523   9.280  71.435  1.00  0.00    -0.418 C  
BRANCH  13  14
HETATM   14  C   UNL     1     -11.380   8.308  71.250  1.00  0.00    -0.308 C  
BRANCH  14  15
HETATM   15  C   UNL     1     -10.116   8.649  71.997  1.00  0.00    -0.401 C  
HETATM   16  C   UNL     1      -8.891   8.770  71.464  1.00  0.00    -0.295 C  
BRANCH  16  17
HETATM   17  C   UNL     1      -8.536   8.412  70.058  1.00  0.00    -0.125 C  
BRANCH  17  18
HETATM   18  C   UNL     1      -8.544   9.660  69.216  1.00  0.00    -0.153 C  
HETATM   19  C   UNL     1      -8.831   9.691  67.907  1.00  0.00    -0.119 C  
BRANCH  19  20
HETATM   20  C   UNL     1      -9.159   8.490  67.085  1.00  0.00    -0.164 C  
BRANCH  20  21
HETATM   21  C   UNL     1     -10.599   8.091  67.211  1.00  0.00    -0.360 C  
HETATM   22  C   UNL     1     -11.014   6.884  67.626  1.00  0.00    -0.304 C  
BRANCH  22  23
HETATM   23  C   UNL     1     -10.126   5.733  67.989  1.00  0.00    -0.198 C  
HETATM   24  C   UNL     1     -10.359   5.273  69.417  1.00  0.00    -0.313 C  
ENDBRANCH  22  23
ENDBRANCH  20  21
ENDBRANCH  19  20
ENDBRANCH  17  18
ENDBRANCH  16  17
ENDBRANCH  14  15
ENDBRANCH  13  14
ENDBRANCH  11  12
ENDBRANCH  10  11
ENDBRANCH   8   9
ENDBRANCH   7   8
ENDBRANCH   6   7
ENDBRANCH   4   6
ENDBRANCH   3   4
ENDBRANCH   2   3
TORSDOF 15
ENDMDL
MODEL       76
REMARK 921   NORMALIZED FREE ENERGY PREDICTED BY IDOCK:   -4.65 KCAL/MOL
REMARK 922        TOTAL FREE ENERGY PREDICTED BY IDOCK:  -11.28 KCAL/MOL
REMARK 923 INTER-LIGAND FREE ENERGY PREDICTED BY IDOCK:   -8.54 KCAL/MOL
REMARK 924 INTRA-LIGAND FREE ENERGY PREDICTED BY IDOCK:   -2.74 KCAL/MOL
REMARK 927      BINDING AFFINITY PREDICTED BY RF-SCORE:    0.00 PKD
ROOT
HETATM    1  C   UNL     1     -10.496  19.925  66.017  1.00  0.00    -0.580 C  
HETATM    2  C   UNL     1      -9.386  19.492  66.956  1.00  0.00    -0.336 C  
ENDROOT
BRANCH   2   3
HETATM    3  O   UNL     1      -9.112  18.110  66.693  1.00  0.00    -0.268 OA 
BRANCH   3   4
HETATM    4  C   UNL     1      -9.267  17.293  67.772  1.00  0.00    -0.239 C  
HETATM    5  O   UNL     1      -8.397  17.014  68.581  1.00  0.00    -0.250 OA 
BRANCH   4   6
HETATM    6  C   UNL     1     -10.710  16.879  67.860  1.00  0.00    -0.344 C  
BRANCH   6   7
HETATM    7  C   UNL     1     -10.965  16.110  69.160  1.00  0.00    -0.309 C  
BRANCH   7   8
HETATM    8  C   UNL     1     -10.939  14.605  68.947  1.00  0.00    -0.264 C  
BRANCH   8   9
HETATM    9  C   UNL     1     -12.011  14.145  67.989  1.00  0.00    -0.372 C  
HETATM   10  C   UNL     1     -11.793  13.623  66.771  1.00  0.00    -0.452 C  
BRANCH  10  11
HETATM   11  C   UNL     1     -10.454  13.567  66.112  1.00  0.00    -0.296 C  
BRANCH  11  12
HETATM   12  C   UNL     1     -10.475  13.663  64.618  1.00  0.00    -0.442 C  
HETATM   13  C   UNL     1     -10.640  12.601  63.808  1.00  0.00    -0.432 C  
BRANCH  13  14
HETATM   14  C   UNL     1     -10.845  11.152  64.189  1.00  0.00    -0.355 C  
BRANCH  14  15
HETATM   15  C   UNL     1      -9.626  10.450  64.729  1.00  0.00    -0.352 C  
HETATM   16  C   UNL     1      -9.528   9.836  65.918  1.00  0.00    -0.285 C  
BRANCH  16  17
HETATM   17  C   UNL     1     -10.564   9.896  66.993  1.00  0.00    -0.272 C  
BRANCH  17  18
HETATM   18  C   UNL     1      -9.909  10.319  68.281  1.00  0.00    -0.161 C  
HETATM   19  C   UNL     1     -10.574  10.717  69.376  1.00  0.00    -0.254 C  
BRANCH  19  20
HETATM   20  C   UNL     1     -12.059  10.826  69.470  1.00  0.00    -0.344 C  
BRANCH  20  21
HETATM   21  C   UNL     1     -12.558  10.598  70.865  1.00  0.00    -0.503 C  
HETATM   22  C   UNL     1     -13.026  11.566  71.668  1.00  0.00    -0.499 C  
BRANCH  22  23
HETATM   23  C   UNL     1     -13.091  13.024  71.330  1.00  0.00    -0.336 C  
HETATM   24  C   UNL     1     -13.191  13.885  72.577  1.00  0.00    -0.601 C  
ENDBRANCH  22  23
ENDBRANCH  20  21
ENDBRANCH  19  20
ENDBRANCH  17  18
ENDBRANCH  16  17
ENDBRANCH  14  15
ENDBRANCH  13  14
ENDBRANCH  11  12
ENDBRANCH  10  11
ENDBRANCH   8   9
ENDBRANCH   7   8
ENDBRANCH   6   7
ENDBRANCH   4   6
ENDBRANCH   3   4
ENDBRANCH   2   3
TORSDOF 15
ENDMDL
MODEL       77
REMARK 921   NORMALIZED FREE ENERGY PREDICTED BY IDOCK:   -4.65 KCAL/MOL
REMARK 922        TOTAL FREE ENERGY PREDICTED BY IDOCK:  -11.28 KCAL/MOL
REMARK 923 INTER-LIGAND FREE ENERGY PREDICTED BY IDOCK:   -8.69 KCAL/MOL
REMARK 924 INTRA-LIGAND FREE ENERGY PREDICTED BY IDOCK:   -2.59 KCAL/MOL
REMARK 927      BINDING AFFINITY PREDICTED BY RF-SCORE:    0.00 PKD
ROOT
HETATM    1  C   UNL     1     -13.899   8.845  72.104  1.00  0.00    -0.531 C  
HETATM    2  C   UNL     1     -12.602   8.114  71.807  1.00  0.00    -0.330 C  
ENDROOT
BRANCH   2   3
HETATM    3  O   UNL     1     -11.524   8.985  72.171  1.00  0.00    -0.355 OA 
BRANCH   3   4
HETATM    4  C   UNL     1     -10.333   8.351  72.359  1.00  0.00    -0.329 C  
HETATM    5  O   UNL     1      -9.916   7.926  73.424  1.00  0.00    -0.314 OA 
BRANCH   4   6
HETATM    6  C   UNL     1      -9.667   8.171  71.023  1.00  0.00    -0.193 C  
BRANCH   6   7
HETATM    7  C   UNL     1      -9.021   9.483  70.569  1.00  0.00    -0.265 C  
BRANCH   7   8
HETATM    8  C   UNL     1      -9.080   9.656  69.059  1.00  0.00    -0.148 C  
BRANCH   8   9
HETATM    9  C   UNL     1      -8.556  11.000  68.616  1.00  0.00    -0.157 C  
HETATM   10  C   UNL     1      -9.308  12.088  68.383  1.00  0.00    -0.175 C  
BRANCH  10  11
HETATM   11  C   UNL     1     -10.802  12.088  68.376  1.00  0.00    -0.266 C  
BRANCH  11  12
HETATM   12  C   UNL     1     -11.432  11.797  67.049  1.00  0.00    -0.368 C  
HETATM   13  C   UNL     1     -11.973  12.743  66.260  1.00  0.00    -0.460 C  
BRANCH  13  14
HETATM   14  C   UNL     1     -12.056  14.233  66.503  1.00  0.00    -0.454 C  
BRANCH  14  15
HETATM   15  C   UNL     1     -10.815  15.014  66.152  1.00  0.00    -0.329 C  
HETATM   16  C   UNL     1     -10.264  15.994  66.884  1.00  0.00    -0.280 C  
BRANCH  16  17
HETATM   17  C   UNL     1     -10.889  16.605  68.095  1.00  0.00    -0.348 C  
BRANCH  17  18
HETATM   18  C   UNL     1     -10.230  16.041  69.325  1.00  0.00    -0.249 C  
HETATM   19  C   UNL     1     -10.860  15.317  70.261  1.00  0.00    -0.303 C  
BRANCH  19  20
HETATM   20  C   UNL     1     -12.315  14.986  70.235  1.00  0.00    -0.392 C  
BRANCH  20  21
HETATM   21  C   UNL     1     -12.660  13.866  71.170  1.00  0.00    -0.446 C  
HETATM   22  C   UNL     1     -13.204  14.038  72.386  1.00  0.00    -0.585 C  
BRANCH  22  23
HETATM   23  C   UNL     1     -13.516  15.357  73.024  1.00  0.00    -0.604 C  
HETATM   24  C   UNL     1     -12.507  15.712  74.101  1.00  0.00    -0.804 C  
ENDBRANCH  22  23
ENDBRANCH  20  21
ENDBRANCH  19  20
ENDBRANCH  17  18
ENDBRANCH  16  17
ENDBRANCH  14  15
ENDBRANCH  13  14
ENDBRANCH  11  12
ENDBRANCH  10  11
ENDBRANCH   8   9
ENDBRANCH   7   8
ENDBRANCH   6   7
ENDBRANCH   4   6
ENDBRANCH   3   4
ENDBRANCH   2   3
TORSDOF 15
ENDMDL
MODEL       78
REMARK 921   NORMALIZED FREE ENERGY PREDICTED BY IDOCK:   -4.64 KCAL/MOL
REMARK 922        TOTAL FREE ENERGY PREDICTED BY IDOCK:  -11.26 KCAL/MOL
REMARK 923 INTER-LIGAND FREE ENERGY PREDICTED BY IDOCK:   -8.59 KCAL/MOL
REMARK 924 INTRA-LIGAND FREE ENERGY PREDICTED BY IDOCK:   -2.67 KCAL/MOL
REMARK 927      BINDING AFFINITY PREDICTED BY RF-SCORE:    0.00 PKD
ROOT
HETATM    1  C   UNL     1     -13.057   6.871  71.652  1.00  0.00    -0.338 C  
HETATM    2  C   UNL     1     -11.895   6.919  70.676  1.00  0.00    -0.368 C  
ENDROOT
BRANCH   2   3
HETATM    3  O   UNL     1     -11.755   8.275  70.238  1.00  0.00    -0.085 OA 
BRANCH   3   4
HETATM    4  C   UNL     1     -10.468   8.659  70.007  1.00  0.00    -0.223 C  
HETATM    5  O   UNL     1      -9.493   7.926  70.041  1.00  0.00    -0.157 OA 
BRANCH   4   6
HETATM    6  C   UNL     1     -10.463  10.106  69.600  1.00  0.00    -0.282 C  
BRANCH   6   7
HETATM    7  C   UNL     1     -11.896  10.608  69.400  1.00  0.00    -0.325 C  
BRANCH   7   8
HETATM    8  C   UNL     1     -12.183  11.856  70.220  1.00  0.00    -0.353 C  
BRANCH   8   9
HETATM    9  C   UNL     1     -12.797  11.532  71.560  1.00  0.00    -0.485 C  
HETATM   10  C   UNL     1     -13.488  12.391  72.327  1.00  0.00    -0.428 C  
BRANCH  10  11
HETATM   11  C   UNL     1     -13.618  13.851  72.040  1.00  0.00    -0.566 C  
BRANCH  11  12
HETATM   12  C   UNL     1     -12.843  14.752  72.952  1.00  0.00    -0.559 C  
HETATM   13  C   UNL     1     -12.047  15.744  72.513  1.00  0.00    -0.591 C  
BRANCH  13  14
HETATM   14  C   UNL     1     -11.774  16.169  71.088  1.00  0.00    -0.454 C  
BRANCH  14  15
HETATM   15  C   UNL     1     -10.585  15.512  70.436  1.00  0.00    -0.294 C  
HETATM   16  C   UNL     1     -10.545  15.001  69.196  1.00  0.00    -0.251 C  
BRANCH  16  17
HETATM   17  C   UNL     1     -11.733  14.835  68.306  1.00  0.00    -0.340 C  
BRANCH  17  18
HETATM   18  C   UNL     1     -11.355  13.962  67.140  1.00  0.00    -0.346 C  
HETATM   19  C   UNL     1     -11.006  14.420  65.929  1.00  0.00    -0.312 C  
BRANCH  19  20
HETATM   20  C   UNL     1     -10.968  15.863  65.550  1.00  0.00    -0.248 C  
BRANCH  20  21
HETATM   21  C   UNL     1      -9.638  16.491  65.840  1.00  0.00    -0.284 C  
HETATM   22  C   UNL     1      -9.459  17.534  66.666  1.00  0.00    -0.285 C  
BRANCH  22  23
HETATM   23  C   UNL     1     -10.544  18.265  67.396  1.00  0.00    -0.425 C  
HETATM   24  C   UNL     1     -10.469  19.763  67.160  1.00  0.00    -0.592 C  
ENDBRANCH  22  23
ENDBRANCH  20  21
ENDBRANCH  19  20
ENDBRANCH  17  18
ENDBRANCH  16  17
ENDBRANCH  14  15
ENDBRANCH  13  14
ENDBRANCH  11  12
ENDBRANCH  10  11
ENDBRANCH   8   9
ENDBRANCH   7   8
ENDBRANCH   6   7
ENDBRANCH   4   6
ENDBRANCH   3   4
ENDBRANCH   2   3
TORSDOF 15
ENDMDL
MODEL       79
REMARK 921   NORMALIZED FREE ENERGY PREDICTED BY IDOCK:   -4.63 KCAL/MOL
REMARK 922        TOTAL FREE ENERGY PREDICTED BY IDOCK:  -11.24 KCAL/MOL
REMARK 923 INTER-LIGAND FREE ENERGY PREDICTED BY IDOCK:   -8.05 KCAL/MOL
REMARK 924 INTRA-LIGAND FREE ENERGY PREDICTED BY IDOCK:   -3.19 KCAL/MOL
REMARK 927      BINDING AFFINITY PREDICTED BY RF-SCORE:    0.00 PKD
ROOT
HETATM    1  C   UNL     1     -10.218   4.894  71.036  1.00  0.00    -0.262 C  
HETATM    2  C   UNL     1     -10.741   5.490  69.742  1.00  0.00    -0.285 C  
ENDROOT
BRANCH   2   3
HETATM    3  O   UNL     1      -9.646   6.150  69.097  1.00  0.00    -0.133 OA 
BRANCH   3   4
HETATM    4  C   UNL     1     -10.018   7.091  68.185  1.00  0.00    -0.151 C  
HETATM    5  O   UNL     1     -10.914   6.969  67.365  1.00  0.00    -0.292 OA 
BRANCH   4   6
HETATM    6  C   UNL     1      -9.214   8.340  68.424  1.00  0.00    -0.135 C  
BRANCH   6   7
HETATM    7  C   UNL     1      -8.485   8.253  69.769  1.00  0.00    -0.128 C  
BRANCH   7   8
HETATM    8  C   UNL     1      -9.021   9.260  70.774  1.00  0.00    -0.292 C  
BRANCH   8   9
HETATM    9  C   UNL     1      -9.603   8.594  71.997  1.00  0.00    -0.385 C  
HETATM   10  C   UNL     1     -10.903   8.320  72.188  1.00  0.00    -0.390 C  
BRANCH  10  11
HETATM   11  C   UNL     1     -11.998   8.780  71.281  1.00  0.00    -0.353 C  
BRANCH  11  12
HETATM   12  C   UNL     1     -12.398  10.214  71.442  1.00  0.00    -0.515 C  
HETATM   13  C   UNL     1     -12.294  11.128  70.461  1.00  0.00    -0.454 C  
BRANCH  13  14
HETATM   14  C   UNL     1     -11.793  10.935  69.047  1.00  0.00    -0.370 C  
BRANCH  14  15
HETATM   15  C   UNL     1     -10.657  11.837  68.637  1.00  0.00    -0.250 C  
HETATM   16  C   UNL     1     -10.773  13.045  68.066  1.00  0.00    -0.248 C  
BRANCH  16  17
HETATM   17  C   UNL     1     -12.055  13.633  67.573  1.00  0.00    -0.352 C  
BRANCH  17  18
HETATM   18  C   UNL     1     -11.779  14.441  66.333  1.00  0.00    -0.397 C  
HETATM   19  C   UNL     1     -12.004  14.014  65.082  1.00  0.00    -0.392 C  
BRANCH  19  20
HETATM   20  C   UNL     1     -12.536  12.664  64.733  1.00  0.00    -0.530 C  
BRANCH  20  21
HETATM   21  C   UNL     1     -11.897  12.103  63.499  1.00  0.00    -0.597 C  
HETATM   22  C   UNL     1     -10.695  11.506  63.475  1.00  0.00    -0.483 C  
BRANCH  22  23
HETATM   23  C   UNL     1      -9.781  11.336  64.650  1.00  0.00    -0.294 C  
HETATM   24  C   UNL     1      -9.990   9.997  65.334  1.00  0.00    -0.364 C  
ENDBRANCH  22  23
ENDBRANCH  20  21
ENDBRANCH  19  20
ENDBRANCH  17  18
ENDBRANCH  16  17
ENDBRANCH  14  15
ENDBRANCH  13  14
ENDBRANCH  11  12
ENDBRANCH  10  11
ENDBRANCH   8   9
ENDBRANCH   7   8
ENDBRANCH   6   7
ENDBRANCH   4   6
ENDBRANCH   3   4
ENDBRANCH   2   3
TORSDOF 15
ENDMDL
MODEL       80
REMARK 921   NORMALIZED FREE ENERGY PREDICTED BY IDOCK:   -4.63 KCAL/MOL
REMARK 922        TOTAL FREE ENERGY PREDICTED BY IDOCK:  -11.24 KCAL/MOL
REMARK 923 INTER-LIGAND FREE ENERGY PREDICTED BY IDOCK:   -8.14 KCAL/MOL
REMARK 924 INTRA-LIGAND FREE ENERGY PREDICTED BY IDOCK:   -3.10 KCAL/MOL
REMARK 927      BINDING AFFINITY PREDICTED BY RF-SCORE:    0.00 PKD
ROOT
HETATM    1  C   UNL     1     -11.943  14.166  66.673  1.00  0.00    -0.470 C  
HETATM    2  C   UNL     1     -12.735  13.933  65.399  1.00  0.00    -0.490 C  
ENDROOT
BRANCH   2   3
HETATM    3  O   UNL     1     -11.796  13.665  64.351  1.00  0.00    -0.389 OA 
BRANCH   3   4
HETATM    4  C   UNL     1     -12.024  12.502  63.678  1.00  0.00    -0.537 C  
HETATM    5  O   UNL     1     -13.118  12.082  63.339  1.00  0.00    -0.747 OA 
BRANCH   4   6
HETATM    6  C   UNL     1     -10.700  11.878  63.333  1.00  0.00    -0.476 C  
BRANCH   6   7
HETATM    7  C   UNL     1     -10.008  11.364  64.599  1.00  0.00    -0.315 C  
BRANCH   7   8
HETATM    8  C   UNL     1      -9.457   9.958  64.417  1.00  0.00    -0.304 C  
BRANCH   8   9
HETATM    9  C   UNL     1      -7.971   9.889  64.674  1.00  0.00    -0.141 C  
HETATM   10  C   UNL     1      -7.329   8.856  65.243  1.00  0.00    -0.088 C  
BRANCH  10  11
HETATM   11  C   UNL     1      -8.013   7.679  65.857  1.00  0.00    -0.116 C  
BRANCH  11  12
HETATM   12  C   UNL     1      -7.860   7.555  67.342  1.00  0.00    -0.118 C  
HETATM   13  C   UNL     1      -8.642   8.202  68.225  1.00  0.00    -0.130 C  
BRANCH  13  14
HETATM   14  C   UNL     1      -9.798   9.137  67.948  1.00  0.00    -0.204 C  
BRANCH  14  15
HETATM   15  C   UNL     1      -9.547  10.586  68.277  1.00  0.00    -0.164 C  
HETATM   16  C   UNL     1     -10.432  11.439  68.817  1.00  0.00    -0.228 C  
BRANCH  16  17
HETATM   17  C   UNL     1     -11.881  11.144  69.021  1.00  0.00    -0.418 C  
BRANCH  17  18
HETATM   18  C   UNL     1     -12.280  11.578  70.405  1.00  0.00    -0.442 C  
HETATM   19  C   UNL     1     -12.425  10.749  71.450  1.00  0.00    -0.478 C  
BRANCH  19  20
HETATM   20  C   UNL     1     -12.238   9.270  71.387  1.00  0.00    -0.426 C  
BRANCH  20  21
HETATM   21  C   UNL     1     -10.821   8.864  71.661  1.00  0.00    -0.420 C  
HETATM   22  C   UNL     1     -10.373   7.600  71.602  1.00  0.00    -0.221 C  
BRANCH  22  23
HETATM   23  C   UNL     1     -11.205   6.392  71.298  1.00  0.00    -0.346 C  
HETATM   24  C   UNL     1     -11.146   6.026  69.827  1.00  0.00    -0.476 C  
ENDBRANCH  22  23
ENDBRANCH  20  21
ENDBRANCH  19  20
ENDBRANCH  17  18
ENDBRANCH  16  17
ENDBRANCH  14  15
ENDBRANCH  13  14
ENDBRANCH  11  12
ENDBRANCH  10  11
ENDBRANCH   8   9
ENDBRANCH   7   8
ENDBRANCH   6   7
ENDBRANCH   4   6
ENDBRANCH   3   4
ENDBRANCH   2   3
TORSDOF 15
ENDMDL
MODEL       81
REMARK 921   NORMALIZED FREE ENERGY PREDICTED BY IDOCK:   -4.63 KCAL/MOL
REMARK 922        TOTAL FREE ENERGY PREDICTED BY IDOCK:  -11.24 KCAL/MOL
REMARK 923 INTER-LIGAND FREE ENERGY PREDICTED BY IDOCK:   -8.40 KCAL/MOL
REMARK 924 INTRA-LIGAND FREE ENERGY PREDICTED BY IDOCK:   -2.84 KCAL/MOL
REMARK 927      BINDING AFFINITY PREDICTED BY RF-SCORE:    0.00 PKD
ROOT
HETATM    1  C   UNL     1      -7.157  18.821  68.747  1.00  0.00    -0.335 C  
HETATM    2  C   UNL     1      -8.315  19.646  68.215  1.00  0.00    -0.318 C  
ENDROOT
BRANCH   2   3
HETATM    3  O   UNL     1      -9.519  19.119  68.784  1.00  0.00    -0.374 OA 
BRANCH   3   4
HETATM    4  C   UNL     1     -10.434  18.698  67.867  1.00  0.00    -0.385 C  
HETATM    5  O   UNL     1     -10.966  19.400  67.022  1.00  0.00    -0.467 OA 
BRANCH   4   6
HETATM    6  C   UNL     1     -10.599  17.209  67.999  1.00  0.00    -0.374 C  
BRANCH   6   7
HETATM    7  C   UNL     1     -10.158  16.508  66.710  1.00  0.00    -0.290 C  
BRANCH   7   8
HETATM    8  C   UNL     1     -10.234  14.994  66.829  1.00  0.00    -0.260 C  
BRANCH   8   9
HETATM    9  C   UNL     1     -11.654  14.501  66.969  1.00  0.00    -0.402 C  
HETATM   10  C   UNL     1     -12.159  13.883  68.049  1.00  0.00    -0.318 C  
BRANCH  10  11
HETATM   11  C   UNL     1     -11.343  13.445  69.221  1.00  0.00    -0.314 C  
BRANCH  11  12
HETATM   12  C   UNL     1     -12.081  13.382  70.523  1.00  0.00    -0.399 C  
HETATM   13  C   UNL     1     -12.592  12.246  71.032  1.00  0.00    -0.352 C  
BRANCH  13  14
HETATM   14  C   UNL     1     -12.535  10.849  70.455  1.00  0.00    -0.411 C  
BRANCH  14  15
HETATM   15  C   UNL     1     -11.742   9.852  71.260  1.00  0.00    -0.472 C  
HETATM   16  C   UNL     1     -10.476   9.475  71.026  1.00  0.00    -0.377 C  
BRANCH  16  17
HETATM   17  C   UNL     1      -9.686   9.852  69.815  1.00  0.00    -0.266 C  
BRANCH  17  18
HETATM   18  C   UNL     1      -9.951   8.848  68.726  1.00  0.00    -0.195 C  
HETATM   19  C   UNL     1     -10.484   9.146  67.532  1.00  0.00    -0.335 C  
BRANCH  19  20
HETATM   20  C   UNL     1     -10.917  10.513  67.117  1.00  0.00    -0.294 C  
BRANCH  20  21
HETATM   21  C   UNL     1      -9.786  11.323  66.560  1.00  0.00    -0.230 C  
HETATM   22  C   UNL     1      -9.575  11.527  65.251  1.00  0.00    -0.244 C  
BRANCH  22  23
HETATM   23  C   UNL     1     -10.395  10.954  64.135  1.00  0.00    -0.432 C  
HETATM   24  C   UNL     1     -11.554  11.862  63.768  1.00  0.00    -0.555 C  
ENDBRANCH  22  23
ENDBRANCH  20  21
ENDBRANCH  19  20
ENDBRANCH  17  18
ENDBRANCH  16  17
ENDBRANCH  14  15
ENDBRANCH  13  14
ENDBRANCH  11  12
ENDBRANCH  10  11
ENDBRANCH   8   9
ENDBRANCH   7   8
ENDBRANCH   6   7
ENDBRANCH   4   6
ENDBRANCH   3   4
ENDBRANCH   2   3
TORSDOF 15
ENDMDL
MODEL       82
REMARK 921   NORMALIZED FREE ENERGY PREDICTED BY IDOCK:   -4.63 KCAL/MOL
REMARK 922        TOTAL FREE ENERGY PREDICTED BY IDOCK:  -11.24 KCAL/MOL
REMARK 923 INTER-LIGAND FREE ENERGY PREDICTED BY IDOCK:   -7.71 KCAL/MOL
REMARK 924 INTRA-LIGAND FREE ENERGY PREDICTED BY IDOCK:   -3.53 KCAL/MOL
REMARK 927      BINDING AFFINITY PREDICTED BY RF-SCORE:    0.00 PKD
ROOT
HETATM    1  C   UNL     1     -12.048   9.570  71.509  1.00  0.00    -0.468 C  
HETATM    2  C   UNL     1     -12.589  10.677  70.622  1.00  0.00    -0.365 C  
ENDROOT
BRANCH   2   3
HETATM    3  O   UNL     1     -12.707  11.855  71.428  1.00  0.00    -0.366 OA 
BRANCH   3   4
HETATM    4  C   UNL     1     -12.518  13.020  70.747  1.00  0.00    -0.302 C  
HETATM    5  O   UNL     1     -12.902  14.122  71.106  1.00  0.00    -0.326 OA 
BRANCH   4   6
HETATM    6  C   UNL     1     -11.669  12.740  69.538  1.00  0.00    -0.383 C  
BRANCH   6   7
HETATM    7  C   UNL     1     -12.127  13.599  68.356  1.00  0.00    -0.312 C  
BRANCH   7   8
HETATM    8  C   UNL     1     -11.908  12.900  67.023  1.00  0.00    -0.437 C  
BRANCH   8   9
HETATM    9  C   UNL     1     -12.651  13.573  65.895  1.00  0.00    -0.454 C  
HETATM   10  C   UNL     1     -12.093  14.350  64.952  1.00  0.00    -0.442 C  
BRANCH  10  11
HETATM   11  C   UNL     1     -10.668  14.797  64.970  1.00  0.00    -0.452 C  
BRANCH  11  12
HETATM   12  C   UNL     1     -10.450  16.216  65.396  1.00  0.00    -0.396 C  
HETATM   13  C   UNL     1      -9.963  16.563  66.601  1.00  0.00    -0.284 C  
BRANCH  13  14
HETATM   14  C   UNL     1      -9.533  15.659  67.736  1.00  0.00    -0.208 C  
BRANCH  14  15
HETATM   15  C   UNL     1      -8.108  15.175  67.669  1.00  0.00    -0.177 C  
HETATM   16  C   UNL     1      -7.708  13.936  67.343  1.00  0.00    -0.165 C  
BRANCH  16  17
HETATM   17  C   UNL     1      -8.622  12.768  67.162  1.00  0.00    -0.197 C  
BRANCH  17  18
HETATM   18  C   UNL     1      -8.300  11.727  68.201  1.00  0.00    -0.156 C  
HETATM   19  C   UNL     1      -8.896  10.529  68.285  1.00  0.00    -0.139 C  
BRANCH  19  20
HETATM   20  C   UNL     1      -9.984  10.061  67.378  1.00  0.00    -0.242 C  
BRANCH  20  21
HETATM   21  C   UNL     1      -9.452   9.338  66.178  1.00  0.00    -0.298 C  
HETATM   22  C   UNL     1      -9.634   9.742  64.911  1.00  0.00    -0.316 C  
BRANCH  22  23
HETATM   23  C   UNL     1     -10.422  10.942  64.482  1.00  0.00    -0.393 C  
HETATM   24  C   UNL     1      -9.865  11.554  63.210  1.00  0.00    -0.431 C  
ENDBRANCH  22  23
ENDBRANCH  20  21
ENDBRANCH  19  20
ENDBRANCH  17  18
ENDBRANCH  16  17
ENDBRANCH  14  15
ENDBRANCH  13  14
ENDBRANCH  11  12
ENDBRANCH  10  11
ENDBRANCH   8   9
ENDBRANCH   7   8
ENDBRANCH   6   7
ENDBRANCH   4   6
ENDBRANCH   3   4
ENDBRANCH   2   3
TORSDOF 15
ENDMDL
MODEL       83
REMARK 921   NORMALIZED FREE ENERGY PREDICTED BY IDOCK:   -4.62 KCAL/MOL
REMARK 922        TOTAL FREE ENERGY PREDICTED BY IDOCK:  -11.23 KCAL/MOL
REMARK 923 INTER-LIGAND FREE ENERGY PREDICTED BY IDOCK:   -8.58 KCAL/MOL
REMARK 924 INTRA-LIGAND FREE ENERGY PREDICTED BY IDOCK:   -2.65 KCAL/MOL
REMARK 927      BINDING AFFINITY PREDICTED BY RF-SCORE:    0.00 PKD
ROOT
HETATM    1  C   UNL     1      -8.768   8.437  71.343  1.00  0.00    -0.218 C  
HETATM    2  C   UNL     1      -9.859   8.491  72.398  1.00  0.00    -0.288 C  
ENDROOT
BRANCH   2   3
HETATM    3  O   UNL     1     -10.656   7.310  72.255  1.00  0.00    -0.211 OA 
BRANCH   3   4
HETATM    4  C   UNL     1     -11.848   7.512  71.626  1.00  0.00    -0.291 C  
HETATM    5  O   UNL     1     -12.278   6.856  70.692  1.00  0.00    -0.365 OA 
BRANCH   4   6
HETATM    6  C   UNL     1     -12.591   8.607  72.342  1.00  0.00    -0.426 C  
BRANCH   6   7
HETATM    7  C   UNL     1     -13.371   9.464  71.340  1.00  0.00    -0.417 C  
BRANCH   7   8
HETATM    8  C   UNL     1     -12.456  10.372  70.532  1.00  0.00    -0.403 C  
BRANCH   8   9
HETATM    9  C   UNL     1     -12.520  11.807  70.995  1.00  0.00    -0.411 C  
HETATM   10  C   UNL     1     -12.280  12.882  70.228  1.00  0.00    -0.362 C  
BRANCH  10  11
HETATM   11  C   UNL     1     -11.755  12.814  68.831  1.00  0.00    -0.370 C  
BRANCH  11  12
HETATM   12  C   UNL     1     -11.299  14.120  68.257  1.00  0.00    -0.319 C  
HETATM   13  C   UNL     1     -11.601  14.529  67.011  1.00  0.00    -0.402 C  
BRANCH  13  14
HETATM   14  C   UNL     1     -12.430  13.819  65.965  1.00  0.00    -0.491 C  
BRANCH  14  15
HETATM   15  C   UNL     1     -12.132  14.203  64.538  1.00  0.00    -0.489 C  
HETATM   16  C   UNL     1     -12.042  13.362  63.496  1.00  0.00    -0.497 C  
BRANCH  16  17
HETATM   17  C   UNL     1     -12.047  11.873  63.602  1.00  0.00    -0.580 C  
BRANCH  17  18
HETATM   18  C   UNL     1     -10.629  11.372  63.553  1.00  0.00    -0.468 C  
HETATM   19  C   UNL     1      -9.932  10.960  64.622  1.00  0.00    -0.369 C  
BRANCH  19  20
HETATM   20  C   UNL     1     -10.450  10.960  66.021  1.00  0.00    -0.287 C  
BRANCH  20  21
HETATM   21  C   UNL     1      -9.369  10.710  67.028  1.00  0.00    -0.175 C  
HETATM   22  C   UNL     1      -9.366   9.686  67.896  1.00  0.00    -0.141 C  
BRANCH  22  23
HETATM   23  C   UNL     1     -10.445   8.656  68.033  1.00  0.00    -0.254 C  
HETATM   24  C   UNL     1     -10.183   7.448  67.151  1.00  0.00    -0.347 C  
ENDBRANCH  22  23
ENDBRANCH  20  21
ENDBRANCH  19  20
ENDBRANCH  17  18
ENDBRANCH  16  17
ENDBRANCH  14  15
ENDBRANCH  13  14
ENDBRANCH  11  12
ENDBRANCH  10  11
ENDBRANCH   8   9
ENDBRANCH   7   8
ENDBRANCH   6   7
ENDBRANCH   4   6
ENDBRANCH   3   4
ENDBRANCH   2   3
TORSDOF 15
ENDMDL
MODEL       84
REMARK 921   NORMALIZED FREE ENERGY PREDICTED BY IDOCK:   -4.61 KCAL/MOL
REMARK 922        TOTAL FREE ENERGY PREDICTED BY IDOCK:  -11.20 KCAL/MOL
REMARK 923 INTER-LIGAND FREE ENERGY PREDICTED BY IDOCK:   -8.90 KCAL/MOL
REMARK 924 INTRA-LIGAND FREE ENERGY PREDICTED BY IDOCK:   -2.30 KCAL/MOL
REMARK 927      BINDING AFFINITY PREDICTED BY RF-SCORE:    0.00 PKD
ROOT
HETATM    1  C   UNL     1     -13.014  10.993  71.523  1.00  0.00    -0.553 C  
HETATM    2  C   UNL     1     -12.281  10.006  70.633  1.00  0.00    -0.269 C  
ENDROOT
BRANCH   2   3
HETATM    3  O   UNL     1     -10.878  10.178  70.862  1.00  0.00    -0.290 OA 
BRANCH   3   4
HETATM    4  C   UNL     1     -10.100   9.952  69.766  1.00  0.00    -0.242 C  
HETATM    5  O   UNL     1      -8.971   9.489  69.781  1.00  0.00    -0.167 OA 
BRANCH   4   6
HETATM    6  C   UNL     1     -10.901  10.269  68.533  1.00  0.00    -0.281 C  
BRANCH   6   7
HETATM    7  C   UNL     1     -10.146   9.817  67.279  1.00  0.00    -0.261 C  
BRANCH   7   8
HETATM    8  C   UNL     1      -9.910  10.967  66.311  1.00  0.00    -0.261 C  
BRANCH   8   9
HETATM    9  C   UNL     1     -10.138  10.562  64.876  1.00  0.00    -0.403 C  
HETATM   10  C   UNL     1     -10.498  11.391  63.882  1.00  0.00    -0.444 C  
BRANCH  10  11
HETATM   11  C   UNL     1     -10.882  12.820  64.082  1.00  0.00    -0.437 C  
BRANCH  11  12
HETATM   12  C   UNL     1     -12.289  13.043  64.545  1.00  0.00    -0.461 C  
HETATM   13  C   UNL     1     -12.602  13.681  65.688  1.00  0.00    -0.531 C  
BRANCH  13  14
HETATM   14  C   UNL     1     -11.669  14.298  66.705  1.00  0.00    -0.417 C  
BRANCH  14  15
HETATM   15  C   UNL     1     -11.694  13.663  68.071  1.00  0.00    -0.387 C  
HETATM   16  C   UNL     1     -11.920  14.295  69.233  1.00  0.00    -0.375 C  
BRANCH  16  17
HETATM   17  C   UNL     1     -12.013  15.778  69.390  1.00  0.00    -0.321 C  
BRANCH  17  18
HETATM   18  C   UNL     1     -10.634  16.333  69.626  1.00  0.00    -0.320 C  
HETATM   19  C   UNL     1     -10.039  17.247  68.846  1.00  0.00    -0.331 C  
BRANCH  19  20
HETATM   20  C   UNL     1     -10.646  17.829  67.614  1.00  0.00    -0.385 C  
BRANCH  20  21
HETATM   21  C   UNL     1     -10.703  19.327  67.660  1.00  0.00    -0.533 C  
HETATM   22  C   UNL     1      -9.756  20.135  67.158  1.00  0.00    -0.576 C  
BRANCH  22  23
HETATM   23  C   UNL     1      -8.481  19.688  66.511  1.00  0.00    -0.374 C  
HETATM   24  C   UNL     1      -7.334  19.644  67.504  1.00  0.00    -0.284 C  
ENDBRANCH  22  23
ENDBRANCH  20  21
ENDBRANCH  19  20
ENDBRANCH  17  18
ENDBRANCH  16  17
ENDBRANCH  14  15
ENDBRANCH  13  14
ENDBRANCH  11  12
ENDBRANCH  10  11
ENDBRANCH   8   9
ENDBRANCH   7   8
ENDBRANCH   6   7
ENDBRANCH   4   6
ENDBRANCH   3   4
ENDBRANCH   2   3
TORSDOF 15
ENDMDL
MODEL       85
REMARK 921   NORMALIZED FREE ENERGY PREDICTED BY IDOCK:   -4.61 KCAL/MOL
REMARK 922        TOTAL FREE ENERGY PREDICTED BY IDOCK:  -11.20 KCAL/MOL
REMARK 923 INTER-LIGAND FREE ENERGY PREDICTED BY IDOCK:   -7.86 KCAL/MOL
REMARK 924 INTRA-LIGAND FREE ENERGY PREDICTED BY IDOCK:   -3.34 KCAL/MOL
REMARK 927      BINDING AFFINITY PREDICTED BY RF-SCORE:    0.00 PKD
ROOT
HETATM    1  C   UNL     1     -10.073  10.538  64.682  1.00  0.00    -0.408 C  
HETATM    2  C   UNL     1     -11.192  11.293  63.988  1.00  0.00    -0.151 C  
ENDROOT
BRANCH   2   3
HETATM    3  O   UNL     1     -10.674  12.572  63.602  1.00  0.00    -0.430 OA 
BRANCH   3   4
HETATM    4  C   UNL     1     -11.491  13.620  63.899  1.00  0.00    -0.181 C  
HETATM    5  O   UNL     1     -12.635  13.765  63.498  1.00  0.00    -0.814 OA 
BRANCH   4   6
HETATM    6  C   UNL     1     -10.790  14.513  64.886  1.00  0.00    -0.436 C  
BRANCH   6   7
HETATM    7  C   UNL     1     -11.696  14.789  66.090  1.00  0.00    -0.255 C  
BRANCH   7   8
HETATM    8  C   UNL     1     -11.903  13.549  66.945  1.00  0.00    -0.452 C  
BRANCH   8   9
HETATM    9  C   UNL     1     -10.600  12.973  67.443  1.00  0.00    -0.239 C  
HETATM   10  C   UNL     1     -10.474  11.859  68.182  1.00  0.00    -0.225 C  
BRANCH  10  11
HETATM   11  C   UNL     1     -11.625  11.104  68.761  1.00  0.00    -0.389 C  
BRANCH  11  12
HETATM   12  C   UNL     1     -12.090  11.581  70.103  1.00  0.00    -0.432 C  
HETATM   13  C   UNL     1     -12.480  10.754  71.090  1.00  0.00    -0.519 C  
BRANCH  13  14
HETATM   14  C   UNL     1     -12.528   9.242  71.084  1.00  0.00    -0.341 C  
BRANCH  14  15
HETATM   15  C   UNL     1     -12.391   8.588  72.435  1.00  0.00    -0.424 C  
HETATM   16  C   UNL     1     -11.447   7.705  72.795  1.00  0.00    -0.384 C  
BRANCH  16  17
HETATM   17  C   UNL     1     -10.467   7.079  71.857  1.00  0.00    -0.223 C  
BRANCH  17  18
HETATM   18  C   UNL     1      -9.074   7.467  72.273  1.00  0.00    -0.173 C  
HETATM   19  C   UNL     1      -8.383   8.491  71.751  1.00  0.00    -0.221 C  
BRANCH  19  20
HETATM   20  C   UNL     1      -8.883   9.381  70.663  1.00  0.00    -0.275 C  
BRANCH  20  21
HETATM   21  C   UNL     1      -8.202   9.115  69.354  1.00  0.00    -0.118 C  
HETATM   22  C   UNL     1      -8.742   8.404  68.352  1.00  0.00    -0.136 C  
BRANCH  22  23
HETATM   23  C   UNL     1     -10.080   7.729  68.383  1.00  0.00    -0.215 C  
HETATM   24  C   UNL     1     -10.607   7.463  66.985  1.00  0.00    -0.414 C  
ENDBRANCH  22  23
ENDBRANCH  20  21
ENDBRANCH  19  20
ENDBRANCH  17  18
ENDBRANCH  16  17
ENDBRANCH  14  15
ENDBRANCH  13  14
ENDBRANCH  11  12
ENDBRANCH  10  11
ENDBRANCH   8   9
ENDBRANCH   7   8
ENDBRANCH   6   7
ENDBRANCH   4   6
ENDBRANCH   3   4
ENDBRANCH   2   3
TORSDOF 15
ENDMDL
MODEL       86
REMARK 921   NORMALIZED FREE ENERGY PREDICTED BY IDOCK:   -4.59 KCAL/MOL
REMARK 922        TOTAL FREE ENERGY PREDICTED BY IDOCK:  -11.16 KCAL/MOL
REMARK 923 INTER-LIGAND FREE ENERGY PREDICTED BY IDOCK:   -8.17 KCAL/MOL
REMARK 924 INTRA-LIGAND FREE ENERGY PREDICTED BY IDOCK:   -2.99 KCAL/MOL
REMARK 927      BINDING AFFINITY PREDICTED BY RF-SCORE:    0.00 PKD
ROOT
HETATM    1  C   UNL     1     -12.606  13.065  64.929  1.00  0.00    -0.490 C  
HETATM    2  C   UNL     1     -11.912  12.963  63.583  1.00  0.00    -0.541 C  
ENDROOT
BRANCH   2   3
HETATM    3  O   UNL     1     -11.589  11.585  63.366  1.00  0.00    -0.363 OA 
BRANCH   3   4
HETATM    4  C   UNL     1     -10.258  11.304  63.440  1.00  0.00    -0.403 C  
HETATM    5  O   UNL     1      -9.384  11.830  62.770  1.00  0.00    -0.351 OA 
BRANCH   4   6
HETATM    6  C   UNL     1     -10.034  10.317  64.552  1.00  0.00    -0.359 C  
BRANCH   6   7
HETATM    7  C   UNL     1      -9.353  11.001  65.741  1.00  0.00    -0.236 C  
BRANCH   7   8
HETATM    8  C   UNL     1      -9.235  10.075  66.942  1.00  0.00    -0.169 C  
BRANCH   8   9
HETATM    9  C   UNL     1     -10.124   8.862  66.818  1.00  0.00    -0.350 C  
HETATM   10  C   UNL     1     -10.511   8.075  67.835  1.00  0.00    -0.259 C  
BRANCH  10  11
HETATM   11  C   UNL     1      -9.987   8.189  69.229  1.00  0.00    -0.188 C  
BRANCH  11  12
HETATM   12  C   UNL     1     -10.447   7.121  70.172  1.00  0.00    -0.231 C  
HETATM   13  C   UNL     1     -10.984   7.378  71.379  1.00  0.00    -0.258 C  
BRANCH  13  14
HETATM   14  C   UNL     1     -11.246   8.721  72.024  1.00  0.00    -0.443 C  
BRANCH  14  15
HETATM   15  C   UNL     1     -12.679   9.185  71.987  1.00  0.00    -0.473 C  
HETATM   16  C   UNL     1     -13.140  10.281  71.365  1.00  0.00    -0.512 C  
BRANCH  16  17
HETATM   17  C   UNL     1     -12.278  11.332  70.746  1.00  0.00    -0.479 C  
BRANCH  17  18
HETATM   18  C   UNL     1     -12.132  11.044  69.276  1.00  0.00    -0.363 C  
HETATM   19  C   UNL     1     -11.896  11.974  68.339  1.00  0.00    -0.360 C  
BRANCH  19  20
HETATM   20  C   UNL     1     -11.770  13.435  68.612  1.00  0.00    -0.384 C  
BRANCH  20  21
HETATM   21  C   UNL     1     -10.353  13.845  68.877  1.00  0.00    -0.163 C  
HETATM   22  C   UNL     1      -9.562  14.456  67.981  1.00  0.00    -0.216 C  
BRANCH  22  23
HETATM   23  C   UNL     1      -9.939  14.792  66.571  1.00  0.00    -0.283 C  
HETATM   24  C   UNL     1     -10.488  16.203  66.458  1.00  0.00    -0.298 C  
ENDBRANCH  22  23
ENDBRANCH  20  21
ENDBRANCH  19  20
ENDBRANCH  17  18
ENDBRANCH  16  17
ENDBRANCH  14  15
ENDBRANCH  13  14
ENDBRANCH  11  12
ENDBRANCH  10  11
ENDBRANCH   8   9
ENDBRANCH   7   8
ENDBRANCH   6   7
ENDBRANCH   4   6
ENDBRANCH   3   4
ENDBRANCH   2   3
TORSDOF 15
ENDMDL
MODEL       87
REMARK 921   NORMALIZED FREE ENERGY PREDICTED BY IDOCK:   -4.59 KCAL/MOL
REMARK 922        TOTAL FREE ENERGY PREDICTED BY IDOCK:  -11.16 KCAL/MOL
REMARK 923 INTER-LIGAND FREE ENERGY PREDICTED BY IDOCK:   -8.57 KCAL/MOL
REMARK 924 INTRA-LIGAND FREE ENERGY PREDICTED BY IDOCK:   -2.59 KCAL/MOL
REMARK 927      BINDING AFFINITY PREDICTED BY RF-SCORE:    0.00 PKD
ROOT
HETATM    1  C   UNL     1     -10.632  19.634  66.559  1.00  0.00    -0.591 C  
HETATM    2  C   UNL     1      -9.835  19.058  67.714  1.00  0.00    -0.336 C  
ENDROOT
BRANCH   2   3
HETATM    3  O   UNL     1      -9.714  17.647  67.494  1.00  0.00    -0.269 OA 
BRANCH   3   4
HETATM    4  C   UNL     1      -9.488  16.921  68.625  1.00  0.00    -0.268 C  
HETATM    5  O   UNL     1      -8.395  16.706  69.122  1.00  0.00    -0.215 OA 
BRANCH   4   6
HETATM    6  C   UNL     1     -10.813  16.520  69.213  1.00  0.00    -0.326 C  
BRANCH   6   7
HETATM    7  C   UNL     1     -10.760  15.070  69.704  1.00  0.00    -0.270 C  
BRANCH   7   8
HETATM    8  C   UNL     1     -10.662  14.082  68.552  1.00  0.00    -0.266 C  
BRANCH   8   9
HETATM    9  C   UNL     1     -12.012  13.755  67.962  1.00  0.00    -0.390 C  
HETATM   10  C   UNL     1     -12.334  13.847  66.662  1.00  0.00    -0.411 C  
BRANCH  10  11
HETATM   11  C   UNL     1     -11.446  14.441  65.618  1.00  0.00    -0.336 C  
BRANCH  11  12
HETATM   12  C   UNL     1     -12.002  14.432  64.227  1.00  0.00    -0.433 C  
HETATM   13  C   UNL     1     -12.148  13.313  63.495  1.00  0.00    -0.550 C  
BRANCH  13  14
HETATM   14  C   UNL     1     -11.820  11.888  63.881  1.00  0.00    -0.509 C  
BRANCH  14  15
HETATM   15  C   UNL     1     -10.371  11.500  63.741  1.00  0.00    -0.450 C  
HETATM   16  C   UNL     1      -9.554  11.120  64.736  1.00  0.00    -0.279 C  
BRANCH  16  17
HETATM   17  C   UNL     1      -9.896  11.187  66.188  1.00  0.00    -0.265 C  
BRANCH  17  18
HETATM   18  C   UNL     1     -10.487   9.870  66.614  1.00  0.00    -0.239 C  
HETATM   19  C   UNL     1     -10.734   9.524  67.886  1.00  0.00    -0.285 C  
BRANCH  19  20
HETATM   20  C   UNL     1     -10.435  10.383  69.069  1.00  0.00    -0.240 C  
BRANCH  20  21
HETATM   21  C   UNL     1     -11.664  10.707  69.862  1.00  0.00    -0.395 C  
HETATM   22  C   UNL     1     -11.981  10.133  71.033  1.00  0.00    -0.474 C  
BRANCH  22  23
HETATM   23  C   UNL     1     -11.195   9.057  71.719  1.00  0.00    -0.448 C  
HETATM   24  C   UNL     1     -11.818   7.688  71.509  1.00  0.00    -0.323 C  
ENDBRANCH  22  23
ENDBRANCH  20  21
ENDBRANCH  19  20
ENDBRANCH  17  18
ENDBRANCH  16  17
ENDBRANCH  14  15
ENDBRANCH  13  14
ENDBRANCH  11  12
ENDBRANCH  10  11
ENDBRANCH   8   9
ENDBRANCH   7   8
ENDBRANCH   6   7
ENDBRANCH   4   6
ENDBRANCH   3   4
ENDBRANCH   2   3
TORSDOF 15
ENDMDL
MODEL       88
REMARK 921   NORMALIZED FREE ENERGY PREDICTED BY IDOCK:   -4.58 KCAL/MOL
REMARK 922        TOTAL FREE ENERGY PREDICTED BY IDOCK:  -11.15 KCAL/MOL
REMARK 923 INTER-LIGAND FREE ENERGY PREDICTED BY IDOCK:   -7.87 KCAL/MOL
REMARK 924 INTRA-LIGAND FREE ENERGY PREDICTED BY IDOCK:   -3.28 KCAL/MOL
REMARK 927      BINDING AFFINITY PREDICTED BY RF-SCORE:    0.00 PKD
ROOT
HETATM    1  C   UNL     1     -11.703  15.787  71.400  1.00  0.00    -0.508 C  
HETATM    2  C   UNL     1     -12.961  15.108  70.889  1.00  0.00    -0.429 C  
ENDROOT
BRANCH   2   3
HETATM    3  O   UNL     1     -12.577  13.839  70.348  1.00  0.00    -0.314 OA 
BRANCH   3   4
HETATM    4  C   UNL     1     -12.805  12.784  71.180  1.00  0.00    -0.226 C  
HETATM    5  O   UNL     1     -13.428  12.829  72.229  1.00  0.00    -0.565 OA 
BRANCH   4   6
HETATM    6  C   UNL     1     -12.256  11.538  70.540  1.00  0.00    -0.469 C  
BRANCH   6   7
HETATM    7  C   UNL     1     -12.001  11.775  69.048  1.00  0.00    -0.341 C  
BRANCH   7   8
HETATM    8  C   UNL     1     -10.616  11.310  68.625  1.00  0.00    -0.231 C  
BRANCH   8   9
HETATM    9  C   UNL     1     -10.650   9.969  67.934  1.00  0.00    -0.298 C  
HETATM   10  C   UNL     1     -10.230   9.730  66.681  1.00  0.00    -0.296 C  
BRANCH  10  11
HETATM   11  C   UNL     1      -9.811  10.795  65.720  1.00  0.00    -0.292 C  
BRANCH  11  12
HETATM   12  C   UNL     1     -10.113  10.509  64.281  1.00  0.00    -0.380 C  
HETATM   13  C   UNL     1     -10.778  11.361  63.479  1.00  0.00    -0.453 C  
BRANCH  13  14
HETATM   14  C   UNL     1     -11.331  12.728  63.814  1.00  0.00    -0.520 C  
BRANCH  14  15
HETATM   15  C   UNL     1     -12.324  12.761  64.948  1.00  0.00    -0.551 C  
HETATM   16  C   UNL     1     -12.484  13.759  65.830  1.00  0.00    -0.512 C  
BRANCH  16  17
HETATM   17  C   UNL     1     -11.580  14.942  65.949  1.00  0.00    -0.228 C  
BRANCH  17  18
HETATM   18  C   UNL     1     -11.237  15.153  67.400  1.00  0.00    -0.323 C  
HETATM   19  C   UNL     1     -10.069  14.810  67.962  1.00  0.00    -0.218 C  
BRANCH  19  20
HETATM   20  C   UNL     1      -8.946  14.143  67.239  1.00  0.00    -0.221 C  
BRANCH  20  21
HETATM   21  C   UNL     1      -7.646  14.259  67.976  1.00  0.00    -0.144 C  
HETATM   22  C   UNL     1      -6.655  13.357  67.905  1.00  0.00    -0.149 C  
BRANCH  22  23
HETATM   23  C   UNL     1      -6.690  12.080  67.122  1.00  0.00    -0.136 C  
HETATM   24  C   UNL     1      -6.903  10.876  68.022  1.00  0.00    -0.068 C  
ENDBRANCH  22  23
ENDBRANCH  20  21
ENDBRANCH  19  20
ENDBRANCH  17  18
ENDBRANCH  16  17
ENDBRANCH  14  15
ENDBRANCH  13  14
ENDBRANCH  11  12
ENDBRANCH  10  11
ENDBRANCH   8   9
ENDBRANCH   7   8
ENDBRANCH   6   7
ENDBRANCH   4   6
ENDBRANCH   3   4
ENDBRANCH   2   3
TORSDOF 15
ENDMDL
MODEL       89
REMARK 921   NORMALIZED FREE ENERGY PREDICTED BY IDOCK:   -4.57 KCAL/MOL
REMARK 922        TOTAL FREE ENERGY PREDICTED BY IDOCK:  -11.12 KCAL/MOL
REMARK 923 INTER-LIGAND FREE ENERGY PREDICTED BY IDOCK:   -7.44 KCAL/MOL
REMARK 924 INTRA-LIGAND FREE ENERGY PREDICTED BY IDOCK:   -3.68 KCAL/MOL
REMARK 927      BINDING AFFINITY PREDICTED BY RF-SCORE:    0.00 PKD
ROOT
HETATM    1  C   UNL     1     -11.597  11.608  63.717  1.00  0.00    -0.430 C  
HETATM    2  C   UNL     1     -12.182  12.986  63.464  1.00  0.00    -0.501 C  
ENDROOT
BRANCH   2   3
HETATM    3  O   UNL     1     -12.670  13.484  64.715  1.00  0.00    -0.639 OA 
BRANCH   3   4
HETATM    4  C   UNL     1     -11.713  14.042  65.508  1.00  0.00    -0.350 C  
HETATM    5  O   UNL     1     -10.708  14.611  65.113  1.00  0.00    -0.358 OA 
BRANCH   4   6
HETATM    6  C   UNL     1     -12.152  13.932  66.942  1.00  0.00    -0.467 C  
BRANCH   6   7
HETATM    7  C   UNL     1     -11.754  12.570  67.518  1.00  0.00    -0.439 C  
BRANCH   7   8
HETATM    8  C   UNL     1     -11.530  12.629  69.021  1.00  0.00    -0.354 C  
BRANCH   8   9
HETATM    9  C   UNL     1     -12.177  11.471  69.741  1.00  0.00    -0.310 C  
HETATM   10  C   UNL     1     -11.558  10.333  70.095  1.00  0.00    -0.376 C  
BRANCH  10  11
HETATM   11  C   UNL     1     -10.167   9.974  69.686  1.00  0.00    -0.267 C  
BRANCH  11  12
HETATM   12  C   UNL     1     -10.004   8.594  69.126  1.00  0.00    -0.193 C  
HETATM   13  C   UNL     1     -10.041   8.318  67.810  1.00  0.00    -0.262 C  
BRANCH  13  14
HETATM   14  C   UNL     1     -10.229   9.275  66.655  1.00  0.00    -0.323 C  
BRANCH  14  15
HETATM   15  C   UNL     1      -9.007   9.505  65.803  1.00  0.00    -0.219 C  
HETATM   16  C   UNL     1      -8.291  10.638  65.736  1.00  0.00    -0.162 C  
BRANCH  16  17
HETATM   17  C   UNL     1      -8.689  11.933  66.367  1.00  0.00    -0.118 C  
BRANCH  17  18
HETATM   18  C   UNL     1      -7.945  12.096  67.665  1.00  0.00    -0.157 C  
HETATM   19  C   UNL     1      -7.851  13.246  68.347  1.00  0.00    -0.137 C  
BRANCH  19  20
HETATM   20  C   UNL     1      -8.448  14.541  67.908  1.00  0.00    -0.161 C  
BRANCH  20  21
HETATM   21  C   UNL     1      -9.090  15.284  69.040  1.00  0.00    -0.225 C  
HETATM   22  C   UNL     1      -9.893  16.349  68.886  1.00  0.00    -0.260 C  
BRANCH  22  23
HETATM   23  C   UNL     1     -10.248  16.993  67.581  1.00  0.00    -0.317 C  
HETATM   24  C   UNL     1     -10.173  18.506  67.663  1.00  0.00    -0.417 C  
ENDBRANCH  22  23
ENDBRANCH  20  21
ENDBRANCH  19  20
ENDBRANCH  17  18
ENDBRANCH  16  17
ENDBRANCH  14  15
ENDBRANCH  13  14
ENDBRANCH  11  12
ENDBRANCH  10  11
ENDBRANCH   8   9
ENDBRANCH   7   8
ENDBRANCH   6   7
ENDBRANCH   4   6
ENDBRANCH   3   4
ENDBRANCH   2   3
TORSDOF 15
ENDMDL
MODEL       90
REMARK 921   NORMALIZED FREE ENERGY PREDICTED BY IDOCK:   -4.56 KCAL/MOL
REMARK 922        TOTAL FREE ENERGY PREDICTED BY IDOCK:  -11.11 KCAL/MOL
REMARK 923 INTER-LIGAND FREE ENERGY PREDICTED BY IDOCK:   -8.46 KCAL/MOL
REMARK 924 INTRA-LIGAND FREE ENERGY PREDICTED BY IDOCK:   -2.66 KCAL/MOL
REMARK 927      BINDING AFFINITY PREDICTED BY RF-SCORE:    0.00 PKD
ROOT
HETATM    1  C   UNL     1     -13.032   7.404  71.596  1.00  0.00    -0.409 C  
HETATM    2  C   UNL     1     -13.147   8.826  72.114  1.00  0.00    -0.406 C  
ENDROOT
BRANCH   2   3
HETATM    3  O   UNL     1     -12.259   9.640  71.340  1.00  0.00    -0.332 OA 
BRANCH   3   4
HETATM    4  C   UNL     1     -12.596  10.960  71.305  1.00  0.00    -0.421 C  
HETATM    5  O   UNL     1     -13.325  11.527  72.103  1.00  0.00    -0.477 OA 
BRANCH   4   6
HETATM    6  C   UNL     1     -11.840  11.621  70.186  1.00  0.00    -0.428 C  
BRANCH   6   7
HETATM    7  C   UNL     1     -12.120  13.127  70.172  1.00  0.00    -0.392 C  
BRANCH   7   8
HETATM    8  C   UNL     1     -11.986  13.719  68.777  1.00  0.00    -0.400 C  
BRANCH   8   9
HETATM    9  C   UNL     1     -11.679  12.670  67.737  1.00  0.00    -0.412 C  
HETATM   10  C   UNL     1     -11.807  12.830  66.410  1.00  0.00    -0.472 C  
BRANCH  10  11
HETATM   11  C   UNL     1     -12.426  14.028  65.767  1.00  0.00    -0.523 C  
BRANCH  11  12
HETATM   12  C   UNL     1     -11.622  14.647  64.666  1.00  0.00    -0.406 C  
HETATM   13  C   UNL     1     -10.819  15.712  64.842  1.00  0.00    -0.438 C  
BRANCH  13  14
HETATM   14  C   UNL     1     -10.545  16.481  66.115  1.00  0.00    -0.239 C  
BRANCH  14  15
HETATM   15  C   UNL     1     -10.551  17.982  65.975  1.00  0.00    -0.258 C  
HETATM   16  C   UNL     1     -10.182  18.865  66.916  1.00  0.00    -0.443 C  
BRANCH  16  17
HETATM   17  C   UNL     1      -9.867  18.516  68.333  1.00  0.00    -0.404 C  
BRANCH  17  18
HETATM   18  C   UNL     1      -8.470  18.976  68.653  1.00  0.00    -0.394 C  
HETATM   19  C   UNL     1      -7.367  18.231  68.484  1.00  0.00    -0.297 C  
BRANCH  19  20
HETATM   20  C   UNL     1      -7.365  16.827  67.979  1.00  0.00    -0.167 C  
BRANCH  20  21
HETATM   21  C   UNL     1      -7.796  15.846  69.027  1.00  0.00    -0.216 C  
HETATM   22  C   UNL     1      -8.180  14.586  68.770  1.00  0.00    -0.146 C  
BRANCH  22  23
HETATM   23  C   UNL     1      -8.282  13.965  67.410  1.00  0.00    -0.198 C  
HETATM   24  C   UNL     1      -8.003  12.474  67.452  1.00  0.00    -0.180 C  
ENDBRANCH  22  23
ENDBRANCH  20  21
ENDBRANCH  19  20
ENDBRANCH  17  18
ENDBRANCH  16  17
ENDBRANCH  14  15
ENDBRANCH  13  14
ENDBRANCH  11  12
ENDBRANCH  10  11
ENDBRANCH   8   9
ENDBRANCH   7   8
ENDBRANCH   6   7
ENDBRANCH   4   6
ENDBRANCH   3   4
ENDBRANCH   2   3
TORSDOF 15
ENDMDL
MODEL       91
REMARK 921   NORMALIZED FREE ENERGY PREDICTED BY IDOCK:   -4.56 KCAL/MOL
REMARK 922        TOTAL FREE ENERGY PREDICTED BY IDOCK:  -11.11 KCAL/MOL
REMARK 923 INTER-LIGAND FREE ENERGY PREDICTED BY IDOCK:   -8.52 KCAL/MOL
REMARK 924 INTRA-LIGAND FREE ENERGY PREDICTED BY IDOCK:   -2.59 KCAL/MOL
REMARK 927      BINDING AFFINITY PREDICTED BY RF-SCORE:    0.00 PKD
ROOT
HETATM    1  C   UNL     1     -10.374  12.358  68.482  1.00  0.00    -0.232 C  
HETATM    2  C   UNL     1     -11.360  11.228  68.247  1.00  0.00    -0.289 C  
ENDROOT
BRANCH   2   3
HETATM    3  O   UNL     1     -10.928  10.109  69.030  1.00  0.00    -0.218 OA 
BRANCH   3   4
HETATM    4  C   UNL     1     -10.193   9.192  68.341  1.00  0.00    -0.200 C  
HETATM    5  O   UNL     1      -9.358   8.444  68.823  1.00  0.00    -0.143 OA 
BRANCH   4   6
HETATM    6  C   UNL     1     -10.654   9.183  66.909  1.00  0.00    -0.237 C  
BRANCH   6   7
HETATM    7  C   UNL     1      -9.453   9.088  65.964  1.00  0.00    -0.323 C  
BRANCH   7   8
HETATM    8  C   UNL     1      -9.006  10.454  65.469  1.00  0.00    -0.199 C  
BRANCH   8   9
HETATM    9  C   UNL     1      -9.148  10.596  63.973  1.00  0.00    -0.246 C  
HETATM   10  C   UNL     1     -10.186  11.166  63.341  1.00  0.00    -0.435 C  
BRANCH  10  11
HETATM   11  C   UNL     1     -11.440  11.608  64.022  1.00  0.00    -0.404 C  
BRANCH  11  12
HETATM   12  C   UNL     1     -12.041  12.873  63.491  1.00  0.00    -0.633 C  
HETATM   13  C   UNL     1     -12.102  14.018  64.195  1.00  0.00    -0.456 C  
BRANCH  13  14
HETATM   14  C   UNL     1     -11.598  14.288  65.595  1.00  0.00    -0.346 C  
BRANCH  14  15
HETATM   15  C   UNL     1     -10.183  14.800  65.683  1.00  0.00    -0.382 C  
HETATM   16  C   UNL     1      -9.718  15.687  66.576  1.00  0.00    -0.286 C  
BRANCH  16  17
HETATM   17  C   UNL     1     -10.569  16.458  67.531  1.00  0.00    -0.309 C  
BRANCH  17  18
HETATM   18  C   UNL     1     -10.073  16.220  68.932  1.00  0.00    -0.251 C  
HETATM   19  C   UNL     1     -10.829  15.756  69.937  1.00  0.00    -0.330 C  
BRANCH  19  20
HETATM   20  C   UNL     1     -12.281  15.431  69.821  1.00  0.00    -0.336 C  
BRANCH  20  21
HETATM   21  C   UNL     1     -12.670  14.256  70.667  1.00  0.00    -0.409 C  
HETATM   22  C   UNL     1     -13.215  14.352  71.889  1.00  0.00    -0.444 C  
BRANCH  22  23
HETATM   23  C   UNL     1     -13.487  15.628  72.626  1.00  0.00    -0.655 C  
HETATM   24  C   UNL     1     -12.589  15.777  73.840  1.00  0.00    -0.754 C  
ENDBRANCH  22  23
ENDBRANCH  20  21
ENDBRANCH  19  20
ENDBRANCH  17  18
ENDBRANCH  16  17
ENDBRANCH  14  15
ENDBRANCH  13  14
ENDBRANCH  11  12
ENDBRANCH  10  11
ENDBRANCH   8   9
ENDBRANCH   7   8
ENDBRANCH   6   7
ENDBRANCH   4   6
ENDBRANCH   3   4
ENDBRANCH   2   3
TORSDOF 15
ENDMDL
MODEL       92
REMARK 921   NORMALIZED FREE ENERGY PREDICTED BY IDOCK:   -4.55 KCAL/MOL
REMARK 922        TOTAL FREE ENERGY PREDICTED BY IDOCK:  -11.10 KCAL/MOL
REMARK 923 INTER-LIGAND FREE ENERGY PREDICTED BY IDOCK:   -8.50 KCAL/MOL
REMARK 924 INTRA-LIGAND FREE ENERGY PREDICTED BY IDOCK:   -2.60 KCAL/MOL
REMARK 927      BINDING AFFINITY PREDICTED BY RF-SCORE:    0.00 PKD
ROOT
HETATM    1  C   UNL     1      -7.005  13.263  68.089  1.00  0.00    -0.114 C  
HETATM    2  C   UNL     1      -8.372  13.916  68.195  1.00  0.00    -0.163 C  
ENDROOT
BRANCH   2   3
HETATM    3  O   UNL     1      -9.080  13.633  66.983  1.00  0.00    -0.231 OA 
BRANCH   3   4
HETATM    4  C   UNL     1     -10.018  14.564  66.652  1.00  0.00    -0.270 C  
HETATM    5  O   UNL     1      -9.837  15.525  65.922  1.00  0.00    -0.301 OA 
BRANCH   4   6
HETATM    6  C   UNL     1     -11.336  14.153  67.249  1.00  0.00    -0.349 C  
BRANCH   6   7
HETATM    7  C   UNL     1     -11.969  13.031  66.420  1.00  0.00    -0.466 C  
BRANCH   7   8
HETATM    8  C   UNL     1     -12.477  13.531  65.077  1.00  0.00    -0.462 C  
BRANCH   8   9
HETATM    9  C   UNL     1     -12.769  12.402  64.119  1.00  0.00    -0.446 C  
HETATM   10  C   UNL     1     -11.848  11.721  63.418  1.00  0.00    -0.435 C  
BRANCH  10  11
HETATM   11  C   UNL     1     -10.401  12.085  63.360  1.00  0.00    -0.468 C  
BRANCH  11  12
HETATM   12  C   UNL     1      -9.461  10.934  63.178  1.00  0.00    -0.361 C  
HETATM   13  C   UNL     1      -8.926  10.244  64.202  1.00  0.00    -0.263 C  
BRANCH  13  14
HETATM   14  C   UNL     1      -9.143  10.445  65.685  1.00  0.00    -0.206 C  
BRANCH  14  15
HETATM   15  C   UNL     1     -10.260   9.632  66.289  1.00  0.00    -0.286 C  
HETATM   16  C   UNL     1     -10.742   9.753  67.535  1.00  0.00    -0.327 C  
BRANCH  16  17
HETATM   17  C   UNL     1     -10.132  10.601  68.604  1.00  0.00    -0.194 C  
BRANCH  17  18
HETATM   18  C   UNL     1     -10.294   9.908  69.930  1.00  0.00    -0.298 C  
HETATM   19  C   UNL     1     -11.344  10.070  70.749  1.00  0.00    -0.439 C  
BRANCH  19  20
HETATM   20  C   UNL     1     -12.494  10.980  70.477  1.00  0.00    -0.432 C  
BRANCH  20  21
HETATM   21  C   UNL     1     -13.088  11.537  71.736  1.00  0.00    -0.503 C  
HETATM   22  C   UNL     1     -13.138  12.845  72.034  1.00  0.00    -0.483 C  
BRANCH  22  23
HETATM   23  C   UNL     1     -12.582  13.953  71.193  1.00  0.00    -0.446 C  
HETATM   24  C   UNL     1     -13.463  15.188  71.238  1.00  0.00    -0.559 C  
ENDBRANCH  22  23
ENDBRANCH  20  21
ENDBRANCH  19  20
ENDBRANCH  17  18
ENDBRANCH  16  17
ENDBRANCH  14  15
ENDBRANCH  13  14
ENDBRANCH  11  12
ENDBRANCH  10  11
ENDBRANCH   8   9
ENDBRANCH   7   8
ENDBRANCH   6   7
ENDBRANCH   4   6
ENDBRANCH   3   4
ENDBRANCH   2   3
TORSDOF 15
ENDMDL
MODEL       93
REMARK 921   NORMALIZED FREE ENERGY PREDICTED BY IDOCK:   -4.55 KCAL/MOL
REMARK 922        TOTAL FREE ENERGY PREDICTED BY IDOCK:  -11.10 KCAL/MOL
REMARK 923 INTER-LIGAND FREE ENERGY PREDICTED BY IDOCK:   -9.16 KCAL/MOL
REMARK 924 INTRA-LIGAND FREE ENERGY PREDICTED BY IDOCK:   -1.94 KCAL/MOL
REMARK 927      BINDING AFFINITY PREDICTED BY RF-SCORE:    0.00 PKD
ROOT
HETATM    1  C   UNL     1     -12.621  13.375  65.094  1.00  0.00    -0.495 C  
HETATM    2  C   UNL     1     -12.013  13.134  63.724  1.00  0.00    -0.508 C  
ENDROOT
BRANCH   2   3
HETATM    3  O   UNL     1     -11.739  11.732  63.615  1.00  0.00    -0.449 OA 
BRANCH   3   4
HETATM    4  C   UNL     1     -10.413  11.420  63.602  1.00  0.00    -0.414 C  
HETATM    5  O   UNL     1      -9.576  11.911  62.863  1.00  0.00    -0.367 OA 
BRANCH   4   6
HETATM    6  C   UNL     1     -10.135  10.451  64.718  1.00  0.00    -0.387 C  
BRANCH   6   7
HETATM    7  C   UNL     1      -9.913  11.204  66.034  1.00  0.00    -0.280 C  
BRANCH   7   8
HETATM    8  C   UNL     1     -10.292  10.363  67.243  1.00  0.00    -0.278 C  
BRANCH   8   9
HETATM    9  C   UNL     1     -10.144   8.884  66.981  1.00  0.00    -0.331 C  
HETATM   10  C   UNL     1      -9.657   7.986  67.852  1.00  0.00    -0.178 C  
BRANCH  10  11
HETATM   11  C   UNL     1      -9.036   8.341  69.163  1.00  0.00    -0.148 C  
BRANCH  11  12
HETATM   12  C   UNL     1      -9.592   7.614  70.349  1.00  0.00    -0.168 C  
HETATM   13  C   UNL     1     -10.489   8.152  71.195  1.00  0.00    -0.238 C  
BRANCH  13  14
HETATM   14  C   UNL     1     -11.120   9.525  71.147  1.00  0.00    -0.450 C  
BRANCH  14  15
HETATM   15  C   UNL     1     -12.538   9.601  71.652  1.00  0.00    -0.493 C  
HETATM   16  C   UNL     1     -13.281  10.713  71.760  1.00  0.00    -0.526 C  
BRANCH  16  17
HETATM   17  C   UNL     1     -12.766  12.101  71.562  1.00  0.00    -0.348 C  
BRANCH  17  18
HETATM   18  C   UNL     1     -13.657  13.064  72.301  1.00  0.00    -0.643 C  
HETATM   19  C   UNL     1     -13.329  14.331  72.593  1.00  0.00    -0.619 C  
BRANCH  19  20
HETATM   20  C   UNL     1     -12.022  14.965  72.252  1.00  0.00    -0.396 C  
BRANCH  20  21
HETATM   21  C   UNL     1     -12.144  15.951  71.129  1.00  0.00    -0.464 C  
HETATM   22  C   UNL     1     -12.020  15.637  69.830  1.00  0.00    -0.376 C  
BRANCH  22  23
HETATM   23  C   UNL     1     -11.702  14.276  69.289  1.00  0.00    -0.363 C  
HETATM   24  C   UNL     1     -10.358  14.253  68.583  1.00  0.00    -0.246 C  
ENDBRANCH  22  23
ENDBRANCH  20  21
ENDBRANCH  19  20
ENDBRANCH  17  18
ENDBRANCH  16  17
ENDBRANCH  14  15
ENDBRANCH  13  14
ENDBRANCH  11  12
ENDBRANCH  10  11
ENDBRANCH   8   9
ENDBRANCH   7   8
ENDBRANCH   6   7
ENDBRANCH   4   6
ENDBRANCH   3   4
ENDBRANCH   2   3
TORSDOF 15
ENDMDL
MODEL       94
REMARK 921   NORMALIZED FREE ENERGY PREDICTED BY IDOCK:   -4.55 KCAL/MOL
REMARK 922        TOTAL FREE ENERGY PREDICTED BY IDOCK:  -11.09 KCAL/MOL
REMARK 923 INTER-LIGAND FREE ENERGY PREDICTED BY IDOCK:   -8.19 KCAL/MOL
REMARK 924 INTRA-LIGAND FREE ENERGY PREDICTED BY IDOCK:   -2.90 KCAL/MOL
REMARK 927      BINDING AFFINITY PREDICTED BY RF-SCORE:    0.00 PKD
ROOT
HETATM    1  C   UNL     1     -11.749  13.165  67.449  1.00  0.00    -0.419 C  
HETATM    2  C   UNL     1     -12.152  14.102  66.325  1.00  0.00    -0.442 C  
ENDROOT
BRANCH   2   3
HETATM    3  O   UNL     1     -11.496  13.653  65.133  1.00  0.00    -0.306 OA 
BRANCH   3   4
HETATM    4  C   UNL     1     -12.143  12.645  64.485  1.00  0.00    -0.417 C  
HETATM    5  O   UNL     1     -13.338  12.407  64.555  1.00  0.00    -0.800 OA 
BRANCH   4   6
HETATM    6  C   UNL     1     -11.161  11.940  63.589  1.00  0.00    -0.522 C  
BRANCH   6   7
HETATM    7  C   UNL     1      -9.838  11.713  64.326  1.00  0.00    -0.259 C  
BRANCH   7   8
HETATM    8  C   UNL     1      -9.849  10.424  65.133  1.00  0.00    -0.378 C  
BRANCH   8   9
HETATM    9  C   UNL     1      -8.552  10.201  65.874  1.00  0.00    -0.156 C  
HETATM   10  C   UNL     1      -8.426  10.099  67.206  1.00  0.00    -0.125 C  
BRANCH  10  11
HETATM   11  C   UNL     1      -9.536  10.350  68.174  1.00  0.00    -0.155 C  
BRANCH  11  12
HETATM   12  C   UNL     1      -9.268   9.905  69.579  1.00  0.00    -0.238 C  
HETATM   13  C   UNL     1     -10.233   9.748  70.504  1.00  0.00    -0.321 C  
BRANCH  13  14
HETATM   14  C   UNL     1     -11.723   9.956  70.352  1.00  0.00    -0.333 C  
BRANCH  14  15
HETATM   15  C   UNL     1     -12.537   9.726  71.600  1.00  0.00    -0.509 C  
HETATM   16  C   UNL     1     -12.924   8.536  72.084  1.00  0.00    -0.403 C  
BRANCH  16  17
HETATM   17  C   UNL     1     -12.764   7.235  71.368  1.00  0.00    -0.427 C  
BRANCH  17  18
HETATM   18  C   UNL     1     -12.143   6.233  72.305  1.00  0.00    -0.255 C  
HETATM   19  C   UNL     1     -10.895   5.756  72.187  1.00  0.00    -0.296 C  
BRANCH  19  20
HETATM   20  C   UNL     1      -9.947   6.127  71.097  1.00  0.00    -0.218 C  
BRANCH  20  21
HETATM   21  C   UNL     1      -9.929   5.115  69.990  1.00  0.00    -0.326 C  
HETATM   22  C   UNL     1     -10.416   5.334  68.759  1.00  0.00    -0.166 C  
BRANCH  22  23
HETATM   23  C   UNL     1     -11.087   6.590  68.296  1.00  0.00    -0.332 C  
HETATM   24  C   UNL     1     -10.479   7.109  67.006  1.00  0.00    -0.392 C  
ENDBRANCH  22  23
ENDBRANCH  20  21
ENDBRANCH  19  20
ENDBRANCH  17  18
ENDBRANCH  16  17
ENDBRANCH  14  15
ENDBRANCH  13  14
ENDBRANCH  11  12
ENDBRANCH  10  11
ENDBRANCH   8   9
ENDBRANCH   7   8
ENDBRANCH   6   7
ENDBRANCH   4   6
ENDBRANCH   3   4
ENDBRANCH   2   3
TORSDOF 15
ENDMDL
MODEL       95
REMARK 921   NORMALIZED FREE ENERGY PREDICTED BY IDOCK:   -4.55 KCAL/MOL
REMARK 922        TOTAL FREE ENERGY PREDICTED BY IDOCK:  -11.09 KCAL/MOL
REMARK 923 INTER-LIGAND FREE ENERGY PREDICTED BY IDOCK:   -8.72 KCAL/MOL
REMARK 924 INTRA-LIGAND FREE ENERGY PREDICTED BY IDOCK:   -2.37 KCAL/MOL
REMARK 927      BINDING AFFINITY PREDICTED BY RF-SCORE:    0.00 PKD
ROOT
HETATM    1  C   UNL     1     -10.496  19.196  66.497  1.00  0.00    -0.534 C  
HETATM    2  C   UNL     1      -9.753  17.879  66.361  1.00  0.00    -0.316 C  
ENDROOT
BRANCH   2   3
HETATM    3  O   UNL     1     -10.492  17.059  65.448  1.00  0.00    -0.619 OA 
BRANCH   3   4
HETATM    4  C   UNL     1     -10.800  15.822  65.931  1.00  0.00    -0.268 C  
HETATM    5  O   UNL     1     -10.693  15.467  67.093  1.00  0.00    -0.306 OA 
BRANCH   4   6
HETATM    6  C   UNL     1     -11.391  15.004  64.816  1.00  0.00    -0.409 C  
BRANCH   6   7
HETATM    7  C   UNL     1     -12.493  14.087  65.356  1.00  0.00    -0.520 C  
BRANCH   7   8
HETATM    8  C   UNL     1     -12.260  12.632  64.979  1.00  0.00    -0.535 C  
BRANCH   8   9
HETATM    9  C   UNL     1     -10.881  12.155  65.363  1.00  0.00    -0.335 C  
HETATM   10  C   UNL     1     -10.581  11.449  66.465  1.00  0.00    -0.309 C  
BRANCH  10  11
HETATM   11  C   UNL     1     -11.551  11.161  67.564  1.00  0.00    -0.220 C  
BRANCH  11  12
HETATM   12  C   UNL     1     -11.658  12.225  68.613  1.00  0.00    -0.372 C  
HETATM   13  C   UNL     1     -11.724  11.965  69.931  1.00  0.00    -0.383 C  
BRANCH  13  14
HETATM   14  C   UNL     1     -11.693  10.621  70.625  1.00  0.00    -0.454 C  
BRANCH  14  15
HETATM   15  C   UNL     1     -12.969  10.226  71.322  1.00  0.00    -0.517 C  
HETATM   16  C   UNL     1     -13.131   9.174  72.139  1.00  0.00    -0.516 C  
BRANCH  16  17
HETATM   17  C   UNL     1     -12.112   8.106  72.362  1.00  0.00    -0.406 C  
BRANCH  17  18
HETATM   18  C   UNL     1     -12.418   6.940  71.460  1.00  0.00    -0.420 C  
HETATM   19  C   UNL     1     -11.667   6.573  70.412  1.00  0.00    -0.439 C  
BRANCH  19  20
HETATM   20  C   UNL     1     -10.431   7.282  69.969  1.00  0.00    -0.234 C  
BRANCH  20  21
HETATM   21  C   UNL     1     -10.381   7.461  68.481  1.00  0.00    -0.221 C  
HETATM   22  C   UNL     1      -9.541   8.296  67.849  1.00  0.00    -0.176 C  
BRANCH  22  23
HETATM   23  C   UNL     1      -8.553   9.207  68.511  1.00  0.00    -0.129 C  
HETATM   24  C   UNL     1      -7.175   8.576  68.591  1.00  0.00    -0.080 C  
ENDBRANCH  22  23
ENDBRANCH  20  21
ENDBRANCH  19  20
ENDBRANCH  17  18
ENDBRANCH  16  17
ENDBRANCH  14  15
ENDBRANCH  13  14
ENDBRANCH  11  12
ENDBRANCH  10  11
ENDBRANCH   8   9
ENDBRANCH   7   8
ENDBRANCH   6   7
ENDBRANCH   4   6
ENDBRANCH   3   4
ENDBRANCH   2   3
TORSDOF 15
ENDMDL
MODEL       96
REMARK 921   NORMALIZED FREE ENERGY PREDICTED BY IDOCK:   -4.54 KCAL/MOL
REMARK 922        TOTAL FREE ENERGY PREDICTED BY IDOCK:  -11.07 KCAL/MOL
REMARK 923 INTER-LIGAND FREE ENERGY PREDICTED BY IDOCK:   -9.04 KCAL/MOL
REMARK 924 INTRA-LIGAND FREE ENERGY PREDICTED BY IDOCK:   -2.03 KCAL/MOL
REMARK 927      BINDING AFFINITY PREDICTED BY RF-SCORE:    0.00 PKD
ROOT
HETATM    1  C   UNL     1     -11.903  13.472  64.039  1.00  0.00    -0.476 C  
HETATM    2  C   UNL     1     -11.676  12.527  65.205  1.00  0.00    -0.378 C  
ENDROOT
BRANCH   2   3
HETATM    3  O   UNL     1     -12.224  13.146  66.375  1.00  0.00    -0.399 OA 
BRANCH   3   4
HETATM    4  C   UNL     1     -11.291  13.572  67.272  1.00  0.00    -0.315 C  
HETATM    5  O   UNL     1     -10.395  14.368  67.040  1.00  0.00    -0.260 OA 
BRANCH   4   6
HETATM    6  C   UNL     1     -11.611  12.981  68.617  1.00  0.00    -0.354 C  
BRANCH   6   7
HETATM    7  C   UNL     1     -12.028  11.515  68.469  1.00  0.00    -0.293 C  
BRANCH   7   8
HETATM    8  C   UNL     1     -10.836  10.573  68.544  1.00  0.00    -0.275 C  
BRANCH   8   9
HETATM    9  C   UNL     1     -10.643   9.791  67.268  1.00  0.00    -0.320 C  
HETATM   10  C   UNL     1     -10.092   8.570  67.181  1.00  0.00    -0.331 C  
BRANCH  10  11
HETATM   11  C   UNL     1      -9.438   7.862  68.322  1.00  0.00    -0.149 C  
BRANCH  11  12
HETATM   12  C   UNL     1      -9.817   6.422  68.481  1.00  0.00    -0.145 C  
HETATM   13  C   UNL     1     -10.715   5.987  69.384  1.00  0.00    -0.403 C  
BRANCH  13  14
HETATM   14  C   UNL     1     -11.514   6.798  70.380  1.00  0.00    -0.419 C  
BRANCH  14  15
HETATM   15  C   UNL     1     -10.774   7.191  71.633  1.00  0.00    -0.236 C  
HETATM   16  C   UNL     1     -10.714   8.422  72.163  1.00  0.00    -0.407 C  
BRANCH  16  17
HETATM   17  C   UNL     1     -11.230   9.658  71.502  1.00  0.00    -0.377 C  
BRANCH  17  18
HETATM   18  C   UNL     1     -12.722   9.726  71.685  1.00  0.00    -0.517 C  
HETATM   19  C   UNL     1     -13.407  10.853  71.927  1.00  0.00    -0.429 C  
BRANCH  19  20
HETATM   20  C   UNL     1     -12.788  12.202  72.078  1.00  0.00    -0.256 C  
BRANCH  20  21
HETATM   21  C   UNL     1     -13.814  13.283  72.245  1.00  0.00    -0.637 C  
HETATM   22  C   UNL     1     -13.538  14.528  72.665  1.00  0.00    -0.577 C  
BRANCH  22  23
HETATM   23  C   UNL     1     -12.187  15.033  73.070  1.00  0.00    -0.456 C  
HETATM   24  C   UNL     1     -12.284  16.066  74.178  1.00  0.00    -0.631 C  
ENDBRANCH  22  23
ENDBRANCH  20  21
ENDBRANCH  19  20
ENDBRANCH  17  18
ENDBRANCH  16  17
ENDBRANCH  14  15
ENDBRANCH  13  14
ENDBRANCH  11  12
ENDBRANCH  10  11
ENDBRANCH   8   9
ENDBRANCH   7   8
ENDBRANCH   6   7
ENDBRANCH   4   6
ENDBRANCH   3   4
ENDBRANCH   2   3
TORSDOF 15
ENDMDL
MODEL       97
REMARK 921   NORMALIZED FREE ENERGY PREDICTED BY IDOCK:   -4.53 KCAL/MOL
REMARK 922        TOTAL FREE ENERGY PREDICTED BY IDOCK:  -11.06 KCAL/MOL
REMARK 923 INTER-LIGAND FREE ENERGY PREDICTED BY IDOCK:   -7.77 KCAL/MOL
REMARK 924 INTRA-LIGAND FREE ENERGY PREDICTED BY IDOCK:   -3.29 KCAL/MOL
REMARK 927      BINDING AFFINITY PREDICTED BY RF-SCORE:    0.00 PKD
ROOT
HETATM    1  C   UNL     1     -10.823  19.616  67.245  1.00  0.00    -0.519 C  
HETATM    2  C   UNL     1      -9.787  18.936  66.370  1.00  0.00    -0.375 C  
ENDROOT
BRANCH   2   3
HETATM    3  O   UNL     1     -10.120  17.544  66.309  1.00  0.00    -0.324 OA 
BRANCH   3   4
HETATM    4  C   UNL     1      -9.080  16.734  65.962  1.00  0.00    -0.190 C  
HETATM    5  O   UNL     1      -7.897  17.021  66.051  1.00  0.00    -0.409 OA 
BRANCH   4   6
HETATM    6  C   UNL     1      -9.629  15.395  65.554  1.00  0.00    -0.253 C  
BRANCH   6   7
HETATM    7  C   UNL     1     -11.156  15.386  65.674  1.00  0.00    -0.272 C  
BRANCH   7   8
HETATM    8  C   UNL     1     -11.677  14.069  66.228  1.00  0.00    -0.401 C  
BRANCH   8   9
HETATM    9  C   UNL     1     -12.629  13.385  65.277  1.00  0.00    -0.518 C  
HETATM   10  C   UNL     1     -12.269  12.613  64.239  1.00  0.00    -0.524 C  
BRANCH  10  11
HETATM   11  C   UNL     1     -10.861  12.442  63.771  1.00  0.00    -0.500 C  
BRANCH  11  12
HETATM   12  C   UNL     1     -10.365  11.028  63.747  1.00  0.00    -0.427 C  
HETATM   13  C   UNL     1      -9.942  10.372  64.842  1.00  0.00    -0.409 C  
BRANCH  13  14
HETATM   14  C   UNL     1      -9.882  10.867  66.269  1.00  0.00    -0.261 C  
BRANCH  14  15
HETATM   15  C   UNL     1      -8.499  11.156  66.794  1.00  0.00    -0.153 C  
HETATM   16  C   UNL     1      -8.171  12.112  67.677  1.00  0.00    -0.163 C  
BRANCH  16  17
HETATM   17  C   UNL     1      -9.101  13.176  68.162  1.00  0.00    -0.200 C  
BRANCH  17  18
HETATM   18  C   UNL     1      -8.295  14.293  68.768  1.00  0.00    -0.095 C  
HETATM   19  C   UNL     1      -8.820  15.399  69.316  1.00  0.00    -0.258 C  
BRANCH  19  20
HETATM   20  C   UNL     1     -10.281  15.697  69.382  1.00  0.00    -0.261 C  
BRANCH  20  21
HETATM   21  C   UNL     1     -10.869  15.365  70.720  1.00  0.00    -0.292 C  
HETATM   22  C   UNL     1     -11.769  14.390  70.928  1.00  0.00    -0.281 C  
BRANCH  22  23
HETATM   23  C   UNL     1     -12.361  13.509  69.872  1.00  0.00    -0.287 C  
HETATM   24  C   UNL     1     -11.951  12.059  70.056  1.00  0.00    -0.400 C  
ENDBRANCH  22  23
ENDBRANCH  20  21
ENDBRANCH  19  20
ENDBRANCH  17  18
ENDBRANCH  16  17
ENDBRANCH  14  15
ENDBRANCH  13  14
ENDBRANCH  11  12
ENDBRANCH  10  11
ENDBRANCH   8   9
ENDBRANCH   7   8
ENDBRANCH   6   7
ENDBRANCH   4   6
ENDBRANCH   3   4
ENDBRANCH   2   3
TORSDOF 15
ENDMDL
MODEL       98
REMARK 921   NORMALIZED FREE ENERGY PREDICTED BY IDOCK:   -4.53 KCAL/MOL
REMARK 922        TOTAL FREE ENERGY PREDICTED BY IDOCK:  -11.06 KCAL/MOL
REMARK 923 INTER-LIGAND FREE ENERGY PREDICTED BY IDOCK:   -7.55 KCAL/MOL
REMARK 924 INTRA-LIGAND FREE ENERGY PREDICTED BY IDOCK:   -3.51 KCAL/MOL
REMARK 927      BINDING AFFINITY PREDICTED BY RF-SCORE:    0.00 PKD
ROOT
HETATM    1  C   UNL     1     -11.630   7.599  72.380  1.00  0.00    -0.386 C  
HETATM    2  C   UNL     1     -12.579   8.778  72.263  1.00  0.00    -0.394 C  
ENDROOT
BRANCH   2   3
HETATM    3  O   UNL     1     -12.341   9.400  70.995  1.00  0.00    -0.297 OA 
BRANCH   3   4
HETATM    4  C   UNL     1     -12.554  10.746  70.983  1.00  0.00    -0.420 C  
HETATM    5  O   UNL     1     -13.142  11.379  71.845  1.00  0.00    -0.492 OA 
BRANCH   4   6
HETATM    6  C   UNL     1     -11.856  11.334  69.787  1.00  0.00    -0.437 C  
BRANCH   6   7
HETATM    7  C   UNL     1     -11.884  12.864  69.854  1.00  0.00    -0.373 C  
BRANCH   7   8
HETATM    8  C   UNL     1     -11.754  13.498  68.478  1.00  0.00    -0.392 C  
BRANCH   8   9
HETATM    9  C   UNL     1     -11.932  12.493  67.366  1.00  0.00    -0.283 C  
HETATM   10  C   UNL     1     -11.956  12.781  66.055  1.00  0.00    -0.491 C  
BRANCH  10  11
HETATM   11  C   UNL     1     -11.968  14.169  65.503  1.00  0.00    -0.394 C  
BRANCH  11  12
HETATM   12  C   UNL     1     -10.625  14.718  65.130  1.00  0.00    -0.439 C  
HETATM   13  C   UNL     1     -10.084  15.808  65.704  1.00  0.00    -0.401 C  
BRANCH  13  14
HETATM   14  C   UNL     1     -10.659  16.675  66.802  1.00  0.00    -0.214 C  
BRANCH  14  15
HETATM   15  C   UNL     1      -9.654  17.495  67.569  1.00  0.00    -0.265 C  
HETATM   16  C   UNL     1      -8.879  17.058  68.573  1.00  0.00    -0.253 C  
BRANCH  16  17
HETATM   17  C   UNL     1      -9.006  15.721  69.226  1.00  0.00    -0.266 C  
BRANCH  17  18
HETATM   18  C   UNL     1      -7.648  15.074  69.288  1.00  0.00    -0.187 C  
HETATM   19  C   UNL     1      -7.293  13.985  68.591  1.00  0.00    -0.120 C  
BRANCH  19  20
HETATM   20  C   UNL     1      -8.200  13.238  67.672  1.00  0.00    -0.179 C  
BRANCH  20  21
HETATM   21  C   UNL     1      -8.424  11.824  68.119  1.00  0.00    -0.158 C  
HETATM   22  C   UNL     1      -8.671  10.799  67.288  1.00  0.00    -0.130 C  
BRANCH  22  23
HETATM   23  C   UNL     1      -8.805  10.895  65.799  1.00  0.00    -0.202 C  
HETATM   24  C   UNL     1      -9.842   9.924  65.265  1.00  0.00    -0.373 C  
ENDBRANCH  22  23
ENDBRANCH  20  21
ENDBRANCH  19  20
ENDBRANCH  17  18
ENDBRANCH  16  17
ENDBRANCH  14  15
ENDBRANCH  13  14
ENDBRANCH  11  12
ENDBRANCH  10  11
ENDBRANCH   8   9
ENDBRANCH   7   8
ENDBRANCH   6   7
ENDBRANCH   4   6
ENDBRANCH   3   4
ENDBRANCH   2   3
TORSDOF 15
ENDMDL
MODEL       99
REMARK 921   NORMALIZED FREE ENERGY PREDICTED BY IDOCK:   -4.53 KCAL/MOL
REMARK 922        TOTAL FREE ENERGY PREDICTED BY IDOCK:  -11.05 KCAL/MOL
REMARK 923 INTER-LIGAND FREE ENERGY PREDICTED BY IDOCK:   -9.08 KCAL/MOL
REMARK 924 INTRA-LIGAND FREE ENERGY PREDICTED BY IDOCK:   -1.97 KCAL/MOL
REMARK 927      BINDING AFFINITY PREDICTED BY RF-SCORE:    0.00 PKD
ROOT
HETATM    1  C   UNL     1      -9.295  10.273  63.457  1.00  0.00    -0.341 C  
HETATM    2  C   UNL     1     -10.427  10.978  64.183  1.00  0.00    -0.366 C  
ENDROOT
BRANCH   2   3
HETATM    3  O   UNL     1     -10.762  12.147  63.426  1.00  0.00    -0.430 OA 
BRANCH   3   4
HETATM    4  C   UNL     1     -12.044  12.577  63.598  1.00  0.00    -0.554 C  
HETATM    5  O   UNL     1     -13.048  11.923  63.366  1.00  0.00    -0.710 OA 
BRANCH   4   6
HETATM    6  C   UNL     1     -12.014  13.946  64.219  1.00  0.00    -0.477 C  
BRANCH   6   7
HETATM    7  C   UNL     1     -12.638  13.910  65.617  1.00  0.00    -0.553 C  
BRANCH   7   8
HETATM    8  C   UNL     1     -11.741  13.209  66.625  1.00  0.00    -0.427 C  
BRANCH   8   9
HETATM    9  C   UNL     1     -11.826  13.831  67.997  1.00  0.00    -0.408 C  
HETATM   10  C   UNL     1     -11.902  13.153  69.154  1.00  0.00    -0.364 C  
BRANCH  10  11
HETATM   11  C   UNL     1     -12.074  11.673  69.248  1.00  0.00    -0.323 C  
BRANCH  11  12
HETATM   12  C   UNL     1     -10.802  10.887  69.332  1.00  0.00    -0.286 C  
HETATM   13  C   UNL     1     -10.572   9.944  70.264  1.00  0.00    -0.359 C  
BRANCH  13  14
HETATM   14  C   UNL     1     -11.491   9.473  71.369  1.00  0.00    -0.462 C  
BRANCH  14  15
HETATM   15  C   UNL     1     -11.006   8.273  72.142  1.00  0.00    -0.396 C  
HETATM   16  C   UNL     1     -10.983   7.006  71.701  1.00  0.00    -0.258 C  
BRANCH  16  17
HETATM   17  C   UNL     1     -11.601   6.538  70.425  1.00  0.00    -0.470 C  
BRANCH  17  18
HETATM   18  C   UNL     1     -10.653   5.592  69.738  1.00  0.00    -0.400 C  
HETATM   19  C   UNL     1     -10.444   5.554  68.414  1.00  0.00    -0.227 C  
BRANCH  19  20
HETATM   20  C   UNL     1     -11.140   6.426  67.423  1.00  0.00    -0.412 C  
BRANCH  20  21
HETATM   21  C   UNL     1     -10.565   7.810  67.380  1.00  0.00    -0.345 C  
HETATM   22  C   UNL     1      -9.482   8.156  66.668  1.00  0.00    -0.274 C  
BRANCH  22  23
HETATM   23  C   UNL     1      -8.648   7.227  65.839  1.00  0.00    -0.159 C  
HETATM   24  C   UNL     1      -7.166   7.412  66.108  1.00  0.00    -0.077 C  
ENDBRANCH  22  23
ENDBRANCH  20  21
ENDBRANCH  19  20
ENDBRANCH  17  18
ENDBRANCH  16  17
ENDBRANCH  14  15
ENDBRANCH  13  14
ENDBRANCH  11  12
ENDBRANCH  10  11
ENDBRANCH   8   9
ENDBRANCH   7   8
ENDBRANCH   6   7
ENDBRANCH   4   6
ENDBRANCH   3   4
ENDBRANCH   2   3
TORSDOF 15
ENDMDL
MODEL      100
REMARK 921   NORMALIZED FREE ENERGY PREDICTED BY IDOCK:   -4.52 KCAL/MOL
REMARK 922        TOTAL FREE ENERGY PREDICTED BY IDOCK:  -11.03 KCAL/MOL
REMARK 923 INTER-LIGAND FREE ENERGY PREDICTED BY IDOCK:   -8.63 KCAL/MOL
REMARK 924 INTRA-LIGAND FREE ENERGY PREDICTED BY IDOCK:   -2.40 KCAL/MOL
REMARK 927      BINDING AFFINITY PREDICTED BY RF-SCORE:    0.00 PKD
ROOT
HETATM    1  C   UNL     1     -13.883   8.643  72.196  1.00  0.00    -0.482 C  
HETATM    2  C   UNL     1     -12.517   8.275  71.647  1.00  0.00    -0.320 C  
ENDROOT
BRANCH   2   3
HETATM    3  O   UNL     1     -11.664   7.996  72.764  1.00  0.00    -0.396 OA 
BRANCH   3   4
HETATM    4  C   UNL     1     -10.333   8.047  72.478  1.00  0.00    -0.306 C  
HETATM    5  O   UNL     1      -9.435   7.673  73.215  1.00  0.00    -0.209 OA 
BRANCH   4   6
HETATM    6  C   UNL     1     -10.161   8.539  71.067  1.00  0.00    -0.255 C  
BRANCH   6   7
HETATM    7  C   UNL     1      -8.748   9.096  70.867  1.00  0.00    -0.277 C  
BRANCH   7   8
HETATM    8  C   UNL     1      -8.644   9.949  69.612  1.00  0.00    -0.207 C  
BRANCH   8   9
HETATM    9  C   UNL     1      -8.572   9.114  68.357  1.00  0.00    -0.129 C  
HETATM   10  C   UNL     1      -8.523   9.596  67.105  1.00  0.00    -0.131 C  
BRANCH  10  11
HETATM   11  C   UNL     1      -8.693  11.038  66.755  1.00  0.00    -0.152 C  
BRANCH  11  12
HETATM   12  C   UNL     1      -9.773  11.329  65.758  1.00  0.00    -0.263 C  
HETATM   13  C   UNL     1     -10.968  11.851  66.089  1.00  0.00    -0.352 C  
BRANCH  13  14
HETATM   14  C   UNL     1     -11.469  12.256  67.457  1.00  0.00    -0.414 C  
BRANCH  14  15
HETATM   15  C   UNL     1     -11.725  11.119  68.413  1.00  0.00    -0.349 C  
HETATM   16  C   UNL     1     -12.154  11.231  69.679  1.00  0.00    -0.391 C  
BRANCH  16  17
HETATM   17  C   UNL     1     -12.285  12.521  70.421  1.00  0.00    -0.368 C  
BRANCH  17  18
HETATM   18  C   UNL     1     -13.034  12.275  71.704  1.00  0.00    -0.416 C  
HETATM   19  C   UNL     1     -13.880  13.148  72.268  1.00  0.00    -0.586 C  
BRANCH  19  20
HETATM   20  C   UNL     1     -14.185  14.504  71.723  1.00  0.00    -0.592 C  
BRANCH  20  21
HETATM   21  C   UNL     1     -13.693  15.601  72.618  1.00  0.00    -0.666 C  
HETATM   22  C   UNL     1     -12.440  16.080  72.609  1.00  0.00    -0.572 C  
BRANCH  22  23
HETATM   23  C   UNL     1     -11.322  15.582  71.744  1.00  0.00    -0.463 C  
HETATM   24  C   UNL     1     -11.276  16.307  70.412  1.00  0.00    -0.336 C  
ENDBRANCH  22  23
ENDBRANCH  20  21
ENDBRANCH  19  20
ENDBRANCH  17  18
ENDBRANCH  16  17
ENDBRANCH  14  15
ENDBRANCH  13  14
ENDBRANCH  11  12
ENDBRANCH  10  11
ENDBRANCH   8   9
ENDBRANCH   7   8
ENDBRANCH   6   7
ENDBRANCH   4   6
ENDBRANCH   3   4
ENDBRANCH   2   3
TORSDOF 15
ENDMDL
MODEL      101
REMARK 921   NORMALIZED FREE ENERGY PREDICTED BY IDOCK:   -4.52 KCAL/MOL
REMARK 922        TOTAL FREE ENERGY PREDICTED BY IDOCK:  -11.03 KCAL/MOL
REMARK 923 INTER-LIGAND FREE ENERGY PREDICTED BY IDOCK:   -7.66 KCAL/MOL
REMARK 924 INTRA-LIGAND FREE ENERGY PREDICTED BY IDOCK:   -3.37 KCAL/MOL
REMARK 927      BINDING AFFINITY PREDICTED BY RF-SCORE:    0.00 PKD
ROOT
HETATM    1  C   UNL     1     -12.716  15.562  73.791  1.00  0.00    -0.735 C  
HETATM    2  C   UNL     1     -12.907  15.748  72.297  1.00  0.00    -0.447 C  
ENDROOT
BRANCH   2   3
HETATM    3  O   UNL     1     -11.691  16.293  71.771  1.00  0.00    -0.486 OA 
BRANCH   3   4
HETATM    4  C   UNL     1     -11.409  15.904  70.496  1.00  0.00    -0.390 C  
HETATM    5  O   UNL     1     -10.896  16.604  69.638  1.00  0.00    -0.341 OA 
BRANCH   4   6
HETATM    6  C   UNL     1     -11.736  14.443  70.354  1.00  0.00    -0.346 C  
BRANCH   6   7
HETATM    7  C   UNL     1     -11.862  14.068  68.874  1.00  0.00    -0.390 C  
BRANCH   7   8
HETATM    8  C   UNL     1     -10.984  12.881  68.510  1.00  0.00    -0.288 C  
BRANCH   8   9
HETATM    9  C   UNL     1     -11.616  12.004  67.456  1.00  0.00    -0.401 C  
HETATM   10  C   UNL     1     -11.214  11.914  66.178  1.00  0.00    -0.387 C  
BRANCH  10  11
HETATM   11  C   UNL     1     -10.175  12.792  65.562  1.00  0.00    -0.293 C  
BRANCH  11  12
HETATM   12  C   UNL     1     -10.686  13.773  64.552  1.00  0.00    -0.405 C  
HETATM   13  C   UNL     1     -10.814  15.090  64.795  1.00  0.00    -0.375 C  
BRANCH  13  14
HETATM   14  C   UNL     1     -10.480  15.848  66.060  1.00  0.00    -0.357 C  
BRANCH  14  15
HETATM   15  C   UNL     1      -9.102  16.457  66.103  1.00  0.00    -0.362 C  
HETATM   16  C   UNL     1      -8.041  15.966  66.762  1.00  0.00    -0.301 C  
BRANCH  16  17
HETATM   17  C   UNL     1      -8.089  14.819  67.717  1.00  0.00    -0.161 C  
BRANCH  17  18
HETATM   18  C   UNL     1      -6.707  14.239  67.857  1.00  0.00    -0.177 C  
HETATM   19  C   UNL     1      -6.384  12.969  67.572  1.00  0.00    -0.153 C  
BRANCH  19  20
HETATM   20  C   UNL     1      -7.352  11.936  67.100  1.00  0.00    -0.142 C  
BRANCH  20  21
HETATM   21  C   UNL     1      -7.847  11.068  68.217  1.00  0.00    -0.121 C  
HETATM   22  C   UNL     1      -8.367   9.842  68.047  1.00  0.00    -0.110 C  
BRANCH  22  23
HETATM   23  C   UNL     1      -8.576   9.157  66.731  1.00  0.00    -0.133 C  
HETATM   24  C   UNL     1      -9.987   8.613  66.600  1.00  0.00    -0.357 C  
ENDBRANCH  22  23
ENDBRANCH  20  21
ENDBRANCH  19  20
ENDBRANCH  17  18
ENDBRANCH  16  17
ENDBRANCH  14  15
ENDBRANCH  13  14
ENDBRANCH  11  12
ENDBRANCH  10  11
ENDBRANCH   8   9
ENDBRANCH   7   8
ENDBRANCH   6   7
ENDBRANCH   4   6
ENDBRANCH   3   4
ENDBRANCH   2   3
TORSDOF 15
ENDMDL
MODEL      102
REMARK 921   NORMALIZED FREE ENERGY PREDICTED BY IDOCK:   -4.51 KCAL/MOL
REMARK 922        TOTAL FREE ENERGY PREDICTED BY IDOCK:  -11.02 KCAL/MOL
REMARK 923 INTER-LIGAND FREE ENERGY PREDICTED BY IDOCK:   -8.81 KCAL/MOL
REMARK 924 INTRA-LIGAND FREE ENERGY PREDICTED BY IDOCK:   -2.21 KCAL/MOL
REMARK 927      BINDING AFFINITY PREDICTED BY RF-SCORE:    0.00 PKD
ROOT
HETATM    1  C   UNL     1     -11.063  16.357  64.847  1.00  0.00    -0.249 C  
HETATM    2  C   UNL     1     -11.669  15.015  64.478  1.00  0.00    -0.368 C  
ENDROOT
BRANCH   2   3
HETATM    3  O   UNL     1     -10.823  13.996  65.022  1.00  0.00    -0.346 OA 
BRANCH   3   4
HETATM    4  C   UNL     1     -11.121  12.735  64.599  1.00  0.00    -0.318 C  
HETATM    5  O   UNL     1     -10.974  12.315  63.463  1.00  0.00    -0.425 OA 
BRANCH   4   6
HETATM    6  C   UNL     1     -11.561  11.921  65.785  1.00  0.00    -0.281 C  
BRANCH   6   7
HETATM    7  C   UNL     1     -11.206  12.644  67.088  1.00  0.00    -0.348 C  
BRANCH   7   8
HETATM    8  C   UNL     1     -10.754  11.677  68.172  1.00  0.00    -0.248 C  
BRANCH   8   9
HETATM    9  C   UNL     1     -11.064  10.242  67.823  1.00  0.00    -0.335 C  
HETATM   10  C   UNL     1     -10.498   9.165  68.392  1.00  0.00    -0.241 C  
BRANCH  10  11
HETATM   11  C   UNL     1      -9.355   9.227  69.351  1.00  0.00    -0.164 C  
BRANCH  11  12
HETATM   12  C   UNL     1      -8.972   7.919  69.972  1.00  0.00    -0.145 C  
HETATM   13  C   UNL     1      -9.405   7.517  71.181  1.00  0.00    -0.155 C  
BRANCH  13  14
HETATM   14  C   UNL     1     -10.333   8.237  72.134  1.00  0.00    -0.370 C  
BRANCH  14  15
HETATM   15  C   UNL     1     -11.799   7.937  71.956  1.00  0.00    -0.364 C  
HETATM   16  C   UNL     1     -12.715   8.760  71.424  1.00  0.00    -0.324 C  
BRANCH  16  17
HETATM   17  C   UNL     1     -12.472  10.192  71.077  1.00  0.00    -0.474 C  
BRANCH  17  18
HETATM   18  C   UNL     1     -13.262  11.066  72.014  1.00  0.00    -0.447 C  
HETATM   19  C   UNL     1     -13.261  12.407  71.986  1.00  0.00    -0.514 C  
BRANCH  19  20
HETATM   20  C   UNL     1     -12.457  13.231  71.037  1.00  0.00    -0.422 C  
BRANCH  20  21
HETATM   21  C   UNL     1     -13.097  14.556  70.751  1.00  0.00    -0.363 C  
HETATM   22  C   UNL     1     -12.828  15.686  71.423  1.00  0.00    -0.546 C  
BRANCH  22  23
HETATM   23  C   UNL     1     -11.887  15.809  72.583  1.00  0.00    -0.596 C  
HETATM   24  C   UNL     1     -12.575  15.495  73.899  1.00  0.00    -0.767 C  
ENDBRANCH  22  23
ENDBRANCH  20  21
ENDBRANCH  19  20
ENDBRANCH  17  18
ENDBRANCH  16  17
ENDBRANCH  14  15
ENDBRANCH  13  14
ENDBRANCH  11  12
ENDBRANCH  10  11
ENDBRANCH   8   9
ENDBRANCH   7   8
ENDBRANCH   6   7
ENDBRANCH   4   6
ENDBRANCH   3   4
ENDBRANCH   2   3
TORSDOF 15
ENDMDL
MODEL      103
REMARK 921   NORMALIZED FREE ENERGY PREDICTED BY IDOCK:   -4.48 KCAL/MOL
REMARK 922        TOTAL FREE ENERGY PREDICTED BY IDOCK:  -10.96 KCAL/MOL
REMARK 923 INTER-LIGAND FREE ENERGY PREDICTED BY IDOCK:   -7.51 KCAL/MOL
REMARK 924 INTRA-LIGAND FREE ENERGY PREDICTED BY IDOCK:   -3.46 KCAL/MOL
REMARK 927      BINDING AFFINITY PREDICTED BY RF-SCORE:    0.00 PKD
ROOT
HETATM    1  C   UNL     1     -13.859   9.374  72.210  1.00  0.00    -0.441 C  
HETATM    2  C   UNL     1     -12.732   8.373  72.391  1.00  0.00    -0.296 C  
ENDROOT
BRANCH   2   3
HETATM    3  O   UNL     1     -12.979   7.280  71.498  1.00  0.00    -0.365 OA 
BRANCH   3   4
HETATM    4  C   UNL     1     -11.938   6.410  71.378  1.00  0.00    -0.247 C  
HETATM    5  O   UNL     1     -11.484   5.719  72.275  1.00  0.00    -0.288 OA 
BRANCH   4   6
HETATM    6  C   UNL     1     -11.513   6.363  69.936  1.00  0.00    -0.483 C  
BRANCH   6   7
HETATM    7  C   UNL     1     -10.264   7.223  69.722  1.00  0.00    -0.214 C  
BRANCH   7   8
HETATM    8  C   UNL     1     -10.597   8.568  69.094  1.00  0.00    -0.188 C  
BRANCH   8   9
HETATM    9  C   UNL     1     -10.450   9.708  70.072  1.00  0.00    -0.301 C  
HETATM   10  C   UNL     1     -10.981  10.932  69.924  1.00  0.00    -0.266 C  
BRANCH  10  11
HETATM   11  C   UNL     1     -11.672  11.402  68.685  1.00  0.00    -0.394 C  
BRANCH  11  12
HETATM   12  C   UNL     1     -11.816  12.887  68.561  1.00  0.00    -0.350 C  
HETATM   13  C   UNL     1     -11.964  13.522  67.384  1.00  0.00    -0.398 C  
BRANCH  13  14
HETATM   14  C   UNL     1     -12.029  12.925  65.996  1.00  0.00    -0.505 C  
BRANCH  14  15
HETATM   15  C   UNL     1     -11.075  13.520  64.993  1.00  0.00    -0.338 C  
HETATM   16  C   UNL     1     -10.699  12.962  63.831  1.00  0.00    -0.390 C  
BRANCH  16  17
HETATM   17  C   UNL     1     -11.028  11.567  63.412  1.00  0.00    -0.397 C  
BRANCH  17  18
HETATM   18  C   UNL     1      -9.751  10.784  63.271  1.00  0.00    -0.396 C  
HETATM   19  C   UNL     1      -9.203  10.042  64.244  1.00  0.00    -0.318 C  
BRANCH  19  20
HETATM   20  C   UNL     1      -9.764   9.904  65.620  1.00  0.00    -0.346 C  
BRANCH  20  21
HETATM   21  C   UNL     1      -8.693   9.785  66.662  1.00  0.00    -0.142 C  
HETATM   22  C   UNL     1      -8.097  10.831  67.256  1.00  0.00    -0.117 C  
BRANCH  22  23
HETATM   23  C   UNL     1      -8.366  12.275  66.956  1.00  0.00    -0.168 C  
HETATM   24  C   UNL     1      -8.209  13.142  68.192  1.00  0.00    -0.160 C  
ENDBRANCH  22  23
ENDBRANCH  20  21
ENDBRANCH  19  20
ENDBRANCH  17  18
ENDBRANCH  16  17
ENDBRANCH  14  15
ENDBRANCH  13  14
ENDBRANCH  11  12
ENDBRANCH  10  11
ENDBRANCH   8   9
ENDBRANCH   7   8
ENDBRANCH   6   7
ENDBRANCH   4   6
ENDBRANCH   3   4
ENDBRANCH   2   3
TORSDOF 15
ENDMDL
MODEL      104
REMARK 921   NORMALIZED FREE ENERGY PREDICTED BY IDOCK:   -4.48 KCAL/MOL
REMARK 922        TOTAL FREE ENERGY PREDICTED BY IDOCK:  -10.96 KCAL/MOL
REMARK 923 INTER-LIGAND FREE ENERGY PREDICTED BY IDOCK:   -8.98 KCAL/MOL
REMARK 924 INTRA-LIGAND FREE ENERGY PREDICTED BY IDOCK:   -1.98 KCAL/MOL
REMARK 927      BINDING AFFINITY PREDICTED BY RF-SCORE:    0.00 PKD
ROOT
HETATM    1  C   UNL     1     -11.074   6.534  67.138  1.00  0.00    -0.434 C  
HETATM    2  C   UNL     1     -10.541   6.949  68.498  1.00  0.00    -0.212 C  
ENDROOT
BRANCH   2   3
HETATM    3  O   UNL     1     -11.204   6.149  69.484  1.00  0.00    -0.389 OA 
BRANCH   3   4
HETATM    4  C   UNL     1     -10.404   5.227  70.088  1.00  0.00    -0.284 C  
HETATM    5  O   UNL     1      -9.848   4.295  69.528  1.00  0.00    -0.208 OA 
BRANCH   4   6
HETATM    6  C   UNL     1     -10.235   5.608  71.533  1.00  0.00    -0.263 C  
BRANCH   6   7
HETATM    7  C   UNL     1     -11.518   6.253  72.066  1.00  0.00    -0.359 C  
BRANCH   7   8
HETATM    8  C   UNL     1     -11.235   7.536  72.831  1.00  0.00    -0.396 C  
BRANCH   8   9
HETATM    9  C   UNL     1     -10.398   8.506  72.034  1.00  0.00    -0.408 C  
HETATM   10  C   UNL     1     -10.878   9.499  71.268  1.00  0.00    -0.413 C  
BRANCH  10  11
HETATM   11  C   UNL     1     -12.327   9.697  70.963  1.00  0.00    -0.396 C  
BRANCH  11  12
HETATM   12  C   UNL     1     -13.074  10.547  71.943  1.00  0.00    -0.567 C  
HETATM   13  C   UNL     1     -13.119  11.890  71.878  1.00  0.00    -0.474 C  
BRANCH  13  14
HETATM   14  C   UNL     1     -12.477  12.803  70.856  1.00  0.00    -0.373 C  
BRANCH  14  15
HETATM   15  C   UNL     1     -12.447  14.264  71.226  1.00  0.00    -0.439 C  
HETATM   16  C   UNL     1     -11.761  15.226  70.590  1.00  0.00    -0.371 C  
BRANCH  16  17
HETATM   17  C   UNL     1     -10.763  14.984  69.506  1.00  0.00    -0.266 C  
BRANCH  17  18
HETATM   18  C   UNL     1     -11.354  15.415  68.190  1.00  0.00    -0.353 C  
HETATM   19  C   UNL     1     -11.841  14.575  67.265  1.00  0.00    -0.419 C  
BRANCH  19  20
HETATM   20  C   UNL     1     -11.844  13.088  67.392  1.00  0.00    -0.411 C  
BRANCH  20  21
HETATM   21  C   UNL     1     -10.757  12.446  66.583  1.00  0.00    -0.263 C  
HETATM   22  C   UNL     1     -10.876  12.111  65.289  1.00  0.00    -0.336 C  
BRANCH  22  23
HETATM   23  C   UNL     1     -12.108  12.280  64.453  1.00  0.00    -0.481 C  
HETATM   24  C   UNL     1     -11.967  13.430  63.472  1.00  0.00    -0.467 C  
ENDBRANCH  22  23
ENDBRANCH  20  21
ENDBRANCH  19  20
ENDBRANCH  17  18
ENDBRANCH  16  17
ENDBRANCH  14  15
ENDBRANCH  13  14
ENDBRANCH  11  12
ENDBRANCH  10  11
ENDBRANCH   8   9
ENDBRANCH   7   8
ENDBRANCH   6   7
ENDBRANCH   4   6
ENDBRANCH   3   4
ENDBRANCH   2   3
TORSDOF 15
ENDMDL
MODEL      105
REMARK 921   NORMALIZED FREE ENERGY PREDICTED BY IDOCK:   -4.47 KCAL/MOL
REMARK 922        TOTAL FREE ENERGY PREDICTED BY IDOCK:  -10.94 KCAL/MOL
REMARK 923 INTER-LIGAND FREE ENERGY PREDICTED BY IDOCK:   -7.97 KCAL/MOL
REMARK 924 INTRA-LIGAND FREE ENERGY PREDICTED BY IDOCK:   -2.96 KCAL/MOL
REMARK 927      BINDING AFFINITY PREDICTED BY RF-SCORE:    0.00 PKD
ROOT
HETATM    1  C   UNL     1     -10.386   3.725  63.870  1.00  0.00    -0.252 C  
HETATM    2  C   UNL     1      -9.849   3.841  65.285  1.00  0.00    -0.146 C  
ENDROOT
BRANCH   2   3
HETATM    3  O   UNL     1     -10.741   4.689  66.017  1.00  0.00    -0.295 OA 
BRANCH   3   4
HETATM    4  C   UNL     1     -10.160   5.817  66.513  1.00  0.00    -0.171 C  
HETATM    5  O   UNL     1      -9.022   6.190  66.280  1.00  0.00    -0.147 OA 
BRANCH   4   6
HETATM    6  C   UNL     1     -11.186   6.578  67.307  1.00  0.00    -0.314 C  
BRANCH   6   7
HETATM    7  C   UNL     1     -11.086   6.215  68.792  1.00  0.00    -0.398 C  
BRANCH   7   8
HETATM    8  C   UNL     1     -10.330   7.268  69.587  1.00  0.00    -0.227 C  
BRANCH   8   9
HETATM    9  C   UNL     1     -11.100   7.732  70.799  1.00  0.00    -0.265 C  
HETATM   10  C   UNL     1     -11.411   9.007  71.081  1.00  0.00    -0.375 C  
BRANCH  10  11
HETATM   11  C   UNL     1     -10.902  10.183  70.313  1.00  0.00    -0.370 C  
BRANCH  11  12
HETATM   12  C   UNL     1     -11.781  10.638  69.189  1.00  0.00    -0.324 C  
HETATM   13  C   UNL     1     -11.336  10.849  67.937  1.00  0.00    -0.380 C  
BRANCH  13  14
HETATM   14  C   UNL     1      -9.934  10.674  67.397  1.00  0.00    -0.213 C  
BRANCH  14  15
HETATM   15  C   UNL     1      -9.805   9.723  66.235  1.00  0.00    -0.315 C  
HETATM   16  C   UNL     1      -9.743  10.062  64.938  1.00  0.00    -0.377 C  
BRANCH  16  17
HETATM   17  C   UNL     1      -9.971  11.440  64.408  1.00  0.00    -0.321 C  
BRANCH  17  18
HETATM   18  C   UNL     1     -11.282  11.472  63.670  1.00  0.00    -0.451 C  
HETATM   19  C   UNL     1     -12.095  12.536  63.612  1.00  0.00    -0.642 C  
BRANCH  19  20
HETATM   20  C   UNL     1     -11.833  13.838  64.292  1.00  0.00    -0.451 C  
BRANCH  20  21
HETATM   21  C   UNL     1     -12.554  13.951  65.602  1.00  0.00    -0.553 C  
HETATM   22  C   UNL     1     -11.954  14.211  66.774  1.00  0.00    -0.475 C  
BRANCH  22  23
HETATM   23  C   UNL     1     -10.481  14.390  66.980  1.00  0.00    -0.268 C  
HETATM   24  C   UNL     1     -10.116  14.393  68.453  1.00  0.00    -0.244 C  
ENDBRANCH  22  23
ENDBRANCH  20  21
ENDBRANCH  19  20
ENDBRANCH  17  18
ENDBRANCH  16  17
ENDBRANCH  14  15
ENDBRANCH  13  14
ENDBRANCH  11  12
ENDBRANCH  10  11
ENDBRANCH   8   9
ENDBRANCH   7   8
ENDBRANCH   6   7
ENDBRANCH   4   6
ENDBRANCH   3   4
ENDBRANCH   2   3
TORSDOF 15
ENDMDL
MODEL      106
REMARK 921   NORMALIZED FREE ENERGY PREDICTED BY IDOCK:   -4.46 KCAL/MOL
REMARK 922        TOTAL FREE ENERGY PREDICTED BY IDOCK:  -10.92 KCAL/MOL
REMARK 923 INTER-LIGAND FREE ENERGY PREDICTED BY IDOCK:   -8.33 KCAL/MOL
REMARK 924 INTRA-LIGAND FREE ENERGY PREDICTED BY IDOCK:   -2.59 KCAL/MOL
REMARK 927      BINDING AFFINITY PREDICTED BY RF-SCORE:    0.00 PKD
ROOT
HETATM    1  C   UNL     1      -7.978   5.619  70.846  1.00  0.00    -0.110 C  
HETATM    2  C   UNL     1      -9.137   4.823  70.275  1.00  0.00    -0.115 C  
ENDROOT
BRANCH   2   3
HETATM    3  O   UNL     1     -10.335   5.295  70.904  1.00  0.00    -0.227 OA 
BRANCH   3   4
HETATM    4  C   UNL     1     -11.132   6.048  70.095  1.00  0.00    -0.361 C  
HETATM    5  O   UNL     1     -11.235   5.925  68.885  1.00  0.00    -0.291 OA 
BRANCH   4   6
HETATM    6  C   UNL     1     -11.941   6.983  70.952  1.00  0.00    -0.409 C  
BRANCH   6   7
HETATM    7  C   UNL     1     -11.026   8.002  71.637  1.00  0.00    -0.288 C  
BRANCH   7   8
HETATM    8  C   UNL     1     -11.815   9.067  72.383  1.00  0.00    -0.212 C  
BRANCH   8   9
HETATM    9  C   UNL     1     -13.014   9.544  71.600  1.00  0.00    -0.483 C  
HETATM   10  C   UNL     1     -13.007  10.538  70.698  1.00  0.00    -0.362 C  
BRANCH  10  11
HETATM   11  C   UNL     1     -11.838  11.433  70.447  1.00  0.00    -0.428 C  
BRANCH  11  12
HETATM   12  C   UNL     1     -12.162  12.893  70.356  1.00  0.00    -0.381 C  
HETATM   13  C   UNL     1     -12.160  13.583  69.201  1.00  0.00    -0.331 C  
BRANCH  13  14
HETATM   14  C   UNL     1     -11.862  13.079  67.807  1.00  0.00    -0.395 C  
BRANCH  14  15
HETATM   15  C   UNL     1     -12.119  14.066  66.696  1.00  0.00    -0.487 C  
HETATM   16  C   UNL     1     -12.539  13.770  65.457  1.00  0.00    -0.551 C  
BRANCH  16  17
HETATM   17  C   UNL     1     -12.656  12.387  64.906  1.00  0.00    -0.372 C  
BRANCH  17  18
HETATM   18  C   UNL     1     -11.750  12.256  63.711  1.00  0.00    -0.566 C  
HETATM   19  C   UNL     1     -10.496  11.782  63.757  1.00  0.00    -0.466 C  
BRANCH  19  20
HETATM   20  C   UNL     1      -9.805  11.339  65.002  1.00  0.00    -0.307 C  
BRANCH  20  21
HETATM   21  C   UNL     1      -9.657   9.849  65.071  1.00  0.00    -0.364 C  
HETATM   22  C   UNL     1     -10.000   9.103  66.133  1.00  0.00    -0.338 C  
BRANCH  22  23
HETATM   23  C   UNL     1     -10.544   9.626  67.427  1.00  0.00    -0.333 C  
HETATM   24  C   UNL     1      -9.618   9.318  68.590  1.00  0.00    -0.152 C  
ENDBRANCH  22  23
ENDBRANCH  20  21
ENDBRANCH  19  20
ENDBRANCH  17  18
ENDBRANCH  16  17
ENDBRANCH  14  15
ENDBRANCH  13  14
ENDBRANCH  11  12
ENDBRANCH  10  11
ENDBRANCH   8   9
ENDBRANCH   7   8
ENDBRANCH   6   7
ENDBRANCH   4   6
ENDBRANCH   3   4
ENDBRANCH   2   3
TORSDOF 15
ENDMDL
MODEL      107
REMARK 921   NORMALIZED FREE ENERGY PREDICTED BY IDOCK:   -4.46 KCAL/MOL
REMARK 922        TOTAL FREE ENERGY PREDICTED BY IDOCK:  -10.92 KCAL/MOL
REMARK 923 INTER-LIGAND FREE ENERGY PREDICTED BY IDOCK:   -7.87 KCAL/MOL
REMARK 924 INTRA-LIGAND FREE ENERGY PREDICTED BY IDOCK:   -3.05 KCAL/MOL
REMARK 927      BINDING AFFINITY PREDICTED BY RF-SCORE:    0.00 PKD
ROOT
HETATM    1  C   UNL     1     -11.093  15.456  65.065  1.00  0.00    -0.428 C  
HETATM    2  C   UNL     1     -12.187  14.669  64.367  1.00  0.00    -0.452 C  
ENDROOT
BRANCH   2   3
HETATM    3  O   UNL     1     -12.306  13.408  65.035  1.00  0.00    -0.398 OA 
BRANCH   3   4
HETATM    4  C   UNL     1     -12.285  12.329  64.204  1.00  0.00    -0.446 C  
HETATM    5  O   UNL     1     -13.111  12.082  63.341  1.00  0.00    -0.747 OA 
BRANCH   4   6
HETATM    6  C   UNL     1     -11.021  11.553  64.454  1.00  0.00    -0.390 C  
BRANCH   6   7
HETATM    7  C   UNL     1     -10.722  11.493  65.955  1.00  0.00    -0.325 C  
BRANCH   7   8
HETATM    8  C   UNL     1      -9.233  11.594  66.245  1.00  0.00    -0.225 C  
BRANCH   8   9
HETATM    9  C   UNL     1      -8.954  12.075  67.647  1.00  0.00    -0.172 C  
HETATM   10  C   UNL     1      -8.564  13.316  67.980  1.00  0.00    -0.178 C  
BRANCH  10  11
HETATM   11  C   UNL     1      -8.192  14.371  66.990  1.00  0.00    -0.138 C  
BRANCH  11  12
HETATM   12  C   UNL     1      -7.204  15.385  67.480  1.00  0.00    -0.224 C  
HETATM   13  C   UNL     1      -7.476  16.699  67.575  1.00  0.00    -0.176 C  
BRANCH  13  14
HETATM   14  C   UNL     1      -8.764  17.418  67.243  1.00  0.00    -0.232 C  
BRANCH  14  15
HETATM   15  C   UNL     1      -9.509  17.984  68.425  1.00  0.00    -0.314 C  
HETATM   16  C   UNL     1     -10.411  17.334  69.177  1.00  0.00    -0.290 C  
BRANCH  16  17
HETATM   17  C   UNL     1     -10.966  15.984  68.861  1.00  0.00    -0.309 C  
BRANCH  17  18
HETATM   18  C   UNL     1     -12.225  15.772  69.658  1.00  0.00    -0.207 C  
HETATM   19  C   UNL     1     -12.527  14.643  70.314  1.00  0.00    -0.401 C  
BRANCH  19  20
HETATM   20  C   UNL     1     -11.673  13.420  70.329  1.00  0.00    -0.231 C  
BRANCH  20  21
HETATM   21  C   UNL     1     -12.086  12.424  69.287  1.00  0.00    -0.218 C  
HETATM   22  C   UNL     1     -11.989  11.094  69.433  1.00  0.00    -0.420 C  
BRANCH  22  23
HETATM   23  C   UNL     1     -11.422  10.385  70.625  1.00  0.00    -0.438 C  
HETATM   24  C   UNL     1     -12.506   9.995  71.613  1.00  0.00    -0.513 C  
ENDBRANCH  22  23
ENDBRANCH  20  21
ENDBRANCH  19  20
ENDBRANCH  17  18
ENDBRANCH  16  17
ENDBRANCH  14  15
ENDBRANCH  13  14
ENDBRANCH  11  12
ENDBRANCH  10  11
ENDBRANCH   8   9
ENDBRANCH   7   8
ENDBRANCH   6   7
ENDBRANCH   4   6
ENDBRANCH   3   4
ENDBRANCH   2   3
TORSDOF 15
ENDMDL
MODEL      108
REMARK 921   NORMALIZED FREE ENERGY PREDICTED BY IDOCK:   -4.45 KCAL/MOL
REMARK 922        TOTAL FREE ENERGY PREDICTED BY IDOCK:  -10.91 KCAL/MOL
REMARK 923 INTER-LIGAND FREE ENERGY PREDICTED BY IDOCK:   -8.72 KCAL/MOL
REMARK 924 INTRA-LIGAND FREE ENERGY PREDICTED BY IDOCK:   -2.19 KCAL/MOL
REMARK 927      BINDING AFFINITY PREDICTED BY RF-SCORE:    0.00 PKD
ROOT
HETATM    1  C   UNL     1     -11.016   6.696  68.242  1.00  0.00    -0.321 C  
HETATM    2  C   UNL     1     -11.066   5.936  69.555  1.00  0.00    -0.332 C  
ENDROOT
BRANCH   2   3
HETATM    3  O   UNL     1     -10.680   6.843  70.594  1.00  0.00    -0.224 OA 
BRANCH   3   4
HETATM    4  C   UNL     1     -11.723   7.358  71.303  1.00  0.00    -0.289 C  
HETATM    5  O   UNL     1     -12.729   6.749  71.630  1.00  0.00    -0.366 OA 
BRANCH   4   6
HETATM    6  C   UNL     1     -11.382   8.767  71.707  1.00  0.00    -0.409 C  
BRANCH   6   7
HETATM    7  C   UNL     1      -9.922   9.079  71.365  1.00  0.00    -0.388 C  
BRANCH   7   8
HETATM    8  C   UNL     1      -9.799   9.949  70.124  1.00  0.00    -0.272 C  
BRANCH   8   9
HETATM    9  C   UNL     1     -11.064  10.721  69.840  1.00  0.00    -0.339 C  
HETATM   10  C   UNL     1     -11.561  10.978  68.619  1.00  0.00    -0.385 C  
BRANCH  10  11
HETATM   11  C   UNL     1     -10.847  10.670  67.343  1.00  0.00    -0.353 C  
BRANCH  11  12
HETATM   12  C   UNL     1      -9.654  11.530  67.057  1.00  0.00    -0.199 C  
HETATM   13  C   UNL     1      -9.696  12.618  66.267  1.00  0.00    -0.260 C  
BRANCH  13  14
HETATM   14  C   UNL     1     -10.884  13.203  65.536  1.00  0.00    -0.299 C  
BRANCH  14  15
HETATM   15  C   UNL     1     -12.094  13.480  66.392  1.00  0.00    -0.467 C  
HETATM   16  C   UNL     1     -12.199  14.437  67.326  1.00  0.00    -0.248 C  
BRANCH  16  17
HETATM   17  C   UNL     1     -11.067  15.284  67.807  1.00  0.00    -0.318 C  
BRANCH  17  18
HETATM   18  C   UNL     1     -10.499  14.679  69.063  1.00  0.00    -0.248 C  
HETATM   19  C   UNL     1     -10.928  14.959  70.302  1.00  0.00    -0.186 C  
BRANCH  19  20
HETATM   20  C   UNL     1     -12.014  15.932  70.621  1.00  0.00    -0.379 C  
BRANCH  20  21
HETATM   21  C   UNL     1     -12.274  16.031  72.094  1.00  0.00    -0.597 C  
HETATM   22  C   UNL     1     -13.176  15.288  72.753  1.00  0.00    -0.583 C  
BRANCH  22  23
HETATM   23  C   UNL     1     -14.092  14.276  72.135  1.00  0.00    -0.634 C  
HETATM   24  C   UNL     1     -13.473  12.891  72.125  1.00  0.00    -0.619 C  
ENDBRANCH  22  23
ENDBRANCH  20  21
ENDBRANCH  19  20
ENDBRANCH  17  18
ENDBRANCH  16  17
ENDBRANCH  14  15
ENDBRANCH  13  14
ENDBRANCH  11  12
ENDBRANCH  10  11
ENDBRANCH   8   9
ENDBRANCH   7   8
ENDBRANCH   6   7
ENDBRANCH   4   6
ENDBRANCH   3   4
ENDBRANCH   2   3
TORSDOF 15
ENDMDL
MODEL      109
REMARK 921   NORMALIZED FREE ENERGY PREDICTED BY IDOCK:   -4.45 KCAL/MOL
REMARK 922        TOTAL FREE ENERGY PREDICTED BY IDOCK:  -10.90 KCAL/MOL
REMARK 923 INTER-LIGAND FREE ENERGY PREDICTED BY IDOCK:   -8.72 KCAL/MOL
REMARK 924 INTRA-LIGAND FREE ENERGY PREDICTED BY IDOCK:   -2.18 KCAL/MOL
REMARK 927      BINDING AFFINITY PREDICTED BY RF-SCORE:    0.00 PKD
ROOT
HETATM    1  C   UNL     1      -7.075   7.912  67.652  1.00  0.00    -0.083 C  
HETATM    2  C   UNL     1      -8.246   7.110  68.188  1.00  0.00    -0.124 C  
ENDROOT
BRANCH   2   3
HETATM    3  O   UNL     1      -9.447   7.726  67.709  1.00  0.00    -0.141 OA 
BRANCH   3   4
HETATM    4  C   UNL     1     -10.593   7.143  68.158  1.00  0.00    -0.192 C  
HETATM    5  O   UNL     1     -11.292   6.370  67.523  1.00  0.00    -0.274 OA 
BRANCH   4   6
HETATM    6  C   UNL     1     -10.797   7.527  69.598  1.00  0.00    -0.210 C  
BRANCH   6   7
HETATM    7  C   UNL     1     -11.553   6.421  70.341  1.00  0.00    -0.440 C  
BRANCH   7   8
HETATM    8  C   UNL     1     -12.208   6.934  71.614  1.00  0.00    -0.403 C  
BRANCH   8   9
HETATM    9  C   UNL     1     -13.670   7.252  71.417  1.00  0.00    -0.404 C  
HETATM   10  C   UNL     1     -14.231   8.460  71.582  1.00  0.00    -0.516 C  
BRANCH  10  11
HETATM   11  C   UNL     1     -13.517   9.646  72.144  1.00  0.00    -0.516 C  
BRANCH  11  12
HETATM   12  C   UNL     1     -12.955  10.591  71.127  1.00  0.00    -0.506 C  
HETATM   13  C   UNL     1     -12.985  11.930  71.262  1.00  0.00    -0.334 C  
BRANCH  13  14
HETATM   14  C   UNL     1     -13.545  12.746  72.404  1.00  0.00    -0.507 C  
BRANCH  14  15
HETATM   15  C   UNL     1     -14.140  14.075  72.016  1.00  0.00    -0.600 C  
HETATM   16  C   UNL     1     -13.458  15.199  71.747  1.00  0.00    -0.529 C  
BRANCH  16  17
HETATM   17  C   UNL     1     -11.990  15.374  71.960  1.00  0.00    -0.500 C  
BRANCH  17  18
HETATM   18  C   UNL     1     -11.428  16.211  70.842  1.00  0.00    -0.421 C  
HETATM   19  C   UNL     1     -11.063  15.732  69.644  1.00  0.00    -0.307 C  
BRANCH  19  20
HETATM   20  C   UNL     1     -11.134  14.295  69.251  1.00  0.00    -0.297 C  
BRANCH  20  21
HETATM   21  C   UNL     1     -11.949  14.084  68.011  1.00  0.00    -0.386 C  
HETATM   22  C   UNL     1     -12.027  12.921  67.346  1.00  0.00    -0.360 C  
BRANCH  22  23
HETATM   23  C   UNL     1     -11.292  11.664  67.699  1.00  0.00    -0.362 C  
HETATM   24  C   UNL     1     -10.573  11.078  66.497  1.00  0.00    -0.310 C  
ENDBRANCH  22  23
ENDBRANCH  20  21
ENDBRANCH  19  20
ENDBRANCH  17  18
ENDBRANCH  16  17
ENDBRANCH  14  15
ENDBRANCH  13  14
ENDBRANCH  11  12
ENDBRANCH  10  11
ENDBRANCH   8   9
ENDBRANCH   7   8
ENDBRANCH   6   7
ENDBRANCH   4   6
ENDBRANCH   3   4
ENDBRANCH   2   3
TORSDOF 15
ENDMDL
MODEL      110
REMARK 921   NORMALIZED FREE ENERGY PREDICTED BY IDOCK:   -4.44 KCAL/MOL
REMARK 922        TOTAL FREE ENERGY PREDICTED BY IDOCK:  -10.88 KCAL/MOL
REMARK 923 INTER-LIGAND FREE ENERGY PREDICTED BY IDOCK:   -7.44 KCAL/MOL
REMARK 924 INTRA-LIGAND FREE ENERGY PREDICTED BY IDOCK:   -3.44 KCAL/MOL
REMARK 927      BINDING AFFINITY PREDICTED BY RF-SCORE:    0.00 PKD
ROOT
HETATM    1  C   UNL     1     -12.536  11.970  63.389  1.00  0.00    -0.625 C  
HETATM    2  C   UNL     1     -11.811  13.252  63.757  1.00  0.00    -0.467 C  
ENDROOT
BRANCH   2   3
HETATM    3  O   UNL     1     -10.577  12.886  64.384  1.00  0.00    -0.351 OA 
BRANCH   3   4
HETATM    4  C   UNL     1     -10.639  12.812  65.743  1.00  0.00    -0.273 C  
HETATM    5  O   UNL     1     -11.397  13.451  66.454  1.00  0.00    -0.299 OA 
BRANCH   4   6
HETATM    6  C   UNL     1      -9.696  11.737  66.211  1.00  0.00    -0.242 C  
BRANCH   6   7
HETATM    7  C   UNL     1     -10.213  10.357  65.793  1.00  0.00    -0.305 C  
BRANCH   7   8
HETATM    8  C   UNL     1      -9.123   9.510  65.155  1.00  0.00    -0.281 C  
BRANCH   8   9
HETATM    9  C   UNL     1      -8.238   8.848  66.183  1.00  0.00    -0.116 C  
HETATM   10  C   UNL     1      -8.365   7.586  66.621  1.00  0.00    -0.127 C  
BRANCH  10  11
HETATM   11  C   UNL     1      -9.508   6.689  66.273  1.00  0.00    -0.120 C  
BRANCH  11  12
HETATM   12  C   UNL     1     -10.764   6.926  67.053  1.00  0.00    -0.432 C  
HETATM   13  C   UNL     1     -11.034   6.323  68.226  1.00  0.00    -0.408 C  
BRANCH  13  14
HETATM   14  C   UNL     1     -10.181   5.338  68.993  1.00  0.00    -0.269 C  
BRANCH  14  15
HETATM   15  C   UNL     1      -9.247   5.946  70.007  1.00  0.00    -0.164 C  
HETATM   16  C   UNL     1      -9.545   6.240  71.281  1.00  0.00    -0.189 C  
BRANCH  16  17
HETATM   17  C   UNL     1     -10.916   6.177  71.870  1.00  0.00    -0.311 C  
BRANCH  17  18
HETATM   18  C   UNL     1     -11.072   7.289  72.871  1.00  0.00    -0.369 C  
HETATM   19  C   UNL     1     -11.763   8.417  72.652  1.00  0.00    -0.364 C  
BRANCH  19  20
HETATM   20  C   UNL     1     -12.458   8.748  71.374  1.00  0.00    -0.348 C  
BRANCH  20  21
HETATM   21  C   UNL     1     -12.295  10.189  70.995  1.00  0.00    -0.474 C  
HETATM   22  C   UNL     1     -11.422  10.635  70.078  1.00  0.00    -0.404 C  
BRANCH  22  23
HETATM   23  C   UNL     1     -10.446   9.789  69.318  1.00  0.00    -0.236 C  
HETATM   24  C   UNL     1      -9.113   9.688  70.036  1.00  0.00    -0.269 C  
ENDBRANCH  22  23
ENDBRANCH  20  21
ENDBRANCH  19  20
ENDBRANCH  17  18
ENDBRANCH  16  17
ENDBRANCH  14  15
ENDBRANCH  13  14
ENDBRANCH  11  12
ENDBRANCH  10  11
ENDBRANCH   8   9
ENDBRANCH   7   8
ENDBRANCH   6   7
ENDBRANCH   4   6
ENDBRANCH   3   4
ENDBRANCH   2   3
TORSDOF 15
ENDMDL
MODEL      111
REMARK 921   NORMALIZED FREE ENERGY PREDICTED BY IDOCK:   -4.44 KCAL/MOL
REMARK 922        TOTAL FREE ENERGY PREDICTED BY IDOCK:  -10.88 KCAL/MOL
REMARK 923 INTER-LIGAND FREE ENERGY PREDICTED BY IDOCK:   -9.19 KCAL/MOL
REMARK 924 INTRA-LIGAND FREE ENERGY PREDICTED BY IDOCK:   -1.69 KCAL/MOL
REMARK 927      BINDING AFFINITY PREDICTED BY RF-SCORE:    0.00 PKD
ROOT
HETATM    1  C   UNL     1     -10.519  19.042  66.554  1.00  0.00    -0.522 C  
HETATM    2  C   UNL     1      -9.714  17.768  66.372  1.00  0.00    -0.308 C  
ENDROOT
BRANCH   2   3
HETATM    3  O   UNL     1     -10.420  16.942  65.439  1.00  0.00    -0.609 OA 
BRANCH   3   4
HETATM    4  C   UNL     1     -10.752  15.711  65.920  1.00  0.00    -0.329 C  
HETATM    5  O   UNL     1     -10.752  15.385  67.096  1.00  0.00    -0.303 OA 
BRANCH   4   6
HETATM    6  C   UNL     1     -11.217  14.855  64.774  1.00  0.00    -0.393 C  
BRANCH   6   7
HETATM    7  C   UNL     1     -12.477  14.078  65.168  1.00  0.00    -0.472 C  
BRANCH   7   8
HETATM    8  C   UNL     1     -12.316  12.581  64.948  1.00  0.00    -0.539 C  
BRANCH   8   9
HETATM    9  C   UNL     1     -10.929  12.098  65.296  1.00  0.00    -0.349 C  
HETATM   10  C   UNL     1     -10.600  11.408  66.400  1.00  0.00    -0.311 C  
BRANCH  10  11
HETATM   11  C   UNL     1     -11.536  11.151  67.536  1.00  0.00    -0.296 C  
BRANCH  11  12
HETATM   12  C   UNL     1     -11.745  12.308  68.463  1.00  0.00    -0.381 C  
HETATM   13  C   UNL     1     -11.874  12.178  69.796  1.00  0.00    -0.397 C  
BRANCH  13  14
HETATM   14  C   UNL     1     -11.827  10.913  70.624  1.00  0.00    -0.453 C  
BRANCH  14  15
HETATM   15  C   UNL     1     -13.056  10.639  71.452  1.00  0.00    -0.499 C  
HETATM   16  C   UNL     1     -13.261   9.566  72.232  1.00  0.00    -0.507 C  
BRANCH  16  17
HETATM   17  C   UNL     1     -12.374   8.365  72.276  1.00  0.00    -0.436 C  
BRANCH  17  18
HETATM   18  C   UNL     1     -12.810   7.394  71.213  1.00  0.00    -0.365 C  
HETATM   19  C   UNL     1     -11.975   6.621  70.501  1.00  0.00    -0.377 C  
BRANCH  19  20
HETATM   20  C   UNL     1     -10.490   6.630  70.641  1.00  0.00    -0.253 C  
BRANCH  20  21
HETATM   21  C   UNL     1      -9.892   5.271  70.438  1.00  0.00    -0.281 C  
HETATM   22  C   UNL     1      -9.574   4.428  71.434  1.00  0.00    -0.234 C  
BRANCH  22  23
HETATM   23  C   UNL     1      -9.722   4.712  72.897  1.00  0.00    -0.168 C  
HETATM   24  C   UNL     1     -11.158   4.541  73.360  1.00  0.00    -0.408 C  
ENDBRANCH  22  23
ENDBRANCH  20  21
ENDBRANCH  19  20
ENDBRANCH  17  18
ENDBRANCH  16  17
ENDBRANCH  14  15
ENDBRANCH  13  14
ENDBRANCH  11  12
ENDBRANCH  10  11
ENDBRANCH   8   9
ENDBRANCH   7   8
ENDBRANCH   6   7
ENDBRANCH   4   6
ENDBRANCH   3   4
ENDBRANCH   2   3
TORSDOF 15
ENDMDL
MODEL      112
REMARK 921   NORMALIZED FREE ENERGY PREDICTED BY IDOCK:   -4.43 KCAL/MOL
REMARK 922        TOTAL FREE ENERGY PREDICTED BY IDOCK:  -10.87 KCAL/MOL
REMARK 923 INTER-LIGAND FREE ENERGY PREDICTED BY IDOCK:   -8.47 KCAL/MOL
REMARK 924 INTRA-LIGAND FREE ENERGY PREDICTED BY IDOCK:   -2.40 KCAL/MOL
REMARK 927      BINDING AFFINITY PREDICTED BY RF-SCORE:    0.00 PKD
ROOT
HETATM    1  C   UNL     1     -10.593  19.419  67.438  1.00  0.00    -0.603 C  
HETATM    2  C   UNL     1      -9.251  19.853  66.877  1.00  0.00    -0.370 C  
ENDROOT
BRANCH   2   3
HETATM    3  O   UNL     1      -8.925  18.965  65.802  1.00  0.00    -0.394 OA 
BRANCH   3   4
HETATM    4  C   UNL     1      -7.619  18.575  65.775  1.00  0.00    -0.038 C  
HETATM    5  O   UNL     1      -6.722  19.144  65.174  1.00  0.00    -0.431 OA 
BRANCH   4   6
HETATM    6  C   UNL     1      -7.449  17.393  66.689  1.00  0.00    -0.289 C  
BRANCH   6   7
HETATM    7  C   UNL     1      -8.362  16.245  66.249  1.00  0.00    -0.343 C  
BRANCH   7   8
HETATM    8  C   UNL     1      -8.696  15.308  67.399  1.00  0.00    -0.194 C  
BRANCH   8   9
HETATM    9  C   UNL     1      -8.747  16.026  68.725  1.00  0.00    -0.223 C  
HETATM   10  C   UNL     1      -9.864  16.309  69.414  1.00  0.00    -0.217 C  
BRANCH  10  11
HETATM   11  C   UNL     1     -11.247  16.094  68.891  1.00  0.00    -0.351 C  
BRANCH  11  12
HETATM   12  C   UNL     1     -11.916  14.838  69.357  1.00  0.00    -0.339 C  
HETATM   13  C   UNL     1     -11.971  13.710  68.625  1.00  0.00    -0.395 C  
BRANCH  13  14
HETATM   14  C   UNL     1     -11.396  13.455  67.250  1.00  0.00    -0.348 C  
BRANCH  14  15
HETATM   15  C   UNL     1     -12.327  13.739  66.099  1.00  0.00    -0.496 C  
HETATM   16  C   UNL     1     -12.053  13.558  64.798  1.00  0.00    -0.442 C  
BRANCH  16  17
HETATM   17  C   UNL     1     -10.708  13.208  64.252  1.00  0.00    -0.431 C  
BRANCH  17  18
HETATM   18  C   UNL     1     -10.762  11.824  63.664  1.00  0.00    -0.503 C  
HETATM   19  C   UNL     1     -10.227  10.735  64.234  1.00  0.00    -0.422 C  
BRANCH  19  20
HETATM   20  C   UNL     1      -9.477  10.738  65.524  1.00  0.00    -0.253 C  
BRANCH  20  21
HETATM   21  C   UNL     1     -10.372  10.506  66.703  1.00  0.00    -0.295 C  
HETATM   22  C   UNL     1     -10.532   9.319  67.309  1.00  0.00    -0.334 C  
BRANCH  22  23
HETATM   23  C   UNL     1      -9.887   8.033  66.892  1.00  0.00    -0.318 C  
HETATM   24  C   UNL     1     -10.785   6.840  67.166  1.00  0.00    -0.441 C  
ENDBRANCH  22  23
ENDBRANCH  20  21
ENDBRANCH  19  20
ENDBRANCH  17  18
ENDBRANCH  16  17
ENDBRANCH  14  15
ENDBRANCH  13  14
ENDBRANCH  11  12
ENDBRANCH  10  11
ENDBRANCH   8   9
ENDBRANCH   7   8
ENDBRANCH   6   7
ENDBRANCH   4   6
ENDBRANCH   3   4
ENDBRANCH   2   3
TORSDOF 15
ENDMDL
MODEL      113
REMARK 921   NORMALIZED FREE ENERGY PREDICTED BY IDOCK:   -4.43 KCAL/MOL
REMARK 922        TOTAL FREE ENERGY PREDICTED BY IDOCK:  -10.87 KCAL/MOL
REMARK 923 INTER-LIGAND FREE ENERGY PREDICTED BY IDOCK:   -8.42 KCAL/MOL
REMARK 924 INTRA-LIGAND FREE ENERGY PREDICTED BY IDOCK:   -2.45 KCAL/MOL
REMARK 927      BINDING AFFINITY PREDICTED BY RF-SCORE:    0.00 PKD
ROOT
HETATM    1  C   UNL     1     -11.077   6.384  68.739  1.00  0.00    -0.404 C  
HETATM    2  C   UNL     1     -10.989   5.827  70.148  1.00  0.00    -0.298 C  
ENDROOT
BRANCH   2   3
HETATM    3  O   UNL     1     -12.000   6.472  70.931  1.00  0.00    -0.369 OA 
BRANCH   3   4
HETATM    4  C   UNL     1     -11.716   6.544  72.262  1.00  0.00    -0.281 C  
HETATM    5  O   UNL     1     -11.516   5.591  72.997  1.00  0.00    -0.291 OA 
BRANCH   4   6
HETATM    6  C   UNL     1     -11.587   7.992  72.650  1.00  0.00    -0.448 C  
BRANCH   6   7
HETATM    7  C   UNL     1     -12.414   8.870  71.707  1.00  0.00    -0.425 C  
BRANCH   7   8
HETATM    8  C   UNL     1     -11.616  10.054  71.183  1.00  0.00    -0.460 C  
BRANCH   8   9
HETATM    9  C   UNL     1     -10.180   9.692  70.891  1.00  0.00    -0.303 C  
HETATM   10  C   UNL     1      -9.486  10.078  69.809  1.00  0.00    -0.239 C  
BRANCH  10  11
HETATM   11  C   UNL     1     -10.082  10.799  68.645  1.00  0.00    -0.194 C  
BRANCH  11  12
HETATM   12  C   UNL     1     -10.676   9.920  67.587  1.00  0.00    -0.339 C  
HETATM   13  C   UNL     1     -10.407  10.052  66.276  1.00  0.00    -0.235 C  
BRANCH  13  14
HETATM   14  C   UNL     1      -9.490  11.047  65.600  1.00  0.00    -0.250 C  
BRANCH  14  15
HETATM   15  C   UNL     1      -9.552  11.062  64.095  1.00  0.00    -0.306 C  
HETATM   16  C   UNL     1     -10.564  11.535  63.350  1.00  0.00    -0.460 C  
BRANCH  16  17
HETATM   17  C   UNL     1     -11.887  11.968  63.890  1.00  0.00    -0.543 C  
BRANCH  17  18
HETATM   18  C   UNL     1     -12.028  13.455  63.706  1.00  0.00    -0.517 C  
HETATM   19  C   UNL     1     -11.678  14.370  64.622  1.00  0.00    -0.438 C  
BRANCH  19  20
HETATM   20  C   UNL     1     -11.122  14.048  65.969  1.00  0.00    -0.303 C  
BRANCH  20  21
HETATM   21  C   UNL     1     -12.177  14.046  67.034  1.00  0.00    -0.387 C  
HETATM   22  C   UNL     1     -11.933  14.242  68.339  1.00  0.00    -0.344 C  
BRANCH  22  23
HETATM   23  C   UNL     1     -10.583  14.453  68.953  1.00  0.00    -0.250 C  
HETATM   24  C   UNL     1     -10.599  15.580  69.970  1.00  0.00    -0.337 C  
ENDBRANCH  22  23
ENDBRANCH  20  21
ENDBRANCH  19  20
ENDBRANCH  17  18
ENDBRANCH  16  17
ENDBRANCH  14  15
ENDBRANCH  13  14
ENDBRANCH  11  12
ENDBRANCH  10  11
ENDBRANCH   8   9
ENDBRANCH   7   8
ENDBRANCH   6   7
ENDBRANCH   4   6
ENDBRANCH   3   4
ENDBRANCH   2   3
TORSDOF 15
ENDMDL
MODEL      114
REMARK 921   NORMALIZED FREE ENERGY PREDICTED BY IDOCK:   -4.43 KCAL/MOL
REMARK 922        TOTAL FREE ENERGY PREDICTED BY IDOCK:  -10.87 KCAL/MOL
REMARK 923 INTER-LIGAND FREE ENERGY PREDICTED BY IDOCK:   -7.51 KCAL/MOL
REMARK 924 INTRA-LIGAND FREE ENERGY PREDICTED BY IDOCK:   -3.36 KCAL/MOL
REMARK 927      BINDING AFFINITY PREDICTED BY RF-SCORE:    0.00 PKD
ROOT
HETATM    1  C   UNL     1     -14.288   8.587  71.986  1.00  0.00    -0.537 C  
HETATM    2  C   UNL     1     -12.907   8.164  71.520  1.00  0.00    -0.301 C  
ENDROOT
BRANCH   2   3
HETATM    3  O   UNL     1     -11.948   8.892  72.296  1.00  0.00    -0.355 OA 
BRANCH   3   4
HETATM    4  C   UNL     1     -10.763   9.111  71.661  1.00  0.00    -0.371 C  
HETATM    5  O   UNL     1      -9.671   8.720  72.042  1.00  0.00    -0.299 OA 
BRANCH   4   6
HETATM    6  C   UNL     1     -11.035   9.820  70.363  1.00  0.00    -0.371 C  
BRANCH   6   7
HETATM    7  C   UNL     1     -10.255   9.160  69.222  1.00  0.00    -0.215 C  
BRANCH   7   8
HETATM    8  C   UNL     1     -10.820   9.527  67.859  1.00  0.00    -0.240 C  
BRANCH   8   9
HETATM    9  C   UNL     1     -10.167   8.750  66.741  1.00  0.00    -0.354 C  
HETATM   10  C   UNL     1      -9.649   9.284  65.623  1.00  0.00    -0.324 C  
BRANCH  10  11
HETATM   11  C   UNL     1      -9.784  10.721  65.241  1.00  0.00    -0.308 C  
BRANCH  11  12
HETATM   12  C   UNL     1     -10.402  10.969  63.899  1.00  0.00    -0.436 C  
HETATM   13  C   UNL     1     -10.881  12.165  63.512  1.00  0.00    -0.518 C  
BRANCH  13  14
HETATM   14  C   UNL     1     -10.895  13.465  64.284  1.00  0.00    -0.383 C  
BRANCH  14  15
HETATM   15  C   UNL     1     -12.236  13.870  64.839  1.00  0.00    -0.445 C  
HETATM   16  C   UNL     1     -12.630  13.757  66.117  1.00  0.00    -0.423 C  
BRANCH  16  17
HETATM   17  C   UNL     1     -11.865  13.042  67.182  1.00  0.00    -0.431 C  
BRANCH  17  18
HETATM   18  C   UNL     1     -11.184  14.056  68.062  1.00  0.00    -0.302 C  
HETATM   19  C   UNL     1      -9.855  14.191  68.179  1.00  0.00    -0.229 C  
BRANCH  19  20
HETATM   20  C   UNL     1      -8.854  13.338  67.474  1.00  0.00    -0.206 C  
BRANCH  20  21
HETATM   21  C   UNL     1      -8.411  12.174  68.308  1.00  0.00    -0.176 C  
HETATM   22  C   UNL     1      -7.381  11.371  67.998  1.00  0.00    -0.090 C  
BRANCH  22  23
HETATM   23  C   UNL     1      -6.535  11.473  66.766  1.00  0.00    -0.128 C  
HETATM   24  C   UNL     1      -6.065  10.109  66.293  1.00  0.00    -0.073 C  
ENDBRANCH  22  23
ENDBRANCH  20  21
ENDBRANCH  19  20
ENDBRANCH  17  18
ENDBRANCH  16  17
ENDBRANCH  14  15
ENDBRANCH  13  14
ENDBRANCH  11  12
ENDBRANCH  10  11
ENDBRANCH   8   9
ENDBRANCH   7   8
ENDBRANCH   6   7
ENDBRANCH   4   6
ENDBRANCH   3   4
ENDBRANCH   2   3
TORSDOF 15
ENDMDL
MODEL      115
REMARK 921   NORMALIZED FREE ENERGY PREDICTED BY IDOCK:   -4.43 KCAL/MOL
REMARK 922        TOTAL FREE ENERGY PREDICTED BY IDOCK:  -10.87 KCAL/MOL
REMARK 923 INTER-LIGAND FREE ENERGY PREDICTED BY IDOCK:   -8.24 KCAL/MOL
REMARK 924 INTRA-LIGAND FREE ENERGY PREDICTED BY IDOCK:   -2.62 KCAL/MOL
REMARK 927      BINDING AFFINITY PREDICTED BY RF-SCORE:    0.00 PKD
ROOT
HETATM    1  C   UNL     1     -14.357   8.171  71.809  1.00  0.00    -0.582 C  
HETATM    2  C   UNL     1     -12.846   8.164  71.952  1.00  0.00    -0.335 C  
ENDROOT
BRANCH   2   3
HETATM    3  O   UNL     1     -12.325   7.251  70.980  1.00  0.00    -0.331 OA 
BRANCH   3   4
HETATM    4  C   UNL     1     -11.307   6.468  71.437  1.00  0.00    -0.294 C  
HETATM    5  O   UNL     1     -11.260   5.934  72.533  1.00  0.00    -0.264 OA 
BRANCH   4   6
HETATM    6  C   UNL     1     -10.305   6.286  70.330  1.00  0.00    -0.258 C  
BRANCH   6   7
HETATM    7  C   UNL     1     -11.011   5.867  69.037  1.00  0.00    -0.359 C  
BRANCH   7   8
HETATM    8  C   UNL     1     -10.795   6.874  67.917  1.00  0.00    -0.287 C  
BRANCH   8   9
HETATM    9  C   UNL     1      -9.343   6.988  67.522  1.00  0.00    -0.134 C  
HETATM   10  C   UNL     1      -8.584   8.086  67.663  1.00  0.00    -0.130 C  
BRANCH  10  11
HETATM   11  C   UNL     1      -9.109   9.419  68.088  1.00  0.00    -0.129 C  
BRANCH  11  12
HETATM   12  C   UNL     1      -9.244   9.608  69.567  1.00  0.00    -0.214 C  
HETATM   13  C   UNL     1     -10.344  10.116  70.153  1.00  0.00    -0.280 C  
BRANCH  13  14
HETATM   14  C   UNL     1     -11.628  10.575  69.500  1.00  0.00    -0.332 C  
BRANCH  14  15
HETATM   15  C   UNL     1     -12.018  12.004  69.780  1.00  0.00    -0.370 C  
HETATM   16  C   UNL     1     -12.003  13.015  68.898  1.00  0.00    -0.303 C  
BRANCH  16  17
HETATM   17  C   UNL     1     -11.426  12.935  67.523  1.00  0.00    -0.386 C  
BRANCH  17  18
HETATM   18  C   UNL     1     -11.962  14.075  66.698  1.00  0.00    -0.473 C  
HETATM   19  C   UNL     1     -12.547  13.936  65.499  1.00  0.00    -0.560 C  
BRANCH  19  20
HETATM   20  C   UNL     1     -12.728  12.634  64.794  1.00  0.00    -0.460 C  
BRANCH  20  21
HETATM   21  C   UNL     1     -11.913  12.549  63.538  1.00  0.00    -0.629 C  
HETATM   22  C   UNL     1     -10.666  12.056  63.478  1.00  0.00    -0.513 C  
BRANCH  22  23
HETATM   23  C   UNL     1      -9.871  11.550  64.643  1.00  0.00    -0.283 C  
HETATM   24  C   UNL     1      -9.782  10.034  64.645  1.00  0.00    -0.339 C  
ENDBRANCH  22  23
ENDBRANCH  20  21
ENDBRANCH  19  20
ENDBRANCH  17  18
ENDBRANCH  16  17
ENDBRANCH  14  15
ENDBRANCH  13  14
ENDBRANCH  11  12
ENDBRANCH  10  11
ENDBRANCH   8   9
ENDBRANCH   7   8
ENDBRANCH   6   7
ENDBRANCH   4   6
ENDBRANCH   3   4
ENDBRANCH   2   3
TORSDOF 15
ENDMDL
MODEL      116
REMARK 921   NORMALIZED FREE ENERGY PREDICTED BY IDOCK:   -4.43 KCAL/MOL
REMARK 922        TOTAL FREE ENERGY PREDICTED BY IDOCK:  -10.86 KCAL/MOL
REMARK 923 INTER-LIGAND FREE ENERGY PREDICTED BY IDOCK:   -8.31 KCAL/MOL
REMARK 924 INTRA-LIGAND FREE ENERGY PREDICTED BY IDOCK:   -2.55 KCAL/MOL
REMARK 927      BINDING AFFINITY PREDICTED BY RF-SCORE:    0.00 PKD
ROOT
HETATM    1  C   UNL     1      -9.592   9.891  66.552  1.00  0.00    -0.243 C  
HETATM    2  C   UNL     1      -9.466  10.231  65.078  1.00  0.00    -0.257 C  
ENDROOT
BRANCH   2   3
HETATM    3  O   UNL     1     -10.768  10.595  64.606  1.00  0.00    -0.234 OA 
BRANCH   3   4
HETATM    4  C   UNL     1     -10.760  11.475  63.566  1.00  0.00    -0.414 C  
HETATM    5  O   UNL     1      -9.823  11.672  62.810  1.00  0.00    -0.295 OA 
BRANCH   4   6
HETATM    6  C   UNL     1     -12.130  12.084  63.440  1.00  0.00    -0.597 C  
BRANCH   6   7
HETATM    7  C   UNL     1     -12.145  13.490  64.047  1.00  0.00    -0.494 C  
BRANCH   7   8
HETATM    8  C   UNL     1     -12.277  13.455  65.562  1.00  0.00    -0.499 C  
BRANCH   8   9
HETATM    9  C   UNL     1     -10.970  13.745  66.258  1.00  0.00    -0.297 C  
HETATM   10  C   UNL     1     -10.829  14.017  67.565  1.00  0.00    -0.277 C  
BRANCH  10  11
HETATM   11  C   UNL     1     -11.970  14.231  68.504  1.00  0.00    -0.352 C  
BRANCH  11  12
HETATM   12  C   UNL     1     -12.007  15.574  69.166  1.00  0.00    -0.331 C  
HETATM   13  C   UNL     1     -12.057  15.743  70.500  1.00  0.00    -0.407 C  
BRANCH  13  14
HETATM   14  C   UNL     1     -12.074  14.685  71.580  1.00  0.00    -0.404 C  
BRANCH  14  15
HETATM   15  C   UNL     1     -13.436  14.144  71.932  1.00  0.00    -0.489 C  
HETATM   16  C   UNL     1     -13.759  12.850  72.082  1.00  0.00    -0.505 C  
BRANCH  16  17
HETATM   17  C   UNL     1     -12.858  11.705  71.751  1.00  0.00    -0.418 C  
BRANCH  17  18
HETATM   18  C   UNL     1     -12.984  11.390  70.285  1.00  0.00     0.129 C  
HETATM   19  C   UNL     1     -12.112  10.644  69.591  1.00  0.00    -0.312 C  
BRANCH  19  20
HETATM   20  C   UNL     1     -10.874  10.038  70.164  1.00  0.00    -0.365 C  
BRANCH  20  21
HETATM   21  C   UNL     1     -10.773   8.571  69.875  1.00  0.00    -0.224 C  
HETATM   22  C   UNL     1     -11.310   7.610  70.643  1.00  0.00    -0.288 C  
BRANCH  22  23
HETATM   23  C   UNL     1     -12.056   7.832  71.923  1.00  0.00    -0.341 C  
HETATM   24  C   UNL     1     -13.556   7.875  71.698  1.00  0.00    -0.397 C  
ENDBRANCH  22  23
ENDBRANCH  20  21
ENDBRANCH  19  20
ENDBRANCH  17  18
ENDBRANCH  16  17
ENDBRANCH  14  15
ENDBRANCH  13  14
ENDBRANCH  11  12
ENDBRANCH  10  11
ENDBRANCH   8   9
ENDBRANCH   7   8
ENDBRANCH   6   7
ENDBRANCH   4   6
ENDBRANCH   3   4
ENDBRANCH   2   3
TORSDOF 15
ENDMDL
MODEL      117
REMARK 921   NORMALIZED FREE ENERGY PREDICTED BY IDOCK:   -4.42 KCAL/MOL
REMARK 922        TOTAL FREE ENERGY PREDICTED BY IDOCK:  -10.86 KCAL/MOL
REMARK 923 INTER-LIGAND FREE ENERGY PREDICTED BY IDOCK:   -8.16 KCAL/MOL
REMARK 924 INTRA-LIGAND FREE ENERGY PREDICTED BY IDOCK:   -2.69 KCAL/MOL
REMARK 927      BINDING AFFINITY PREDICTED BY RF-SCORE:    0.00 PKD
ROOT
HETATM    1  C   UNL     1      -8.829   8.084  73.368  1.00  0.00    -0.334 C  
HETATM    2  C   UNL     1      -9.989   7.159  73.689  1.00  0.00    -0.325 C  
ENDROOT
BRANCH   2   3
HETATM    3  O   UNL     1     -10.153   6.271  72.577  1.00  0.00    -0.175 OA 
BRANCH   3   4
HETATM    4  C   UNL     1     -11.446   5.923  72.325  1.00  0.00    -0.297 C  
HETATM    5  O   UNL     1     -12.125   5.174  73.008  1.00  0.00    -0.176 OA 
BRANCH   4   6
HETATM    6  C   UNL     1     -11.928   6.696  71.128  1.00  0.00    -0.412 C  
BRANCH   6   7
HETATM    7  C   UNL     1     -13.131   7.565  71.506  1.00  0.00    -0.402 C  
BRANCH   7   8
HETATM    8  C   UNL     1     -12.744   9.023  71.698  1.00  0.00    -0.421 C  
BRANCH   8   9
HETATM    9  C   UNL     1     -11.410   9.348  71.074  1.00  0.00    -0.407 C  
HETATM   10  C   UNL     1     -11.156  10.407  70.288  1.00  0.00    -0.379 C  
BRANCH  10  11
HETATM   11  C   UNL     1     -12.204  11.344  69.782  1.00  0.00    -0.332 C  
BRANCH  11  12
HETATM   12  C   UNL     1     -11.812  12.790  69.766  1.00  0.00    -0.380 C  
HETATM   13  C   UNL     1     -11.708  13.518  68.640  1.00  0.00    -0.389 C  
BRANCH  13  14
HETATM   14  C   UNL     1     -11.958  13.083  67.213  1.00  0.00    -0.379 C  
BRANCH  14  15
HETATM   15  C   UNL     1     -12.252  14.197  66.242  1.00  0.00    -0.474 C  
HETATM   16  C   UNL     1     -11.672  14.376  65.045  1.00  0.00    -0.389 C  
BRANCH  16  17
HETATM   17  C   UNL     1     -10.501  13.597  64.542  1.00  0.00    -0.411 C  
BRANCH  17  18
HETATM   18  C   UNL     1     -10.995  12.493  63.646  1.00  0.00    -0.507 C  
HETATM   19  C   UNL     1     -10.578  11.220  63.708  1.00  0.00    -0.455 C  
BRANCH  19  20
HETATM   20  C   UNL     1      -9.545  10.715  64.658  1.00  0.00    -0.334 C  
BRANCH  20  21
HETATM   21  C   UNL     1     -10.150  10.125  65.896  1.00  0.00    -0.325 C  
HETATM   22  C   UNL     1      -9.791  10.459  67.146  1.00  0.00    -0.221 C  
BRANCH  22  23
HETATM   23  C   UNL     1      -8.711  11.431  67.513  1.00  0.00    -0.140 C  
HETATM   24  C   UNL     1      -7.590  10.759  68.283  1.00  0.00    -0.098 C  
ENDBRANCH  22  23
ENDBRANCH  20  21
ENDBRANCH  19  20
ENDBRANCH  17  18
ENDBRANCH  16  17
ENDBRANCH  14  15
ENDBRANCH  13  14
ENDBRANCH  11  12
ENDBRANCH  10  11
ENDBRANCH   8   9
ENDBRANCH   7   8
ENDBRANCH   6   7
ENDBRANCH   4   6
ENDBRANCH   3   4
ENDBRANCH   2   3
TORSDOF 15
ENDMDL
MODEL      118
REMARK 921   NORMALIZED FREE ENERGY PREDICTED BY IDOCK:   -4.40 KCAL/MOL
REMARK 922        TOTAL FREE ENERGY PREDICTED BY IDOCK:  -10.81 KCAL/MOL
REMARK 923 INTER-LIGAND FREE ENERGY PREDICTED BY IDOCK:   -8.17 KCAL/MOL
REMARK 924 INTRA-LIGAND FREE ENERGY PREDICTED BY IDOCK:   -2.64 KCAL/MOL
REMARK 927      BINDING AFFINITY PREDICTED BY RF-SCORE:    0.00 PKD
ROOT
HETATM    1  C   UNL     1     -12.304  16.548  74.138  1.00  0.00    -0.488 C  
HETATM    2  C   UNL     1     -12.328  15.069  73.795  1.00  0.00    -0.526 C  
ENDROOT
BRANCH   2   3
HETATM    3  O   UNL     1     -13.582  14.794  73.159  1.00  0.00    -0.552 OA 
BRANCH   3   4
HETATM    4  C   UNL     1     -13.554  14.895  71.800  1.00  0.00    -0.408 C  
HETATM    5  O   UNL     1     -14.365  15.500  71.117  1.00  0.00    -0.516 OA 
BRANCH   4   6
HETATM    6  C   UNL     1     -12.306  14.227  71.293  1.00  0.00    -0.439 C  
BRANCH   6   7
HETATM    7  C   UNL     1     -12.267  14.266  69.762  1.00  0.00    -0.390 C  
BRANCH   7   8
HETATM    8  C   UNL     1     -11.086  13.488  69.201  1.00  0.00    -0.271 C  
BRANCH   8   9
HETATM    9  C   UNL     1     -11.521  12.297  68.384  1.00  0.00    -0.356 C  
HETATM   10  C   UNL     1     -11.884  11.104  68.881  1.00  0.00    -0.406 C  
BRANCH  10  11
HETATM   11  C   UNL     1     -11.758  10.723  70.320  1.00  0.00    -0.442 C  
BRANCH  11  12
HETATM   12  C   UNL     1     -13.055  10.555  71.050  1.00  0.00    -0.419 C  
HETATM   13  C   UNL     1     -13.299   9.547  71.908  1.00  0.00    -0.518 C  
BRANCH  13  14
HETATM   14  C   UNL     1     -12.376   8.424  72.324  1.00  0.00    -0.436 C  
BRANCH  14  15
HETATM   15  C   UNL     1     -12.588   7.116  71.606  1.00  0.00    -0.410 C  
HETATM   16  C   UNL     1     -11.756   6.560  70.712  1.00  0.00    -0.427 C  
BRANCH  16  17
HETATM   17  C   UNL     1     -10.551   7.232  70.139  1.00  0.00    -0.245 C  
BRANCH  17  18
HETATM   18  C   UNL     1      -9.324   6.451  70.526  1.00  0.00    -0.169 C  
HETATM   19  C   UNL     1      -8.259   6.972  71.152  1.00  0.00    -0.113 C  
BRANCH  19  20
HETATM   20  C   UNL     1      -8.122   8.408  71.535  1.00  0.00    -0.172 C  
BRANCH  20  21
HETATM   21  C   UNL     1      -6.854   9.017  71.015  1.00  0.00    -0.092 C  
HETATM   22  C   UNL     1      -6.794   9.864  69.975  1.00  0.00    -0.110 C  
BRANCH  22  23
HETATM   23  C   UNL     1      -7.958  10.308  69.143  1.00  0.00    -0.135 C  
HETATM   24  C   UNL     1      -7.727  11.684  68.545  1.00  0.00    -0.134 C  
ENDBRANCH  22  23
ENDBRANCH  20  21
ENDBRANCH  19  20
ENDBRANCH  17  18
ENDBRANCH  16  17
ENDBRANCH  14  15
ENDBRANCH  13  14
ENDBRANCH  11  12
ENDBRANCH  10  11
ENDBRANCH   8   9
ENDBRANCH   7   8
ENDBRANCH   6   7
ENDBRANCH   4   6
ENDBRANCH   3   4
ENDBRANCH   2   3
TORSDOF 15
ENDMDL
MODEL      119
REMARK 921   NORMALIZED FREE ENERGY PREDICTED BY IDOCK:   -4.39 KCAL/MOL
REMARK 922        TOTAL FREE ENERGY PREDICTED BY IDOCK:  -10.80 KCAL/MOL
REMARK 923 INTER-LIGAND FREE ENERGY PREDICTED BY IDOCK:   -8.00 KCAL/MOL
REMARK 924 INTRA-LIGAND FREE ENERGY PREDICTED BY IDOCK:   -2.80 KCAL/MOL
REMARK 927      BINDING AFFINITY PREDICTED BY RF-SCORE:    0.00 PKD
ROOT
HETATM    1  C   UNL     1      -9.845  10.671  65.823  1.00  0.00    -0.296 C  
HETATM    2  C   UNL     1     -10.582  11.245  64.626  1.00  0.00    -0.327 C  
ENDROOT
BRANCH   2   3
HETATM    3  O   UNL     1     -10.823  12.631  64.893  1.00  0.00    -0.280 OA 
BRANCH   3   4
HETATM    4  C   UNL     1     -12.120  12.928  65.186  1.00  0.00    -0.445 C  
HETATM    5  O   UNL     1     -13.099  12.461  64.625  1.00  0.00    -0.825 OA 
BRANCH   4   6
HETATM    6  C   UNL     1     -12.148  13.842  66.380  1.00  0.00    -0.483 C  
BRANCH   6   7
HETATM    7  C   UNL     1     -12.006  13.032  67.672  1.00  0.00    -0.353 C  
BRANCH   7   8
HETATM    8  C   UNL     1     -11.131  13.739  68.696  1.00  0.00    -0.293 C  
BRANCH   8   9
HETATM    9  C   UNL     1     -11.941  14.544  69.682  1.00  0.00    -0.375 C  
HETATM   10  C   UNL     1     -11.828  15.866  69.885  1.00  0.00    -0.309 C  
BRANCH  10  11
HETATM   11  C   UNL     1     -10.766  16.720  69.273  1.00  0.00    -0.324 C  
BRANCH  11  12
HETATM   12  C   UNL     1     -10.998  17.097  67.842  1.00  0.00    -0.208 C  
HETATM   13  C   UNL     1     -10.872  18.352  67.375  1.00  0.00    -0.306 C  
BRANCH  13  14
HETATM   14  C   UNL     1     -10.478  19.600  68.133  1.00  0.00    -0.503 C  
BRANCH  14  15
HETATM   15  C   UNL     1      -9.630  20.581  67.363  1.00  0.00    -0.578 C  
HETATM   16  C   UNL     1      -8.365  20.386  66.960  1.00  0.00    -0.349 C  
BRANCH  16  17
HETATM   17  C   UNL     1      -7.514  19.226  67.361  1.00  0.00    -0.254 C  
BRANCH  17  18
HETATM   18  C   UNL     1      -7.181  19.344  68.824  1.00  0.00    -0.390 C  
HETATM   19  C   UNL     1      -6.590  18.383  69.548  1.00  0.00    -0.175 C  
BRANCH  19  20
HETATM   20  C   UNL     1      -6.199  17.044  69.017  1.00  0.00    -0.190 C  
BRANCH  20  21
HETATM   21  C   UNL     1      -7.132  15.960  69.467  1.00  0.00    -0.184 C  
HETATM   22  C   UNL     1      -7.680  15.048  68.649  1.00  0.00    -0.128 C  
BRANCH  22  23
HETATM   23  C   UNL     1      -7.492  14.982  67.164  1.00  0.00    -0.145 C  
HETATM   24  C   UNL     1      -8.800  15.192  66.423  1.00  0.00    -0.277 C  
ENDBRANCH  22  23
ENDBRANCH  20  21
ENDBRANCH  19  20
ENDBRANCH  17  18
ENDBRANCH  16  17
ENDBRANCH  14  15
ENDBRANCH  13  14
ENDBRANCH  11  12
ENDBRANCH  10  11
ENDBRANCH   8   9
ENDBRANCH   7   8
ENDBRANCH   6   7
ENDBRANCH   4   6
ENDBRANCH   3   4
ENDBRANCH   2   3
TORSDOF 15
ENDMDL
MODEL      120
REMARK 921   NORMALIZED FREE ENERGY PREDICTED BY IDOCK:   -4.39 KCAL/MOL
REMARK 922        TOTAL FREE ENERGY PREDICTED BY IDOCK:  -10.80 KCAL/MOL
REMARK 923 INTER-LIGAND FREE ENERGY PREDICTED BY IDOCK:   -7.80 KCAL/MOL
REMARK 924 INTRA-LIGAND FREE ENERGY PREDICTED BY IDOCK:   -3.00 KCAL/MOL
REMARK 927      BINDING AFFINITY PREDICTED BY RF-SCORE:    0.00 PKD
ROOT
HETATM    1  C   UNL     1      -9.388  10.333  63.295  1.00  0.00    -0.340 C  
HETATM    2  C   UNL     1     -10.164  11.635  63.215  1.00  0.00    -0.407 C  
ENDROOT
BRANCH   2   3
HETATM    3  O   UNL     1     -11.158  11.608  64.246  1.00  0.00    -0.332 OA 
BRANCH   3   4
HETATM    4  C   UNL     1     -12.292  12.303  63.949  1.00  0.00    -0.509 C  
HETATM    5  O   UNL     1     -13.122  11.982  63.113  1.00  0.00    -0.624 OA 
BRANCH   4   6
HETATM    6  C   UNL     1     -12.403  13.470  64.891  1.00  0.00    -0.447 C  
BRANCH   6   7
HETATM    7  C   UNL     1     -12.229  14.787  64.129  1.00  0.00    -0.321 C  
BRANCH   7   8
HETATM    8  C   UNL     1     -11.051  15.596  64.649  1.00  0.00    -0.387 C  
BRANCH   8   9
HETATM    9  C   UNL     1     -10.137  14.776  65.528  1.00  0.00    -0.409 C  
HETATM   10  C   UNL     1      -9.218  15.273  66.370  1.00  0.00    -0.342 C  
BRANCH  10  11
HETATM   11  C   UNL     1      -8.848  16.718  66.449  1.00  0.00    -0.331 C  
BRANCH  11  12
HETATM   12  C   UNL     1      -9.965  17.641  66.829  1.00  0.00    -0.320 C  
HETATM   13  C   UNL     1     -10.519  17.671  68.054  1.00  0.00    -0.395 C  
BRANCH  13  14
HETATM   14  C   UNL     1     -10.162  16.841  69.267  1.00  0.00    -0.278 C  
BRANCH  14  15
HETATM   15  C   UNL     1     -11.322  16.160  69.947  1.00  0.00    -0.318 C  
HETATM   16  C   UNL     1     -11.568  14.841  69.957  1.00  0.00    -0.332 C  
BRANCH  16  17
HETATM   17  C   UNL     1     -10.828  13.831  69.143  1.00  0.00    -0.205 C  
BRANCH  17  18
HETATM   18  C   UNL     1     -11.819  12.996  68.378  1.00  0.00    -0.370 C  
HETATM   19  C   UNL     1     -11.600  11.735  67.977  1.00  0.00    -0.386 C  
BRANCH  19  20
HETATM   20  C   UNL     1     -10.332  10.983  68.207  1.00  0.00    -0.197 C  
BRANCH  20  21
HETATM   21  C   UNL     1      -9.357  11.155  67.082  1.00  0.00    -0.176 C  
HETATM   22  C   UNL     1      -8.074  11.517  67.242  1.00  0.00    -0.153 C  
BRANCH  22  23
HETATM   23  C   UNL     1      -7.417  11.845  68.548  1.00  0.00    -0.117 C  
HETATM   24  C   UNL     1      -6.970  13.295  68.602  1.00  0.00    -0.101 C  
ENDBRANCH  22  23
ENDBRANCH  20  21
ENDBRANCH  19  20
ENDBRANCH  17  18
ENDBRANCH  16  17
ENDBRANCH  14  15
ENDBRANCH  13  14
ENDBRANCH  11  12
ENDBRANCH  10  11
ENDBRANCH   8   9
ENDBRANCH   7   8
ENDBRANCH   6   7
ENDBRANCH   4   6
ENDBRANCH   3   4
ENDBRANCH   2   3
TORSDOF 15
ENDMDL
MODEL      121
REMARK 921   NORMALIZED FREE ENERGY PREDICTED BY IDOCK:   -4.39 KCAL/MOL
REMARK 922        TOTAL FREE ENERGY PREDICTED BY IDOCK:  -10.80 KCAL/MOL
REMARK 923 INTER-LIGAND FREE ENERGY PREDICTED BY IDOCK:   -8.52 KCAL/MOL
REMARK 924 INTRA-LIGAND FREE ENERGY PREDICTED BY IDOCK:   -2.27 KCAL/MOL
REMARK 927      BINDING AFFINITY PREDICTED BY RF-SCORE:    0.00 PKD
ROOT
HETATM    1  C   UNL     1     -10.946  11.222  66.969  1.00  0.00    -0.352 C  
HETATM    2  C   UNL     1     -11.303  10.720  68.356  1.00  0.00    -0.302 C  
ENDROOT
BRANCH   2   3
HETATM    3  O   UNL     1     -12.239  11.645  68.922  1.00  0.00    -0.377 OA 
BRANCH   3   4
HETATM    4  C   UNL     1     -12.657  11.322  70.178  1.00  0.00    -0.135 C  
HETATM    5  O   UNL     1     -13.069  10.228  70.529  1.00  0.00    -0.320 OA 
BRANCH   4   6
HETATM    6  C   UNL     1     -12.426  12.502  71.081  1.00  0.00    -0.322 C  
BRANCH   6   7
HETATM    7  C   UNL     1     -13.560  12.618  72.104  1.00  0.00    -0.510 C  
BRANCH   7   8
HETATM    8  C   UNL     1     -13.966  14.064  72.345  1.00  0.00    -0.622 C  
BRANCH   8   9
HETATM    9  C   UNL     1     -12.965  14.804  73.199  1.00  0.00    -0.623 C  
HETATM   10  C   UNL     1     -12.090  15.719  72.753  1.00  0.00    -0.596 C  
BRANCH  10  11
HETATM   11  C   UNL     1     -11.865  16.030  71.310  1.00  0.00    -0.502 C  
BRANCH  11  12
HETATM   12  C   UNL     1     -10.625  15.436  70.715  1.00  0.00    -0.098 C  
HETATM   13  C   UNL     1     -10.501  15.128  69.411  1.00  0.00    -0.259 C  
BRANCH  13  14
HETATM   14  C   UNL     1     -11.514  15.310  68.303  1.00  0.00    -0.359 C  
BRANCH  14  15
HETATM   15  C   UNL     1     -10.936  15.612  66.944  1.00  0.00    -0.243 C  
HETATM   16  C   UNL     1     -10.486  16.804  66.523  1.00  0.00    -0.258 C  
BRANCH  16  17
HETATM   17  C   UNL     1     -10.645  18.086  67.273  1.00  0.00    -0.358 C  
BRANCH  17  18
HETATM   18  C   UNL     1     -10.550  19.235  66.306  1.00  0.00    -0.545 C  
HETATM   19  C   UNL     1      -9.458  19.994  66.132  1.00  0.00    -0.447 C  
BRANCH  19  20
HETATM   20  C   UNL     1      -8.184  19.828  66.890  1.00  0.00    -0.342 C  
BRANCH  20  21
HETATM   21  C   UNL     1      -7.226  18.906  66.198  1.00  0.00    -0.288 C  
HETATM   22  C   UNL     1      -6.831  17.720  66.687  1.00  0.00    -0.242 C  
BRANCH  22  23
HETATM   23  C   UNL     1      -7.240  17.141  68.007  1.00  0.00    -0.187 C  
HETATM   24  C   UNL     1      -6.405  17.696  69.146  1.00  0.00    -0.232 C  
ENDBRANCH  22  23
ENDBRANCH  20  21
ENDBRANCH  19  20
ENDBRANCH  17  18
ENDBRANCH  16  17
ENDBRANCH  14  15
ENDBRANCH  13  14
ENDBRANCH  11  12
ENDBRANCH  10  11
ENDBRANCH   8   9
ENDBRANCH   7   8
ENDBRANCH   6   7
ENDBRANCH   4   6
ENDBRANCH   3   4
ENDBRANCH   2   3
TORSDOF 15
ENDMDL
MODEL      122
REMARK 921   NORMALIZED FREE ENERGY PREDICTED BY IDOCK:   -4.39 KCAL/MOL
REMARK 922        TOTAL FREE ENERGY PREDICTED BY IDOCK:  -10.79 KCAL/MOL
REMARK 923 INTER-LIGAND FREE ENERGY PREDICTED BY IDOCK:   -8.12 KCAL/MOL
REMARK 924 INTRA-LIGAND FREE ENERGY PREDICTED BY IDOCK:   -2.67 KCAL/MOL
REMARK 927      BINDING AFFINITY PREDICTED BY RF-SCORE:    0.00 PKD
ROOT
HETATM    1  C   UNL     1      -9.879   7.952  72.979  1.00  0.00    -0.355 C  
HETATM    2  C   UNL     1     -11.378   7.986  72.740  1.00  0.00    -0.374 C  
ENDROOT
BRANCH   2   3
HETATM    3  O   UNL     1     -11.588   8.373  71.376  1.00  0.00    -0.265 OA 
BRANCH   3   4
HETATM    4  C   UNL     1     -11.860   9.697  71.205  1.00  0.00    -0.381 C  
HETATM    5  O   UNL     1     -12.586  10.370  71.919  1.00  0.00    -0.397 OA 
BRANCH   4   6
HETATM    6  C   UNL     1     -11.037  10.213  70.057  1.00  0.00    -0.368 C  
BRANCH   6   7
HETATM    7  C   UNL     1     -10.623   9.060  69.138  1.00  0.00    -0.219 C  
BRANCH   7   8
HETATM    8  C   UNL     1     -10.603   9.475  67.675  1.00  0.00    -0.329 C  
BRANCH   8   9
HETATM    9  C   UNL     1      -9.291  10.106  67.277  1.00  0.00    -0.173 C  
HETATM   10  C   UNL     1      -8.941  10.448  66.027  1.00  0.00    -0.178 C  
BRANCH  10  11
HETATM   11  C   UNL     1      -9.739  10.110  64.811  1.00  0.00    -0.389 C  
BRANCH  11  12
HETATM   12  C   UNL     1      -9.540  11.025  63.643  1.00  0.00    -0.324 C  
HETATM   13  C   UNL     1     -10.504  11.828  63.156  1.00  0.00    -0.359 C  
BRANCH  13  14
HETATM   14  C   UNL     1     -11.923  11.997  63.650  1.00  0.00    -0.612 C  
BRANCH  14  15
HETATM   15  C   UNL     1     -12.301  13.398  64.058  1.00  0.00    -0.402 C  
HETATM   16  C   UNL     1     -11.821  14.070  65.116  1.00  0.00    -0.370 C  
BRANCH  16  17
HETATM   17  C   UNL     1     -10.957  13.477  66.180  1.00  0.00    -0.289 C  
BRANCH  17  18
HETATM   18  C   UNL     1     -11.832  12.927  67.273  1.00  0.00    -0.416 C  
HETATM   19  C   UNL     1     -11.829  13.365  68.541  1.00  0.00    -0.401 C  
BRANCH  19  20
HETATM   20  C   UNL     1     -10.939  14.443  69.060  1.00  0.00    -0.274 C  
BRANCH  20  21
HETATM   21  C   UNL     1     -11.508  15.811  68.830  1.00  0.00    -0.381 C  
HETATM   22  C   UNL     1     -10.777  16.889  68.507  1.00  0.00    -0.359 C  
BRANCH  22  23
HETATM   23  C   UNL     1      -9.286  16.921  68.361  1.00  0.00    -0.255 C  
HETATM   24  C   UNL     1      -8.866  17.480  67.014  1.00  0.00    -0.252 C  
ENDBRANCH  22  23
ENDBRANCH  20  21
ENDBRANCH  19  20
ENDBRANCH  17  18
ENDBRANCH  16  17
ENDBRANCH  14  15
ENDBRANCH  13  14
ENDBRANCH  11  12
ENDBRANCH  10  11
ENDBRANCH   8   9
ENDBRANCH   7   8
ENDBRANCH   6   7
ENDBRANCH   4   6
ENDBRANCH   3   4
ENDBRANCH   2   3
TORSDOF 15
ENDMDL
MODEL      123
REMARK 921   NORMALIZED FREE ENERGY PREDICTED BY IDOCK:   -4.39 KCAL/MOL
REMARK 922        TOTAL FREE ENERGY PREDICTED BY IDOCK:  -10.78 KCAL/MOL
REMARK 923 INTER-LIGAND FREE ENERGY PREDICTED BY IDOCK:   -8.33 KCAL/MOL
REMARK 924 INTRA-LIGAND FREE ENERGY PREDICTED BY IDOCK:   -2.45 KCAL/MOL
REMARK 927      BINDING AFFINITY PREDICTED BY RF-SCORE:    0.00 PKD
ROOT
HETATM    1  C   UNL     1      -7.101  16.602  68.123  1.00  0.00    -0.157 C  
HETATM    2  C   UNL     1      -7.979  17.776  67.731  1.00  0.00    -0.225 C  
ENDROOT
BRANCH   2   3
HETATM    3  O   UNL     1      -8.617  17.444  66.492  1.00  0.00    -0.238 OA 
BRANCH   3   4
HETATM    4  C   UNL     1      -9.951  17.720  66.457  1.00  0.00    -0.346 C  
HETATM    5  O   UNL     1     -10.449  18.765  66.071  1.00  0.00    -0.454 OA 
BRANCH   4   6
HETATM    6  C   UNL     1     -10.709  16.490  66.873  1.00  0.00    -0.175 C  
BRANCH   6   7
HETATM    7  C   UNL     1     -10.423  15.337  65.906  1.00  0.00    -0.345 C  
BRANCH   7   8
HETATM    8  C   UNL     1     -11.190  15.483  64.601  1.00  0.00    -0.381 C  
BRANCH   8   9
HETATM    9  C   UNL     1     -12.313  14.482  64.483  1.00  0.00    -0.434 C  
HETATM   10  C   UNL     1     -12.177  13.202  64.102  1.00  0.00    -0.465 C  
BRANCH  10  11
HETATM   11  C   UNL     1     -10.906  12.614  63.583  1.00  0.00    -0.437 C  
BRANCH  11  12
HETATM   12  C   UNL     1     -10.649  11.194  63.985  1.00  0.00    -0.436 C  
HETATM   13  C   UNL     1     -10.209  10.836  65.205  1.00  0.00    -0.351 C  
BRANCH  13  14
HETATM   14  C   UNL     1      -9.901  11.724  66.390  1.00  0.00    -0.237 C  
BRANCH  14  15
HETATM   15  C   UNL     1     -11.042  11.936  67.351  1.00  0.00    -0.336 C  
HETATM   16  C   UNL     1     -11.335  11.168  68.412  1.00  0.00    -0.357 C  
BRANCH  16  17
HETATM   17  C   UNL     1     -10.681   9.862  68.723  1.00  0.00    -0.247 C  
BRANCH  17  18
HETATM   18  C   UNL     1      -9.797  10.031  69.930  1.00  0.00    -0.266 C  
HETATM   19  C   UNL     1      -9.793   9.209  70.990  1.00  0.00    -0.366 C  
BRANCH  19  20
HETATM   20  C   UNL     1     -10.683   8.022  71.141  1.00  0.00    -0.250 C  
BRANCH  20  21
HETATM   21  C   UNL     1     -11.472   8.061  72.415  1.00  0.00    -0.449 C  
HETATM   22  C   UNL     1     -12.644   8.700  72.558  1.00  0.00    -0.367 C  
BRANCH  22  23
HETATM   23  C   UNL     1     -13.334   9.506  71.500  1.00  0.00    -0.470 C  
HETATM   24  C   UNL     1     -13.049  10.989  71.650  1.00  0.00    -0.543 C  
ENDBRANCH  22  23
ENDBRANCH  20  21
ENDBRANCH  19  20
ENDBRANCH  17  18
ENDBRANCH  16  17
ENDBRANCH  14  15
ENDBRANCH  13  14
ENDBRANCH  11  12
ENDBRANCH  10  11
ENDBRANCH   8   9
ENDBRANCH   7   8
ENDBRANCH   6   7
ENDBRANCH   4   6
ENDBRANCH   3   4
ENDBRANCH   2   3
TORSDOF 15
ENDMDL
MODEL      124
REMARK 921   NORMALIZED FREE ENERGY PREDICTED BY IDOCK:   -4.38 KCAL/MOL
REMARK 922        TOTAL FREE ENERGY PREDICTED BY IDOCK:  -10.78 KCAL/MOL
REMARK 923 INTER-LIGAND FREE ENERGY PREDICTED BY IDOCK:   -8.45 KCAL/MOL
REMARK 924 INTRA-LIGAND FREE ENERGY PREDICTED BY IDOCK:   -2.33 KCAL/MOL
REMARK 927      BINDING AFFINITY PREDICTED BY RF-SCORE:    0.00 PKD
ROOT
HETATM    1  C   UNL     1      -8.359   7.972  73.422  1.00  0.00    -0.278 C  
HETATM    2  C   UNL     1      -9.786   7.507  73.645  1.00  0.00    -0.293 C  
ENDROOT
BRANCH   2   3
HETATM    3  O   UNL     1     -10.131   6.636  72.561  1.00  0.00    -0.171 OA 
BRANCH   3   4
HETATM    4  C   UNL     1     -11.272   6.985  71.903  1.00  0.00    -0.249 C  
HETATM    5  O   UNL     1     -12.349   6.421  72.004  1.00  0.00    -0.337 OA 
BRANCH   4   6
HETATM    6  C   UNL     1     -11.010   8.239  71.116  1.00  0.00    -0.286 C  
BRANCH   6   7
HETATM    7  C   UNL     1     -12.174   9.221  71.278  1.00  0.00    -0.410 C  
BRANCH   7   8
HETATM    8  C   UNL     1     -12.102  10.363  70.276  1.00  0.00    -0.370 C  
BRANCH   8   9
HETATM    9  C   UNL     1     -10.683  10.680  69.871  1.00  0.00    -0.260 C  
HETATM   10  C   UNL     1     -10.293  11.070  68.647  1.00  0.00    -0.209 C  
BRANCH  10  11
HETATM   11  C   UNL     1     -11.188  11.096  67.451  1.00  0.00    -0.363 C  
BRANCH  11  12
HETATM   12  C   UNL     1     -10.505  10.855  66.140  1.00  0.00    -0.290 C  
HETATM   13  C   UNL     1     -10.883  11.440  64.988  1.00  0.00    -0.311 C  
BRANCH  13  14
HETATM   14  C   UNL     1     -12.006  12.427  64.761  1.00  0.00    -0.462 C  
BRANCH  14  15
HETATM   15  C   UNL     1     -11.581  13.866  64.625  1.00  0.00    -0.398 C  
HETATM   16  C   UNL     1     -11.410  14.739  65.629  1.00  0.00    -0.343 C  
BRANCH  16  17
HETATM   17  C   UNL     1     -11.786  14.482  67.052  1.00  0.00    -0.408 C  
BRANCH  17  18
HETATM   18  C   UNL     1     -10.569  14.656  67.920  1.00  0.00    -0.244 C  
HETATM   19  C   UNL     1     -10.605  14.934  69.231  1.00  0.00    -0.248 C  
BRANCH  19  20
HETATM   20  C   UNL     1     -11.856  15.139  70.018  1.00  0.00    -0.361 C  
BRANCH  20  21
HETATM   21  C   UNL     1     -12.178  13.963  70.891  1.00  0.00    -0.436 C  
HETATM   22  C   UNL     1     -13.128  13.963  71.838  1.00  0.00    -0.469 C  
BRANCH  22  23
HETATM   23  C   UNL     1     -13.990  15.131  72.210  1.00  0.00    -0.631 C  
HETATM   24  C   UNL     1     -13.320  16.015  73.245  1.00  0.00    -0.625 C  
ENDBRANCH  22  23
ENDBRANCH  20  21
ENDBRANCH  19  20
ENDBRANCH  17  18
ENDBRANCH  16  17
ENDBRANCH  14  15
ENDBRANCH  13  14
ENDBRANCH  11  12
ENDBRANCH  10  11
ENDBRANCH   8   9
ENDBRANCH   7   8
ENDBRANCH   6   7
ENDBRANCH   4   6
ENDBRANCH   3   4
ENDBRANCH   2   3
TORSDOF 15
ENDMDL
MODEL      125
REMARK 921   NORMALIZED FREE ENERGY PREDICTED BY IDOCK:   -4.37 KCAL/MOL
REMARK 922        TOTAL FREE ENERGY PREDICTED BY IDOCK:  -10.76 KCAL/MOL
REMARK 923 INTER-LIGAND FREE ENERGY PREDICTED BY IDOCK:   -8.24 KCAL/MOL
REMARK 924 INTRA-LIGAND FREE ENERGY PREDICTED BY IDOCK:   -2.52 KCAL/MOL
REMARK 927      BINDING AFFINITY PREDICTED BY RF-SCORE:    0.00 PKD
ROOT
HETATM    1  C   UNL     1     -10.907   5.754  70.544  1.00  0.00    -0.348 C  
HETATM    2  C   UNL     1     -10.254   5.379  69.226  1.00  0.00    -0.245 C  
ENDROOT
BRANCH   2   3
HETATM    3  O   UNL     1      -9.665   6.566  68.683  1.00  0.00    -0.128 OA 
BRANCH   3   4
HETATM    4  C   UNL     1     -10.417   7.177  67.726  1.00  0.00    -0.223 C  
HETATM    5  O   UNL     1     -11.111   6.609  66.898  1.00  0.00    -0.400 OA 
BRANCH   4   6
HETATM    6  C   UNL     1     -10.335   8.666  67.926  1.00  0.00    -0.286 C  
BRANCH   6   7
HETATM    7  C   UNL     1      -9.212   9.008  68.910  1.00  0.00    -0.140 C  
BRANCH   7   8
HETATM    8  C   UNL     1      -9.682   9.950  70.007  1.00  0.00    -0.274 C  
BRANCH   8   9
HETATM    9  C   UNL     1     -10.308   9.213  71.165  1.00  0.00    -0.387 C  
HETATM   10  C   UNL     1     -11.602   9.276  71.518  1.00  0.00    -0.452 C  
BRANCH  10  11
HETATM   11  C   UNL     1     -12.591  10.217  70.911  1.00  0.00    -0.454 C  
BRANCH  11  12
HETATM   12  C   UNL     1     -13.193  11.208  71.859  1.00  0.00    -0.488 C  
HETATM   13  C   UNL     1     -13.081  12.540  71.710  1.00  0.00    -0.450 C  
BRANCH  13  14
HETATM   14  C   UNL     1     -12.376  13.306  70.613  1.00  0.00    -0.416 C  
BRANCH  14  15
HETATM   15  C   UNL     1     -11.768  14.620  71.032  1.00  0.00    -0.331 C  
HETATM   16  C   UNL     1     -11.564  15.685  70.242  1.00  0.00    -0.370 C  
BRANCH  16  17
HETATM   17  C   UNL     1     -11.743  15.691  68.760  1.00  0.00    -0.382 C  
BRANCH  17  18
HETATM   18  C   UNL     1     -10.715  16.601  68.144  1.00  0.00    -0.349 C  
HETATM   19  C   UNL     1     -10.393  16.614  66.843  1.00  0.00    -0.299 C  
BRANCH  19  20
HETATM   20  C   UNL     1     -10.987  15.708  65.817  1.00  0.00    -0.250 C  
BRANCH  20  21
HETATM   21  C   UNL     1     -10.057  14.596  65.433  1.00  0.00    -0.403 C  
HETATM   22  C   UNL     1     -10.384  13.295  65.458  1.00  0.00    -0.298 C  
BRANCH  22  23
HETATM   23  C   UNL     1     -11.699  12.734  65.906  1.00  0.00    -0.464 C  
HETATM   24  C   UNL     1     -11.608  12.131  67.296  1.00  0.00    -0.404 C  
ENDBRANCH  22  23
ENDBRANCH  20  21
ENDBRANCH  19  20
ENDBRANCH  17  18
ENDBRANCH  16  17
ENDBRANCH  14  15
ENDBRANCH  13  14
ENDBRANCH  11  12
ENDBRANCH  10  11
ENDBRANCH   8   9
ENDBRANCH   7   8
ENDBRANCH   6   7
ENDBRANCH   4   6
ENDBRANCH   3   4
ENDBRANCH   2   3
TORSDOF 15
ENDMDL
MODEL      126
REMARK 921   NORMALIZED FREE ENERGY PREDICTED BY IDOCK:   -4.37 KCAL/MOL
REMARK 922        TOTAL FREE ENERGY PREDICTED BY IDOCK:  -10.76 KCAL/MOL
REMARK 923 INTER-LIGAND FREE ENERGY PREDICTED BY IDOCK:   -8.53 KCAL/MOL
REMARK 924 INTRA-LIGAND FREE ENERGY PREDICTED BY IDOCK:   -2.23 KCAL/MOL
REMARK 927      BINDING AFFINITY PREDICTED BY RF-SCORE:    0.00 PKD
ROOT
HETATM    1  C   UNL     1     -12.874  15.073  72.839  1.00  0.00    -0.542 C  
HETATM    2  C   UNL     1     -13.780  14.281  71.914  1.00  0.00    -0.436 C  
ENDROOT
BRANCH   2   3
HETATM    3  O   UNL     1     -13.696  12.905  72.302  1.00  0.00    -0.541 OA 
BRANCH   3   4
HETATM    4  C   UNL     1     -12.933  12.136  71.476  1.00  0.00    -0.295 C  
HETATM    5  O   UNL     1     -12.237  12.550  70.563  1.00  0.00    -0.365 OA 
BRANCH   4   6
HETATM    6  C   UNL     1     -13.008  10.708  71.942  1.00  0.00    -0.542 C  
BRANCH   6   7
HETATM    7  C   UNL     1     -12.228   9.796  70.989  1.00  0.00    -0.436 C  
BRANCH   7   8
HETATM    8  C   UNL     1     -11.042   9.136  71.674  1.00  0.00    -0.445 C  
BRANCH   8   9
HETATM    9  C   UNL     1     -11.429   7.865  72.390  1.00  0.00    -0.433 C  
HETATM   10  C   UNL     1     -11.646   6.678  71.802  1.00  0.00    -0.347 C  
BRANCH  10  11
HETATM   11  C   UNL     1     -11.693   6.471  70.323  1.00  0.00    -0.430 C  
BRANCH  11  12
HETATM   12  C   UNL     1     -10.630   5.572  69.771  1.00  0.00    -0.388 C  
HETATM   13  C   UNL     1      -9.479   6.023  69.240  1.00  0.00    -0.152 C  
BRANCH  13  14
HETATM   14  C   UNL     1      -9.009   7.453  69.095  1.00  0.00    -0.135 C  
BRANCH  14  15
HETATM   15  C   UNL     1      -8.653   7.876  67.693  1.00  0.00    -0.127 C  
HETATM   16  C   UNL     1      -9.357   8.714  66.917  1.00  0.00    -0.216 C  
BRANCH  16  17
HETATM   17  C   UNL     1     -10.716   9.238  67.246  1.00  0.00    -0.244 C  
BRANCH  17  18
HETATM   18  C   UNL     1     -10.573  10.537  67.994  1.00  0.00    -0.251 C  
HETATM   19  C   UNL     1     -10.650  11.751  67.429  1.00  0.00    -0.258 C  
BRANCH  19  20
HETATM   20  C   UNL     1     -10.862  11.993  65.972  1.00  0.00    -0.329 C  
BRANCH  20  21
HETATM   21  C   UNL     1     -12.161  12.687  65.694  1.00  0.00    -0.474 C  
HETATM   22  C   UNL     1     -12.294  14.015  65.555  1.00  0.00    -0.503 C  
BRANCH  22  23
HETATM   23  C   UNL     1     -11.192  15.021  65.692  1.00  0.00    -0.327 C  
HETATM   24  C   UNL     1     -11.000  15.450  67.135  1.00  0.00    -0.317 C  
ENDBRANCH  22  23
ENDBRANCH  20  21
ENDBRANCH  19  20
ENDBRANCH  17  18
ENDBRANCH  16  17
ENDBRANCH  14  15
ENDBRANCH  13  14
ENDBRANCH  11  12
ENDBRANCH  10  11
ENDBRANCH   8   9
ENDBRANCH   7   8
ENDBRANCH   6   7
ENDBRANCH   4   6
ENDBRANCH   3   4
ENDBRANCH   2   3
TORSDOF 15
ENDMDL
MODEL      127
REMARK 921   NORMALIZED FREE ENERGY PREDICTED BY IDOCK:   -4.37 KCAL/MOL
REMARK 922        TOTAL FREE ENERGY PREDICTED BY IDOCK:  -10.76 KCAL/MOL
REMARK 923 INTER-LIGAND FREE ENERGY PREDICTED BY IDOCK:   -8.75 KCAL/MOL
REMARK 924 INTRA-LIGAND FREE ENERGY PREDICTED BY IDOCK:   -2.01 KCAL/MOL
REMARK 927      BINDING AFFINITY PREDICTED BY RF-SCORE:    0.00 PKD
ROOT
HETATM    1  C   UNL     1     -13.392   7.716  71.538  1.00  0.00    -0.383 C  
HETATM    2  C   UNL     1     -12.456   8.769  72.103  1.00  0.00    -0.393 C  
ENDROOT
BRANCH   2   3
HETATM    3  O   UNL     1     -12.073   9.630  71.023  1.00  0.00    -0.304 OA 
BRANCH   3   4
HETATM    4  C   UNL     1     -12.555  10.900  71.122  1.00  0.00    -0.428 C  
HETATM    5  O   UNL     1     -13.280  11.317  72.011  1.00  0.00    -0.506 OA 
BRANCH   4   6
HETATM    6  C   UNL     1     -11.962  11.728  70.015  1.00  0.00    -0.421 C  
BRANCH   6   7
HETATM    7  C   UNL     1     -10.950  10.900  69.216  1.00  0.00    -0.295 C  
BRANCH   7   8
HETATM    8  C   UNL     1     -11.201  10.983  67.719  1.00  0.00    -0.374 C  
BRANCH   8   9
HETATM    9  C   UNL     1     -10.626   9.802  66.976  1.00  0.00    -0.269 C  
HETATM   10  C   UNL     1      -9.884   9.873  65.860  1.00  0.00    -0.342 C  
BRANCH  10  11
HETATM   11  C   UNL     1      -9.646  11.131  65.090  1.00  0.00    -0.273 C  
BRANCH  11  12
HETATM   12  C   UNL     1     -10.421  11.253  63.814  1.00  0.00    -0.459 C  
HETATM   13  C   UNL     1     -11.598  11.897  63.720  1.00  0.00    -0.555 C  
BRANCH  13  14
HETATM   14  C   UNL     1     -12.365  12.617  64.807  1.00  0.00    -0.556 C  
BRANCH  14  15
HETATM   15  C   UNL     1     -12.485  14.109  64.630  1.00  0.00    -0.375 C  
HETATM   16  C   UNL     1     -11.521  15.013  64.861  1.00  0.00    -0.399 C  
BRANCH  16  17
HETATM   17  C   UNL     1     -10.208  14.710  65.506  1.00  0.00    -0.395 C  
BRANCH  17  18
HETATM   18  C   UNL     1     -10.290  15.052  66.969  1.00  0.00    -0.269 C  
HETATM   19  C   UNL     1      -9.950  16.239  67.492  1.00  0.00    -0.248 C  
BRANCH  19  20
HETATM   20  C   UNL     1      -9.414  17.388  66.704  1.00  0.00    -0.285 C  
BRANCH  20  21
HETATM   21  C   UNL     1      -7.923  17.334  66.564  1.00  0.00    -0.318 C  
HETATM   22  C   UNL     1      -7.075  18.171  67.184  1.00  0.00    -0.212 C  
BRANCH  22  23
HETATM   23  C   UNL     1      -7.468  19.309  68.076  1.00  0.00    -0.312 C  
HETATM   24  C   UNL     1      -6.784  20.601  67.670  1.00  0.00    -0.375 C  
ENDBRANCH  22  23
ENDBRANCH  20  21
ENDBRANCH  19  20
ENDBRANCH  17  18
ENDBRANCH  16  17
ENDBRANCH  14  15
ENDBRANCH  13  14
ENDBRANCH  11  12
ENDBRANCH  10  11
ENDBRANCH   8   9
ENDBRANCH   7   8
ENDBRANCH   6   7
ENDBRANCH   4   6
ENDBRANCH   3   4
ENDBRANCH   2   3
TORSDOF 15
ENDMDL
MODEL      128
REMARK 921   NORMALIZED FREE ENERGY PREDICTED BY IDOCK:   -4.37 KCAL/MOL
REMARK 922        TOTAL FREE ENERGY PREDICTED BY IDOCK:  -10.76 KCAL/MOL
REMARK 923 INTER-LIGAND FREE ENERGY PREDICTED BY IDOCK:   -8.19 KCAL/MOL
REMARK 924 INTRA-LIGAND FREE ENERGY PREDICTED BY IDOCK:   -2.56 KCAL/MOL
REMARK 927      BINDING AFFINITY PREDICTED BY RF-SCORE:    0.00 PKD
ROOT
HETATM    1  C   UNL     1     -11.029   6.671  67.028  1.00  0.00    -0.463 C  
HETATM    2  C   UNL     1     -10.451   7.038  68.383  1.00  0.00    -0.201 C  
ENDROOT
BRANCH   2   3
HETATM    3  O   UNL     1     -11.231   6.368  69.380  1.00  0.00    -0.359 OA 
BRANCH   3   4
HETATM    4  C   UNL     1     -10.566   5.378  70.039  1.00  0.00    -0.284 C  
HETATM    5  O   UNL     1     -10.032   4.413  69.516  1.00  0.00    -0.211 OA 
BRANCH   4   6
HETATM    6  C   UNL     1     -10.509   5.726  71.501  1.00  0.00    -0.291 C  
BRANCH   6   7
HETATM    7  C   UNL     1     -11.791   6.448  71.926  1.00  0.00    -0.380 C  
BRANCH   7   8
HETATM    8  C   UNL     1     -11.497   7.724  72.699  1.00  0.00    -0.430 C  
BRANCH   8   9
HETATM    9  C   UNL     1     -10.668   8.699  71.899  1.00  0.00    -0.414 C  
HETATM   10  C   UNL     1     -11.149   9.748  71.213  1.00  0.00    -0.375 C  
BRANCH  10  11
HETATM   11  C   UNL     1     -12.604  10.018  71.007  1.00  0.00    -0.463 C  
BRANCH  11  12
HETATM   12  C   UNL     1     -13.143  11.203  71.748  1.00  0.00    -0.536 C  
HETATM   13  C   UNL     1     -12.900  12.477  71.389  1.00  0.00    -0.359 C  
BRANCH  13  14
HETATM   14  C   UNL     1     -12.088  12.984  70.219  1.00  0.00    -0.388 C  
BRANCH  14  15
HETATM   15  C   UNL     1     -12.173  14.468  69.970  1.00  0.00    -0.396 C  
HETATM   16  C   UNL     1     -11.773  15.108  68.860  1.00  0.00    -0.357 C  
BRANCH  16  17
HETATM   17  C   UNL     1     -11.006  14.477  67.745  1.00  0.00    -0.282 C  
BRANCH  17  18
HETATM   18  C   UNL     1     -11.946  14.186  66.606  1.00  0.00    -0.470 C  
HETATM   19  C   UNL     1     -11.899  13.083  65.845  1.00  0.00    -0.468 C  
BRANCH  19  20
HETATM   20  C   UNL     1     -10.890  11.994  65.996  1.00  0.00    -0.329 C  
BRANCH  20  21
HETATM   21  C   UNL     1     -11.200  11.089  67.150  1.00  0.00    -0.290 C  
HETATM   22  C   UNL     1     -10.301  10.701  68.069  1.00  0.00    -0.208 C  
BRANCH  22  23
HETATM   23  C   UNL     1      -8.848  11.067  68.076  1.00  0.00    -0.138 C  
HETATM   24  C   UNL     1      -7.964   9.857  67.830  1.00  0.00    -0.105 C  
ENDBRANCH  22  23
ENDBRANCH  20  21
ENDBRANCH  19  20
ENDBRANCH  17  18
ENDBRANCH  16  17
ENDBRANCH  14  15
ENDBRANCH  13  14
ENDBRANCH  11  12
ENDBRANCH  10  11
ENDBRANCH   8   9
ENDBRANCH   7   8
ENDBRANCH   6   7
ENDBRANCH   4   6
ENDBRANCH   3   4
ENDBRANCH   2   3
TORSDOF 15
ENDMDL
MODEL      129
REMARK 921   NORMALIZED FREE ENERGY PREDICTED BY IDOCK:   -4.36 KCAL/MOL
REMARK 922        TOTAL FREE ENERGY PREDICTED BY IDOCK:  -10.73 KCAL/MOL
REMARK 923 INTER-LIGAND FREE ENERGY PREDICTED BY IDOCK:   -8.42 KCAL/MOL
REMARK 924 INTRA-LIGAND FREE ENERGY PREDICTED BY IDOCK:   -2.31 KCAL/MOL
REMARK 927      BINDING AFFINITY PREDICTED BY RF-SCORE:    0.00 PKD
ROOT
HETATM    1  C   UNL     1     -11.619   8.118  72.256  1.00  0.00    -0.436 C  
HETATM    2  C   UNL     1     -12.343   9.408  71.917  1.00  0.00    -0.375 C  
ENDROOT
BRANCH   2   3
HETATM    3  O   UNL     1     -11.541  10.115  70.964  1.00  0.00    -0.349 OA 
BRANCH   3   4
HETATM    4  C   UNL     1     -12.097  11.276  70.516  1.00  0.00    -0.387 C  
HETATM    5  O   UNL     1     -12.536  12.170  71.220  1.00  0.00    -0.342 OA 
BRANCH   4   6
HETATM    6  C   UNL     1     -11.983  11.316  69.016  1.00  0.00    -0.393 C  
BRANCH   6   7
HETATM    7  C   UNL     1     -10.539  11.610  68.601  1.00  0.00    -0.236 C  
BRANCH   7   8
HETATM    8  C   UNL     1     -10.466  12.344  67.271  1.00  0.00    -0.237 C  
BRANCH   8   9
HETATM    9  C   UNL     1     -11.833  12.670  66.721  1.00  0.00    -0.440 C  
HETATM   10  C   UNL     1     -12.075  13.303  65.562  1.00  0.00    -0.480 C  
BRANCH  10  11
HETATM   11  C   UNL     1     -11.016  13.925  64.711  1.00  0.00    -0.407 C  
BRANCH  11  12
HETATM   12  C   UNL     1     -11.096  15.415  64.582  1.00  0.00    -0.361 C  
HETATM   13  C   UNL     1     -10.622  16.267  65.509  1.00  0.00    -0.369 C  
BRANCH  13  14
HETATM   14  C   UNL     1      -9.926  15.945  66.812  1.00  0.00    -0.255 C  
BRANCH  14  15
HETATM   15  C   UNL     1      -8.481  15.537  66.688  1.00  0.00    -0.314 C  
HETATM   16  C   UNL     1      -7.546  15.634  67.646  1.00  0.00    -0.179 C  
BRANCH  16  17
HETATM   17  C   UNL     1      -7.737  16.333  68.952  1.00  0.00    -0.219 C  
BRANCH  17  18
HETATM   18  C   UNL     1      -6.456  17.028  69.328  1.00  0.00    -0.231 C  
HETATM   19  C   UNL     1      -6.257  18.351  69.243  1.00  0.00    -0.257 C  
BRANCH  19  20
HETATM   20  C   UNL     1      -7.265  19.327  68.736  1.00  0.00    -0.380 C  
BRANCH  20  21
HETATM   21  C   UNL     1      -7.399  19.284  67.244  1.00  0.00    -0.244 C  
HETATM   22  C   UNL     1      -8.442  19.784  66.563  1.00  0.00    -0.380 C  
BRANCH  22  23
HETATM   23  C   UNL     1      -9.653  20.425  67.170  1.00  0.00    -0.587 C  
HETATM   24  C   UNL     1     -10.808  19.447  67.283  1.00  0.00    -0.561 C  
ENDBRANCH  22  23
ENDBRANCH  20  21
ENDBRANCH  19  20
ENDBRANCH  17  18
ENDBRANCH  16  17
ENDBRANCH  14  15
ENDBRANCH  13  14
ENDBRANCH  11  12
ENDBRANCH  10  11
ENDBRANCH   8   9
ENDBRANCH   7   8
ENDBRANCH   6   7
ENDBRANCH   4   6
ENDBRANCH   3   4
ENDBRANCH   2   3
TORSDOF 15
ENDMDL
MODEL      130
REMARK 921   NORMALIZED FREE ENERGY PREDICTED BY IDOCK:   -4.35 KCAL/MOL
REMARK 922        TOTAL FREE ENERGY PREDICTED BY IDOCK:  -10.72 KCAL/MOL
REMARK 923 INTER-LIGAND FREE ENERGY PREDICTED BY IDOCK:   -7.61 KCAL/MOL
REMARK 924 INTRA-LIGAND FREE ENERGY PREDICTED BY IDOCK:   -3.11 KCAL/MOL
REMARK 927      BINDING AFFINITY PREDICTED BY RF-SCORE:    0.00 PKD
ROOT
HETATM    1  C   UNL     1     -10.214  11.456  64.494  1.00  0.00    -0.352 C  
HETATM    2  C   UNL     1     -10.964  12.495  63.680  1.00  0.00    -0.456 C  
ENDROOT
BRANCH   2   3
HETATM    3  O   UNL     1     -11.200  13.622  64.532  1.00  0.00    -0.359 OA 
BRANCH   3   4
HETATM    4  C   UNL     1     -12.302  13.505  65.324  1.00  0.00    -0.467 C  
HETATM    5  O   UNL     1     -13.362  12.997  64.994  1.00  0.00    -0.671 OA 
BRANCH   4   6
HETATM    6  C   UNL     1     -11.962  14.007  66.700  1.00  0.00    -0.473 C  
BRANCH   6   7
HETATM    7  C   UNL     1     -11.885  12.840  67.689  1.00  0.00    -0.396 C  
BRANCH   7   8
HETATM    8  C   UNL     1     -11.456  13.293  69.075  1.00  0.00    -0.350 C  
BRANCH   8   9
HETATM    9  C   UNL     1     -12.308  14.425  69.596  1.00  0.00    -0.300 C  
HETATM   10  C   UNL     1     -11.844  15.597  70.059  1.00  0.00    -0.381 C  
BRANCH  10  11
HETATM   11  C   UNL     1     -10.398  15.899  70.277  1.00  0.00    -0.087 C  
BRANCH  11  12
HETATM   12  C   UNL     1      -9.693  16.517  69.110  1.00  0.00    -0.241 C  
HETATM   13  C   UNL     1      -8.653  15.941  68.480  1.00  0.00    -0.190 C  
BRANCH  13  14
HETATM   14  C   UNL     1      -7.999  14.610  68.773  1.00  0.00    -0.151 C  
BRANCH  14  15
HETATM   15  C   UNL     1      -7.643  13.785  67.563  1.00  0.00    -0.185 C  
HETATM   16  C   UNL     1      -7.908  12.482  67.388  1.00  0.00    -0.175 C  
BRANCH  16  17
HETATM   17  C   UNL     1      -8.449  11.575  68.444  1.00  0.00    -0.159 C  
BRANCH  17  18
HETATM   18  C   UNL     1      -9.211  10.456  67.787  1.00  0.00    -0.148 C  
HETATM   19  C   UNL     1      -9.958   9.557  68.445  1.00  0.00    -0.184 C  
BRANCH  19  20
HETATM   20  C   UNL     1     -10.123   9.518  69.927  1.00  0.00    -0.262 C  
BRANCH  20  21
HETATM   21  C   UNL     1     -11.495   9.943  70.357  1.00  0.00    -0.372 C  
HETATM   22  C   UNL     1     -12.149   9.430  71.411  1.00  0.00    -0.442 C  
BRANCH  22  23
HETATM   23  C   UNL     1     -11.647   8.334  72.300  1.00  0.00    -0.449 C  
HETATM   24  C   UNL     1     -12.198   6.981  71.887  1.00  0.00    -0.362 C  
ENDBRANCH  22  23
ENDBRANCH  20  21
ENDBRANCH  19  20
ENDBRANCH  17  18
ENDBRANCH  16  17
ENDBRANCH  14  15
ENDBRANCH  13  14
ENDBRANCH  11  12
ENDBRANCH  10  11
ENDBRANCH   8   9
ENDBRANCH   7   8
ENDBRANCH   6   7
ENDBRANCH   4   6
ENDBRANCH   3   4
ENDBRANCH   2   3
TORSDOF 15
ENDMDL
MODEL      131
REMARK 921   NORMALIZED FREE ENERGY PREDICTED BY IDOCK:   -4.35 KCAL/MOL
REMARK 922        TOTAL FREE ENERGY PREDICTED BY IDOCK:  -10.72 KCAL/MOL
REMARK 923 INTER-LIGAND FREE ENERGY PREDICTED BY IDOCK:   -9.02 KCAL/MOL
REMARK 924 INTRA-LIGAND FREE ENERGY PREDICTED BY IDOCK:   -1.70 KCAL/MOL
REMARK 927      BINDING AFFINITY PREDICTED BY RF-SCORE:    0.00 PKD
ROOT
HETATM    1  C   UNL     1      -6.543  19.198  66.290  1.00  0.00    -0.223 C  
HETATM    2  C   UNL     1      -7.883  19.710  66.785  1.00  0.00    -0.282 C  
ENDROOT
BRANCH   2   3
HETATM    3  O   UNL     1      -8.882  19.280  65.852  1.00  0.00    -0.440 OA 
BRANCH   3   4
HETATM    4  C   UNL     1     -10.064  18.918  66.424  1.00  0.00    -0.409 C  
HETATM    5  O   UNL     1     -10.910  19.687  66.852  1.00  0.00    -0.483 OA 
BRANCH   4   6
HETATM    6  C   UNL     1     -10.199  17.422  66.346  1.00  0.00    -0.339 C  
BRANCH   6   7
HETATM    7  C   UNL     1     -10.618  16.854  67.705  1.00  0.00    -0.325 C  
BRANCH   7   8
HETATM    8  C   UNL     1     -11.211  15.459  67.582  1.00  0.00    -0.311 C  
BRANCH   8   9
HETATM    9  C   UNL     1     -11.277  14.989  66.149  1.00  0.00    -0.307 C  
HETATM   10  C   UNL     1     -10.718  13.866  65.673  1.00  0.00    -0.292 C  
BRANCH  10  11
HETATM   11  C   UNL     1      -9.805  12.985  66.462  1.00  0.00    -0.263 C  
BRANCH  11  12
HETATM   12  C   UNL     1     -10.035  11.515  66.293  1.00  0.00    -0.252 C  
HETATM   13  C   UNL     1      -9.982  10.633  67.308  1.00  0.00    -0.224 C  
BRANCH  13  14
HETATM   14  C   UNL     1      -9.709  10.902  68.771  1.00  0.00    -0.196 C  
BRANCH  14  15
HETATM   15  C   UNL     1     -10.230   9.858  69.726  1.00  0.00    -0.278 C  
HETATM   16  C   UNL     1     -11.428   9.865  70.329  1.00  0.00    -0.349 C  
BRANCH  16  17
HETATM   17  C   UNL     1     -12.390  11.008  70.294  1.00  0.00    -0.410 C  
BRANCH  17  18
HETATM   18  C   UNL     1     -12.915  11.248  71.684  1.00  0.00    -0.537 C  
HETATM   19  C   UNL     1     -13.341  12.435  72.140  1.00  0.00    -0.508 C  
BRANCH  19  20
HETATM   20  C   UNL     1     -13.332  13.699  71.346  1.00  0.00    -0.321 C  
BRANCH  20  21
HETATM   21  C   UNL     1     -11.979  14.343  71.318  1.00  0.00    -0.359 C  
HETATM   22  C   UNL     1     -11.626  15.393  72.077  1.00  0.00    -0.544 C  
BRANCH  22  23
HETATM   23  C   UNL     1     -12.522  16.117  73.036  1.00  0.00    -0.590 C  
HETATM   24  C   UNL     1     -12.327  15.630  74.460  1.00  0.00    -0.776 C  
ENDBRANCH  22  23
ENDBRANCH  20  21
ENDBRANCH  19  20
ENDBRANCH  17  18
ENDBRANCH  16  17
ENDBRANCH  14  15
ENDBRANCH  13  14
ENDBRANCH  11  12
ENDBRANCH  10  11
ENDBRANCH   8   9
ENDBRANCH   7   8
ENDBRANCH   6   7
ENDBRANCH   4   6
ENDBRANCH   3   4
ENDBRANCH   2   3
TORSDOF 15
ENDMDL
MODEL      132
REMARK 921   NORMALIZED FREE ENERGY PREDICTED BY IDOCK:   -4.35 KCAL/MOL
REMARK 922        TOTAL FREE ENERGY PREDICTED BY IDOCK:  -10.71 KCAL/MOL
REMARK 923 INTER-LIGAND FREE ENERGY PREDICTED BY IDOCK:   -8.16 KCAL/MOL
REMARK 924 INTRA-LIGAND FREE ENERGY PREDICTED BY IDOCK:   -2.55 KCAL/MOL
REMARK 927      BINDING AFFINITY PREDICTED BY RF-SCORE:    0.00 PKD
ROOT
HETATM    1  C   UNL     1      -8.912   7.613  72.685  1.00  0.00    -0.205 C  
HETATM    2  C   UNL     1     -10.164   6.772  72.854  1.00  0.00    -0.201 C  
ENDROOT
BRANCH   2   3
HETATM    3  O   UNL     1     -11.261   7.669  73.061  1.00  0.00    -0.384 OA 
BRANCH   3   4
HETATM    4  C   UNL     1     -12.044   7.861  71.963  1.00  0.00    -0.320 C  
HETATM    5  O   UNL     1     -12.579   6.979  71.310  1.00  0.00    -0.372 OA 
BRANCH   4   6
HETATM    6  C   UNL     1     -12.225   9.339  71.752  1.00  0.00    -0.457 C  
BRANCH   6   7
HETATM    7  C   UNL     1     -11.478   9.792  70.493  1.00  0.00    -0.370 C  
BRANCH   7   8
HETATM    8  C   UNL     1     -12.083  11.051  69.892  1.00  0.00    -0.435 C  
BRANCH   8   9
HETATM    9  C   UNL     1     -12.463  12.062  70.946  1.00  0.00    -0.384 C  
HETATM   10  C   UNL     1     -12.334  13.393  70.828  1.00  0.00    -0.433 C  
BRANCH  10  11
HETATM   11  C   UNL     1     -11.644  14.070  69.689  1.00  0.00    -0.348 C  
BRANCH  11  12
HETATM   12  C   UNL     1     -11.812  15.558  69.636  1.00  0.00    -0.384 C  
HETATM   13  C   UNL     1     -11.209  16.340  68.723  1.00  0.00    -0.343 C  
BRANCH  13  14
HETATM   14  C   UNL     1     -10.288  15.930  67.596  1.00  0.00    -0.281 C  
BRANCH  14  15
HETATM   15  C   UNL     1     -10.409  16.746  66.334  1.00  0.00    -0.309 C  
HETATM   16  C   UNL     1     -10.737  16.280  65.119  1.00  0.00    -0.350 C  
BRANCH  16  17
HETATM   17  C   UNL     1     -10.866  14.834  64.770  1.00  0.00    -0.395 C  
BRANCH  17  18
HETATM   18  C   UNL     1     -12.318  14.443  64.828  1.00  0.00    -0.427 C  
HETATM   19  C   UNL     1     -12.817  13.490  65.629  1.00  0.00    -0.380 C  
BRANCH  19  20
HETATM   20  C   UNL     1     -12.001  12.658  66.562  1.00  0.00    -0.401 C  
BRANCH  20  21
HETATM   21  C   UNL     1     -11.026  11.781  65.837  1.00  0.00    -0.354 C  
HETATM   22  C   UNL     1      -9.832  11.412  66.327  1.00  0.00    -0.250 C  
BRANCH  22  23
HETATM   23  C   UNL     1      -9.260  11.839  67.644  1.00  0.00    -0.180 C  
HETATM   24  C   UNL     1      -8.448  13.115  67.515  1.00  0.00    -0.198 C  
ENDBRANCH  22  23
ENDBRANCH  20  21
ENDBRANCH  19  20
ENDBRANCH  17  18
ENDBRANCH  16  17
ENDBRANCH  14  15
ENDBRANCH  13  14
ENDBRANCH  11  12
ENDBRANCH  10  11
ENDBRANCH   8   9
ENDBRANCH   7   8
ENDBRANCH   6   7
ENDBRANCH   4   6
ENDBRANCH   3   4
ENDBRANCH   2   3
TORSDOF 15
ENDMDL
MODEL      133
REMARK 921   NORMALIZED FREE ENERGY PREDICTED BY IDOCK:   -4.35 KCAL/MOL
REMARK 922        TOTAL FREE ENERGY PREDICTED BY IDOCK:  -10.71 KCAL/MOL
REMARK 923 INTER-LIGAND FREE ENERGY PREDICTED BY IDOCK:   -8.68 KCAL/MOL
REMARK 924 INTRA-LIGAND FREE ENERGY PREDICTED BY IDOCK:   -2.04 KCAL/MOL
REMARK 927      BINDING AFFINITY PREDICTED BY RF-SCORE:    0.00 PKD
ROOT
HETATM    1  C   UNL     1     -10.412  19.581  67.074  1.00  0.00    -0.587 C  
HETATM    2  C   UNL     1     -10.263  18.125  66.670  1.00  0.00    -0.381 C  
ENDROOT
BRANCH   2   3
HETATM    3  O   UNL     1     -10.893  17.330  67.683  1.00  0.00    -0.335 OA 
BRANCH   3   4
HETATM    4  C   UNL     1     -10.434  16.050  67.755  1.00  0.00    -0.298 C  
HETATM    5  O   UNL     1      -9.336  15.667  67.383  1.00  0.00    -0.207 OA 
BRANCH   4   6
HETATM    6  C   UNL     1     -11.460  15.209  68.464  1.00  0.00    -0.335 C  
BRANCH   6   7
HETATM    7  C   UNL     1     -11.836  13.995  67.608  1.00  0.00    -0.430 C  
BRANCH   7   8
HETATM    8  C   UNL     1     -11.796  14.311  66.121  1.00  0.00    -0.413 C  
BRANCH   8   9
HETATM    9  C   UNL     1     -12.726  13.430  65.324  1.00  0.00    -0.481 C  
HETATM   10  C   UNL     1     -12.353  12.594  64.342  1.00  0.00    -0.523 C  
BRANCH  10  11
HETATM   11  C   UNL     1     -10.971  12.526  63.779  1.00  0.00    -0.496 C  
BRANCH  11  12
HETATM   12  C   UNL     1     -10.387  11.150  63.687  1.00  0.00    -0.449 C  
HETATM   13  C   UNL     1      -9.806  10.520  64.725  1.00  0.00    -0.387 C  
BRANCH  13  14
HETATM   14  C   UNL     1      -9.628  11.014  66.143  1.00  0.00    -0.240 C  
BRANCH  14  15
HETATM   15  C   UNL     1     -10.754  10.679  67.088  1.00  0.00    -0.327 C  
HETATM   16  C   UNL     1     -10.780   9.653  67.954  1.00  0.00    -0.302 C  
BRANCH  16  17
HETATM   17  C   UNL     1      -9.766   8.558  68.005  1.00  0.00    -0.180 C  
BRANCH  17  18
HETATM   18  C   UNL     1     -10.287   7.372  67.239  1.00  0.00    -0.356 C  
HETATM   19  C   UNL     1     -11.000   6.372  67.778  1.00  0.00    -0.425 C  
BRANCH  19  20
HETATM   20  C   UNL     1     -11.360   6.274  69.223  1.00  0.00    -0.411 C  
BRANCH  20  21
HETATM   21  C   UNL     1     -10.219   5.780  70.061  1.00  0.00    -0.304 C  
HETATM   22  C   UNL     1      -9.882   6.291  71.255  1.00  0.00    -0.197 C  
BRANCH  22  23
HETATM   23  C   UNL     1     -10.549   7.452  71.927  1.00  0.00    -0.233 C  
HETATM   24  C   UNL     1      -9.719   8.718  71.817  1.00  0.00    -0.380 C  
ENDBRANCH  22  23
ENDBRANCH  20  21
ENDBRANCH  19  20
ENDBRANCH  17  18
ENDBRANCH  16  17
ENDBRANCH  14  15
ENDBRANCH  13  14
ENDBRANCH  11  12
ENDBRANCH  10  11
ENDBRANCH   8   9
ENDBRANCH   7   8
ENDBRANCH   6   7
ENDBRANCH   4   6
ENDBRANCH   3   4
ENDBRANCH   2   3
TORSDOF 15
ENDMDL
MODEL      134
REMARK 921   NORMALIZED FREE ENERGY PREDICTED BY IDOCK:   -4.34 KCAL/MOL
REMARK 922        TOTAL FREE ENERGY PREDICTED BY IDOCK:  -10.71 KCAL/MOL
REMARK 923 INTER-LIGAND FREE ENERGY PREDICTED BY IDOCK:   -7.95 KCAL/MOL
REMARK 924 INTRA-LIGAND FREE ENERGY PREDICTED BY IDOCK:   -2.76 KCAL/MOL
REMARK 927      BINDING AFFINITY PREDICTED BY RF-SCORE:    0.00 PKD
ROOT
HETATM    1  C   UNL     1      -9.393   9.120  65.947  1.00  0.00    -0.306 C  
HETATM    2  C   UNL     1      -9.279  10.210  64.896  1.00  0.00    -0.232 C  
ENDROOT
BRANCH   2   3
HETATM    3  O   UNL     1     -10.605  10.529  64.460  1.00  0.00    -0.246 OA 
BRANCH   3   4
HETATM    4  C   UNL     1     -10.675  11.595  63.614  1.00  0.00    -0.435 C  
HETATM    5  O   UNL     1      -9.762  12.010  62.918  1.00  0.00    -0.334 OA 
BRANCH   4   6
HETATM    6  C   UNL     1     -12.089  12.108  63.602  1.00  0.00    -0.648 C  
BRANCH   6   7
HETATM    7  C   UNL     1     -12.108  13.620  63.852  1.00  0.00    -0.462 C  
BRANCH   7   8
HETATM    8  C   UNL     1     -12.604  13.961  65.248  1.00  0.00    -0.508 C  
BRANCH   8   9
HETATM    9  C   UNL     1     -11.503  14.494  66.132  1.00  0.00    -0.357 C  
HETATM   10  C   UNL     1     -11.190  14.027  67.351  1.00  0.00    -0.328 C  
BRANCH  10  11
HETATM   11  C   UNL     1     -11.992  13.004  68.087  1.00  0.00    -0.322 C  
BRANCH  11  12
HETATM   12  C   UNL     1     -11.468  11.603  68.004  1.00  0.00    -0.385 C  
HETATM   13  C   UNL     1     -11.693  10.670  68.947  1.00  0.00    -0.282 C  
BRANCH  13  14
HETATM   14  C   UNL     1     -12.489  10.800  70.227  1.00  0.00    -0.395 C  
BRANCH  14  15
HETATM   15  C   UNL     1     -11.836  10.218  71.454  1.00  0.00    -0.371 C  
HETATM   16  C   UNL     1     -11.881   8.933  71.839  1.00  0.00    -0.440 C  
BRANCH  16  17
HETATM   17  C   UNL     1     -12.740   7.886  71.209  1.00  0.00    -0.251 C  
BRANCH  17  18
HETATM   18  C   UNL     1     -12.019   6.566  71.258  1.00  0.00    -0.364 C  
HETATM   19  C   UNL     1     -11.051   6.196  70.407  1.00  0.00    -0.420 C  
BRANCH  19  20
HETATM   20  C   UNL     1     -10.564   7.029  69.268  1.00  0.00    -0.240 C  
BRANCH  20  21
HETATM   21  C   UNL     1      -9.074   6.967  69.115  1.00  0.00    -0.136 C  
HETATM   22  C   UNL     1      -8.237   7.952  69.475  1.00  0.00    -0.130 C  
BRANCH  22  23
HETATM   23  C   UNL     1      -8.641   9.278  70.044  1.00  0.00    -0.193 C  
HETATM   24  C   UNL     1      -7.805  10.411  69.477  1.00  0.00    -0.161 C  
ENDBRANCH  22  23
ENDBRANCH  20  21
ENDBRANCH  19  20
ENDBRANCH  17  18
ENDBRANCH  16  17
ENDBRANCH  14  15
ENDBRANCH  13  14
ENDBRANCH  11  12
ENDBRANCH  10  11
ENDBRANCH   8   9
ENDBRANCH   7   8
ENDBRANCH   6   7
ENDBRANCH   4   6
ENDBRANCH   3   4
ENDBRANCH   2   3
TORSDOF 15
ENDMDL
MODEL      135
REMARK 921   NORMALIZED FREE ENERGY PREDICTED BY IDOCK:   -4.34 KCAL/MOL
REMARK 922        TOTAL FREE ENERGY PREDICTED BY IDOCK:  -10.70 KCAL/MOL
REMARK 923 INTER-LIGAND FREE ENERGY PREDICTED BY IDOCK:   -8.27 KCAL/MOL
REMARK 924 INTRA-LIGAND FREE ENERGY PREDICTED BY IDOCK:   -2.42 KCAL/MOL
REMARK 927      BINDING AFFINITY PREDICTED BY RF-SCORE:    0.00 PKD
ROOT
HETATM    1  C   UNL     1      -8.796   8.028  73.485  1.00  0.00    -0.333 C  
HETATM    2  C   UNL     1     -10.127   7.299  73.461  1.00  0.00    -0.340 C  
ENDROOT
BRANCH   2   3
HETATM    3  O   UNL     1     -10.482   7.092  72.089  1.00  0.00    -0.202 OA 
BRANCH   3   4
HETATM    4  C   UNL     1     -11.730   6.578  71.905  1.00  0.00    -0.324 C  
HETATM    5  O   UNL     1     -12.151   5.544  72.398  1.00  0.00    -0.146 OA 
BRANCH   4   6
HETATM    6  C   UNL     1     -12.534   7.547  71.082  1.00  0.00    -0.306 C  
BRANCH   6   7
HETATM    7  C   UNL     1     -13.790   7.978  71.845  1.00  0.00    -0.418 C  
BRANCH   7   8
HETATM    8  C   UNL     1     -13.724   9.434  72.278  1.00  0.00    -0.495 C  
BRANCH   8   9
HETATM    9  C   UNL     1     -12.766  10.239  71.434  1.00  0.00    -0.547 C  
HETATM   10  C   UNL     1     -12.716  11.580  71.380  1.00  0.00    -0.469 C  
BRANCH  10  11
HETATM   11  C   UNL     1     -13.712  12.482  72.032  1.00  0.00    -0.251 C  
BRANCH  11  12
HETATM   12  C   UNL     1     -13.129  13.643  72.776  1.00  0.00    -0.371 C  
HETATM   13  C   UNL     1     -12.842  14.825  72.201  1.00  0.00    -0.407 C  
BRANCH  13  14
HETATM   14  C   UNL     1     -13.041  15.241  70.761  1.00  0.00    -0.468 C  
BRANCH  14  15
HETATM   15  C   UNL     1     -11.778  15.550  69.999  1.00  0.00    -0.363 C  
HETATM   16  C   UNL     1     -11.352  14.927  68.889  1.00  0.00    -0.301 C  
BRANCH  16  17
HETATM   17  C   UNL     1     -11.972  13.696  68.314  1.00  0.00    -0.385 C  
BRANCH  17  18
HETATM   18  C   UNL     1     -12.093  13.858  66.822  1.00  0.00    -0.476 C  
HETATM   19  C   UNL     1     -11.221  13.365  65.931  1.00  0.00    -0.314 C  
BRANCH  19  20
HETATM   20  C   UNL     1      -9.987  12.606  66.288  1.00  0.00    -0.266 C  
BRANCH  20  21
HETATM   21  C   UNL     1     -10.099  11.149  65.953  1.00  0.00    -0.296 C  
HETATM   22  C   UNL     1     -10.483  10.201  66.822  1.00  0.00    -0.270 C  
BRANCH  22  23
HETATM   23  C   UNL     1     -10.821  10.426  68.265  1.00  0.00    -0.299 C  
HETATM   24  C   UNL     1      -9.588  10.349  69.147  1.00  0.00    -0.226 C  
ENDBRANCH  22  23
ENDBRANCH  20  21
ENDBRANCH  19  20
ENDBRANCH  17  18
ENDBRANCH  16  17
ENDBRANCH  14  15
ENDBRANCH  13  14
ENDBRANCH  11  12
ENDBRANCH  10  11
ENDBRANCH   8   9
ENDBRANCH   7   8
ENDBRANCH   6   7
ENDBRANCH   4   6
ENDBRANCH   3   4
ENDBRANCH   2   3
TORSDOF 15
ENDMDL
MODEL      136
REMARK 921   NORMALIZED FREE ENERGY PREDICTED BY IDOCK:   -4.34 KCAL/MOL
REMARK 922        TOTAL FREE ENERGY PREDICTED BY IDOCK:  -10.69 KCAL/MOL
REMARK 923 INTER-LIGAND FREE ENERGY PREDICTED BY IDOCK:   -7.99 KCAL/MOL
REMARK 924 INTRA-LIGAND FREE ENERGY PREDICTED BY IDOCK:   -2.70 KCAL/MOL
REMARK 927      BINDING AFFINITY PREDICTED BY RF-SCORE:    0.00 PKD
ROOT
HETATM    1  C   UNL     1     -12.887   9.502  71.424  1.00  0.00    -0.443 C  
HETATM    2  C   UNL     1     -12.292   8.382  72.258  1.00  0.00    -0.376 C  
ENDROOT
BRANCH   2   3
HETATM    3  O   UNL     1     -12.420   7.170  71.506  1.00  0.00    -0.342 OA 
BRANCH   3   4
HETATM    4  C   UNL     1     -11.518   6.205  71.841  1.00  0.00    -0.300 C  
HETATM    5  O   UNL     1     -11.470   5.621  72.912  1.00  0.00    -0.291 OA 
BRANCH   4   6
HETATM    6  C   UNL     1     -10.663   5.906  70.641  1.00  0.00    -0.353 C  
BRANCH   6   7
HETATM    7  C   UNL     1     -11.326   6.444  69.369  1.00  0.00    -0.443 C  
BRANCH   7   8
HETATM    8  C   UNL     1     -10.480   7.511  68.692  1.00  0.00    -0.207 C  
BRANCH   8   9
HETATM    9  C   UNL     1      -9.611   8.260  69.673  1.00  0.00    -0.167 C  
HETATM   10  C   UNL     1      -9.568   9.595  69.811  1.00  0.00    -0.242 C  
BRANCH  10  11
HETATM   11  C   UNL     1     -10.260  10.554  68.900  1.00  0.00    -0.223 C  
BRANCH  11  12
HETATM   12  C   UNL     1      -9.355  11.398  68.057  1.00  0.00    -0.171 C  
HETATM   13  C   UNL     1      -9.320  11.336  66.713  1.00  0.00    -0.191 C  
BRANCH  13  14
HETATM   14  C   UNL     1     -10.144  10.464  65.792  1.00  0.00    -0.329 C  
BRANCH  14  15
HETATM   15  C   UNL     1      -9.967  10.734  64.320  1.00  0.00    -0.403 C  
HETATM   16  C   UNL     1     -10.801  11.439  63.540  1.00  0.00    -0.430 C  
BRANCH  16  17
HETATM   17  C   UNL     1     -12.146  11.932  63.961  1.00  0.00    -0.444 C  
BRANCH  17  18
HETATM   18  C   UNL     1     -12.255  13.398  63.637  1.00  0.00    -0.480 C  
HETATM   19  C   UNL     1     -11.805  14.385  64.425  1.00  0.00    -0.433 C  
BRANCH  19  20
HETATM   20  C   UNL     1     -11.153  14.177  65.751  1.00  0.00    -0.309 C  
BRANCH  20  21
HETATM   21  C   UNL     1     -12.141  13.824  66.822  1.00  0.00    -0.460 C  
HETATM   22  C   UNL     1     -11.952  14.056  68.131  1.00  0.00    -0.382 C  
BRANCH  22  23
HETATM   23  C   UNL     1     -10.724  14.658  68.742  1.00  0.00    -0.252 C  
HETATM   24  C   UNL     1     -11.043  15.395  70.030  1.00  0.00    -0.317 C  
ENDBRANCH  22  23
ENDBRANCH  20  21
ENDBRANCH  19  20
ENDBRANCH  17  18
ENDBRANCH  16  17
ENDBRANCH  14  15
ENDBRANCH  13  14
ENDBRANCH  11  12
ENDBRANCH  10  11
ENDBRANCH   8   9
ENDBRANCH   7   8
ENDBRANCH   6   7
ENDBRANCH   4   6
ENDBRANCH   3   4
ENDBRANCH   2   3
TORSDOF 15
ENDMDL
MODEL      137
REMARK 921   NORMALIZED FREE ENERGY PREDICTED BY IDOCK:   -4.33 KCAL/MOL
REMARK 922        TOTAL FREE ENERGY PREDICTED BY IDOCK:  -10.69 KCAL/MOL
REMARK 923 INTER-LIGAND FREE ENERGY PREDICTED BY IDOCK:   -7.96 KCAL/MOL
REMARK 924 INTRA-LIGAND FREE ENERGY PREDICTED BY IDOCK:   -2.73 KCAL/MOL
REMARK 927      BINDING AFFINITY PREDICTED BY RF-SCORE:    0.00 PKD
ROOT
HETATM    1  C   UNL     1      -8.616  19.362  66.657  1.00  0.00    -0.352 C  
HETATM    2  C   UNL     1      -9.634  18.238  66.733  1.00  0.00    -0.299 C  
ENDROOT
BRANCH   2   3
HETATM    3  O   UNL     1     -10.348  18.219  65.492  1.00  0.00    -0.575 OA 
BRANCH   3   4
HETATM    4  C   UNL     1     -10.834  16.994  65.144  1.00  0.00    -0.049 C  
HETATM    5  O   UNL     1     -11.383  16.722  64.089  1.00  0.00    -1.194 OA 
BRANCH   4   6
HETATM    6  C   UNL     1     -10.487  16.013  66.230  1.00  0.00    -0.326 C  
BRANCH   6   7
HETATM    7  C   UNL     1     -11.110  14.646  65.930  1.00  0.00    -0.338 C  
BRANCH   7   8
HETATM    8  C   UNL     1     -10.107  13.686  65.310  1.00  0.00    -0.297 C  
BRANCH   8   9
HETATM    9  C   UNL     1     -10.681  12.942  64.129  1.00  0.00    -0.443 C  
HETATM   10  C   UNL     1     -10.876  11.615  64.066  1.00  0.00    -0.455 C  
BRANCH  10  11
HETATM   11  C   UNL     1     -10.404  10.649  65.103  1.00  0.00    -0.331 C  
BRANCH  11  12
HETATM   12  C   UNL     1      -9.306   9.731  64.664  1.00  0.00    -0.318 C  
HETATM   13  C   UNL     1      -8.809   8.746  65.436  1.00  0.00    -0.221 C  
BRANCH  13  14
HETATM   14  C   UNL     1      -9.225   8.349  66.834  1.00  0.00    -0.196 C  
BRANCH  14  15
HETATM   15  C   UNL     1     -10.368   7.369  66.913  1.00  0.00    -0.367 C  
HETATM   16  C   UNL     1     -10.822   6.771  68.025  1.00  0.00    -0.306 C  
BRANCH  16  17
HETATM   17  C   UNL     1     -10.154   6.838  69.360  1.00  0.00    -0.183 C  
BRANCH  17  18
HETATM   18  C   UNL     1     -11.142   7.341  70.378  1.00  0.00    -0.291 C  
HETATM   19  C   UNL     1     -11.175   8.597  70.848  1.00  0.00    -0.311 C  
BRANCH  19  20
HETATM   20  C   UNL     1     -10.222   9.674  70.451  1.00  0.00    -0.348 C  
BRANCH  20  21
HETATM   21  C   UNL     1     -10.758  10.527  69.341  1.00  0.00    -0.277 C  
HETATM   22  C   UNL     1     -10.003  11.320  68.565  1.00  0.00    -0.206 C  
BRANCH  22  23
HETATM   23  C   UNL     1      -8.523  11.517  68.696  1.00  0.00    -0.115 C  
HETATM   24  C   UNL     1      -7.896  11.952  67.384  1.00  0.00    -0.158 C  
ENDBRANCH  22  23
ENDBRANCH  20  21
ENDBRANCH  19  20
ENDBRANCH  17  18
ENDBRANCH  16  17
ENDBRANCH  14  15
ENDBRANCH  13  14
ENDBRANCH  11  12
ENDBRANCH  10  11
ENDBRANCH   8   9
ENDBRANCH   7   8
ENDBRANCH   6   7
ENDBRANCH   4   6
ENDBRANCH   3   4
ENDBRANCH   2   3
TORSDOF 15
ENDMDL
MODEL      138
REMARK 921   NORMALIZED FREE ENERGY PREDICTED BY IDOCK:   -4.32 KCAL/MOL
REMARK 922        TOTAL FREE ENERGY PREDICTED BY IDOCK:  -10.66 KCAL/MOL
REMARK 923 INTER-LIGAND FREE ENERGY PREDICTED BY IDOCK:   -8.38 KCAL/MOL
REMARK 924 INTRA-LIGAND FREE ENERGY PREDICTED BY IDOCK:   -2.28 KCAL/MOL
REMARK 927      BINDING AFFINITY PREDICTED BY RF-SCORE:    0.00 PKD
ROOT
HETATM    1  C   UNL     1     -13.182  10.829  71.765  1.00  0.00    -0.523 C  
HETATM    2  C   UNL     1     -12.076  10.484  70.785  1.00  0.00    -0.370 C  
ENDROOT
BRANCH   2   3
HETATM    3  O   UNL     1     -11.757   9.099  70.964  1.00  0.00    -0.278 OA 
BRANCH   3   4
HETATM    4  C   UNL     1     -10.539   8.874  71.531  1.00  0.00    -0.329 C  
HETATM    5  O   UNL     1     -10.349   8.425  72.650  1.00  0.00    -0.310 OA 
BRANCH   4   6
HETATM    6  C   UNL     1      -9.471   9.168  70.513  1.00  0.00    -0.291 C  
BRANCH   6   7
HETATM    7  C   UNL     1      -9.429   8.065  69.452  1.00  0.00    -0.159 C  
BRANCH   7   8
HETATM    8  C   UNL     1      -9.214   8.625  68.055  1.00  0.00    -0.147 C  
BRANCH   8   9
HETATM    9  C   UNL     1      -9.637  10.069  67.946  1.00  0.00    -0.163 C  
HETATM   10  C   UNL     1     -10.112  10.659  66.837  1.00  0.00    -0.260 C  
BRANCH  10  11
HETATM   11  C   UNL     1     -10.145  10.010  65.492  1.00  0.00    -0.325 C  
BRANCH  11  12
HETATM   12  C   UNL     1      -9.743  10.891  64.349  1.00  0.00    -0.342 C  
HETATM   13  C   UNL     1     -10.541  11.839  63.827  1.00  0.00    -0.470 C  
BRANCH  13  14
HETATM   14  C   UNL     1     -11.940  12.227  64.250  1.00  0.00    -0.489 C  
BRANCH  14  15
HETATM   15  C   UNL     1     -12.181  13.707  64.402  1.00  0.00    -0.436 C  
HETATM   16  C   UNL     1     -11.708  14.488  65.386  1.00  0.00    -0.354 C  
BRANCH  16  17
HETATM   17  C   UNL     1     -11.004  13.988  66.605  1.00  0.00    -0.300 C  
BRANCH  17  18
HETATM   18  C   UNL     1     -12.028  13.555  67.620  1.00  0.00    -0.373 C  
HETATM   19  C   UNL     1     -11.963  13.834  68.930  1.00  0.00    -0.394 C  
BRANCH  19  20
HETATM   20  C   UNL     1     -10.853  14.591  69.579  1.00  0.00    -0.209 C  
BRANCH  20  21
HETATM   21  C   UNL     1     -11.318  15.890  70.165  1.00  0.00    -0.369 C  
HETATM   22  C   UNL     1     -11.761  16.035  71.424  1.00  0.00    -0.536 C  
BRANCH  22  23
HETATM   23  C   UNL     1     -11.905  14.935  72.431  1.00  0.00    -0.359 C  
HETATM   24  C   UNL     1     -13.360  14.560  72.648  1.00  0.00    -0.588 C  
ENDBRANCH  22  23
ENDBRANCH  20  21
ENDBRANCH  19  20
ENDBRANCH  17  18
ENDBRANCH  16  17
ENDBRANCH  14  15
ENDBRANCH  13  14
ENDBRANCH  11  12
ENDBRANCH  10  11
ENDBRANCH   8   9
ENDBRANCH   7   8
ENDBRANCH   6   7
ENDBRANCH   4   6
ENDBRANCH   3   4
ENDBRANCH   2   3
TORSDOF 15
ENDMDL
MODEL      139
REMARK 921   NORMALIZED FREE ENERGY PREDICTED BY IDOCK:   -4.32 KCAL/MOL
REMARK 922        TOTAL FREE ENERGY PREDICTED BY IDOCK:  -10.65 KCAL/MOL
REMARK 923 INTER-LIGAND FREE ENERGY PREDICTED BY IDOCK:   -7.85 KCAL/MOL
REMARK 924 INTRA-LIGAND FREE ENERGY PREDICTED BY IDOCK:   -2.81 KCAL/MOL
REMARK 927      BINDING AFFINITY PREDICTED BY RF-SCORE:    0.00 PKD
ROOT
HETATM    1  C   UNL     1     -10.740   6.025  67.026  1.00  0.00    -0.412 C  
HETATM    2  C   UNL     1     -11.155   6.427  68.430  1.00  0.00    -0.285 C  
ENDROOT
BRANCH   2   3
HETATM    3  O   UNL     1     -10.387   5.640  69.349  1.00  0.00    -0.221 OA 
BRANCH   3   4
HETATM    4  C   UNL     1     -10.839   5.679  70.633  1.00  0.00    -0.234 C  
HETATM    5  O   UNL     1     -10.402   5.016  71.560  1.00  0.00    -0.204 OA 
BRANCH   4   6
HETATM    6  C   UNL     1     -11.892   6.748  70.741  1.00  0.00    -0.446 C  
BRANCH   6   7
HETATM    7  C   UNL     1     -11.766   7.485  72.078  1.00  0.00    -0.333 C  
BRANCH   7   8
HETATM    8  C   UNL     1     -10.797   8.654  71.996  1.00  0.00    -0.430 C  
BRANCH   8   9
HETATM    9  C   UNL     1      -9.427   8.298  72.519  1.00  0.00    -0.356 C  
HETATM   10  C   UNL     1      -8.304   8.249  71.785  1.00  0.00    -0.193 C  
BRANCH  10  11
HETATM   11  C   UNL     1      -8.268   8.385  70.298  1.00  0.00    -0.121 C  
BRANCH  11  12
HETATM   12  C   UNL     1      -7.993   9.767  69.791  1.00  0.00    -0.169 C  
HETATM   13  C   UNL     1      -8.871  10.477  69.058  1.00  0.00    -0.174 C  
BRANCH  13  14
HETATM   14  C   UNL     1     -10.260  10.079  68.612  1.00  0.00    -0.198 C  
BRANCH  14  15
HETATM   15  C   UNL     1     -11.365  11.013  69.036  1.00  0.00    -0.345 C  
HETATM   16  C   UNL     1     -11.823  12.064  68.339  1.00  0.00    -0.360 C  
BRANCH  16  17
HETATM   17  C   UNL     1     -11.193  12.599  67.095  1.00  0.00    -0.348 C  
BRANCH  17  18
HETATM   18  C   UNL     1     -12.132  13.586  66.455  1.00  0.00    -0.467 C  
HETATM   19  C   UNL     1     -12.648  13.455  65.224  1.00  0.00    -0.518 C  
BRANCH  19  20
HETATM   20  C   UNL     1     -12.347  12.325  64.297  1.00  0.00    -0.519 C  
BRANCH  20  21
HETATM   21  C   UNL     1     -11.084  12.546  63.521  1.00  0.00    -0.497 C  
HETATM   22  C   UNL     1     -10.011  11.741  63.579  1.00  0.00    -0.430 C  
BRANCH  22  23
HETATM   23  C   UNL     1      -9.877  10.526  64.445  1.00  0.00    -0.405 C  
HETATM   24  C   UNL     1      -8.615  10.573  65.286  1.00  0.00    -0.185 C  
ENDBRANCH  22  23
ENDBRANCH  20  21
ENDBRANCH  19  20
ENDBRANCH  17  18
ENDBRANCH  16  17
ENDBRANCH  14  15
ENDBRANCH  13  14
ENDBRANCH  11  12
ENDBRANCH  10  11
ENDBRANCH   8   9
ENDBRANCH   7   8
ENDBRANCH   6   7
ENDBRANCH   4   6
ENDBRANCH   3   4
ENDBRANCH   2   3
TORSDOF 15
ENDMDL
MODEL      140
REMARK 921   NORMALIZED FREE ENERGY PREDICTED BY IDOCK:   -4.32 KCAL/MOL
REMARK 922        TOTAL FREE ENERGY PREDICTED BY IDOCK:  -10.65 KCAL/MOL
REMARK 923 INTER-LIGAND FREE ENERGY PREDICTED BY IDOCK:   -8.09 KCAL/MOL
REMARK 924 INTRA-LIGAND FREE ENERGY PREDICTED BY IDOCK:   -2.56 KCAL/MOL
REMARK 927      BINDING AFFINITY PREDICTED BY RF-SCORE:    0.00 PKD
ROOT
HETATM    1  C   UNL     1     -11.978  12.944  63.678  1.00  0.00    -0.613 C  
HETATM    2  C   UNL     1     -10.626  12.300  63.923  1.00  0.00    -0.427 C  
ENDROOT
BRANCH   2   3
HETATM    3  O   UNL     1     -10.859  10.942  64.314  1.00  0.00    -0.309 OA 
BRANCH   3   4
HETATM    4  C   UNL     1      -9.730  10.249  64.634  1.00  0.00    -0.333 C  
HETATM    5  O   UNL     1      -8.997   9.683  63.839  1.00  0.00    -0.227 OA 
BRANCH   4   6
HETATM    6  C   UNL     1      -9.481  10.388  66.110  1.00  0.00    -0.227 C  
BRANCH   6   7
HETATM    7  C   UNL     1     -10.569   9.658  66.904  1.00  0.00    -0.241 C  
BRANCH   7   8
HETATM    8  C   UNL     1     -11.138  10.521  68.020  1.00  0.00    -0.361 C  
BRANCH   8   9
HETATM    9  C   UNL     1     -10.529  10.195  69.362  1.00  0.00    -0.254 C  
HETATM   10  C   UNL     1     -11.218   9.940  70.486  1.00  0.00    -0.399 C  
BRANCH  10  11
HETATM   11  C   UNL     1     -12.698  10.098  70.616  1.00  0.00    -0.334 C  
BRANCH  11  12
HETATM   12  C   UNL     1     -13.150  10.937  71.771  1.00  0.00    -0.564 C  
HETATM   13  C   UNL     1     -12.997  12.273  71.823  1.00  0.00    -0.431 C  
BRANCH  13  14
HETATM   14  C   UNL     1     -12.383  13.188  70.788  1.00  0.00    -0.404 C  
BRANCH  14  15
HETATM   15  C   UNL     1     -12.901  14.604  70.792  1.00  0.00    -0.418 C  
HETATM   16  C   UNL     1     -12.276  15.676  70.283  1.00  0.00    -0.416 C  
BRANCH  16  17
HETATM   17  C   UNL     1     -10.870  15.681  69.778  1.00  0.00    -0.310 C  
BRANCH  17  18
HETATM   18  C   UNL     1     -10.504  17.079  69.358  1.00  0.00    -0.250 C  
HETATM   19  C   UNL     1     -10.419  17.491  68.084  1.00  0.00    -0.386 C  
BRANCH  19  20
HETATM   20  C   UNL     1     -10.649  16.618  66.896  1.00  0.00    -0.229 C  
BRANCH  20  21
HETATM   21  C   UNL     1      -9.366  16.179  66.257  1.00  0.00    -0.351 C  
HETATM   22  C   UNL     1      -8.858  14.940  66.355  1.00  0.00    -0.196 C  
BRANCH  22  23
HETATM   23  C   UNL     1      -9.454  13.812  67.141  1.00  0.00    -0.244 C  
HETATM   24  C   UNL     1      -8.542  13.375  68.273  1.00  0.00    -0.169 C  
ENDBRANCH  22  23
ENDBRANCH  20  21
ENDBRANCH  19  20
ENDBRANCH  17  18
ENDBRANCH  16  17
ENDBRANCH  14  15
ENDBRANCH  13  14
ENDBRANCH  11  12
ENDBRANCH  10  11
ENDBRANCH   8   9
ENDBRANCH   7   8
ENDBRANCH   6   7
ENDBRANCH   4   6
ENDBRANCH   3   4
ENDBRANCH   2   3
TORSDOF 15
ENDMDL
MODEL      141
REMARK 921   NORMALIZED FREE ENERGY PREDICTED BY IDOCK:   -4.31 KCAL/MOL
REMARK 922        TOTAL FREE ENERGY PREDICTED BY IDOCK:  -10.63 KCAL/MOL
REMARK 923 INTER-LIGAND FREE ENERGY PREDICTED BY IDOCK:   -8.05 KCAL/MOL
REMARK 924 INTRA-LIGAND FREE ENERGY PREDICTED BY IDOCK:   -2.58 KCAL/MOL
REMARK 927      BINDING AFFINITY PREDICTED BY RF-SCORE:    0.00 PKD
ROOT
HETATM    1  C   UNL     1     -10.344  17.699  66.744  1.00  0.00    -0.331 C  
HETATM    2  C   UNL     1      -9.715  16.689  65.802  1.00  0.00    -0.160 C  
ENDROOT
BRANCH   2   3
HETATM    3  O   UNL     1     -10.611  15.575  65.704  1.00  0.00    -0.327 OA 
BRANCH   3   4
HETATM    4  C   UNL     1     -11.322  15.530  64.542  1.00  0.00    -0.314 C  
HETATM    5  O   UNL     1     -11.588  16.488  63.835  1.00  0.00    -1.175 OA 
BRANCH   4   6
HETATM    6  C   UNL     1     -11.632  14.093  64.223  1.00  0.00    -0.327 C  
BRANCH   6   7
HETATM    7  C   UNL     1     -10.704  13.161  65.009  1.00  0.00    -0.338 C  
BRANCH   7   8
HETATM    8  C   UNL     1     -11.480  12.205  65.902  1.00  0.00    -0.418 C  
BRANCH   8   9
HETATM    9  C   UNL     1     -11.871  12.838  67.215  1.00  0.00    -0.414 C  
HETATM   10  C   UNL     1     -11.192  12.723  68.367  1.00  0.00    -0.313 C  
BRANCH  10  11
HETATM   11  C   UNL     1     -10.022  11.815  68.562  1.00  0.00    -0.203 C  
BRANCH  11  12
HETATM   12  C   UNL     1      -8.716  12.338  68.047  1.00  0.00    -0.181 C  
HETATM   13  C   UNL     1      -7.760  11.554  67.517  1.00  0.00    -0.132 C  
BRANCH  13  14
HETATM   14  C   UNL     1      -7.779  10.055  67.316  1.00  0.00    -0.095 C  
BRANCH  14  15
HETATM   15  C   UNL     1      -8.385   9.587  66.018  1.00  0.00    -0.123 C  
HETATM   16  C   UNL     1      -9.609   9.059  65.862  1.00  0.00    -0.317 C  
BRANCH  16  17
HETATM   17  C   UNL     1     -10.520   8.679  66.982  1.00  0.00    -0.354 C  
BRANCH  17  18
HETATM   18  C   UNL     1     -10.807   7.204  66.903  1.00  0.00    -0.307 C  
HETATM   19  C   UNL     1     -10.841   6.378  67.959  1.00  0.00    -0.396 C  
BRANCH  19  20
HETATM   20  C   UNL     1     -10.573   6.796  69.367  1.00  0.00    -0.265 C  
BRANCH  20  21
HETATM   21  C   UNL     1     -11.757   6.578  70.260  1.00  0.00    -0.430 C  
HETATM   22  C   UNL     1     -12.157   7.439  71.208  1.00  0.00    -0.359 C  
BRANCH  22  23
HETATM   23  C   UNL     1     -11.477   8.727  71.560  1.00  0.00    -0.375 C  
HETATM   24  C   UNL     1     -12.096   9.906  70.830  1.00  0.00    -0.396 C  
ENDBRANCH  22  23
ENDBRANCH  20  21
ENDBRANCH  19  20
ENDBRANCH  17  18
ENDBRANCH  16  17
ENDBRANCH  14  15
ENDBRANCH  13  14
ENDBRANCH  11  12
ENDBRANCH  10  11
ENDBRANCH   8   9
ENDBRANCH   7   8
ENDBRANCH   6   7
ENDBRANCH   4   6
ENDBRANCH   3   4
ENDBRANCH   2   3
TORSDOF 15
ENDMDL
MODEL      142
REMARK 921   NORMALIZED FREE ENERGY PREDICTED BY IDOCK:   -4.29 KCAL/MOL
REMARK 922        TOTAL FREE ENERGY PREDICTED BY IDOCK:  -10.60 KCAL/MOL
REMARK 923 INTER-LIGAND FREE ENERGY PREDICTED BY IDOCK:   -7.49 KCAL/MOL
REMARK 924 INTRA-LIGAND FREE ENERGY PREDICTED BY IDOCK:   -3.12 KCAL/MOL
REMARK 927      BINDING AFFINITY PREDICTED BY RF-SCORE:    0.00 PKD
ROOT
HETATM    1  C   UNL     1      -9.445  10.375  63.390  1.00  0.00    -0.356 C  
HETATM    2  C   UNL     1     -10.327  11.608  63.316  1.00  0.00    -0.398 C  
ENDROOT
BRANCH   2   3
HETATM    3  O   UNL     1     -11.183  11.595  64.465  1.00  0.00    -0.315 OA 
BRANCH   3   4
HETATM    4  C   UNL     1     -12.289  12.382  64.348  1.00  0.00    -0.447 C  
HETATM    5  O   UNL     1     -13.235  12.170  63.606  1.00  0.00    -0.770 OA 
BRANCH   4   6
HETATM    6  C   UNL     1     -12.199  13.493  65.357  1.00  0.00    -0.482 C  
BRANCH   6   7
HETATM    7  C   UNL     1     -11.598  14.747  64.715  1.00  0.00    -0.418 C  
BRANCH   7   8
HETATM    8  C   UNL     1     -10.407  15.275  65.500  1.00  0.00    -0.408 C  
BRANCH   8   9
HETATM    9  C   UNL     1      -9.685  14.182  66.248  1.00  0.00    -0.315 C  
HETATM   10  C   UNL     1      -9.648  14.048  67.584  1.00  0.00    -0.221 C  
BRANCH  10  11
HETATM   11  C   UNL     1     -10.187  15.059  68.542  1.00  0.00    -0.227 C  
BRANCH  11  12
HETATM   12  C   UNL     1     -11.681  15.124  68.624  1.00  0.00    -0.364 C  
HETATM   13  C   UNL     1     -12.408  14.413  69.506  1.00  0.00    -0.263 C  
BRANCH  13  14
HETATM   14  C   UNL     1     -11.920  13.450  70.565  1.00  0.00    -0.332 C  
BRANCH  14  15
HETATM   15  C   UNL     1     -12.636  12.125  70.611  1.00  0.00    -0.255 C  
HETATM   16  C   UNL     1     -12.142  10.944  70.211  1.00  0.00    -0.440 C  
BRANCH  16  17
HETATM   17  C   UNL     1     -10.851  10.766  69.481  1.00  0.00    -0.288 C  
BRANCH  17  18
HETATM   18  C   UNL     1     -11.127  10.705  68.003  1.00  0.00    -0.361 C  
HETATM   19  C   UNL     1     -10.512   9.873  67.149  1.00  0.00    -0.305 C  
BRANCH  19  20
HETATM   20  C   UNL     1      -9.444   8.905  67.534  1.00  0.00    -0.172 C  
BRANCH  20  21
HETATM   21  C   UNL     1      -8.125   9.232  66.899  1.00  0.00    -0.108 C  
HETATM   22  C   UNL     1      -7.105   9.825  67.539  1.00  0.00    -0.088 C  
BRANCH  22  23
HETATM   23  C   UNL     1      -7.121  10.293  68.962  1.00  0.00    -0.072 C  
HETATM   24  C   UNL     1      -7.264  11.801  69.055  1.00  0.00    -0.080 C  
ENDBRANCH  22  23
ENDBRANCH  20  21
ENDBRANCH  19  20
ENDBRANCH  17  18
ENDBRANCH  16  17
ENDBRANCH  14  15
ENDBRANCH  13  14
ENDBRANCH  11  12
ENDBRANCH  10  11
ENDBRANCH   8   9
ENDBRANCH   7   8
ENDBRANCH   6   7
ENDBRANCH   4   6
ENDBRANCH   3   4
ENDBRANCH   2   3
TORSDOF 15
ENDMDL
MODEL      143
REMARK 921   NORMALIZED FREE ENERGY PREDICTED BY IDOCK:   -4.29 KCAL/MOL
REMARK 922        TOTAL FREE ENERGY PREDICTED BY IDOCK:  -10.60 KCAL/MOL
REMARK 923 INTER-LIGAND FREE ENERGY PREDICTED BY IDOCK:   -8.27 KCAL/MOL
REMARK 924 INTRA-LIGAND FREE ENERGY PREDICTED BY IDOCK:   -2.33 KCAL/MOL
REMARK 927      BINDING AFFINITY PREDICTED BY RF-SCORE:    0.00 PKD
ROOT
HETATM    1  C   UNL     1     -11.034   5.890  70.553  1.00  0.00    -0.362 C  
HETATM    2  C   UNL     1     -10.318   5.523  69.266  1.00  0.00    -0.265 C  
ENDROOT
BRANCH   2   3
HETATM    3  O   UNL     1      -9.820   6.736  68.689  1.00  0.00    -0.140 OA 
BRANCH   3   4
HETATM    4  C   UNL     1     -10.554   7.199  67.638  1.00  0.00    -0.248 C  
HETATM    5  O   UNL     1     -11.161   6.506  66.837  1.00  0.00    -0.399 OA 
BRANCH   4   6
HETATM    6  C   UNL     1     -10.579   8.702  67.693  1.00  0.00    -0.272 C  
BRANCH   6   7
HETATM    7  C   UNL     1      -9.485   9.218  68.633  1.00  0.00    -0.148 C  
BRANCH   7   8
HETATM    8  C   UNL     1     -10.036  10.175  69.678  1.00  0.00    -0.265 C  
BRANCH   8   9
HETATM    9  C   UNL     1     -10.400   9.472  70.963  1.00  0.00    -0.353 C  
HETATM   10  C   UNL     1     -11.625   9.441  71.511  1.00  0.00    -0.467 C  
BRANCH  10  11
HETATM   11  C   UNL     1     -12.787  10.234  71.011  1.00  0.00    -0.490 C  
BRANCH  11  12
HETATM   12  C   UNL     1     -13.060  11.504  71.757  1.00  0.00    -0.503 C  
HETATM   13  C   UNL     1     -12.742  12.724  71.287  1.00  0.00    -0.364 C  
BRANCH  13  14
HETATM   14  C   UNL     1     -12.089  13.082  69.971  1.00  0.00    -0.367 C  
BRANCH  14  15
HETATM   15  C   UNL     1     -11.750  14.540  69.795  1.00  0.00    -0.356 C  
HETATM   16  C   UNL     1     -11.725  15.211  68.633  1.00  0.00    -0.364 C  
BRANCH  16  17
HETATM   17  C   UNL     1     -11.856  14.583  67.285  1.00  0.00    -0.419 C  
BRANCH  17  18
HETATM   18  C   UNL     1     -10.566  13.887  66.941  1.00  0.00    -0.280 C  
HETATM   19  C   UNL     1      -9.525  14.474  66.333  1.00  0.00    -0.316 C  
BRANCH  19  20
HETATM   20  C   UNL     1      -9.501  15.897  65.884  1.00  0.00    -0.372 C  
BRANCH  20  21
HETATM   21  C   UNL     1      -8.750  16.780  66.835  1.00  0.00    -0.242 C  
HETATM   22  C   UNL     1      -9.251  17.899  67.382  1.00  0.00    -0.253 C  
BRANCH  22  23
HETATM   23  C   UNL     1     -10.608  18.472  67.109  1.00  0.00    -0.439 C  
HETATM   24  C   UNL     1     -10.550  19.586  66.080  1.00  0.00    -0.589 C  
ENDBRANCH  22  23
ENDBRANCH  20  21
ENDBRANCH  19  20
ENDBRANCH  17  18
ENDBRANCH  16  17
ENDBRANCH  14  15
ENDBRANCH  13  14
ENDBRANCH  11  12
ENDBRANCH  10  11
ENDBRANCH   8   9
ENDBRANCH   7   8
ENDBRANCH   6   7
ENDBRANCH   4   6
ENDBRANCH   3   4
ENDBRANCH   2   3
TORSDOF 15
ENDMDL
MODEL      144
REMARK 921   NORMALIZED FREE ENERGY PREDICTED BY IDOCK:   -4.28 KCAL/MOL
REMARK 922        TOTAL FREE ENERGY PREDICTED BY IDOCK:  -10.59 KCAL/MOL
REMARK 923 INTER-LIGAND FREE ENERGY PREDICTED BY IDOCK:   -7.73 KCAL/MOL
REMARK 924 INTRA-LIGAND FREE ENERGY PREDICTED BY IDOCK:   -2.86 KCAL/MOL
REMARK 927      BINDING AFFINITY PREDICTED BY RF-SCORE:    0.00 PKD
ROOT
HETATM    1  C   UNL     1     -11.658   6.394  70.101  1.00  0.00    -0.449 C  
HETATM    2  C   UNL     1     -12.069   6.868  71.484  1.00  0.00    -0.358 C  
ENDROOT
BRANCH   2   3
HETATM    3  O   UNL     1     -12.679   8.155  71.334  1.00  0.00    -0.310 OA 
BRANCH   3   4
HETATM    4  C   UNL     1     -11.808   9.200  71.413  1.00  0.00    -0.345 C  
HETATM    5  O   UNL     1     -10.687   9.155  71.894  1.00  0.00    -0.357 OA 
BRANCH   4   6
HETATM    6  C   UNL     1     -12.415  10.387  70.718  1.00  0.00    -0.461 C  
BRANCH   6   7
HETATM    7  C   UNL     1     -11.417  10.988  69.722  1.00  0.00    -0.387 C  
BRANCH   7   8
HETATM    8  C   UNL     1     -11.193  10.080  68.522  1.00  0.00    -0.180 C  
BRANCH   8   9
HETATM    9  C   UNL     1      -9.732   9.766  68.308  1.00  0.00    -0.160 C  
HETATM   10  C   UNL     1      -9.151   9.545  67.118  1.00  0.00    -0.152 C  
BRANCH  10  11
HETATM   11  C   UNL     1      -9.900   9.419  65.831  1.00  0.00    -0.362 C  
BRANCH  11  12
HETATM   12  C   UNL     1      -9.356  10.231  64.696  1.00  0.00    -0.320 C  
HETATM   13  C   UNL     1     -10.054  11.200  64.076  1.00  0.00    -0.392 C  
BRANCH  13  14
HETATM   14  C   UNL     1     -11.458  11.679  64.368  1.00  0.00    -0.302 C  
BRANCH  14  15
HETATM   15  C   UNL     1     -11.675  12.237  65.751  1.00  0.00    -0.445 C  
HETATM   16  C   UNL     1     -12.090  13.479  66.047  1.00  0.00    -0.489 C  
BRANCH  16  17
HETATM   17  C   UNL     1     -12.241  14.584  65.053  1.00  0.00    -0.376 C  
BRANCH  17  18
HETATM   18  C   UNL     1     -10.900  15.231  64.833  1.00  0.00    -0.444 C  
HETATM   19  C   UNL     1     -10.216  15.902  65.771  1.00  0.00    -0.389 C  
BRANCH  19  20
HETATM   20  C   UNL     1     -10.696  16.129  67.166  1.00  0.00    -0.262 C  
BRANCH  20  21
HETATM   21  C   UNL     1      -9.568  16.206  68.150  1.00  0.00    -0.217 C  
HETATM   22  C   UNL     1      -8.916  15.139  68.638  1.00  0.00    -0.191 C  
BRANCH  22  23
HETATM   23  C   UNL     1      -9.226  13.707  68.321  1.00  0.00    -0.198 C  
HETATM   24  C   UNL     1      -8.344  13.176  67.206  1.00  0.00    -0.182 C  
ENDBRANCH  22  23
ENDBRANCH  20  21
ENDBRANCH  19  20
ENDBRANCH  17  18
ENDBRANCH  16  17
ENDBRANCH  14  15
ENDBRANCH  13  14
ENDBRANCH  11  12
ENDBRANCH  10  11
ENDBRANCH   8   9
ENDBRANCH   7   8
ENDBRANCH   6   7
ENDBRANCH   4   6
ENDBRANCH   3   4
ENDBRANCH   2   3
TORSDOF 15
ENDMDL
MODEL      145
REMARK 921   NORMALIZED FREE ENERGY PREDICTED BY IDOCK:   -4.28 KCAL/MOL
REMARK 922        TOTAL FREE ENERGY PREDICTED BY IDOCK:  -10.58 KCAL/MOL
REMARK 923 INTER-LIGAND FREE ENERGY PREDICTED BY IDOCK:   -8.23 KCAL/MOL
REMARK 924 INTRA-LIGAND FREE ENERGY PREDICTED BY IDOCK:   -2.36 KCAL/MOL
REMARK 927      BINDING AFFINITY PREDICTED BY RF-SCORE:    0.00 PKD
ROOT
HETATM    1  C   UNL     1     -14.411   7.285  71.611  1.00  0.00    -0.583 C  
HETATM    2  C   UNL     1     -12.916   7.336  71.352  1.00  0.00    -0.373 C  
ENDROOT
BRANCH   2   3
HETATM    3  O   UNL     1     -12.314   6.264  72.088  1.00  0.00    -0.315 OA 
BRANCH   3   4
HETATM    4  C   UNL     1     -11.045   5.961  71.697  1.00  0.00    -0.258 C  
HETATM    5  O   UNL     1     -10.416   4.971  72.035  1.00  0.00    -0.212 OA 
BRANCH   4   6
HETATM    6  C   UNL     1     -10.588   6.990  70.700  1.00  0.00    -0.246 C  
BRANCH   6   7
HETATM    7  C   UNL     1      -9.579   6.376  69.726  1.00  0.00    -0.163 C  
BRANCH   7   8
HETATM    8  C   UNL     1      -8.820   7.438  68.945  1.00  0.00    -0.131 C  
BRANCH   8   9
HETATM    9  C   UNL     1      -8.393   6.950  67.582  1.00  0.00    -0.123 C  
HETATM   10  C   UNL     1      -8.918   7.352  66.414  1.00  0.00    -0.190 C  
BRANCH  10  11
HETATM   11  C   UNL     1     -10.121   8.230  66.293  1.00  0.00    -0.101 C  
BRANCH  11  12
HETATM   12  C   UNL     1      -9.835   9.656  65.936  1.00  0.00    -0.358 C  
HETATM   13  C   UNL     1     -10.380  10.705  66.578  1.00  0.00    -0.299 C  
BRANCH  13  14
HETATM   14  C   UNL     1     -11.339  10.696  67.747  1.00  0.00    -0.320 C  
BRANCH  14  15
HETATM   15  C   UNL     1     -10.695  10.651  69.109  1.00  0.00    -0.264 C  
HETATM   16  C   UNL     1     -11.336  10.664  70.287  1.00  0.00    -0.401 C  
BRANCH  16  17
HETATM   17  C   UNL     1     -12.801  10.905  70.456  1.00  0.00    -0.301 C  
BRANCH  17  18
HETATM   18  C   UNL     1     -13.059  11.395  71.856  1.00  0.00    -0.505 C  
HETATM   19  C   UNL     1     -13.330  12.668  72.176  1.00  0.00    -0.570 C  
BRANCH  19  20
HETATM   20  C   UNL     1     -13.390  13.792  71.197  1.00  0.00    -0.218 C  
BRANCH  20  21
HETATM   21  C   UNL     1     -12.115  14.580  71.157  1.00  0.00    -0.408 C  
HETATM   22  C   UNL     1     -11.835  15.606  71.976  1.00  0.00    -0.548 C  
BRANCH  22  23
HETATM   23  C   UNL     1     -12.750  16.159  73.026  1.00  0.00    -0.537 C  
HETATM   24  C   UNL     1     -12.407  15.626  74.405  1.00  0.00    -0.802 C  
ENDBRANCH  22  23
ENDBRANCH  20  21
ENDBRANCH  19  20
ENDBRANCH  17  18
ENDBRANCH  16  17
ENDBRANCH  14  15
ENDBRANCH  13  14
ENDBRANCH  11  12
ENDBRANCH  10  11
ENDBRANCH   8   9
ENDBRANCH   7   8
ENDBRANCH   6   7
ENDBRANCH   4   6
ENDBRANCH   3   4
ENDBRANCH   2   3
TORSDOF 15
ENDMDL
MODEL      146
REMARK 921   NORMALIZED FREE ENERGY PREDICTED BY IDOCK:   -4.28 KCAL/MOL
REMARK 922        TOTAL FREE ENERGY PREDICTED BY IDOCK:  -10.58 KCAL/MOL
REMARK 923 INTER-LIGAND FREE ENERGY PREDICTED BY IDOCK:   -8.88 KCAL/MOL
REMARK 924 INTRA-LIGAND FREE ENERGY PREDICTED BY IDOCK:   -1.71 KCAL/MOL
REMARK 927      BINDING AFFINITY PREDICTED BY RF-SCORE:    0.00 PKD
ROOT
HETATM    1  C   UNL     1     -12.235  16.571  74.539  1.00  0.00    -0.413 C  
HETATM    2  C   UNL     1     -12.351  15.154  74.007  1.00  0.00    -0.591 C  
ENDROOT
BRANCH   2   3
HETATM    3  O   UNL     1     -13.335  15.163  72.966  1.00  0.00    -0.462 OA 
BRANCH   3   4
HETATM    4  C   UNL     1     -13.491  13.967  72.333  1.00  0.00    -0.560 C  
HETATM    5  O   UNL     1     -14.355  13.141  72.581  1.00  0.00    -0.636 OA 
BRANCH   4   6
HETATM    6  C   UNL     1     -12.492  13.880  71.212  1.00  0.00    -0.440 C  
BRANCH   6   7
HETATM    7  C   UNL     1     -12.532  15.155  70.364  1.00  0.00    -0.416 C  
BRANCH   7   8
HETATM    8  C   UNL     1     -11.857  14.964  69.015  1.00  0.00    -0.333 C  
BRANCH   8   9
HETATM    9  C   UNL     1     -11.126  16.204  68.561  1.00  0.00    -0.357 C  
HETATM   10  C   UNL     1     -10.577  16.382  67.349  1.00  0.00    -0.306 C  
BRANCH  10  11
HETATM   11  C   UNL     1     -10.470  15.312  66.312  1.00  0.00    -0.313 C  
BRANCH  11  12
HETATM   12  C   UNL     1     -11.101  15.637  64.993  1.00  0.00    -0.399 C  
HETATM   13  C   UNL     1     -11.933  14.803  64.343  1.00  0.00    -0.433 C  
BRANCH  13  14
HETATM   14  C   UNL     1     -12.410  13.432  64.768  1.00  0.00    -0.444 C  
BRANCH  14  15
HETATM   15  C   UNL     1     -11.944  12.290  63.902  1.00  0.00    -0.582 C  
HETATM   16  C   UNL     1     -11.048  11.352  64.246  1.00  0.00    -0.356 C  
BRANCH  16  17
HETATM   17  C   UNL     1     -10.223  11.379  65.490  1.00  0.00    -0.312 C  
BRANCH  17  18
HETATM   18  C   UNL     1      -9.096  10.391  65.353  1.00  0.00    -0.221 C  
HETATM   19  C   UNL     1      -9.108   9.150  65.861  1.00  0.00    -0.256 C  
BRANCH  19  20
HETATM   20  C   UNL     1     -10.229   8.575  66.660  1.00  0.00    -0.345 C  
BRANCH  20  21
HETATM   21  C   UNL     1      -9.743   7.689  67.767  1.00  0.00    -0.180 C  
HETATM   22  C   UNL     1      -9.400   8.125  68.990  1.00  0.00    -0.147 C  
BRANCH  22  23
HETATM   23  C   UNL     1      -9.405   9.555  69.439  1.00  0.00    -0.185 C  
HETATM   24  C   UNL     1      -8.011  10.034  69.800  1.00  0.00    -0.190 C  
ENDBRANCH  22  23
ENDBRANCH  20  21
ENDBRANCH  19  20
ENDBRANCH  17  18
ENDBRANCH  16  17
ENDBRANCH  14  15
ENDBRANCH  13  14
ENDBRANCH  11  12
ENDBRANCH  10  11
ENDBRANCH   8   9
ENDBRANCH   7   8
ENDBRANCH   6   7
ENDBRANCH   4   6
ENDBRANCH   3   4
ENDBRANCH   2   3
TORSDOF 15
ENDMDL
MODEL      147
REMARK 921   NORMALIZED FREE ENERGY PREDICTED BY IDOCK:   -4.28 KCAL/MOL
REMARK 922        TOTAL FREE ENERGY PREDICTED BY IDOCK:  -10.58 KCAL/MOL
REMARK 923 INTER-LIGAND FREE ENERGY PREDICTED BY IDOCK:   -9.26 KCAL/MOL
REMARK 924 INTRA-LIGAND FREE ENERGY PREDICTED BY IDOCK:   -1.32 KCAL/MOL
REMARK 927      BINDING AFFINITY PREDICTED BY RF-SCORE:    0.00 PKD
ROOT
HETATM    1  C   UNL     1     -12.446  12.030  63.454  1.00  0.00    -0.625 C  
HETATM    2  C   UNL     1     -12.344  12.593  64.860  1.00  0.00    -0.498 C  
ENDROOT
BRANCH   2   3
HETATM    3  O   UNL     1     -11.055  12.238  65.374  1.00  0.00    -0.293 OA 
BRANCH   3   4
HETATM    4  C   UNL     1     -11.093  11.449  66.484  1.00  0.00    -0.251 C  
HETATM    5  O   UNL     1     -11.814  11.623  67.454  1.00  0.00    -0.603 OA 
BRANCH   4   6
HETATM    6  C   UNL     1     -10.179  10.274  66.272  1.00  0.00    -0.287 C  
BRANCH   6   7
HETATM    7  C   UNL     1     -10.598   9.105  67.169  1.00  0.00    -0.286 C  
BRANCH   7   8
HETATM    8  C   UNL     1      -9.708   7.888  66.972  1.00  0.00    -0.269 C  
BRANCH   8   9
HETATM    9  C   UNL     1      -8.715   7.717  68.096  1.00  0.00    -0.126 C  
HETATM   10  C   UNL     1      -8.684   6.686  68.955  1.00  0.00    -0.129 C  
BRANCH  10  11
HETATM   11  C   UNL     1      -9.732   5.624  69.027  1.00  0.00    -0.187 C  
BRANCH  11  12
HETATM   12  C   UNL     1     -11.141   6.124  69.115  1.00  0.00    -0.448 C  
HETATM   13  C   UNL     1     -11.675   6.643  70.236  1.00  0.00    -0.432 C  
BRANCH  13  14
HETATM   14  C   UNL     1     -11.018   6.847  71.583  1.00  0.00    -0.262 C  
BRANCH  14  15
HETATM   15  C   UNL     1     -10.147   8.071  71.697  1.00  0.00    -0.238 C  
HETATM   16  C   UNL     1     -10.493   9.322  71.355  1.00  0.00    -0.408 C  
BRANCH  16  17
HETATM   17  C   UNL     1     -11.747   9.690  70.632  1.00  0.00    -0.353 C  
BRANCH  17  18
HETATM   18  C   UNL     1     -12.874   9.789  71.625  1.00  0.00    -0.519 C  
HETATM   19  C   UNL     1     -13.399  10.942  72.065  1.00  0.00    -0.394 C  
BRANCH  19  20
HETATM   20  C   UNL     1     -12.925  12.297  71.657  1.00  0.00    -0.416 C  
BRANCH  20  21
HETATM   21  C   UNL     1     -13.756  13.393  72.252  1.00  0.00    -0.705 C  
HETATM   22  C   UNL     1     -13.690  14.680  71.877  1.00  0.00    -0.510 C  
BRANCH  22  23
HETATM   23  C   UNL     1     -12.762  15.242  70.844  1.00  0.00    -0.496 C  
HETATM   24  C   UNL     1     -11.645  16.052  71.475  1.00  0.00    -0.529 C  
ENDBRANCH  22  23
ENDBRANCH  20  21
ENDBRANCH  19  20
ENDBRANCH  17  18
ENDBRANCH  16  17
ENDBRANCH  14  15
ENDBRANCH  13  14
ENDBRANCH  11  12
ENDBRANCH  10  11
ENDBRANCH   8   9
ENDBRANCH   7   8
ENDBRANCH   6   7
ENDBRANCH   4   6
ENDBRANCH   3   4
ENDBRANCH   2   3
TORSDOF 15
ENDMDL
MODEL      148
REMARK 921   NORMALIZED FREE ENERGY PREDICTED BY IDOCK:   -4.27 KCAL/MOL
REMARK 922        TOTAL FREE ENERGY PREDICTED BY IDOCK:  -10.56 KCAL/MOL
REMARK 923 INTER-LIGAND FREE ENERGY PREDICTED BY IDOCK:   -8.00 KCAL/MOL
REMARK 924 INTRA-LIGAND FREE ENERGY PREDICTED BY IDOCK:   -2.56 KCAL/MOL
REMARK 927      BINDING AFFINITY PREDICTED BY RF-SCORE:    0.00 PKD
ROOT
HETATM    1  C   UNL     1     -10.367  19.442  67.580  1.00  0.00    -0.556 C  
HETATM    2  C   UNL     1     -10.574  18.462  66.439  1.00  0.00    -0.309 C  
ENDROOT
BRANCH   2   3
HETATM    3  O   UNL     1     -10.392  17.143  66.966  1.00  0.00    -0.309 OA 
BRANCH   3   4
HETATM    4  C   UNL     1     -10.635  16.144  66.071  1.00  0.00    -0.295 C  
HETATM    5  O   UNL     1     -10.566  16.247  64.857  1.00  0.00    -0.650 OA 
BRANCH   4   6
HETATM    6  C   UNL     1     -10.899  14.872  66.829  1.00  0.00    -0.320 C  
BRANCH   6   7
HETATM    7  C   UNL     1     -11.630  15.176  68.140  1.00  0.00    -0.358 C  
BRANCH   7   8
HETATM    8  C   UNL     1     -11.662  13.972  69.068  1.00  0.00    -0.368 C  
BRANCH   8   9
HETATM    9  C   UNL     1     -11.723  12.668  68.310  1.00  0.00    -0.389 C  
HETATM   10  C   UNL     1     -11.811  11.449  68.867  1.00  0.00    -0.413 C  
BRANCH  10  11
HETATM   11  C   UNL     1     -11.701  11.188  70.333  1.00  0.00    -0.415 C  
BRANCH  11  12
HETATM   12  C   UNL     1     -12.955  10.699  70.989  1.00  0.00    -0.456 C  
HETATM   13  C   UNL     1     -13.037   9.536  71.661  1.00  0.00    -0.486 C  
BRANCH  13  14
HETATM   14  C   UNL     1     -11.948   8.517  71.909  1.00  0.00    -0.409 C  
BRANCH  14  15
HETATM   15  C   UNL     1     -12.190   7.155  71.308  1.00  0.00    -0.403 C  
HETATM   16  C   UNL     1     -11.607   6.663  70.205  1.00  0.00    -0.446 C  
BRANCH  16  17
HETATM   17  C   UNL     1     -10.744   7.451  69.275  1.00  0.00    -0.197 C  
BRANCH  17  18
HETATM   18  C   UNL     1      -9.314   7.360  69.738  1.00  0.00    -0.146 C  
HETATM   19  C   UNL     1      -8.392   8.314  69.546  1.00  0.00    -0.121 C  
BRANCH  19  20
HETATM   20  C   UNL     1      -8.639   9.595  68.822  1.00  0.00    -0.125 C  
BRANCH  20  21
HETATM   21  C   UNL     1      -7.832   9.702  67.563  1.00  0.00    -0.095 C  
HETATM   22  C   UNL     1      -8.350   9.647  66.326  1.00  0.00    -0.117 C  
BRANCH  22  23
HETATM   23  C   UNL     1      -9.795   9.432  65.994  1.00  0.00    -0.366 C  
HETATM   24  C   UNL     1     -10.427  10.679  65.404  1.00  0.00    -0.254 C  
ENDBRANCH  22  23
ENDBRANCH  20  21
ENDBRANCH  19  20
ENDBRANCH  17  18
ENDBRANCH  16  17
ENDBRANCH  14  15
ENDBRANCH  13  14
ENDBRANCH  11  12
ENDBRANCH  10  11
ENDBRANCH   8   9
ENDBRANCH   7   8
ENDBRANCH   6   7
ENDBRANCH   4   6
ENDBRANCH   3   4
ENDBRANCH   2   3
TORSDOF 15
ENDMDL
MODEL      149
REMARK 921   NORMALIZED FREE ENERGY PREDICTED BY IDOCK:   -4.26 KCAL/MOL
REMARK 922        TOTAL FREE ENERGY PREDICTED BY IDOCK:  -10.55 KCAL/MOL
REMARK 923 INTER-LIGAND FREE ENERGY PREDICTED BY IDOCK:   -7.43 KCAL/MOL
REMARK 924 INTRA-LIGAND FREE ENERGY PREDICTED BY IDOCK:   -3.12 KCAL/MOL
REMARK 927      BINDING AFFINITY PREDICTED BY RF-SCORE:    0.00 PKD
ROOT
HETATM    1  C   UNL     1     -14.259   8.862  72.319  1.00  0.00    -0.474 C  
HETATM    2  C   UNL     1     -13.082   8.509  71.427  1.00  0.00    -0.230 C  
ENDROOT
BRANCH   2   3
HETATM    3  O   UNL     1     -11.886   8.861  72.131  1.00  0.00    -0.361 OA 
BRANCH   3   4
HETATM    4  C   UNL     1     -10.833   9.175  71.324  1.00  0.00    -0.332 C  
HETATM    5  O   UNL     1      -9.695   8.753  71.448  1.00  0.00    -0.226 OA 
BRANCH   4   6
HETATM    6  C   UNL     1     -11.330  10.039  70.198  1.00  0.00    -0.357 C  
BRANCH   6   7
HETATM    7  C   UNL     1     -10.149  10.634  69.425  1.00  0.00    -0.199 C  
BRANCH   7   8
HETATM    8  C   UNL     1     -10.495  11.978  68.801  1.00  0.00    -0.207 C  
BRANCH   8   9
HETATM    9  C   UNL     1     -11.514  11.850  67.696  1.00  0.00    -0.387 C  
HETATM   10  C   UNL     1     -11.549  12.598  66.581  1.00  0.00    -0.443 C  
BRANCH  10  11
HETATM   11  C   UNL     1     -10.673  13.784  66.340  1.00  0.00    -0.281 C  
BRANCH  11  12
HETATM   12  C   UNL     1     -11.085  14.658  65.196  1.00  0.00    -0.382 C  
HETATM   13  C   UNL     1     -10.933  15.995  65.191  1.00  0.00    -0.360 C  
BRANCH  13  14
HETATM   14  C   UNL     1     -10.335  16.876  66.265  1.00  0.00    -0.312 C  
BRANCH  14  15
HETATM   15  C   UNL     1      -8.853  17.122  66.146  1.00  0.00    -0.220 C  
HETATM   16  C   UNL     1      -7.974  17.165  67.159  1.00  0.00    -0.216 C  
BRANCH  16  17
HETATM   17  C   UNL     1      -8.344  17.151  68.606  1.00  0.00    -0.257 C  
BRANCH  17  18
HETATM   18  C   UNL     1      -8.507  15.724  69.057  1.00  0.00    -0.242 C  
HETATM   19  C   UNL     1      -9.613  15.232  69.635  1.00  0.00    -0.188 C  
BRANCH  19  20
HETATM   20  C   UNL     1     -10.835  16.032  69.941  1.00  0.00    -0.351 C  
BRANCH  20  21
HETATM   21  C   UNL     1     -12.087  15.363  69.461  1.00  0.00    -0.332 C  
HETATM   22  C   UNL     1     -12.841  14.545  70.212  1.00  0.00    -0.249 C  
BRANCH  22  23
HETATM   23  C   UNL     1     -12.544  14.132  71.621  1.00  0.00    -0.420 C  
HETATM   24  C   UNL     1     -12.959  12.696  71.885  1.00  0.00    -0.402 C  
ENDBRANCH  22  23
ENDBRANCH  20  21
ENDBRANCH  19  20
ENDBRANCH  17  18
ENDBRANCH  16  17
ENDBRANCH  14  15
ENDBRANCH  13  14
ENDBRANCH  11  12
ENDBRANCH  10  11
ENDBRANCH   8   9
ENDBRANCH   7   8
ENDBRANCH   6   7
ENDBRANCH   4   6
ENDBRANCH   3   4
ENDBRANCH   2   3
TORSDOF 15
ENDMDL
MODEL      150
REMARK 921   NORMALIZED FREE ENERGY PREDICTED BY IDOCK:   -4.26 KCAL/MOL
REMARK 922        TOTAL FREE ENERGY PREDICTED BY IDOCK:  -10.54 KCAL/MOL
REMARK 923 INTER-LIGAND FREE ENERGY PREDICTED BY IDOCK:   -8.36 KCAL/MOL
REMARK 924 INTRA-LIGAND FREE ENERGY PREDICTED BY IDOCK:   -2.18 KCAL/MOL
REMARK 927      BINDING AFFINITY PREDICTED BY RF-SCORE:    0.00 PKD
ROOT
HETATM    1  C   UNL     1      -9.597  10.475  63.606  1.00  0.00    -0.370 C  
HETATM    2  C   UNL     1     -10.503  11.671  63.373  1.00  0.00    -0.426 C  
ENDROOT
BRANCH   2   3
HETATM    3  O   UNL     1     -11.199  11.930  64.598  1.00  0.00    -0.308 OA 
BRANCH   3   4
HETATM    4  C   UNL     1     -12.448  12.447  64.433  1.00  0.00    -0.433 C  
HETATM    5  O   UNL     1     -13.364  11.912  63.829  1.00  0.00    -0.614 OA 
BRANCH   4   6
HETATM    6  C   UNL     1     -12.543  13.734  65.207  1.00  0.00    -0.510 C  
BRANCH   6   7
HETATM    7  C   UNL     1     -12.086  14.911  64.340  1.00  0.00    -0.417 C  
BRANCH   7   8
HETATM    8  C   UNL     1     -11.074  15.789  65.058  1.00  0.00    -0.380 C  
BRANCH   8   9
HETATM    9  C   UNL     1      -9.914  14.995  65.607  1.00  0.00    -0.387 C  
HETATM   10  C   UNL     1      -9.567  14.920  66.902  1.00  0.00    -0.256 C  
BRANCH  10  11
HETATM   11  C   UNL     1     -10.186  15.743  67.983  1.00  0.00    -0.229 C  
BRANCH  11  12
HETATM   12  C   UNL     1     -11.611  15.409  68.302  1.00  0.00    -0.361 C  
HETATM   13  C   UNL     1     -11.993  14.248  68.865  1.00  0.00    -0.356 C  
BRANCH  13  14
HETATM   14  C   UNL     1     -11.130  13.084  69.294  1.00  0.00    -0.194 C  
BRANCH  14  15
HETATM   15  C   UNL     1     -11.850  11.768  69.445  1.00  0.00    -0.398 C  
HETATM   16  C   UNL     1     -11.318  10.550  69.264  1.00  0.00    -0.325 C  
BRANCH  16  17
HETATM   17  C   UNL     1      -9.957  10.291  68.706  1.00  0.00    -0.187 C  
BRANCH  17  18
HETATM   18  C   UNL     1     -10.093   9.796  67.291  1.00  0.00    -0.261 C  
HETATM   19  C   UNL     1      -9.925   8.520  66.913  1.00  0.00    -0.335 C  
BRANCH  19  20
HETATM   20  C   UNL     1      -9.553   7.408  67.835  1.00  0.00    -0.157 C  
BRANCH  20  21
HETATM   21  C   UNL     1     -10.707   6.493  68.118  1.00  0.00    -0.347 C  
HETATM   22  C   UNL     1     -11.236   6.299  69.336  1.00  0.00    -0.489 C  
BRANCH  22  23
HETATM   23  C   UNL     1     -10.746   6.920  70.609  1.00  0.00    -0.267 C  
HETATM   24  C   UNL     1     -11.763   6.781  71.728  1.00  0.00    -0.353 C  
ENDBRANCH  22  23
ENDBRANCH  20  21
ENDBRANCH  19  20
ENDBRANCH  17  18
ENDBRANCH  16  17
ENDBRANCH  14  15
ENDBRANCH  13  14
ENDBRANCH  11  12
ENDBRANCH  10  11
ENDBRANCH   8   9
ENDBRANCH   7   8
ENDBRANCH   6   7
ENDBRANCH   4   6
ENDBRANCH   3   4
ENDBRANCH   2   3
TORSDOF 15
ENDMDL
MODEL      151
REMARK 921   NORMALIZED FREE ENERGY PREDICTED BY IDOCK:   -4.25 KCAL/MOL
REMARK 922        TOTAL FREE ENERGY PREDICTED BY IDOCK:  -10.52 KCAL/MOL
REMARK 923 INTER-LIGAND FREE ENERGY PREDICTED BY IDOCK:   -7.59 KCAL/MOL
REMARK 924 INTRA-LIGAND FREE ENERGY PREDICTED BY IDOCK:   -2.93 KCAL/MOL
REMARK 927      BINDING AFFINITY PREDICTED BY RF-SCORE:    0.00 PKD
ROOT
HETATM    1  C   UNL     1      -9.796   4.266  71.654  1.00  0.00    -0.257 C  
HETATM    2  C   UNL     1      -9.259   5.417  72.486  1.00  0.00    -0.136 C  
ENDROOT
BRANCH   2   3
HETATM    3  O   UNL     1     -10.371   6.016  73.161  1.00  0.00    -0.190 OA 
BRANCH   3   4
HETATM    4  C   UNL     1     -10.270   7.366  73.317  1.00  0.00    -0.335 C  
HETATM    5  O   UNL     1      -9.371   7.947  73.902  1.00  0.00    -0.249 OA 
BRANCH   4   6
HETATM    6  C   UNL     1     -11.391   8.024  72.560  1.00  0.00    -0.469 C  
BRANCH   6   7
HETATM    7  C   UNL     1     -10.842   8.775  71.343  1.00  0.00    -0.359 C  
BRANCH   7   8
HETATM    8  C   UNL     1     -11.141   8.047  70.041  1.00  0.00    -0.154 C  
BRANCH   8   9
HETATM    9  C   UNL     1      -9.890   7.533  69.373  1.00  0.00    -0.166 C  
HETATM   10  C   UNL     1      -9.549   7.745  68.092  1.00  0.00    -0.161 C  
BRANCH  10  11
HETATM   11  C   UNL     1     -10.441   8.395  67.085  1.00  0.00    -0.380 C  
BRANCH  11  12
HETATM   12  C   UNL     1      -9.990   9.741  66.609  1.00  0.00    -0.292 C  
HETATM   13  C   UNL     1     -10.578  10.894  66.977  1.00  0.00    -0.307 C  
BRANCH  13  14
HETATM   14  C   UNL     1     -11.752  11.093  67.910  1.00  0.00    -0.260 C  
BRANCH  14  15
HETATM   15  C   UNL     1     -11.422  11.734  69.233  1.00  0.00    -0.369 C  
HETATM   16  C   UNL     1     -11.605  13.024  69.554  1.00  0.00    -0.342 C  
BRANCH  16  17
HETATM   17  C   UNL     1     -12.006  14.092  68.590  1.00  0.00    -0.389 C  
BRANCH  17  18
HETATM   18  C   UNL     1     -10.844  15.024  68.380  1.00  0.00    -0.256 C  
HETATM   19  C   UNL     1     -10.081  15.050  67.277  1.00  0.00    -0.235 C  
BRANCH  19  20
HETATM   20  C   UNL     1     -10.255  14.141  66.107  1.00  0.00    -0.313 C  
BRANCH  20  21
HETATM   21  C   UNL     1     -11.024  14.787  64.994  1.00  0.00    -0.426 C  
HETATM   22  C   UNL     1     -12.096  14.240  64.400  1.00  0.00    -0.490 C  
BRANCH  22  23
HETATM   23  C   UNL     1     -12.675  12.893  64.712  1.00  0.00    -0.442 C  
HETATM   24  C   UNL     1     -12.524  11.934  63.546  1.00  0.00    -0.609 C  
ENDBRANCH  22  23
ENDBRANCH  20  21
ENDBRANCH  19  20
ENDBRANCH  17  18
ENDBRANCH  16  17
ENDBRANCH  14  15
ENDBRANCH  13  14
ENDBRANCH  11  12
ENDBRANCH  10  11
ENDBRANCH   8   9
ENDBRANCH   7   8
ENDBRANCH   6   7
ENDBRANCH   4   6
ENDBRANCH   3   4
ENDBRANCH   2   3
TORSDOF 15
ENDMDL
MODEL      152
REMARK 921   NORMALIZED FREE ENERGY PREDICTED BY IDOCK:   -4.24 KCAL/MOL
REMARK 922        TOTAL FREE ENERGY PREDICTED BY IDOCK:  -10.51 KCAL/MOL
REMARK 923 INTER-LIGAND FREE ENERGY PREDICTED BY IDOCK:   -7.57 KCAL/MOL
REMARK 924 INTRA-LIGAND FREE ENERGY PREDICTED BY IDOCK:   -2.94 KCAL/MOL
REMARK 927      BINDING AFFINITY PREDICTED BY RF-SCORE:    0.00 PKD
ROOT
HETATM    1  C   UNL     1     -10.379  19.894  66.274  1.00  0.00    -0.608 C  
HETATM    2  C   UNL     1      -9.428  19.199  67.232  1.00  0.00    -0.312 C  
ENDROOT
BRANCH   2   3
HETATM    3  O   UNL     1      -9.598  17.787  67.059  1.00  0.00    -0.268 OA 
BRANCH   3   4
HETATM    4  C   UNL     1      -9.357  17.053  68.181  1.00  0.00    -0.254 C  
HETATM    5  O   UNL     1      -8.260  16.856  68.678  1.00  0.00    -0.235 OA 
BRANCH   4   6
HETATM    6  C   UNL     1     -10.673  16.615  68.763  1.00  0.00    -0.342 C  
BRANCH   6   7
HETATM    7  C   UNL     1     -10.506  15.297  69.524  1.00  0.00    -0.265 C  
BRANCH   7   8
HETATM    8  C   UNL     1     -10.498  14.096  68.591  1.00  0.00    -0.250 C  
BRANCH   8   9
HETATM    9  C   UNL     1     -11.877  13.765  68.073  1.00  0.00    -0.408 C  
HETATM   10  C   UNL     1     -12.245  13.778  66.782  1.00  0.00    -0.440 C  
BRANCH  10  11
HETATM   11  C   UNL     1     -11.383  14.279  65.670  1.00  0.00    -0.317 C  
BRANCH  11  12
HETATM   12  C   UNL     1     -12.053  14.363  64.333  1.00  0.00    -0.491 C  
HETATM   13  C   UNL     1     -12.241  13.301  63.529  1.00  0.00    -0.513 C  
BRANCH  13  14
HETATM   14  C   UNL     1     -11.858  11.859  63.773  1.00  0.00    -0.558 C  
BRANCH  14  15
HETATM   15  C   UNL     1     -10.420  11.515  63.477  1.00  0.00    -0.486 C  
HETATM   16  C   UNL     1      -9.487  11.174  64.379  1.00  0.00    -0.251 C  
BRANCH  16  17
HETATM   17  C   UNL     1      -9.668  11.249  65.860  1.00  0.00    -0.258 C  
BRANCH  17  18
HETATM   18  C   UNL     1     -10.208   9.934  66.355  1.00  0.00    -0.292 C  
HETATM   19  C   UNL     1     -10.389   9.625  67.647  1.00  0.00    -0.290 C  
BRANCH  19  20
HETATM   20  C   UNL     1     -10.056  10.529  68.786  1.00  0.00    -0.202 C  
BRANCH  20  21
HETATM   21  C   UNL     1      -8.782  10.135  69.471  1.00  0.00    -0.189 C  
HETATM   22  C   UNL     1      -7.620  10.794  69.342  1.00  0.00    -0.114 C  
BRANCH  22  23
HETATM   23  C   UNL     1      -7.388  11.993  68.473  1.00  0.00    -0.111 C  
HETATM   24  C   UNL     1      -6.292  11.743  67.453  1.00  0.00    -0.114 C  
ENDBRANCH  22  23
ENDBRANCH  20  21
ENDBRANCH  19  20
ENDBRANCH  17  18
ENDBRANCH  16  17
ENDBRANCH  14  15
ENDBRANCH  13  14
ENDBRANCH  11  12
ENDBRANCH  10  11
ENDBRANCH   8   9
ENDBRANCH   7   8
ENDBRANCH   6   7
ENDBRANCH   4   6
ENDBRANCH   3   4
ENDBRANCH   2   3
TORSDOF 15
ENDMDL
MODEL      153
REMARK 921   NORMALIZED FREE ENERGY PREDICTED BY IDOCK:   -4.24 KCAL/MOL
REMARK 922        TOTAL FREE ENERGY PREDICTED BY IDOCK:  -10.50 KCAL/MOL
REMARK 923 INTER-LIGAND FREE ENERGY PREDICTED BY IDOCK:   -7.98 KCAL/MOL
REMARK 924 INTRA-LIGAND FREE ENERGY PREDICTED BY IDOCK:   -2.52 KCAL/MOL
REMARK 927      BINDING AFFINITY PREDICTED BY RF-SCORE:    0.00 PKD
ROOT
HETATM    1  C   UNL     1     -14.308   8.335  71.761  1.00  0.00    -0.574 C  
HETATM    2  C   UNL     1     -12.821   8.032  71.706  1.00  0.00    -0.332 C  
ENDROOT
BRANCH   2   3
HETATM    3  O   UNL     1     -12.122   9.236  72.039  1.00  0.00    -0.366 OA 
BRANCH   3   4
HETATM    4  C   UNL     1     -11.088   9.533  71.204  1.00  0.00    -0.379 C  
HETATM    5  O   UNL     1      -9.987   9.007  71.223  1.00  0.00    -0.260 OA 
BRANCH   4   6
HETATM    6  C   UNL     1     -11.560  10.539  70.190  1.00  0.00    -0.408 C  
BRANCH   6   7
HETATM    7  C   UNL     1     -10.804  10.359  68.871  1.00  0.00    -0.273 C  
BRANCH   7   8
HETATM    8  C   UNL     1      -9.545  11.211  68.814  1.00  0.00    -0.180 C  
BRANCH   8   9
HETATM    9  C   UNL     1      -8.373  10.460  68.231  1.00  0.00    -0.119 C  
HETATM   10  C   UNL     1      -7.975  10.514  66.950  1.00  0.00    -0.121 C  
BRANCH  10  11
HETATM   11  C   UNL     1      -8.733  11.206  65.865  1.00  0.00    -0.167 C  
BRANCH  11  12
HETATM   12  C   UNL     1      -9.265  10.311  64.789  1.00  0.00    -0.287 C  
HETATM   13  C   UNL     1      -9.967  10.757  63.732  1.00  0.00    -0.411 C  
BRANCH  13  14
HETATM   14  C   UNL     1     -10.351  12.180  63.393  1.00  0.00    -0.438 C  
BRANCH  14  15
HETATM   15  C   UNL     1     -11.817  12.503  63.535  1.00  0.00    -0.616 C  
HETATM   16  C   UNL     1     -12.484  12.662  64.688  1.00  0.00    -0.538 C  
BRANCH  16  17
HETATM   17  C   UNL     1     -11.923  12.370  66.042  1.00  0.00    -0.419 C  
BRANCH  17  18
HETATM   18  C   UNL     1     -12.096  13.583  66.916  1.00  0.00    -0.417 C  
HETATM   19  C   UNL     1     -11.287  14.652  66.901  1.00  0.00    -0.361 C  
BRANCH  19  20
HETATM   20  C   UNL     1     -10.081  14.787  66.033  1.00  0.00    -0.327 C  
BRANCH  20  21
HETATM   21  C   UNL     1      -8.821  14.397  66.747  1.00  0.00    -0.225 C  
HETATM   22  C   UNL     1      -7.961  15.271  67.294  1.00  0.00    -0.231 C  
BRANCH  22  23
HETATM   23  C   UNL     1      -8.087  16.763  67.250  1.00  0.00    -0.201 C  
HETATM   24  C   UNL     1      -7.238  17.366  66.147  1.00  0.00    -0.327 C  
ENDBRANCH  22  23
ENDBRANCH  20  21
ENDBRANCH  19  20
ENDBRANCH  17  18
ENDBRANCH  16  17
ENDBRANCH  14  15
ENDBRANCH  13  14
ENDBRANCH  11  12
ENDBRANCH  10  11
ENDBRANCH   8   9
ENDBRANCH   7   8
ENDBRANCH   6   7
ENDBRANCH   4   6
ENDBRANCH   3   4
ENDBRANCH   2   3
TORSDOF 15
ENDMDL
MODEL      154
REMARK 921   NORMALIZED FREE ENERGY PREDICTED BY IDOCK:   -4.24 KCAL/MOL
REMARK 922        TOTAL FREE ENERGY PREDICTED BY IDOCK:  -10.50 KCAL/MOL
REMARK 923 INTER-LIGAND FREE ENERGY PREDICTED BY IDOCK:   -7.92 KCAL/MOL
REMARK 924 INTRA-LIGAND FREE ENERGY PREDICTED BY IDOCK:   -2.58 KCAL/MOL
REMARK 927      BINDING AFFINITY PREDICTED BY RF-SCORE:    0.00 PKD
ROOT
HETATM    1  C   UNL     1     -12.479  12.142  63.489  1.00  0.00    -0.666 C  
HETATM    2  C   UNL     1     -10.972  11.963  63.519  1.00  0.00    -0.432 C  
ENDROOT
BRANCH   2   3
HETATM    3  O   UNL     1     -10.670  11.015  64.549  1.00  0.00    -0.341 OA 
BRANCH   3   4
HETATM    4  C   UNL     1      -9.736  11.440  65.445  1.00  0.00    -0.230 C  
HETATM    5  O   UNL     1      -8.579  11.056  65.500  1.00  0.00    -0.173 OA 
BRANCH   4   6
HETATM    6  C   UNL     1     -10.336  12.535  66.284  1.00  0.00    -0.269 C  
BRANCH   6   7
HETATM    7  C   UNL     1     -10.362  12.122  67.759  1.00  0.00    -0.217 C  
BRANCH   7   8
HETATM    8  C   UNL     1     -11.772  12.125  68.327  1.00  0.00    -0.401 C  
BRANCH   8   9
HETATM    9  C   UNL     1     -11.781  12.131  69.836  1.00  0.00    -0.361 C  
HETATM   10  C   UNL     1     -12.240  13.131  70.606  1.00  0.00    -0.402 C  
BRANCH  10  11
HETATM   11  C   UNL     1     -12.670  14.462  70.083  1.00  0.00    -0.259 C  
BRANCH  11  12
HETATM   12  C   UNL     1     -11.924  15.636  70.638  1.00  0.00    -0.438 C  
HETATM   13  C   UNL     1     -10.747  16.066  70.148  1.00  0.00    -0.316 C  
BRANCH  13  14
HETATM   14  C   UNL     1      -9.954  15.511  68.986  1.00  0.00    -0.233 C  
BRANCH  14  15
HETATM   15  C   UNL     1      -8.548  15.079  69.314  1.00  0.00    -0.167 C  
HETATM   16  C   UNL     1      -7.424  15.739  68.996  1.00  0.00    -0.186 C  
BRANCH  16  17
HETATM   17  C   UNL     1      -7.363  16.934  68.102  1.00  0.00    -0.180 C  
BRANCH  17  18
HETATM   18  C   UNL     1      -7.244  18.173  68.948  1.00  0.00    -0.268 C  
HETATM   19  C   UNL     1      -7.507  19.415  68.516  1.00  0.00    -0.366 C  
BRANCH  19  20
HETATM   20  C   UNL     1      -7.931  19.755  67.127  1.00  0.00    -0.323 C  
BRANCH  20  21
HETATM   21  C   UNL     1      -9.249  20.468  67.093  1.00  0.00    -0.485 C  
HETATM   22  C   UNL     1     -10.442  19.854  67.155  1.00  0.00    -0.566 C  
BRANCH  22  23
HETATM   23  C   UNL     1     -10.658  18.373  67.227  1.00  0.00    -0.435 C  
HETATM   24  C   UNL     1     -10.571  17.727  65.856  1.00  0.00    -0.205 C  
ENDBRANCH  22  23
ENDBRANCH  20  21
ENDBRANCH  19  20
ENDBRANCH  17  18
ENDBRANCH  16  17
ENDBRANCH  14  15
ENDBRANCH  13  14
ENDBRANCH  11  12
ENDBRANCH  10  11
ENDBRANCH   8   9
ENDBRANCH   7   8
ENDBRANCH   6   7
ENDBRANCH   4   6
ENDBRANCH   3   4
ENDBRANCH   2   3
TORSDOF 15
ENDMDL
MODEL      155
REMARK 921   NORMALIZED FREE ENERGY PREDICTED BY IDOCK:   -4.23 KCAL/MOL
REMARK 922        TOTAL FREE ENERGY PREDICTED BY IDOCK:  -10.48 KCAL/MOL
REMARK 923 INTER-LIGAND FREE ENERGY PREDICTED BY IDOCK:   -8.37 KCAL/MOL
REMARK 924 INTRA-LIGAND FREE ENERGY PREDICTED BY IDOCK:   -2.12 KCAL/MOL
REMARK 927      BINDING AFFINITY PREDICTED BY RF-SCORE:    0.00 PKD
ROOT
HETATM    1  C   UNL     1      -8.806   9.277  65.830  1.00  0.00    -0.199 C  
HETATM    2  C   UNL     1      -9.347   9.759  64.496  1.00  0.00    -0.235 C  
ENDROOT
BRANCH   2   3
HETATM    3  O   UNL     1     -10.330  10.765  64.767  1.00  0.00    -0.321 OA 
BRANCH   3   4
HETATM    4  C   UNL     1     -10.567  11.610  63.725  1.00  0.00    -0.416 C  
HETATM    5  O   UNL     1      -9.752  11.941  62.879  1.00  0.00    -0.349 OA 
BRANCH   4   6
HETATM    6  C   UNL     1     -12.024  11.983  63.730  1.00  0.00    -0.588 C  
BRANCH   6   7
HETATM    7  C   UNL     1     -12.190  13.476  64.033  1.00  0.00    -0.458 C  
BRANCH   7   8
HETATM    8  C   UNL     1     -12.621  13.721  65.470  1.00  0.00    -0.551 C  
BRANCH   8   9
HETATM    9  C   UNL     1     -11.458  14.082  66.362  1.00  0.00    -0.361 C  
HETATM   10  C   UNL     1     -10.970  13.316  67.351  1.00  0.00    -0.287 C  
BRANCH  10  11
HETATM   11  C   UNL     1     -11.609  12.051  67.824  1.00  0.00    -0.400 C  
BRANCH  11  12
HETATM   12  C   UNL     1     -12.027  12.048  69.262  1.00  0.00    -0.329 C  
HETATM   13  C   UNL     1     -11.687  11.079  70.131  1.00  0.00    -0.442 C  
BRANCH  13  14
HETATM   14  C   UNL     1     -10.843   9.848  69.883  1.00  0.00    -0.316 C  
BRANCH  14  15
HETATM   15  C   UNL     1      -9.828   9.537  70.952  1.00  0.00    -0.279 C  
HETATM   16  C   UNL     1     -10.000   8.700  71.987  1.00  0.00    -0.399 C  
BRANCH  16  17
HETATM   17  C   UNL     1     -11.299   8.063  72.358  1.00  0.00    -0.443 C  
BRANCH  17  18
HETATM   18  C   UNL     1     -11.093   6.580  72.510  1.00  0.00    -0.294 C  
HETATM   19  C   UNL     1     -10.984   5.719  71.487  1.00  0.00    -0.304 C  
BRANCH  19  20
HETATM   20  C   UNL     1     -11.079   6.101  70.048  1.00  0.00    -0.462 C  
BRANCH  20  21
HETATM   21  C   UNL     1      -9.779   5.919  69.325  1.00  0.00    -0.182 C  
HETATM   22  C   UNL     1      -9.657   5.874  67.989  1.00  0.00    -0.122 C  
BRANCH  22  23
HETATM   23  C   UNL     1     -10.785   5.956  67.006  1.00  0.00    -0.396 C  
HETATM   24  C   UNL     1     -10.686   4.874  65.947  1.00  0.00    -0.233 C  
ENDBRANCH  22  23
ENDBRANCH  20  21
ENDBRANCH  19  20
ENDBRANCH  17  18
ENDBRANCH  16  17
ENDBRANCH  14  15
ENDBRANCH  13  14
ENDBRANCH  11  12
ENDBRANCH  10  11
ENDBRANCH   8   9
ENDBRANCH   7   8
ENDBRANCH   6   7
ENDBRANCH   4   6
ENDBRANCH   3   4
ENDBRANCH   2   3
TORSDOF 15
ENDMDL
MODEL      156
REMARK 921   NORMALIZED FREE ENERGY PREDICTED BY IDOCK:   -4.22 KCAL/MOL
REMARK 922        TOTAL FREE ENERGY PREDICTED BY IDOCK:  -10.46 KCAL/MOL
REMARK 923 INTER-LIGAND FREE ENERGY PREDICTED BY IDOCK:   -7.90 KCAL/MOL
REMARK 924 INTRA-LIGAND FREE ENERGY PREDICTED BY IDOCK:   -2.57 KCAL/MOL
REMARK 927      BINDING AFFINITY PREDICTED BY RF-SCORE:    0.00 PKD
ROOT
HETATM    1  C   UNL     1     -11.328  10.274  68.460  1.00  0.00    -0.231 C  
HETATM    2  C   UNL     1     -10.362   9.749  67.413  1.00  0.00    -0.240 C  
ENDROOT
BRANCH   2   3
HETATM    3  O   UNL     1      -9.563  10.853  66.972  1.00  0.00    -0.170 OA 
BRANCH   3   4
HETATM    4  C   UNL     1      -8.872  10.619  65.821  1.00  0.00    -0.184 C  
HETATM    5  O   UNL     1      -7.656  10.627  65.709  1.00  0.00    -0.149 OA 
BRANCH   4   6
HETATM    6  C   UNL     1      -9.848  10.247  64.740  1.00  0.00    -0.403 C  
BRANCH   6   7
HETATM    7  C   UNL     1     -10.118  11.449  63.830  1.00  0.00    -0.408 C  
BRANCH   7   8
HETATM    8  C   UNL     1     -11.588  11.835  63.815  1.00  0.00    -0.508 C  
BRANCH   8   9
HETATM    9  C   UNL     1     -11.793  13.296  63.496  1.00  0.00    -0.477 C  
HETATM   10  C   UNL     1     -12.271  14.218  64.347  1.00  0.00    -0.471 C  
BRANCH  10  11
HETATM   11  C   UNL     1     -12.825  13.903  65.698  1.00  0.00    -0.467 C  
BRANCH  11  12
HETATM   12  C   UNL     1     -11.821  13.427  66.703  1.00  0.00    -0.443 C  
HETATM   13  C   UNL     1     -11.086  14.255  67.467  1.00  0.00    -0.309 C  
BRANCH  13  14
HETATM   14  C   UNL     1     -11.105  15.767  67.501  1.00  0.00    -0.258 C  
BRANCH  14  15
HETATM   15  C   UNL     1     -10.407  16.446  66.350  1.00  0.00    -0.319 C  
HETATM   16  C   UNL     1     -10.090  17.748  66.276  1.00  0.00    -0.345 C  
BRANCH  16  17
HETATM   17  C   UNL     1     -10.533  18.789  67.251  1.00  0.00    -0.489 C  
BRANCH  17  18
HETATM   18  C   UNL     1      -9.803  20.073  66.963  1.00  0.00    -0.566 C  
HETATM   19  C   UNL     1      -8.605  20.396  67.472  1.00  0.00    -0.358 C  
BRANCH  19  20
HETATM   20  C   UNL     1      -7.831  19.542  68.419  1.00  0.00    -0.374 C  
BRANCH  20  21
HETATM   21  C   UNL     1      -6.791  18.717  67.720  1.00  0.00    -0.225 C  
HETATM   22  C   UNL     1      -6.669  17.387  67.851  1.00  0.00    -0.179 C  
BRANCH  22  23
HETATM   23  C   UNL     1      -7.510  16.515  68.733  1.00  0.00    -0.216 C  
HETATM   24  C   UNL     1      -7.433  15.057  68.319  1.00  0.00    -0.107 C  
ENDBRANCH  22  23
ENDBRANCH  20  21
ENDBRANCH  19  20
ENDBRANCH  17  18
ENDBRANCH  16  17
ENDBRANCH  14  15
ENDBRANCH  13  14
ENDBRANCH  11  12
ENDBRANCH  10  11
ENDBRANCH   8   9
ENDBRANCH   7   8
ENDBRANCH   6   7
ENDBRANCH   4   6
ENDBRANCH   3   4
ENDBRANCH   2   3
TORSDOF 15
ENDMDL
MODEL      157
REMARK 921   NORMALIZED FREE ENERGY PREDICTED BY IDOCK:   -4.21 KCAL/MOL
REMARK 922        TOTAL FREE ENERGY PREDICTED BY IDOCK:  -10.45 KCAL/MOL
REMARK 923 INTER-LIGAND FREE ENERGY PREDICTED BY IDOCK:   -7.98 KCAL/MOL
REMARK 924 INTRA-LIGAND FREE ENERGY PREDICTED BY IDOCK:   -2.47 KCAL/MOL
REMARK 927      BINDING AFFINITY PREDICTED BY RF-SCORE:    0.00 PKD
ROOT
HETATM    1  C   UNL     1     -10.153   4.229  65.084  1.00  0.00    -0.221 C  
HETATM    2  C   UNL     1      -9.758   4.568  66.510  1.00  0.00    -0.207 C  
ENDROOT
BRANCH   2   3
HETATM    3  O   UNL     1      -9.921   5.982  66.677  1.00  0.00    -0.159 OA 
BRANCH   3   4
HETATM    4  C   UNL     1      -9.655   6.431  67.936  1.00  0.00    -0.121 C  
HETATM    5  O   UNL     1      -8.600   6.922  68.305  1.00  0.00    -0.125 OA 
BRANCH   4   6
HETATM    6  C   UNL     1     -10.906   6.317  68.763  1.00  0.00    -0.398 C  
BRANCH   6   7
HETATM    7  C   UNL     1     -10.587   5.698  70.127  1.00  0.00    -0.380 C  
BRANCH   7   8
HETATM    8  C   UNL     1     -11.044   6.584  71.276  1.00  0.00    -0.321 C  
BRANCH   8   9
HETATM    9  C   UNL     1     -12.542   6.769  71.295  1.00  0.00    -0.328 C  
HETATM   10  C   UNL     1     -13.182   7.891  71.660  1.00  0.00    -0.367 C  
BRANCH  10  11
HETATM   11  C   UNL     1     -12.508   9.083  72.257  1.00  0.00    -0.427 C  
BRANCH  11  12
HETATM   12  C   UNL     1     -12.839  10.393  71.610  1.00  0.00    -0.579 C  
HETATM   13  C   UNL     1     -12.116  10.932  70.612  1.00  0.00    -0.468 C  
BRANCH  13  14
HETATM   14  C   UNL     1     -10.882  10.373  69.938  1.00  0.00    -0.353 C  
BRANCH  14  15
HETATM   15  C   UNL     1     -11.044  10.031  68.479  1.00  0.00    -0.219 C  
HETATM   16  C   UNL     1     -10.992  10.896  67.454  1.00  0.00    -0.353 C  
BRANCH  16  17
HETATM   17  C   UNL     1     -10.941  12.381  67.597  1.00  0.00    -0.276 C  
BRANCH  17  18
HETATM   18  C   UNL     1     -12.139  12.982  66.910  1.00  0.00    -0.349 C  
HETATM   19  C   UNL     1     -12.162  13.372  65.628  1.00  0.00    -0.510 C  
BRANCH  19  20
HETATM   20  C   UNL     1     -10.997  13.294  64.699  1.00  0.00    -0.384 C  
BRANCH  20  21
HETATM   21  C   UNL     1     -11.168  12.226  63.660  1.00  0.00    -0.539 C  
HETATM   22  C   UNL     1     -10.356  11.167  63.524  1.00  0.00    -0.446 C  
BRANCH  22  23
HETATM   23  C   UNL     1      -9.134  10.893  64.347  1.00  0.00    -0.175 C  
HETATM   24  C   UNL     1      -9.122   9.470  64.876  1.00  0.00    -0.276 C  
ENDBRANCH  22  23
ENDBRANCH  20  21
ENDBRANCH  19  20
ENDBRANCH  17  18
ENDBRANCH  16  17
ENDBRANCH  14  15
ENDBRANCH  13  14
ENDBRANCH  11  12
ENDBRANCH  10  11
ENDBRANCH   8   9
ENDBRANCH   7   8
ENDBRANCH   6   7
ENDBRANCH   4   6
ENDBRANCH   3   4
ENDBRANCH   2   3
TORSDOF 15
ENDMDL
MODEL      158
REMARK 921   NORMALIZED FREE ENERGY PREDICTED BY IDOCK:   -4.21 KCAL/MOL
REMARK 922        TOTAL FREE ENERGY PREDICTED BY IDOCK:  -10.45 KCAL/MOL
REMARK 923 INTER-LIGAND FREE ENERGY PREDICTED BY IDOCK:   -7.98 KCAL/MOL
REMARK 924 INTRA-LIGAND FREE ENERGY PREDICTED BY IDOCK:   -2.47 KCAL/MOL
REMARK 927      BINDING AFFINITY PREDICTED BY RF-SCORE:    0.00 PKD
ROOT
HETATM    1  C   UNL     1      -8.480   8.763  71.542  1.00  0.00    -0.230 C  
HETATM    2  C   UNL     1      -8.783   8.158  72.901  1.00  0.00    -0.224 C  
ENDROOT
BRANCH   2   3
HETATM    3  O   UNL     1      -8.503   6.756  72.821  1.00  0.00    -0.117 OA 
BRANCH   3   4
HETATM    4  C   UNL     1      -9.532   6.006  72.337  1.00  0.00    -0.145 C  
HETATM    5  O   UNL     1      -9.420   5.034  71.607  1.00  0.00    -0.144 OA 
BRANCH   4   6
HETATM    6  C   UNL     1     -10.817   6.508  72.936  1.00  0.00    -0.288 C  
BRANCH   6   7
HETATM    7  C   UNL     1     -11.965   6.359  71.933  1.00  0.00    -0.381 C  
BRANCH   7   8
HETATM    8  C   UNL     1     -12.263   7.662  71.208  1.00  0.00    -0.339 C  
BRANCH   8   9
HETATM    9  C   UNL     1     -13.134   8.585  72.025  1.00  0.00    -0.403 C  
HETATM   10  C   UNL     1     -13.034   9.923  72.055  1.00  0.00    -0.518 C  
BRANCH  10  11
HETATM   11  C   UNL     1     -11.934  10.696  71.403  1.00  0.00    -0.261 C  
BRANCH  11  12
HETATM   12  C   UNL     1     -12.323  11.427  70.155  1.00  0.00    -0.344 C  
HETATM   13  C   UNL     1     -11.687  11.278  68.979  1.00  0.00    -0.410 C  
BRANCH  13  14
HETATM   14  C   UNL     1     -10.511  10.384  68.654  1.00  0.00    -0.216 C  
BRANCH  14  15
HETATM   15  C   UNL     1     -10.781   9.310  67.631  1.00  0.00    -0.276 C  
HETATM   16  C   UNL     1     -10.271   9.253  66.392  1.00  0.00    -0.298 C  
BRANCH  16  17
HETATM   17  C   UNL     1      -9.482  10.344  65.746  1.00  0.00    -0.247 C  
BRANCH  17  18
HETATM   18  C   UNL     1      -9.332  10.039  64.279  1.00  0.00    -0.345 C  
HETATM   19  C   UNL     1      -9.678  10.875  63.290  1.00  0.00    -0.398 C  
BRANCH  19  20
HETATM   20  C   UNL     1     -10.287  12.222  63.496  1.00  0.00    -0.443 C  
BRANCH  20  21
HETATM   21  C   UNL     1     -11.780  12.158  63.616  1.00  0.00    -0.588 C  
HETATM   22  C   UNL     1     -12.465  12.511  64.715  1.00  0.00    -0.532 C  
BRANCH  22  23
HETATM   23  C   UNL     1     -11.865  12.983  66.004  1.00  0.00    -0.471 C  
HETATM   24  C   UNL     1     -11.615  14.480  65.992  1.00  0.00    -0.356 C  
ENDBRANCH  22  23
ENDBRANCH  20  21
ENDBRANCH  19  20
ENDBRANCH  17  18
ENDBRANCH  16  17
ENDBRANCH  14  15
ENDBRANCH  13  14
ENDBRANCH  11  12
ENDBRANCH  10  11
ENDBRANCH   8   9
ENDBRANCH   7   8
ENDBRANCH   6   7
ENDBRANCH   4   6
ENDBRANCH   3   4
ENDBRANCH   2   3
TORSDOF 15
ENDMDL
MODEL      159
REMARK 921   NORMALIZED FREE ENERGY PREDICTED BY IDOCK:   -4.20 KCAL/MOL
REMARK 922        TOTAL FREE ENERGY PREDICTED BY IDOCK:  -10.44 KCAL/MOL
REMARK 923 INTER-LIGAND FREE ENERGY PREDICTED BY IDOCK:   -8.57 KCAL/MOL
REMARK 924 INTRA-LIGAND FREE ENERGY PREDICTED BY IDOCK:   -1.86 KCAL/MOL
REMARK 927      BINDING AFFINITY PREDICTED BY RF-SCORE:    0.00 PKD
ROOT
HETATM    1  C   UNL     1      -9.649  20.153  66.922  1.00  0.00    -0.564 C  
HETATM    2  C   UNL     1     -10.583  19.093  66.368  1.00  0.00    -0.435 C  
ENDROOT
BRANCH   2   3
HETATM    3  O   UNL     1      -9.847  17.866  66.293  1.00  0.00    -0.352 OA 
BRANCH   3   4
HETATM    4  C   UNL     1     -10.329  16.874  67.093  1.00  0.00    -0.304 C  
HETATM    5  O   UNL     1     -11.006  17.037  68.095  1.00  0.00    -0.367 OA 
BRANCH   4   6
HETATM    6  C   UNL     1      -9.978  15.547  66.478  1.00  0.00    -0.283 C  
BRANCH   6   7
HETATM    7  C   UNL     1     -10.850  15.284  65.247  1.00  0.00    -0.417 C  
BRANCH   7   8
HETATM    8  C   UNL     1     -10.538  13.941  64.603  1.00  0.00    -0.432 C  
BRANCH   8   9
HETATM    9  C   UNL     1     -11.642  12.935  64.817  1.00  0.00    -0.373 C  
HETATM   10  C   UNL     1     -11.771  12.139  65.891  1.00  0.00    -0.393 C  
BRANCH  10  11
HETATM   11  C   UNL     1     -10.746  12.016  66.971  1.00  0.00    -0.280 C  
BRANCH  11  12
HETATM   12  C   UNL     1     -10.662  10.669  67.619  1.00  0.00    -0.315 C  
HETATM   13  C   UNL     1     -11.248  10.372  68.793  1.00  0.00    -0.295 C  
BRANCH  13  14
HETATM   14  C   UNL     1     -12.090  11.268  69.675  1.00  0.00    -0.391 C  
BRANCH  14  15
HETATM   15  C   UNL     1     -12.045  10.949  71.147  1.00  0.00    -0.386 C  
HETATM   16  C   UNL     1     -12.779  10.019  71.778  1.00  0.00    -0.526 C  
BRANCH  16  17
HETATM   17  C   UNL     1     -13.903   9.256  71.155  1.00  0.00    -0.115 C  
BRANCH  17  18
HETATM   18  C   UNL     1     -14.067   7.947  71.879  1.00  0.00    -0.471 C  
HETATM   19  C   UNL     1     -13.264   6.885  71.719  1.00  0.00    -0.281 C  
BRANCH  19  20
HETATM   20  C   UNL     1     -12.105   6.835  70.781  1.00  0.00    -0.402 C  
BRANCH  20  21
HETATM   21  C   UNL     1     -10.980   5.998  71.311  1.00  0.00    -0.340 C  
HETATM   22  C   UNL     1     -10.097   6.415  72.233  1.00  0.00    -0.193 C  
BRANCH  22  23
HETATM   23  C   UNL     1     -10.060   7.779  72.851  1.00  0.00    -0.363 C  
HETATM   24  C   UNL     1      -9.212   8.740  72.038  1.00  0.00    -0.294 C  
ENDBRANCH  22  23
ENDBRANCH  20  21
ENDBRANCH  19  20
ENDBRANCH  17  18
ENDBRANCH  16  17
ENDBRANCH  14  15
ENDBRANCH  13  14
ENDBRANCH  11  12
ENDBRANCH  10  11
ENDBRANCH   8   9
ENDBRANCH   7   8
ENDBRANCH   6   7
ENDBRANCH   4   6
ENDBRANCH   3   4
ENDBRANCH   2   3
TORSDOF 15
ENDMDL
MODEL      160
REMARK 921   NORMALIZED FREE ENERGY PREDICTED BY IDOCK:   -4.20 KCAL/MOL
REMARK 922        TOTAL FREE ENERGY PREDICTED BY IDOCK:  -10.44 KCAL/MOL
REMARK 923 INTER-LIGAND FREE ENERGY PREDICTED BY IDOCK:   -7.36 KCAL/MOL
REMARK 924 INTRA-LIGAND FREE ENERGY PREDICTED BY IDOCK:   -3.07 KCAL/MOL
REMARK 927      BINDING AFFINITY PREDICTED BY RF-SCORE:    0.00 PKD
ROOT
HETATM    1  C   UNL     1     -10.067  15.727  69.730  1.00  0.00    -0.277 C  
HETATM    2  C   UNL     1     -10.657  16.000  68.358  1.00  0.00    -0.270 C  
ENDROOT
BRANCH   2   3
HETATM    3  O   UNL     1      -9.579  16.373  67.492  1.00  0.00    -0.225 OA 
BRANCH   3   4
HETATM    4  C   UNL     1      -9.975  16.855  66.281  1.00  0.00    -0.309 C  
HETATM    5  O   UNL     1      -9.961  18.028  65.945  1.00  0.00    -0.541 OA 
BRANCH   4   6
HETATM    6  C   UNL     1     -10.330  15.694  65.393  1.00  0.00    -0.421 C  
BRANCH   6   7
HETATM    7  C   UNL     1     -11.493  16.068  64.469  1.00  0.00    -0.274 C  
BRANCH   7   8
HETATM    8  C   UNL     1     -12.341  14.860  64.102  1.00  0.00    -0.212 C  
BRANCH   8   9
HETATM    9  C   UNL     1     -12.485  13.892  65.250  1.00  0.00    -0.504 C  
HETATM   10  C   UNL     1     -12.190  12.583  65.204  1.00  0.00    -0.509 C  
BRANCH  10  11
HETATM   11  C   UNL     1     -11.824  11.850  63.955  1.00  0.00    -0.509 C  
BRANCH  11  12
HETATM   12  C   UNL     1     -10.354  11.721  63.700  1.00  0.00    -0.476 C  
HETATM   13  C   UNL     1      -9.559  10.860  64.362  1.00  0.00    -0.312 C  
BRANCH  13  14
HETATM   14  C   UNL     1      -9.938   9.871  65.441  1.00  0.00    -0.349 C  
BRANCH  14  15
HETATM   15  C   UNL     1      -9.084   8.631  65.509  1.00  0.00    -0.190 C  
HETATM   16  C   UNL     1      -8.641   8.036  66.627  1.00  0.00    -0.141 C  
BRANCH  16  17
HETATM   17  C   UNL     1      -8.770   8.606  68.001  1.00  0.00    -0.141 C  
BRANCH  17  18
HETATM   18  C   UNL     1      -9.853   7.865  68.739  1.00  0.00    -0.171 C  
HETATM   19  C   UNL     1     -10.675   8.421  69.641  1.00  0.00    -0.201 C  
BRANCH  19  20
HETATM   20  C   UNL     1     -10.621   9.850  70.065  1.00  0.00    -0.335 C  
BRANCH  20  21
HETATM   21  C   UNL     1     -11.397  10.746  69.147  1.00  0.00    -0.348 C  
HETATM   22  C   UNL     1     -10.853  11.726  68.409  1.00  0.00    -0.260 C  
BRANCH  22  23
HETATM   23  C   UNL     1      -9.406  12.115  68.406  1.00  0.00    -0.170 C  
HETATM   24  C   UNL     1      -9.042  12.913  67.167  1.00  0.00    -0.220 C  
ENDBRANCH  22  23
ENDBRANCH  20  21
ENDBRANCH  19  20
ENDBRANCH  17  18
ENDBRANCH  16  17
ENDBRANCH  14  15
ENDBRANCH  13  14
ENDBRANCH  11  12
ENDBRANCH  10  11
ENDBRANCH   8   9
ENDBRANCH   7   8
ENDBRANCH   6   7
ENDBRANCH   4   6
ENDBRANCH   3   4
ENDBRANCH   2   3
TORSDOF 15
ENDMDL
MODEL      161
REMARK 921   NORMALIZED FREE ENERGY PREDICTED BY IDOCK:   -4.20 KCAL/MOL
REMARK 922        TOTAL FREE ENERGY PREDICTED BY IDOCK:  -10.43 KCAL/MOL
REMARK 923 INTER-LIGAND FREE ENERGY PREDICTED BY IDOCK:   -7.29 KCAL/MOL
REMARK 924 INTRA-LIGAND FREE ENERGY PREDICTED BY IDOCK:   -3.14 KCAL/MOL
REMARK 927      BINDING AFFINITY PREDICTED BY RF-SCORE:    0.00 PKD
ROOT
HETATM    1  C   UNL     1     -12.026  13.861  69.013  1.00  0.00    -0.402 C  
HETATM    2  C   UNL     1     -11.691  15.310  68.707  1.00  0.00    -0.353 C  
ENDROOT
BRANCH   2   3
HETATM    3  O   UNL     1     -10.530  15.316  67.868  1.00  0.00    -0.246 OA 
BRANCH   3   4
HETATM    4  C   UNL     1     -10.543  16.276  66.901  1.00  0.00    -0.270 C  
HETATM    5  O   UNL     1     -10.755  17.464  67.083  1.00  0.00    -0.295 OA 
BRANCH   4   6
HETATM    6  C   UNL     1     -10.151  15.646  65.593  1.00  0.00    -0.395 C  
BRANCH   6   7
HETATM    7  C   UNL     1     -11.388  15.103  64.871  1.00  0.00    -0.402 C  
BRANCH   7   8
HETATM    8  C   UNL     1     -11.187  13.674  64.390  1.00  0.00    -0.382 C  
BRANCH   8   9
HETATM    9  C   UNL     1     -11.951  12.676  65.225  1.00  0.00    -0.487 C  
HETATM   10  C   UNL     1     -11.401  11.723  65.994  1.00  0.00    -0.335 C  
BRANCH  10  11
HETATM   11  C   UNL     1      -9.942  11.403  66.016  1.00  0.00    -0.269 C  
BRANCH  11  12
HETATM   12  C   UNL     1      -9.131  12.194  66.996  1.00  0.00    -0.198 C  
HETATM   13  C   UNL     1      -8.913  11.804  68.265  1.00  0.00    -0.180 C  
BRANCH  13  14
HETATM   14  C   UNL     1      -9.394  10.548  68.957  1.00  0.00    -0.205 C  
BRANCH  14  15
HETATM   15  C   UNL     1      -8.519   9.335  68.772  1.00  0.00    -0.129 C  
HETATM   16  C   UNL     1      -8.910   8.144  68.294  1.00  0.00    -0.133 C  
BRANCH  16  17
HETATM   17  C   UNL     1     -10.327   7.758  68.027  1.00  0.00    -0.263 C  
BRANCH  17  18
HETATM   18  C   UNL     1     -10.598   6.417  68.654  1.00  0.00    -0.300 C  
HETATM   19  C   UNL     1     -11.354   6.228  69.745  1.00  0.00    -0.506 C  
BRANCH  19  20
HETATM   20  C   UNL     1     -12.017   7.321  70.514  1.00  0.00    -0.200 C  
BRANCH  20  21
HETATM   21  C   UNL     1     -11.860   7.151  71.995  1.00  0.00    -0.333 C  
HETATM   22  C   UNL     1     -10.901   7.741  72.726  1.00  0.00    -0.438 C  
BRANCH  22  23
HETATM   23  C   UNL     1      -9.816   8.625  72.191  1.00  0.00    -0.387 C  
HETATM   24  C   UNL     1      -8.457   7.955  72.271  1.00  0.00    -0.185 C  
ENDBRANCH  22  23
ENDBRANCH  20  21
ENDBRANCH  19  20
ENDBRANCH  17  18
ENDBRANCH  16  17
ENDBRANCH  14  15
ENDBRANCH  13  14
ENDBRANCH  11  12
ENDBRANCH  10  11
ENDBRANCH   8   9
ENDBRANCH   7   8
ENDBRANCH   6   7
ENDBRANCH   4   6
ENDBRANCH   3   4
ENDBRANCH   2   3
TORSDOF 15
ENDMDL
MODEL      162
REMARK 921   NORMALIZED FREE ENERGY PREDICTED BY IDOCK:   -4.20 KCAL/MOL
REMARK 922        TOTAL FREE ENERGY PREDICTED BY IDOCK:  -10.43 KCAL/MOL
REMARK 923 INTER-LIGAND FREE ENERGY PREDICTED BY IDOCK:   -7.86 KCAL/MOL
REMARK 924 INTRA-LIGAND FREE ENERGY PREDICTED BY IDOCK:   -2.57 KCAL/MOL
REMARK 927      BINDING AFFINITY PREDICTED BY RF-SCORE:    0.00 PKD
ROOT
HETATM    1  C   UNL     1     -14.341  14.991  71.803  1.00  0.00    -0.674 C  
HETATM    2  C   UNL     1     -13.006  14.280  71.685  1.00  0.00    -0.346 C  
ENDROOT
BRANCH   2   3
HETATM    3  O   UNL     1     -13.257  12.873  71.779  1.00  0.00    -0.422 OA 
BRANCH   3   4
HETATM    4  C   UNL     1     -12.626  12.127  70.829  1.00  0.00    -0.216 C  
HETATM    5  O   UNL     1     -12.773  10.928  70.655  1.00  0.00    -0.333 OA 
BRANCH   4   6
HETATM    6  C   UNL     1     -11.801  13.043  69.967  1.00  0.00    -0.355 C  
BRANCH   6   7
HETATM    7  C   UNL     1     -12.035  12.731  68.485  1.00  0.00    -0.265 C  
BRANCH   7   8
HETATM    8  C   UNL     1     -11.914  13.973  67.616  1.00  0.00    -0.404 C  
BRANCH   8   9
HETATM    9  C   UNL     1     -12.669  13.837  66.316  1.00  0.00    -0.258 C  
HETATM   10  C   UNL     1     -12.142  13.428  65.151  1.00  0.00    -0.442 C  
BRANCH  10  11
HETATM   11  C   UNL     1     -10.683  13.198  64.926  1.00  0.00    -0.362 C  
BRANCH  11  12
HETATM   12  C   UNL     1     -10.261  11.761  64.904  1.00  0.00    -0.315 C  
HETATM   13  C   UNL     1      -9.558  11.178  65.892  1.00  0.00    -0.250 C  
BRANCH  13  14
HETATM   14  C   UNL     1      -9.068  11.792  67.184  1.00  0.00    -0.175 C  
BRANCH  14  15
HETATM   15  C   UNL     1      -7.677  12.370  67.136  1.00  0.00    -0.122 C  
HETATM   16  C   UNL     1      -7.322  13.609  67.510  1.00  0.00    -0.178 C  
BRANCH  16  17
HETATM   17  C   UNL     1      -8.280  14.695  67.874  1.00  0.00    -0.152 C  
BRANCH  17  18
HETATM   18  C   UNL     1      -8.791  15.342  66.614  1.00  0.00    -0.328 C  
HETATM   19  C   UNL     1      -8.470  16.580  66.212  1.00  0.00    -0.363 C  
BRANCH  19  20
HETATM   20  C   UNL     1      -7.580  17.510  66.968  1.00  0.00    -0.235 C  
BRANCH  20  21
HETATM   21  C   UNL     1      -7.651  18.913  66.447  1.00  0.00    -0.281 C  
HETATM   22  C   UNL     1      -8.499  19.847  66.904  1.00  0.00    -0.379 C  
BRANCH  22  23
HETATM   23  C   UNL     1      -9.534  19.641  67.968  1.00  0.00    -0.446 C  
HETATM   24  C   UNL     1     -10.874  19.242  67.377  1.00  0.00    -0.554 C  
ENDBRANCH  22  23
ENDBRANCH  20  21
ENDBRANCH  19  20
ENDBRANCH  17  18
ENDBRANCH  16  17
ENDBRANCH  14  15
ENDBRANCH  13  14
ENDBRANCH  11  12
ENDBRANCH  10  11
ENDBRANCH   8   9
ENDBRANCH   7   8
ENDBRANCH   6   7
ENDBRANCH   4   6
ENDBRANCH   3   4
ENDBRANCH   2   3
TORSDOF 15
ENDMDL
MODEL      163
REMARK 921   NORMALIZED FREE ENERGY PREDICTED BY IDOCK:   -4.19 KCAL/MOL
REMARK 922        TOTAL FREE ENERGY PREDICTED BY IDOCK:  -10.42 KCAL/MOL
REMARK 923 INTER-LIGAND FREE ENERGY PREDICTED BY IDOCK:   -7.31 KCAL/MOL
REMARK 924 INTRA-LIGAND FREE ENERGY PREDICTED BY IDOCK:   -3.11 KCAL/MOL
REMARK 927      BINDING AFFINITY PREDICTED BY RF-SCORE:    0.00 PKD
ROOT
HETATM    1  C   UNL     1     -12.679  14.074  65.321  1.00  0.00    -0.468 C  
HETATM    2  C   UNL     1     -11.491  13.508  64.564  1.00  0.00    -0.381 C  
ENDROOT
BRANCH   2   3
HETATM    3  O   UNL     1     -11.614  12.081  64.573  1.00  0.00    -0.339 OA 
BRANCH   3   4
HETATM    4  C   UNL     1     -10.547  11.431  65.118  1.00  0.00    -0.293 C  
HETATM    5  O   UNL     1      -9.634  10.918  64.493  1.00  0.00    -0.226 OA 
BRANCH   4   6
HETATM    6  C   UNL     1     -10.629  11.544  66.616  1.00  0.00    -0.294 C  
BRANCH   6   7
HETATM    7  C   UNL     1      -9.227  11.492  67.230  1.00  0.00    -0.168 C  
BRANCH   7   8
HETATM    8  C   UNL     1      -8.978  12.653  68.181  1.00  0.00    -0.199 C  
BRANCH   8   9
HETATM    9  C   UNL     1      -7.949  13.619  67.648  1.00  0.00    -0.180 C  
HETATM   10  C   UNL     1      -8.213  14.832  67.136  1.00  0.00    -0.239 C  
BRANCH  10  11
HETATM   11  C   UNL     1      -9.590  15.346  66.870  1.00  0.00    -0.239 C  
BRANCH  11  12
HETATM   12  C   UNL     1     -10.134  16.276  67.910  1.00  0.00    -0.247 C  
HETATM   13  C   UNL     1     -11.143  15.953  68.739  1.00  0.00    -0.328 C  
BRANCH  13  14
HETATM   14  C   UNL     1     -11.909  14.652  68.823  1.00  0.00    -0.348 C  
BRANCH  14  15
HETATM   15  C   UNL     1     -12.432  14.299  70.192  1.00  0.00    -0.393 C  
HETATM   16  C   UNL     1     -12.419  13.080  70.753  1.00  0.00    -0.384 C  
BRANCH  16  17
HETATM   17  C   UNL     1     -12.043  11.821  70.043  1.00  0.00    -0.387 C  
BRANCH  17  18
HETATM   18  C   UNL     1     -12.268  10.652  70.964  1.00  0.00    -0.498 C  
HETATM   19  C   UNL     1     -11.388   9.659  71.160  1.00  0.00    -0.456 C  
BRANCH  19  20
HETATM   20  C   UNL     1     -10.068   9.552  70.473  1.00  0.00    -0.347 C  
BRANCH  20  21
HETATM   21  C   UNL     1      -9.673   8.128  70.219  1.00  0.00    -0.175 C  
HETATM   22  C   UNL     1      -9.866   7.487  69.055  1.00  0.00    -0.170 C  
BRANCH  22  23
HETATM   23  C   UNL     1     -10.535   8.060  67.843  1.00  0.00    -0.259 C  
HETATM   24  C   UNL     1      -9.634   7.998  66.623  1.00  0.00    -0.297 C  
ENDBRANCH  22  23
ENDBRANCH  20  21
ENDBRANCH  19  20
ENDBRANCH  17  18
ENDBRANCH  16  17
ENDBRANCH  14  15
ENDBRANCH  13  14
ENDBRANCH  11  12
ENDBRANCH  10  11
ENDBRANCH   8   9
ENDBRANCH   7   8
ENDBRANCH   6   7
ENDBRANCH   4   6
ENDBRANCH   3   4
ENDBRANCH   2   3
TORSDOF 15
ENDMDL
MODEL      164
REMARK 921   NORMALIZED FREE ENERGY PREDICTED BY IDOCK:   -4.19 KCAL/MOL
REMARK 922        TOTAL FREE ENERGY PREDICTED BY IDOCK:  -10.41 KCAL/MOL
REMARK 923 INTER-LIGAND FREE ENERGY PREDICTED BY IDOCK:   -7.69 KCAL/MOL
REMARK 924 INTRA-LIGAND FREE ENERGY PREDICTED BY IDOCK:   -2.72 KCAL/MOL
REMARK 927      BINDING AFFINITY PREDICTED BY RF-SCORE:    0.00 PKD
ROOT
HETATM    1  C   UNL     1      -9.049   3.449  66.428  1.00  0.00    -0.166 C  
HETATM    2  C   UNL     1      -9.203   4.784  67.134  1.00  0.00    -0.127 C  
ENDROOT
BRANCH   2   3
HETATM    3  O   UNL     1     -10.551   5.226  66.930  1.00  0.00    -0.260 OA 
BRANCH   3   4
HETATM    4  C   UNL     1     -10.888   6.340  67.639  1.00  0.00    -0.346 C  
HETATM    5  O   UNL     1     -11.287   6.353  68.792  1.00  0.00    -0.327 OA 
BRANCH   4   6
HETATM    6  C   UNL     1     -10.585   7.553  66.803  1.00  0.00    -0.269 C  
BRANCH   6   7
HETATM    7  C   UNL     1     -10.531   8.805  67.683  1.00  0.00    -0.310 C  
BRANCH   7   8
HETATM    8  C   UNL     1      -9.121   9.101  68.169  1.00  0.00    -0.134 C  
BRANCH   8   9
HETATM    9  C   UNL     1      -9.112   9.910  69.443  1.00  0.00    -0.216 C  
HETATM   10  C   UNL     1      -9.111   9.402  70.686  1.00  0.00    -0.292 C  
BRANCH  10  11
HETATM   11  C   UNL     1      -9.278   7.951  70.998  1.00  0.00    -0.164 C  
BRANCH  11  12
HETATM   12  C   UNL     1      -9.726   7.648  72.395  1.00  0.00    -0.231 C  
HETATM   13  C   UNL     1     -11.017   7.622  72.771  1.00  0.00    -0.432 C  
BRANCH  13  14
HETATM   14  C   UNL     1     -12.247   7.866  71.925  1.00  0.00    -0.351 C  
BRANCH  14  15
HETATM   15  C   UNL     1     -13.103   9.030  72.352  1.00  0.00    -0.487 C  
HETATM   16  C   UNL     1     -13.310  10.158  71.654  1.00  0.00    -0.463 C  
BRANCH  16  17
HETATM   17  C   UNL     1     -12.581  10.530  70.404  1.00  0.00    -0.364 C  
BRANCH  17  18
HETATM   18  C   UNL     1     -12.134  11.963  70.506  1.00  0.00    -0.422 C  
HETATM   19  C   UNL     1     -11.787  12.726  69.459  1.00  0.00    -0.379 C  
BRANCH  19  20
HETATM   20  C   UNL     1     -11.767  12.259  68.042  1.00  0.00    -0.417 C  
BRANCH  20  21
HETATM   21  C   UNL     1     -11.553  13.384  67.075  1.00  0.00    -0.396 C  
HETATM   22  C   UNL     1     -11.084  13.229  65.827  1.00  0.00    -0.296 C  
BRANCH  22  23
HETATM   23  C   UNL     1     -10.660  11.932  65.209  1.00  0.00    -0.320 C  
HETATM   24  C   UNL     1     -11.256  11.749  63.825  1.00  0.00    -0.518 C  
ENDBRANCH  22  23
ENDBRANCH  20  21
ENDBRANCH  19  20
ENDBRANCH  17  18
ENDBRANCH  16  17
ENDBRANCH  14  15
ENDBRANCH  13  14
ENDBRANCH  11  12
ENDBRANCH  10  11
ENDBRANCH   8   9
ENDBRANCH   7   8
ENDBRANCH   6   7
ENDBRANCH   4   6
ENDBRANCH   3   4
ENDBRANCH   2   3
TORSDOF 15
ENDMDL
MODEL      165
REMARK 921   NORMALIZED FREE ENERGY PREDICTED BY IDOCK:   -4.19 KCAL/MOL
REMARK 922        TOTAL FREE ENERGY PREDICTED BY IDOCK:  -10.41 KCAL/MOL
REMARK 923 INTER-LIGAND FREE ENERGY PREDICTED BY IDOCK:   -8.65 KCAL/MOL
REMARK 924 INTRA-LIGAND FREE ENERGY PREDICTED BY IDOCK:   -1.76 KCAL/MOL
REMARK 927      BINDING AFFINITY PREDICTED BY RF-SCORE:    0.00 PKD
ROOT
HETATM    1  C   UNL     1     -13.652  15.724  72.802  1.00  0.00    -0.662 C  
HETATM    2  C   UNL     1     -14.382  14.698  71.954  1.00  0.00    -0.571 C  
ENDROOT
BRANCH   2   3
HETATM    3  O   UNL     1     -14.084  13.404  72.491  1.00  0.00    -0.726 OA 
BRANCH   3   4
HETATM    4  C   UNL     1     -13.175  12.693  71.766  1.00  0.00    -0.359 C  
HETATM    5  O   UNL     1     -12.304  13.170  71.057  1.00  0.00    -0.358 OA 
BRANCH   4   6
HETATM    6  C   UNL     1     -13.355  11.231  72.068  1.00  0.00    -0.386 C  
BRANCH   6   7
HETATM    7  C   UNL     1     -12.692  10.378  70.982  1.00  0.00    -0.490 C  
BRANCH   7   8
HETATM    8  C   UNL     1     -11.574   9.512  71.541  1.00  0.00    -0.465 C  
BRANCH   8   9
HETATM    9  C   UNL     1     -12.099   8.310  72.288  1.00  0.00    -0.439 C  
HETATM   10  C   UNL     1     -12.147   7.057  71.808  1.00  0.00    -0.371 C  
BRANCH  10  11
HETATM   11  C   UNL     1     -11.830   6.688  70.396  1.00  0.00    -0.407 C  
BRANCH  11  12
HETATM   12  C   UNL     1     -10.539   5.953  70.203  1.00  0.00    -0.362 C  
HETATM   13  C   UNL     1      -9.348   6.567  70.077  1.00  0.00    -0.160 C  
BRANCH  13  14
HETATM   14  C   UNL     1      -9.046   8.048  70.110  1.00  0.00    -0.151 C  
BRANCH  14  15
HETATM   15  C   UNL     1      -8.056   8.528  69.080  1.00  0.00    -0.117 C  
HETATM   16  C   UNL     1      -8.325   8.809  67.796  1.00  0.00    -0.118 C  
BRANCH  16  17
HETATM   17  C   UNL     1      -9.624   8.524  67.117  1.00  0.00    -0.232 C  
BRANCH  17  18
HETATM   18  C   UNL     1     -10.706   9.347  67.764  1.00  0.00    -0.290 C  
HETATM   19  C   UNL     1     -11.012  10.606  67.418  1.00  0.00    -0.361 C  
BRANCH  19  20
HETATM   20  C   UNL     1     -10.307  11.387  66.360  1.00  0.00    -0.284 C  
BRANCH  20  21
HETATM   21  C   UNL     1     -11.205  11.720  65.206  1.00  0.00    -0.315 C  
HETATM   22  C   UNL     1     -10.834  11.661  63.918  1.00  0.00    -0.471 C  
BRANCH  22  23
HETATM   23  C   UNL     1      -9.468  11.297  63.419  1.00  0.00    -0.307 C  
HETATM   24  C   UNL     1      -9.519  10.133  62.446  1.00  0.00    -0.244 C  
ENDBRANCH  22  23
ENDBRANCH  20  21
ENDBRANCH  19  20
ENDBRANCH  17  18
ENDBRANCH  16  17
ENDBRANCH  14  15
ENDBRANCH  13  14
ENDBRANCH  11  12
ENDBRANCH  10  11
ENDBRANCH   8   9
ENDBRANCH   7   8
ENDBRANCH   6   7
ENDBRANCH   4   6
ENDBRANCH   3   4
ENDBRANCH   2   3
TORSDOF 15
ENDMDL
MODEL      166
REMARK 921   NORMALIZED FREE ENERGY PREDICTED BY IDOCK:   -4.19 KCAL/MOL
REMARK 922        TOTAL FREE ENERGY PREDICTED BY IDOCK:  -10.41 KCAL/MOL
REMARK 923 INTER-LIGAND FREE ENERGY PREDICTED BY IDOCK:   -6.89 KCAL/MOL
REMARK 924 INTRA-LIGAND FREE ENERGY PREDICTED BY IDOCK:   -3.51 KCAL/MOL
REMARK 927      BINDING AFFINITY PREDICTED BY RF-SCORE:    0.00 PKD
ROOT
HETATM    1  C   UNL     1     -10.575  18.932  66.415  1.00  0.00    -0.460 C  
HETATM    2  C   UNL     1      -9.942  17.706  65.784  1.00  0.00    -0.013 C  
ENDROOT
BRANCH   2   3
HETATM    3  O   UNL     1     -10.825  16.601  66.008  1.00  0.00    -0.190 OA 
BRANCH   3   4
HETATM    4  C   UNL     1     -11.214  15.956  64.872  1.00  0.00    -0.337 C  
HETATM    5  O   UNL     1     -11.585  16.495  63.842  1.00  0.00    -1.175 OA 
BRANCH   4   6
HETATM    6  C   UNL     1     -11.009  14.478  65.063  1.00  0.00    -0.408 C  
BRANCH   6   7
HETATM    7  C   UNL     1     -11.667  14.014  66.366  1.00  0.00    -0.407 C  
BRANCH   7   8
HETATM    8  C   UNL     1     -10.887  12.891  67.030  1.00  0.00    -0.282 C  
BRANCH   8   9
HETATM    9  C   UNL     1     -11.783  11.770  67.497  1.00  0.00    -0.312 C  
HETATM   10  C   UNL     1     -11.457  10.846  68.416  1.00  0.00    -0.374 C  
BRANCH  10  11
HETATM   11  C   UNL     1     -10.093  10.694  69.004  1.00  0.00    -0.226 C  
BRANCH  11  12
HETATM   12  C   UNL     1      -9.338   9.481  68.556  1.00  0.00    -0.138 C  
HETATM   13  C   UNL     1      -8.489   9.478  67.512  1.00  0.00    -0.126 C  
BRANCH  13  14
HETATM   14  C   UNL     1      -8.108  10.630  66.609  1.00  0.00    -0.136 C  
BRANCH  14  15
HETATM   15  C   UNL     1      -6.746  11.225  66.863  1.00  0.00    -0.135 C  
HETATM   16  C   UNL     1      -6.468  12.232  67.705  1.00  0.00    -0.106 C  
BRANCH  16  17
HETATM   17  C   UNL     1      -7.493  13.059  68.409  1.00  0.00    -0.128 C  
BRANCH  17  18
HETATM   18  C   UNL     1      -7.656  14.365  67.678  1.00  0.00    -0.195 C  
HETATM   19  C   UNL     1      -8.342  15.418  68.148  1.00  0.00    -0.145 C  
BRANCH  19  20
HETATM   20  C   UNL     1      -9.066  15.441  69.452  1.00  0.00    -0.258 C  
BRANCH  20  21
HETATM   21  C   UNL     1     -10.398  16.122  69.351  1.00  0.00    -0.277 C  
HETATM   22  C   UNL     1     -11.460  15.821  70.114  1.00  0.00    -0.366 C  
BRANCH  22  23
HETATM   23  C   UNL     1     -11.510  14.744  71.154  1.00  0.00    -0.263 C  
HETATM   24  C   UNL     1     -12.385  13.583  70.717  1.00  0.00    -0.440 C  
ENDBRANCH  22  23
ENDBRANCH  20  21
ENDBRANCH  19  20
ENDBRANCH  17  18
ENDBRANCH  16  17
ENDBRANCH  14  15
ENDBRANCH  13  14
ENDBRANCH  11  12
ENDBRANCH  10  11
ENDBRANCH   8   9
ENDBRANCH   7   8
ENDBRANCH   6   7
ENDBRANCH   4   6
ENDBRANCH   3   4
ENDBRANCH   2   3
TORSDOF 15
ENDMDL
MODEL      167
REMARK 921   NORMALIZED FREE ENERGY PREDICTED BY IDOCK:   -4.18 KCAL/MOL
REMARK 922        TOTAL FREE ENERGY PREDICTED BY IDOCK:  -10.40 KCAL/MOL
REMARK 923 INTER-LIGAND FREE ENERGY PREDICTED BY IDOCK:   -8.37 KCAL/MOL
REMARK 924 INTRA-LIGAND FREE ENERGY PREDICTED BY IDOCK:   -2.02 KCAL/MOL
REMARK 927      BINDING AFFINITY PREDICTED BY RF-SCORE:    0.00 PKD
ROOT
HETATM    1  C   UNL     1     -10.453   5.542  69.465  1.00  0.00    -0.368 C  
HETATM    2  C   UNL     1     -10.071   5.293  70.912  1.00  0.00    -0.226 C  
ENDROOT
BRANCH   2   3
HETATM    3  O   UNL     1     -11.176   5.701  71.727  1.00  0.00    -0.242 OA 
BRANCH   3   4
HETATM    4  C   UNL     1     -10.843   5.999  73.014  1.00  0.00    -0.260 C  
HETATM    5  O   UNL     1     -10.618   5.186  73.895  1.00  0.00    -0.253 OA 
BRANCH   4   6
HETATM    6  C   UNL     1     -10.697   7.491  73.141  1.00  0.00    -0.452 C  
BRANCH   6   7
HETATM    7  C   UNL     1     -11.763   8.203  72.303  1.00  0.00    -0.439 C  
BRANCH   7   8
HETATM    8  C   UNL     1     -11.236   9.486  71.680  1.00  0.00    -0.378 C  
BRANCH   8   9
HETATM    9  C   UNL     1     -10.004   9.251  70.841  1.00  0.00    -0.367 C  
HETATM   10  C   UNL     1      -9.609  10.013  69.809  1.00  0.00    -0.249 C  
BRANCH  10  11
HETATM   11  C   UNL     1     -10.420  11.127  69.232  1.00  0.00    -0.183 C  
BRANCH  11  12
HETATM   12  C   UNL     1     -11.239  10.763  68.032  1.00  0.00    -0.372 C  
HETATM   13  C   UNL     1     -10.983  11.219  66.793  1.00  0.00    -0.339 C  
BRANCH  13  14
HETATM   14  C   UNL     1      -9.870  12.137  66.341  1.00  0.00    -0.242 C  
BRANCH  14  15
HETATM   15  C   UNL     1     -10.270  13.190  65.340  1.00  0.00    -0.301 C  
HETATM   16  C   UNL     1     -10.913  14.336  65.611  1.00  0.00    -0.309 C  
BRANCH  16  17
HETATM   17  C   UNL     1     -11.503  14.686  66.937  1.00  0.00    -0.372 C  
BRANCH  17  18
HETATM   18  C   UNL     1     -10.431  15.280  67.811  1.00  0.00    -0.253 C  
HETATM   19  C   UNL     1     -10.416  15.211  69.150  1.00  0.00    -0.252 C  
BRANCH  19  20
HETATM   20  C   UNL     1     -11.475  14.557  69.973  1.00  0.00    -0.311 C  
BRANCH  20  21
HETATM   21  C   UNL     1     -12.583  15.502  70.329  1.00  0.00    -0.362 C  
HETATM   22  C   UNL     1     -13.245  15.484  71.497  1.00  0.00    -0.589 C  
BRANCH  22  23
HETATM   23  C   UNL     1     -13.023  14.508  72.611  1.00  0.00    -0.538 C  
HETATM   24  C   UNL     1     -12.493  15.192  73.858  1.00  0.00    -0.715 C  
ENDBRANCH  22  23
ENDBRANCH  20  21
ENDBRANCH  19  20
ENDBRANCH  17  18
ENDBRANCH  16  17
ENDBRANCH  14  15
ENDBRANCH  13  14
ENDBRANCH  11  12
ENDBRANCH  10  11
ENDBRANCH   8   9
ENDBRANCH   7   8
ENDBRANCH   6   7
ENDBRANCH   4   6
ENDBRANCH   3   4
ENDBRANCH   2   3
TORSDOF 15
ENDMDL
MODEL      168
REMARK 921   NORMALIZED FREE ENERGY PREDICTED BY IDOCK:   -4.17 KCAL/MOL
REMARK 922        TOTAL FREE ENERGY PREDICTED BY IDOCK:  -10.38 KCAL/MOL
REMARK 923 INTER-LIGAND FREE ENERGY PREDICTED BY IDOCK:   -8.04 KCAL/MOL
REMARK 924 INTRA-LIGAND FREE ENERGY PREDICTED BY IDOCK:   -2.33 KCAL/MOL
REMARK 927      BINDING AFFINITY PREDICTED BY RF-SCORE:    0.00 PKD
ROOT
HETATM    1  C   UNL     1     -10.658   4.948  66.259  1.00  0.00    -0.307 C  
HETATM    2  C   UNL     1     -10.493   5.101  67.760  1.00  0.00    -0.043 C  
ENDROOT
BRANCH   2   3
HETATM    3  O   UNL     1      -9.840   6.355  67.996  1.00  0.00    -0.120 OA 
BRANCH   3   4
HETATM    4  C   UNL     1      -9.913   6.790  69.285  1.00  0.00    -0.160 C  
HETATM    5  O   UNL     1      -9.107   7.525  69.833  1.00  0.00    -0.144 OA 
BRANCH   4   6
HETATM    6  C   UNL     1     -11.202   6.301  69.887  1.00  0.00    -0.498 C  
BRANCH   6   7
HETATM    7  C   UNL     1     -11.013   6.000  71.377  1.00  0.00    -0.336 C  
BRANCH   7   8
HETATM    8  C   UNL     1     -11.475   7.153  72.254  1.00  0.00    -0.309 C  
BRANCH   8   9
HETATM    9  C   UNL     1     -12.802   7.715  71.809  1.00  0.00    -0.357 C  
HETATM   10  C   UNL     1     -13.003   8.958  71.342  1.00  0.00    -0.323 C  
BRANCH  10  11
HETATM   11  C   UNL     1     -11.962  10.030  71.341  1.00  0.00    -0.470 C  
BRANCH  11  12
HETATM   12  C   UNL     1     -12.352  11.295  70.641  1.00  0.00    -0.477 C  
HETATM   13  C   UNL     1     -11.697  11.784  69.572  1.00  0.00    -0.408 C  
BRANCH  13  14
HETATM   14  C   UNL     1     -10.496  11.202  68.860  1.00  0.00    -0.233 C  
BRANCH  14  15
HETATM   15  C   UNL     1     -10.789  10.037  67.949  1.00  0.00    -0.323 C  
HETATM   16  C   UNL     1     -10.432   9.932  66.660  1.00  0.00    -0.239 C  
BRANCH  16  17
HETATM   17  C   UNL     1      -9.832  11.036  65.851  1.00  0.00    -0.278 C  
BRANCH  17  18
HETATM   18  C   UNL     1     -10.282  10.896  64.421  1.00  0.00    -0.423 C  
HETATM   19  C   UNL     1     -10.905  11.857  63.724  1.00  0.00    -0.481 C  
BRANCH  19  20
HETATM   20  C   UNL     1     -11.268  13.197  64.270  1.00  0.00    -0.422 C  
BRANCH  20  21
HETATM   21  C   UNL     1     -12.388  13.121  65.263  1.00  0.00    -0.532 C  
HETATM   22  C   UNL     1     -12.394  13.758  66.445  1.00  0.00    -0.460 C  
BRANCH  22  23
HETATM   23  C   UNL     1     -11.284  14.606  66.985  1.00  0.00    -0.348 C  
HETATM   24  C   UNL     1     -11.567  15.064  68.404  1.00  0.00    -0.352 C  
ENDBRANCH  22  23
ENDBRANCH  20  21
ENDBRANCH  19  20
ENDBRANCH  17  18
ENDBRANCH  16  17
ENDBRANCH  14  15
ENDBRANCH  13  14
ENDBRANCH  11  12
ENDBRANCH  10  11
ENDBRANCH   8   9
ENDBRANCH   7   8
ENDBRANCH   6   7
ENDBRANCH   4   6
ENDBRANCH   3   4
ENDBRANCH   2   3
TORSDOF 15
ENDMDL
MODEL      169
REMARK 921   NORMALIZED FREE ENERGY PREDICTED BY IDOCK:   -4.16 KCAL/MOL
REMARK 922        TOTAL FREE ENERGY PREDICTED BY IDOCK:  -10.35 KCAL/MOL
REMARK 923 INTER-LIGAND FREE ENERGY PREDICTED BY IDOCK:   -7.08 KCAL/MOL
REMARK 924 INTRA-LIGAND FREE ENERGY PREDICTED BY IDOCK:   -3.27 KCAL/MOL
REMARK 927      BINDING AFFINITY PREDICTED BY RF-SCORE:    0.00 PKD
ROOT
HETATM    1  C   UNL     1     -10.284  10.769  64.278  1.00  0.00    -0.422 C  
HETATM    2  C   UNL     1     -10.993  12.010  63.767  1.00  0.00    -0.426 C  
ENDROOT
BRANCH   2   3
HETATM    3  O   UNL     1     -11.023  12.961  64.838  1.00  0.00    -0.284 OA 
BRANCH   3   4
HETATM    4  C   UNL     1     -12.259  13.160  65.375  1.00  0.00    -0.461 C  
HETATM    5  O   UNL     1     -13.311  12.760  64.903  1.00  0.00    -0.736 OA 
BRANCH   4   6
HETATM    6  C   UNL     1     -12.103  13.860  66.697  1.00  0.00    -0.485 C  
BRANCH   6   7
HETATM    7  C   UNL     1     -11.913  12.837  67.822  1.00  0.00    -0.316 C  
BRANCH   7   8
HETATM    8  C   UNL     1     -11.260  13.454  69.049  1.00  0.00    -0.323 C  
BRANCH   8   9
HETATM    9  C   UNL     1     -12.150  14.473  69.719  1.00  0.00    -0.380 C  
HETATM   10  C   UNL     1     -11.875  15.781  69.845  1.00  0.00    -0.355 C  
BRANCH  10  11
HETATM   11  C   UNL     1     -10.566  16.401  69.478  1.00  0.00    -0.320 C  
BRANCH  11  12
HETATM   12  C   UNL     1     -10.557  17.151  68.182  1.00  0.00    -0.380 C  
HETATM   13  C   UNL     1      -9.518  17.896  67.762  1.00  0.00    -0.263 C  
BRANCH  13  14
HETATM   14  C   UNL     1      -8.191  18.128  68.449  1.00  0.00    -0.314 C  
BRANCH  14  15
HETATM   15  C   UNL     1      -6.981  17.644  67.692  1.00  0.00    -0.186 C  
HETATM   16  C   UNL     1      -6.662  16.365  67.445  1.00  0.00    -0.201 C  
BRANCH  16  17
HETATM   17  C   UNL     1      -7.363  15.185  68.034  1.00  0.00    -0.133 C  
BRANCH  17  18
HETATM   18  C   UNL     1      -8.208  14.536  66.971  1.00  0.00    -0.164 C  
HETATM   19  C   UNL     1      -8.516  13.231  66.937  1.00  0.00    -0.074 C  
BRANCH  19  20
HETATM   20  C   UNL     1      -8.045  12.225  67.933  1.00  0.00    -0.155 C  
BRANCH  20  21
HETATM   21  C   UNL     1      -8.428  10.826  67.553  1.00  0.00    -0.119 C  
HETATM   22  C   UNL     1      -9.105   9.986  68.351  1.00  0.00    -0.121 C  
BRANCH  22  23
HETATM   23  C   UNL     1      -9.551  10.280  69.751  1.00  0.00    -0.146 C  
HETATM   24  C   UNL     1     -10.978   9.823  69.993  1.00  0.00    -0.319 C  
ENDBRANCH  22  23
ENDBRANCH  20  21
ENDBRANCH  19  20
ENDBRANCH  17  18
ENDBRANCH  16  17
ENDBRANCH  14  15
ENDBRANCH  13  14
ENDBRANCH  11  12
ENDBRANCH  10  11
ENDBRANCH   8   9
ENDBRANCH   7   8
ENDBRANCH   6   7
ENDBRANCH   4   6
ENDBRANCH   3   4
ENDBRANCH   2   3
TORSDOF 15
ENDMDL
MODEL      170
REMARK 921   NORMALIZED FREE ENERGY PREDICTED BY IDOCK:   -4.16 KCAL/MOL
REMARK 922        TOTAL FREE ENERGY PREDICTED BY IDOCK:  -10.35 KCAL/MOL
REMARK 923 INTER-LIGAND FREE ENERGY PREDICTED BY IDOCK:   -8.01 KCAL/MOL
REMARK 924 INTRA-LIGAND FREE ENERGY PREDICTED BY IDOCK:   -2.34 KCAL/MOL
REMARK 927      BINDING AFFINITY PREDICTED BY RF-SCORE:    0.00 PKD
ROOT
HETATM    1  C   UNL     1      -8.666   8.212  73.229  1.00  0.00    -0.313 C  
HETATM    2  C   UNL     1      -9.913   7.372  73.438  1.00  0.00    -0.314 C  
ENDROOT
BRANCH   2   3
HETATM    3  O   UNL     1     -10.117   6.599  72.250  1.00  0.00    -0.175 OA 
BRANCH   3   4
HETATM    4  C   UNL     1     -11.390   6.140  72.091  1.00  0.00    -0.299 C  
HETATM    5  O   UNL     1     -11.901   5.234  72.729  1.00  0.00    -0.251 OA 
BRANCH   4   6
HETATM    6  C   UNL     1     -12.091   7.003  71.078  1.00  0.00    -0.413 C  
BRANCH   6   7
HETATM    7  C   UNL     1     -13.132   7.892  71.766  1.00  0.00    -0.352 C  
BRANCH   7   8
HETATM    8  C   UNL     1     -12.665   9.335  71.878  1.00  0.00    -0.474 C  
BRANCH   8   9
HETATM    9  C   UNL     1     -11.448   9.610  71.030  1.00  0.00    -0.444 C  
HETATM   10  C   UNL     1     -11.308  10.641  70.181  1.00  0.00    -0.402 C  
BRANCH  10  11
HETATM   11  C   UNL     1     -12.407  11.589  69.828  1.00  0.00    -0.220 C  
BRANCH  11  12
HETATM   12  C   UNL     1     -12.152  13.021  70.186  1.00  0.00    -0.377 C  
HETATM   13  C   UNL     1     -11.933  13.986  69.274  1.00  0.00    -0.396 C  
BRANCH  13  14
HETATM   14  C   UNL     1     -11.908  13.865  67.767  1.00  0.00    -0.415 C  
BRANCH  14  15
HETATM   15  C   UNL     1     -10.647  14.358  67.102  1.00  0.00    -0.277 C  
HETATM   16  C   UNL     1      -9.481  13.698  67.032  1.00  0.00    -0.252 C  
BRANCH  16  17
HETATM   17  C   UNL     1      -9.177  12.429  67.758  1.00  0.00    -0.193 C  
BRANCH  17  18
HETATM   18  C   UNL     1      -8.011  11.749  67.090  1.00  0.00    -0.166 C  
HETATM   19  C   UNL     1      -8.122  10.770  66.181  1.00  0.00    -0.160 C  
BRANCH  19  20
HETATM   20  C   UNL     1      -9.416  10.191  65.716  1.00  0.00    -0.262 C  
BRANCH  20  21
HETATM   21  C   UNL     1      -9.516  10.152  64.220  1.00  0.00    -0.366 C  
HETATM   22  C   UNL     1     -10.275  10.987  63.492  1.00  0.00    -0.424 C  
BRANCH  22  23
HETATM   23  C   UNL     1     -11.169  12.056  64.041  1.00  0.00    -0.468 C  
HETATM   24  C   UNL     1     -12.556  11.998  63.426  1.00  0.00    -0.592 C  
ENDBRANCH  22  23
ENDBRANCH  20  21
ENDBRANCH  19  20
ENDBRANCH  17  18
ENDBRANCH  16  17
ENDBRANCH  14  15
ENDBRANCH  13  14
ENDBRANCH  11  12
ENDBRANCH  10  11
ENDBRANCH   8   9
ENDBRANCH   7   8
ENDBRANCH   6   7
ENDBRANCH   4   6
ENDBRANCH   3   4
ENDBRANCH   2   3
TORSDOF 15
ENDMDL
MODEL      171
REMARK 921   NORMALIZED FREE ENERGY PREDICTED BY IDOCK:   -4.14 KCAL/MOL
REMARK 922        TOTAL FREE ENERGY PREDICTED BY IDOCK:  -10.33 KCAL/MOL
REMARK 923 INTER-LIGAND FREE ENERGY PREDICTED BY IDOCK:   -8.01 KCAL/MOL
REMARK 924 INTRA-LIGAND FREE ENERGY PREDICTED BY IDOCK:   -2.32 KCAL/MOL
REMARK 927      BINDING AFFINITY PREDICTED BY RF-SCORE:    0.00 PKD
ROOT
HETATM    1  C   UNL     1      -9.409   3.108  64.877  1.00  0.00    -0.149 C  
HETATM    2  C   UNL     1      -8.872   4.351  65.562  1.00  0.00    -0.127 C  
ENDROOT
BRANCH   2   3
HETATM    3  O   UNL     1      -9.946   4.928  66.314  1.00  0.00    -0.186 OA 
BRANCH   3   4
HETATM    4  C   UNL     1      -9.603   6.045  67.013  1.00  0.00    -0.133 C  
HETATM    5  O   UNL     1      -8.483   6.527  67.077  1.00  0.00    -0.112 OA 
BRANCH   4   6
HETATM    6  C   UNL     1     -10.849   6.644  67.606  1.00  0.00    -0.393 C  
BRANCH   6   7
HETATM    7  C   UNL     1     -10.585   7.111  69.041  1.00  0.00    -0.225 C  
BRANCH   7   8
HETATM    8  C   UNL     1     -11.281   6.229  70.065  1.00  0.00    -0.480 C  
BRANCH   8   9
HETATM    9  C   UNL     1     -11.056   6.706  71.479  1.00  0.00    -0.297 C  
HETATM   10  C   UNL     1     -11.846   7.563  72.145  1.00  0.00    -0.338 C  
BRANCH  10  11
HETATM   11  C   UNL     1     -12.989   8.301  71.528  1.00  0.00    -0.310 C  
BRANCH  11  12
HETATM   12  C   UNL     1     -13.099   9.743  71.917  1.00  0.00    -0.544 C  
HETATM   13  C   UNL     1     -12.412  10.730  71.313  1.00  0.00    -0.504 C  
BRANCH  13  14
HETATM   14  C   UNL     1     -11.436  10.626  70.163  1.00  0.00    -0.411 C  
BRANCH  14  15
HETATM   15  C   UNL     1     -11.998  10.971  68.807  1.00  0.00    -0.295 C  
HETATM   16  C   UNL     1     -11.341  10.910  67.639  1.00  0.00    -0.345 C  
BRANCH  16  17
HETATM   17  C   UNL     1      -9.875  10.657  67.501  1.00  0.00    -0.194 C  
BRANCH  17  18
HETATM   18  C   UNL     1      -9.646   9.723  66.344  1.00  0.00    -0.256 C  
HETATM   19  C   UNL     1      -9.584  10.105  65.060  1.00  0.00    -0.362 C  
BRANCH  19  20
HETATM   20  C   UNL     1      -9.761  11.509  64.586  1.00  0.00    -0.242 C  
BRANCH  20  21
HETATM   21  C   UNL     1     -10.796  11.620  63.508  1.00  0.00    -0.497 C  
HETATM   22  C   UNL     1     -11.986  12.221  63.662  1.00  0.00    -0.633 C  
BRANCH  22  23
HETATM   23  C   UNL     1     -12.494  12.839  64.929  1.00  0.00    -0.563 C  
HETATM   24  C   UNL     1     -12.339  14.349  64.918  1.00  0.00    -0.414 C  
ENDBRANCH  22  23
ENDBRANCH  20  21
ENDBRANCH  19  20
ENDBRANCH  17  18
ENDBRANCH  16  17
ENDBRANCH  14  15
ENDBRANCH  13  14
ENDBRANCH  11  12
ENDBRANCH  10  11
ENDBRANCH   8   9
ENDBRANCH   7   8
ENDBRANCH   6   7
ENDBRANCH   4   6
ENDBRANCH   3   4
ENDBRANCH   2   3
TORSDOF 15
ENDMDL
MODEL      172
REMARK 921   NORMALIZED FREE ENERGY PREDICTED BY IDOCK:   -4.14 KCAL/MOL
REMARK 922        TOTAL FREE ENERGY PREDICTED BY IDOCK:  -10.32 KCAL/MOL
REMARK 923 INTER-LIGAND FREE ENERGY PREDICTED BY IDOCK:   -7.93 KCAL/MOL
REMARK 924 INTRA-LIGAND FREE ENERGY PREDICTED BY IDOCK:   -2.39 KCAL/MOL
REMARK 927      BINDING AFFINITY PREDICTED BY RF-SCORE:    0.00 PKD
ROOT
HETATM    1  C   UNL     1     -13.908   8.999  72.176  1.00  0.00    -0.526 C  
HETATM    2  C   UNL     1     -13.659   7.634  71.560  1.00  0.00    -0.353 C  
ENDROOT
BRANCH   2   3
HETATM    3  O   UNL     1     -12.289   7.592  71.145  1.00  0.00    -0.312 OA 
BRANCH   3   4
HETATM    4  C   UNL     1     -11.426   7.152  72.104  1.00  0.00    -0.269 C  
HETATM    5  O   UNL     1     -11.486   6.073  72.670  1.00  0.00    -0.283 OA 
BRANCH   4   6
HETATM    6  C   UNL     1     -10.332   8.170  72.271  1.00  0.00    -0.361 C  
BRANCH   6   7
HETATM    7  C   UNL     1     -10.322   9.141  71.086  1.00  0.00    -0.387 C  
BRANCH   7   8
HETATM    8  C   UNL     1      -9.038   9.042  70.278  1.00  0.00    -0.227 C  
BRANCH   8   9
HETATM    9  C   UNL     1      -8.349   7.711  70.459  1.00  0.00    -0.126 C  
HETATM   10  C   UNL     1      -8.594   6.605  69.739  1.00  0.00    -0.136 C  
BRANCH  10  11
HETATM   11  C   UNL     1      -9.705   6.479  68.749  1.00  0.00    -0.131 C  
BRANCH  11  12
HETATM   12  C   UNL     1      -9.287   6.533  67.312  1.00  0.00    -0.129 C  
HETATM   13  C   UNL     1      -9.525   7.586  66.509  1.00  0.00    -0.237 C  
BRANCH  13  14
HETATM   14  C   UNL     1     -10.215   8.888  66.847  1.00  0.00    -0.347 C  
BRANCH  14  15
HETATM   15  C   UNL     1      -9.400  10.132  66.599  1.00  0.00    -0.195 C  
HETATM   16  C   UNL     1      -9.478  10.926  65.520  1.00  0.00    -0.249 C  
BRANCH  16  17
HETATM   17  C   UNL     1     -10.265  10.613  64.289  1.00  0.00    -0.391 C  
BRANCH  17  18
HETATM   18  C   UNL     1     -10.444  11.874  63.488  1.00  0.00    -0.505 C  
HETATM   19  C   UNL     1     -11.412  12.777  63.699  1.00  0.00    -0.544 C  
BRANCH  19  20
HETATM   20  C   UNL     1     -12.471  12.653  64.743  1.00  0.00    -0.555 C  
BRANCH  20  21
HETATM   21  C   UNL     1     -12.629  13.909  65.546  1.00  0.00    -0.560 C  
HETATM   22  C   UNL     1     -12.097  14.099  66.763  1.00  0.00    -0.474 C  
BRANCH  22  23
HETATM   23  C   UNL     1     -11.302  13.091  67.535  1.00  0.00    -0.346 C  
HETATM   24  C   UNL     1     -11.924  12.803  68.889  1.00  0.00    -0.286 C  
ENDBRANCH  22  23
ENDBRANCH  20  21
ENDBRANCH  19  20
ENDBRANCH  17  18
ENDBRANCH  16  17
ENDBRANCH  14  15
ENDBRANCH  13  14
ENDBRANCH  11  12
ENDBRANCH  10  11
ENDBRANCH   8   9
ENDBRANCH   7   8
ENDBRANCH   6   7
ENDBRANCH   4   6
ENDBRANCH   3   4
ENDBRANCH   2   3
TORSDOF 15
ENDMDL
MODEL      173
REMARK 921   NORMALIZED FREE ENERGY PREDICTED BY IDOCK:   -4.14 KCAL/MOL
REMARK 922        TOTAL FREE ENERGY PREDICTED BY IDOCK:  -10.31 KCAL/MOL
REMARK 923 INTER-LIGAND FREE ENERGY PREDICTED BY IDOCK:   -8.47 KCAL/MOL
REMARK 924 INTRA-LIGAND FREE ENERGY PREDICTED BY IDOCK:   -1.85 KCAL/MOL
REMARK 927      BINDING AFFINITY PREDICTED BY RF-SCORE:    0.00 PKD
ROOT
HETATM    1  C   UNL     1      -9.917  17.516  68.713  1.00  0.00    -0.342 C  
HETATM    2  C   UNL     1     -10.485  16.484  67.756  1.00  0.00    -0.308 C  
ENDROOT
BRANCH   2   3
HETATM    3  O   UNL     1     -11.693  15.978  68.337  1.00  0.00    -0.346 OA 
BRANCH   3   4
HETATM    4  C   UNL     1     -11.745  14.619  68.425  1.00  0.00    -0.320 C  
HETATM    5  O   UNL     1     -12.239  13.986  69.344  1.00  0.00    -0.336 OA 
BRANCH   4   6
HETATM    6  C   UNL     1     -11.190  14.032  67.156  1.00  0.00    -0.327 C  
BRANCH   6   7
HETATM    7  C   UNL     1     -12.315  13.783  66.148  1.00  0.00    -0.496 C  
BRANCH   7   8
HETATM    8  C   UNL     1     -11.843  13.952  64.712  1.00  0.00    -0.414 C  
BRANCH   8   9
HETATM    9  C   UNL     1     -12.285  12.812  63.827  1.00  0.00    -0.572 C  
HETATM   10  C   UNL     1     -11.534  11.749  63.497  1.00  0.00    -0.489 C  
BRANCH  10  11
HETATM   11  C   UNL     1     -10.084  11.611  63.830  1.00  0.00    -0.416 C  
BRANCH  11  12
HETATM   12  C   UNL     1      -9.669  10.259  64.322  1.00  0.00    -0.373 C  
HETATM   13  C   UNL     1      -9.835   9.849  65.593  1.00  0.00    -0.368 C  
BRANCH  13  14
HETATM   14  C   UNL     1     -10.452  10.602  66.750  1.00  0.00    -0.303 C  
BRANCH  14  15
HETATM   15  C   UNL     1      -9.549  10.808  67.939  1.00  0.00    -0.171 C  
HETATM   16  C   UNL     1      -9.612  10.145  69.104  1.00  0.00    -0.222 C  
BRANCH  16  17
HETATM   17  C   UNL     1     -10.706   9.205  69.489  1.00  0.00    -0.226 C  
BRANCH  17  18
HETATM   18  C   UNL     1     -11.678   9.924  70.386  1.00  0.00    -0.333 C  
HETATM   19  C   UNL     1     -12.162   9.428  71.534  1.00  0.00    -0.448 C  
BRANCH  19  20
HETATM   20  C   UNL     1     -11.830   8.079  72.079  1.00  0.00    -0.376 C  
BRANCH  20  21
HETATM   21  C   UNL     1     -10.573   8.090  72.896  1.00  0.00    -0.399 C  
HETATM   22  C   UNL     1     -10.043   7.004  73.481  1.00  0.00    -0.348 C  
BRANCH  22  23
HETATM   23  C   UNL     1     -10.629   5.625  73.454  1.00  0.00    -0.288 C  
HETATM   24  C   UNL     1     -10.110   4.819  72.277  1.00  0.00    -0.245 C  
ENDBRANCH  22  23
ENDBRANCH  20  21
ENDBRANCH  19  20
ENDBRANCH  17  18
ENDBRANCH  16  17
ENDBRANCH  14  15
ENDBRANCH  13  14
ENDBRANCH  11  12
ENDBRANCH  10  11
ENDBRANCH   8   9
ENDBRANCH   7   8
ENDBRANCH   6   7
ENDBRANCH   4   6
ENDBRANCH   3   4
ENDBRANCH   2   3
TORSDOF 15
ENDMDL
MODEL      174
REMARK 921   NORMALIZED FREE ENERGY PREDICTED BY IDOCK:   -4.13 KCAL/MOL
REMARK 922        TOTAL FREE ENERGY PREDICTED BY IDOCK:  -10.31 KCAL/MOL
REMARK 923 INTER-LIGAND FREE ENERGY PREDICTED BY IDOCK:   -7.84 KCAL/MOL
REMARK 924 INTRA-LIGAND FREE ENERGY PREDICTED BY IDOCK:   -2.47 KCAL/MOL
REMARK 927      BINDING AFFINITY PREDICTED BY RF-SCORE:    0.00 PKD
ROOT
HETATM    1  C   UNL     1      -9.714  17.409  68.097  1.00  0.00    -0.291 C  
HETATM    2  C   UNL     1     -10.957  16.559  68.284  1.00  0.00    -0.346 C  
ENDROOT
BRANCH   2   3
HETATM    3  O   UNL     1     -10.922  15.521  67.298  1.00  0.00    -0.317 OA 
BRANCH   3   4
HETATM    4  C   UNL     1     -11.774  14.486  67.545  1.00  0.00    -0.386 C  
HETATM    5  O   UNL     1     -12.023  14.019  68.645  1.00  0.00    -0.350 OA 
BRANCH   4   6
HETATM    6  C   UNL     1     -12.432  14.085  66.253  1.00  0.00    -0.439 C  
BRANCH   6   7
HETATM    7  C   UNL     1     -11.477  13.233  65.412  1.00  0.00    -0.328 C  
BRANCH   7   8
HETATM    8  C   UNL     1     -11.148  11.910  66.086  1.00  0.00    -0.374 C  
BRANCH   8   9
HETATM    9  C   UNL     1      -9.662  11.658  66.157  1.00  0.00    -0.253 C  
HETATM   10  C   UNL     1      -9.075  10.452  66.102  1.00  0.00    -0.183 C  
BRANCH  10  11
HETATM   11  C   UNL     1      -9.819   9.157  66.122  1.00  0.00    -0.363 C  
BRANCH  11  12
HETATM   12  C   UNL     1      -8.961   7.929  66.102  1.00  0.00    -0.214 C  
HETATM   13  C   UNL     1      -8.799   7.119  67.164  1.00  0.00    -0.121 C  
BRANCH  13  14
HETATM   14  C   UNL     1      -9.416   7.240  68.539  1.00  0.00    -0.140 C  
BRANCH  14  15
HETATM   15  C   UNL     1      -9.768   5.934  69.204  1.00  0.00    -0.176 C  
HETATM   16  C   UNL     1     -10.880   5.681  69.911  1.00  0.00    -0.370 C  
BRANCH  16  17
HETATM   17  C   UNL     1     -11.885   6.711  70.313  1.00  0.00    -0.378 C  
BRANCH  17  18
HETATM   18  C   UNL     1     -11.535   7.231  71.681  1.00  0.00    -0.297 C  
HETATM   19  C   UNL     1     -12.169   8.241  72.295  1.00  0.00    -0.428 C  
BRANCH  19  20
HETATM   20  C   UNL     1     -13.298   9.015  71.701  1.00  0.00    -0.433 C  
BRANCH  20  21
HETATM   21  C   UNL     1     -13.072  10.495  71.774  1.00  0.00    -0.570 C  
HETATM   22  C   UNL     1     -12.472  11.216  70.814  1.00  0.00    -0.479 C  
BRANCH  22  23
HETATM   23  C   UNL     1     -11.896  10.670  69.544  1.00  0.00    -0.345 C  
HETATM   24  C   UNL     1     -10.400  10.444  69.657  1.00  0.00    -0.261 C  
ENDBRANCH  22  23
ENDBRANCH  20  21
ENDBRANCH  19  20
ENDBRANCH  17  18
ENDBRANCH  16  17
ENDBRANCH  14  15
ENDBRANCH  13  14
ENDBRANCH  11  12
ENDBRANCH  10  11
ENDBRANCH   8   9
ENDBRANCH   7   8
ENDBRANCH   6   7
ENDBRANCH   4   6
ENDBRANCH   3   4
ENDBRANCH   2   3
TORSDOF 15
ENDMDL
MODEL      175
REMARK 921   NORMALIZED FREE ENERGY PREDICTED BY IDOCK:   -4.12 KCAL/MOL
REMARK 922        TOTAL FREE ENERGY PREDICTED BY IDOCK:  -10.28 KCAL/MOL
REMARK 923 INTER-LIGAND FREE ENERGY PREDICTED BY IDOCK:   -8.20 KCAL/MOL
REMARK 924 INTRA-LIGAND FREE ENERGY PREDICTED BY IDOCK:   -2.07 KCAL/MOL
REMARK 927      BINDING AFFINITY PREDICTED BY RF-SCORE:    0.00 PKD
ROOT
HETATM    1  C   UNL     1      -9.563   3.782  68.944  1.00  0.00    -0.183 C  
HETATM    2  C   UNL     1      -9.504   4.198  70.402  1.00  0.00    -0.177 C  
ENDROOT
BRANCH   2   3
HETATM    3  O   UNL     1     -10.490   5.217  70.601  1.00  0.00    -0.260 OA 
BRANCH   3   4
HETATM    4  C   UNL     1     -10.558   5.690  71.877  1.00  0.00    -0.232 C  
HETATM    5  O   UNL     1     -11.231   5.211  72.776  1.00  0.00    -0.263 OA 
BRANCH   4   6
HETATM    6  C   UNL     1      -9.589   6.831  72.020  1.00  0.00    -0.151 C  
BRANCH   6   7
HETATM    7  C   UNL     1     -10.277   8.033  72.675  1.00  0.00    -0.385 C  
BRANCH   7   8
HETATM    8  C   UNL     1     -11.109   8.826  71.680  1.00  0.00    -0.398 C  
BRANCH   8   9
HETATM    9  C   UNL     1     -12.562   8.904  72.081  1.00  0.00    -0.467 C  
HETATM   10  C   UNL     1     -13.363   9.966  71.900  1.00  0.00    -0.524 C  
BRANCH  10  11
HETATM   11  C   UNL     1     -12.891  11.297  71.413  1.00  0.00    -0.515 C  
BRANCH  11  12
HETATM   12  C   UNL     1     -13.453  12.478  72.143  1.00  0.00    -0.523 C  
HETATM   13  C   UNL     1     -13.015  13.737  71.964  1.00  0.00    -0.437 C  
BRANCH  13  14
HETATM   14  C   UNL     1     -11.930  14.231  71.033  1.00  0.00    -0.374 C  
BRANCH  14  15
HETATM   15  C   UNL     1     -12.226  15.533  70.333  1.00  0.00    -0.443 C  
HETATM   16  C   UNL     1     -11.910  15.838  69.065  1.00  0.00    -0.367 C  
BRANCH  16  17
HETATM   17  C   UNL     1     -11.049  15.000  68.178  1.00  0.00    -0.296 C  
BRANCH  17  18
HETATM   18  C   UNL     1     -11.925  14.090  67.361  1.00  0.00    -0.439 C  
HETATM   19  C   UNL     1     -11.875  12.750  67.400  1.00  0.00    -0.404 C  
BRANCH  19  20
HETATM   20  C   UNL     1     -10.925  11.965  68.240  1.00  0.00    -0.273 C  
BRANCH  20  21
HETATM   21  C   UNL     1     -11.224  10.496  68.215  1.00  0.00    -0.354 C  
HETATM   22  C   UNL     1     -10.773   9.649  67.276  1.00  0.00    -0.284 C  
BRANCH  22  23
HETATM   23  C   UNL     1      -9.940  10.025  66.089  1.00  0.00    -0.322 C  
HETATM   24  C   UNL     1      -8.457   9.990  66.410  1.00  0.00    -0.132 C  
ENDBRANCH  22  23
ENDBRANCH  20  21
ENDBRANCH  19  20
ENDBRANCH  17  18
ENDBRANCH  16  17
ENDBRANCH  14  15
ENDBRANCH  13  14
ENDBRANCH  11  12
ENDBRANCH  10  11
ENDBRANCH   8   9
ENDBRANCH   7   8
ENDBRANCH   6   7
ENDBRANCH   4   6
ENDBRANCH   3   4
ENDBRANCH   2   3
TORSDOF 15
ENDMDL
MODEL      176
REMARK 921   NORMALIZED FREE ENERGY PREDICTED BY IDOCK:   -4.12 KCAL/MOL
REMARK 922        TOTAL FREE ENERGY PREDICTED BY IDOCK:  -10.28 KCAL/MOL
REMARK 923 INTER-LIGAND FREE ENERGY PREDICTED BY IDOCK:   -7.39 KCAL/MOL
REMARK 924 INTRA-LIGAND FREE ENERGY PREDICTED BY IDOCK:   -2.88 KCAL/MOL
REMARK 927      BINDING AFFINITY PREDICTED BY RF-SCORE:    0.00 PKD
ROOT
HETATM    1  C   UNL     1      -7.122  19.977  66.186  1.00  0.00    -0.291 C  
HETATM    2  C   UNL     1      -8.373  20.102  67.036  1.00  0.00    -0.328 C  
ENDROOT
BRANCH   2   3
HETATM    3  O   UNL     1      -9.493  19.777  66.204  1.00  0.00    -0.388 OA 
BRANCH   3   4
HETATM    4  C   UNL     1     -10.302  18.804  66.710  1.00  0.00    -0.412 C  
HETATM    5  O   UNL     1     -10.769  18.785  67.837  1.00  0.00    -0.374 OA 
BRANCH   4   6
HETATM    6  C   UNL     1     -10.608  17.817  65.618  1.00  0.00    -0.123 C  
BRANCH   6   7
HETATM    7  C   UNL     1      -9.969  16.461  65.933  1.00  0.00    -0.358 C  
BRANCH   7   8
HETATM    8  C   UNL     1     -10.953  15.313  65.764  1.00  0.00    -0.340 C  
BRANCH   8   9
HETATM    9  C   UNL     1     -10.396  14.204  64.906  1.00  0.00    -0.435 C  
HETATM   10  C   UNL     1     -10.183  12.941  65.310  1.00  0.00    -0.294 C  
BRANCH  10  11
HETATM   11  C   UNL     1     -10.317  12.480  66.724  1.00  0.00    -0.241 C  
BRANCH  11  12
HETATM   12  C   UNL     1     -11.584  11.744  67.037  1.00  0.00    -0.321 C  
HETATM   13  C   UNL     1     -11.990  11.465  68.289  1.00  0.00    -0.234 C  
BRANCH  13  14
HETATM   14  C   UNL     1     -11.316  11.818  69.595  1.00  0.00    -0.287 C  
BRANCH  14  15
HETATM   15  C   UNL     1     -12.160  11.623  70.829  1.00  0.00    -0.383 C  
HETATM   16  C   UNL     1     -12.969  12.538  71.386  1.00  0.00    -0.347 C  
BRANCH  16  17
HETATM   17  C   UNL     1     -13.038  13.973  70.979  1.00  0.00    -0.342 C  
BRANCH  17  18
HETATM   18  C   UNL     1     -12.129  14.780  71.867  1.00  0.00    -0.409 C  
HETATM   19  C   UNL     1     -11.223  15.663  71.424  1.00  0.00    -0.392 C  
BRANCH  19  20
HETATM   20  C   UNL     1     -10.962  15.957  69.984  1.00  0.00    -0.361 C  
BRANCH  20  21
HETATM   21  C   UNL     1      -9.945  15.030  69.390  1.00  0.00    -0.190 C  
HETATM   22  C   UNL     1      -8.693  15.391  69.066  1.00  0.00    -0.231 C  
BRANCH  22  23
HETATM   23  C   UNL     1      -8.118  16.767  69.202  1.00  0.00    -0.109 C  
HETATM   24  C   UNL     1      -6.616  16.772  68.983  1.00  0.00    -0.205 C  
ENDBRANCH  22  23
ENDBRANCH  20  21
ENDBRANCH  19  20
ENDBRANCH  17  18
ENDBRANCH  16  17
ENDBRANCH  14  15
ENDBRANCH  13  14
ENDBRANCH  11  12
ENDBRANCH  10  11
ENDBRANCH   8   9
ENDBRANCH   7   8
ENDBRANCH   6   7
ENDBRANCH   4   6
ENDBRANCH   3   4
ENDBRANCH   2   3
TORSDOF 15
ENDMDL
MODEL      177
REMARK 921   NORMALIZED FREE ENERGY PREDICTED BY IDOCK:   -4.10 KCAL/MOL
REMARK 922        TOTAL FREE ENERGY PREDICTED BY IDOCK:  -10.24 KCAL/MOL
REMARK 923 INTER-LIGAND FREE ENERGY PREDICTED BY IDOCK:   -7.23 KCAL/MOL
REMARK 924 INTRA-LIGAND FREE ENERGY PREDICTED BY IDOCK:   -3.01 KCAL/MOL
REMARK 927      BINDING AFFINITY PREDICTED BY RF-SCORE:    0.00 PKD
ROOT
HETATM    1  C   UNL     1      -6.616  18.123  65.821  1.00  0.00    -0.313 C  
HETATM    2  C   UNL     1      -7.917  18.347  66.571  1.00  0.00    -0.271 C  
ENDROOT
BRANCH   2   3
HETATM    3  O   UNL     1      -8.957  17.690  65.836  1.00  0.00    -0.519 OA 
BRANCH   3   4
HETATM    4  C   UNL     1     -10.057  17.383  66.577  1.00  0.00    -0.320 C  
HETATM    5  O   UNL     1     -10.721  18.176  67.225  1.00  0.00    -0.390 OA 
BRANCH   4   6
HETATM    6  C   UNL     1     -10.380  15.927  66.380  1.00  0.00    -0.313 C  
BRANCH   6   7
HETATM    7  C   UNL     1     -11.400  15.462  67.423  1.00  0.00    -0.243 C  
BRANCH   7   8
HETATM    8  C   UNL     1     -11.951  14.080  67.106  1.00  0.00    -0.465 C  
BRANCH   8   9
HETATM    9  C   UNL     1     -12.636  14.031  65.762  1.00  0.00    -0.512 C  
HETATM   10  C   UNL     1     -12.190  13.362  64.686  1.00  0.00    -0.456 C  
BRANCH  10  11
HETATM   11  C   UNL     1     -10.859  12.690  64.610  1.00  0.00    -0.349 C  
BRANCH  11  12
HETATM   12  C   UNL     1     -10.688  11.742  63.463  1.00  0.00    -0.501 C  
HETATM   13  C   UNL     1      -9.741  10.788  63.423  1.00  0.00    -0.394 C  
BRANCH  13  14
HETATM   14  C   UNL     1      -8.697  10.456  64.467  1.00  0.00    -0.205 C  
BRANCH  14  15
HETATM   15  C   UNL     1      -8.794   9.074  65.058  1.00  0.00    -0.213 C  
HETATM   16  C   UNL     1      -9.537   8.717  66.118  1.00  0.00    -0.323 C  
BRANCH  16  17
HETATM   17  C   UNL     1     -10.263   9.672  67.008  1.00  0.00    -0.308 C  
BRANCH  17  18
HETATM   18  C   UNL     1      -9.451   9.894  68.255  1.00  0.00    -0.147 C  
HETATM   19  C   UNL     1      -9.041  11.094  68.692  1.00  0.00    -0.166 C  
BRANCH  19  20
HETATM   20  C   UNL     1      -9.308  12.384  67.991  1.00  0.00    -0.204 C  
BRANCH  20  21
HETATM   21  C   UNL     1      -8.128  12.851  67.193  1.00  0.00    -0.122 C  
HETATM   22  C   UNL     1      -7.186  13.688  67.655  1.00  0.00    -0.179 C  
BRANCH  22  23
HETATM   23  C   UNL     1      -7.173  14.323  69.013  1.00  0.00    -0.118 C  
HETATM   24  C   UNL     1      -7.706  15.743  68.973  1.00  0.00    -0.202 C  
ENDBRANCH  22  23
ENDBRANCH  20  21
ENDBRANCH  19  20
ENDBRANCH  17  18
ENDBRANCH  16  17
ENDBRANCH  14  15
ENDBRANCH  13  14
ENDBRANCH  11  12
ENDBRANCH  10  11
ENDBRANCH   8   9
ENDBRANCH   7   8
ENDBRANCH   6   7
ENDBRANCH   4   6
ENDBRANCH   3   4
ENDBRANCH   2   3
TORSDOF 15
ENDMDL
MODEL      178
REMARK 921   NORMALIZED FREE ENERGY PREDICTED BY IDOCK:   -4.09 KCAL/MOL
REMARK 922        TOTAL FREE ENERGY PREDICTED BY IDOCK:  -10.23 KCAL/MOL
REMARK 923 INTER-LIGAND FREE ENERGY PREDICTED BY IDOCK:   -7.44 KCAL/MOL
REMARK 924 INTRA-LIGAND FREE ENERGY PREDICTED BY IDOCK:   -2.79 KCAL/MOL
REMARK 927      BINDING AFFINITY PREDICTED BY RF-SCORE:    0.00 PKD
ROOT
HETATM    1  C   UNL     1     -11.115  14.972  68.405  1.00  0.00    -0.284 C  
HETATM    2  C   UNL     1     -12.122  13.870  68.683  1.00  0.00    -0.302 C  
ENDROOT
BRANCH   2   3
HETATM    3  O   UNL     1     -11.418  12.789  69.304  1.00  0.00    -0.274 OA 
BRANCH   3   4
HETATM    4  C   UNL     1     -11.730  11.559  68.808  1.00  0.00    -0.334 C  
HETATM    5  O   UNL     1     -11.927  11.297  67.632  1.00  0.00    -0.634 OA 
BRANCH   4   6
HETATM    6  C   UNL     1     -11.687  10.561  69.932  1.00  0.00    -0.372 C  
BRANCH   6   7
HETATM    7  C   UNL     1     -12.872  10.775  70.879  1.00  0.00    -0.443 C  
BRANCH   7   8
HETATM    8  C   UNL     1     -12.937   9.710  71.962  1.00  0.00    -0.518 C  
BRANCH   8   9
HETATM    9  C   UNL     1     -13.980   8.660  71.670  1.00  0.00    -0.459 C  
HETATM   10  C   UNL     1     -13.747   7.342  71.559  1.00  0.00    -0.467 C  
BRANCH  10  11
HETATM   11  C   UNL     1     -12.384   6.730  71.551  1.00  0.00    -0.407 C  
BRANCH  11  12
HETATM   12  C   UNL     1     -12.130   5.727  72.634  1.00  0.00    -0.053 C  
HETATM   13  C   UNL     1     -10.903   5.278  72.956  1.00  0.00    -0.332 C  
BRANCH  13  14
HETATM   14  C   UNL     1      -9.572   5.665  72.350  1.00  0.00    -0.167 C  
BRANCH  14  15
HETATM   15  C   UNL     1      -8.747   6.626  73.167  1.00  0.00    -0.134 C  
HETATM   16  C   UNL     1      -8.745   7.963  73.051  1.00  0.00    -0.260 C  
BRANCH  16  17
HETATM   17  C   UNL     1      -9.432   8.723  71.964  1.00  0.00    -0.336 C  
BRANCH  17  18
HETATM   18  C   UNL     1      -8.444   9.012  70.866  1.00  0.00    -0.253 C  
HETATM   19  C   UNL     1      -8.462   8.433  69.656  1.00  0.00    -0.127 C  
BRANCH  19  20
HETATM   20  C   UNL     1      -9.449   7.399  69.229  1.00  0.00    -0.154 C  
BRANCH  20  21
HETATM   21  C   UNL     1     -10.343   7.886  68.129  1.00  0.00    -0.249 C  
HETATM   22  C   UNL     1     -10.421   7.322  66.914  1.00  0.00    -0.369 C  
BRANCH  22  23
HETATM   23  C   UNL     1      -9.612   6.154  66.440  1.00  0.00    -0.162 C  
HETATM   24  C   UNL     1     -10.470   4.916  66.252  1.00  0.00    -0.349 C  
ENDBRANCH  22  23
ENDBRANCH  20  21
ENDBRANCH  19  20
ENDBRANCH  17  18
ENDBRANCH  16  17
ENDBRANCH  14  15
ENDBRANCH  13  14
ENDBRANCH  11  12
ENDBRANCH  10  11
ENDBRANCH   8   9
ENDBRANCH   7   8
ENDBRANCH   6   7
ENDBRANCH   4   6
ENDBRANCH   3   4
ENDBRANCH   2   3
TORSDOF 15
ENDMDL
MODEL      179
REMARK 921   NORMALIZED FREE ENERGY PREDICTED BY IDOCK:   -4.09 KCAL/MOL
REMARK 922        TOTAL FREE ENERGY PREDICTED BY IDOCK:  -10.22 KCAL/MOL
REMARK 923 INTER-LIGAND FREE ENERGY PREDICTED BY IDOCK:   -6.92 KCAL/MOL
REMARK 924 INTRA-LIGAND FREE ENERGY PREDICTED BY IDOCK:   -3.30 KCAL/MOL
REMARK 927      BINDING AFFINITY PREDICTED BY RF-SCORE:    0.00 PKD
ROOT
HETATM    1  C   UNL     1     -10.805  11.014  64.196  1.00  0.00    -0.250 C  
HETATM    2  C   UNL     1     -11.426  12.102  63.339  1.00  0.00    -0.416 C  
ENDROOT
BRANCH   2   3
HETATM    3  O   UNL     1     -11.164  13.357  63.977  1.00  0.00    -0.369 OA 
BRANCH   3   4
HETATM    4  C   UNL     1     -12.010  13.650  65.004  1.00  0.00    -0.378 C  
HETATM    5  O   UNL     1     -13.218  13.471  65.001  1.00  0.00    -0.721 OA 
BRANCH   4   6
HETATM    6  C   UNL     1     -11.199  14.131  66.175  1.00  0.00    -0.326 C  
BRANCH   6   7
HETATM    7  C   UNL     1     -12.022  14.043  67.464  1.00  0.00    -0.430 C  
BRANCH   7   8
HETATM    8  C   UNL     1     -11.804  12.725  68.191  1.00  0.00    -0.372 C  
BRANCH   8   9
HETATM    9  C   UNL     1     -10.479  12.092  67.844  1.00  0.00    -0.224 C  
HETATM   10  C   UNL     1     -10.144  10.813  68.078  1.00  0.00    -0.198 C  
BRANCH  10  11
HETATM   11  C   UNL     1     -10.980   9.859  68.866  1.00  0.00    -0.214 C  
BRANCH  11  12
HETATM   12  C   UNL     1     -10.761   9.892  70.347  1.00  0.00    -0.379 C  
HETATM   13  C   UNL     1      -9.693   9.340  70.952  1.00  0.00    -0.346 C  
BRANCH  13  14
HETATM   14  C   UNL     1      -8.528   8.612  70.319  1.00  0.00    -0.133 C  
BRANCH  14  15
HETATM   15  C   UNL     1      -7.480   9.496  69.693  1.00  0.00    -0.092 C  
HETATM   16  C   UNL     1      -6.892   9.303  68.502  1.00  0.00    -0.062 C  
BRANCH  16  17
HETATM   17  C   UNL     1      -7.048   8.076  67.665  1.00  0.00    -0.083 C  
BRANCH  17  18
HETATM   18  C   UNL     1      -8.129   8.312  66.645  1.00  0.00    -0.102 C  
HETATM   19  C   UNL     1      -9.262   7.599  66.559  1.00  0.00    -0.220 C  
BRANCH  19  20
HETATM   20  C   UNL     1      -9.605   6.449  67.446  1.00  0.00    -0.133 C  
BRANCH  20  21
HETATM   21  C   UNL     1     -11.016   6.519  67.948  1.00  0.00    -0.382 C  
HETATM   22  C   UNL     1     -11.385   6.246  69.209  1.00  0.00    -0.411 C  
BRANCH  22  23
HETATM   23  C   UNL     1     -10.471   5.790  70.306  1.00  0.00    -0.349 C  
HETATM   24  C   UNL     1     -11.061   6.063  71.677  1.00  0.00    -0.333 C  
ENDBRANCH  22  23
ENDBRANCH  20  21
ENDBRANCH  19  20
ENDBRANCH  17  18
ENDBRANCH  16  17
ENDBRANCH  14  15
ENDBRANCH  13  14
ENDBRANCH  11  12
ENDBRANCH  10  11
ENDBRANCH   8   9
ENDBRANCH   7   8
ENDBRANCH   6   7
ENDBRANCH   4   6
ENDBRANCH   3   4
ENDBRANCH   2   3
TORSDOF 15
ENDMDL
MODEL      180
REMARK 921   NORMALIZED FREE ENERGY PREDICTED BY IDOCK:   -4.08 KCAL/MOL
REMARK 922        TOTAL FREE ENERGY PREDICTED BY IDOCK:  -10.21 KCAL/MOL
REMARK 923 INTER-LIGAND FREE ENERGY PREDICTED BY IDOCK:   -7.54 KCAL/MOL
REMARK 924 INTRA-LIGAND FREE ENERGY PREDICTED BY IDOCK:   -2.67 KCAL/MOL
REMARK 927      BINDING AFFINITY PREDICTED BY RF-SCORE:    0.00 PKD
ROOT
HETATM    1  C   UNL     1     -12.601  10.523  71.302  1.00  0.00    -0.531 C  
HETATM    2  C   UNL     1     -11.467   9.523  71.441  1.00  0.00    -0.392 C  
ENDROOT
BRANCH   2   3
HETATM    3  O   UNL     1     -11.724   8.450  70.528  1.00  0.00    -0.208 OA 
BRANCH   3   4
HETATM    4  C   UNL     1     -11.738   7.216  71.104  1.00  0.00    -0.313 C  
HETATM    5  O   UNL     1     -12.685   6.718  71.691  1.00  0.00    -0.366 OA 
BRANCH   4   6
HETATM    6  C   UNL     1     -10.434   6.529  70.805  1.00  0.00    -0.262 C  
BRANCH   6   7
HETATM    7  C   UNL     1     -10.672   5.289  69.938  1.00  0.00    -0.196 C  
BRANCH   7   8
HETATM    8  C   UNL     1     -10.141   5.470  68.524  1.00  0.00    -0.240 C  
BRANCH   8   9
HETATM    9  C   UNL     1     -11.035   6.350  67.686  1.00  0.00    -0.441 C  
HETATM   10  C   UNL     1     -10.640   7.440  67.009  1.00  0.00    -0.414 C  
BRANCH  10  11
HETATM   11  C   UNL     1      -9.276   8.041  67.113  1.00  0.00    -0.172 C  
BRANCH  11  12
HETATM   12  C   UNL     1      -9.053   8.912  68.311  1.00  0.00    -0.140 C  
HETATM   13  C   UNL     1      -9.228  10.246  68.302  1.00  0.00    -0.139 C  
BRANCH  13  14
HETATM   14  C   UNL     1      -9.675  11.127  67.157  1.00  0.00    -0.199 C  
BRANCH  14  15
HETATM   15  C   UNL     1     -11.146  11.455  67.134  1.00  0.00    -0.366 C  
HETATM   16  C   UNL     1     -11.733  12.498  67.741  1.00  0.00    -0.419 C  
BRANCH  16  17
HETATM   17  C   UNL     1     -11.050  13.419  68.698  1.00  0.00    -0.295 C  
BRANCH  17  18
HETATM   18  C   UNL     1     -12.058  14.394  69.245  1.00  0.00    -0.336 C  
HETATM   19  C   UNL     1     -11.826  15.701  69.433  1.00  0.00    -0.391 C  
BRANCH  19  20
HETATM   20  C   UNL     1     -10.525  16.377  69.155  1.00  0.00    -0.303 C  
BRANCH  20  21
HETATM   21  C   UNL     1     -10.593  17.267  67.950  1.00  0.00    -0.384 C  
HETATM   22  C   UNL     1     -10.041  16.974  66.762  1.00  0.00    -0.300 C  
BRANCH  22  23
HETATM   23  C   UNL     1      -9.240  15.747  66.451  1.00  0.00    -0.347 C  
HETATM   24  C   UNL     1      -9.980  14.818  65.506  1.00  0.00    -0.390 C  
ENDBRANCH  22  23
ENDBRANCH  20  21
ENDBRANCH  19  20
ENDBRANCH  17  18
ENDBRANCH  16  17
ENDBRANCH  14  15
ENDBRANCH  13  14
ENDBRANCH  11  12
ENDBRANCH  10  11
ENDBRANCH   8   9
ENDBRANCH   7   8
ENDBRANCH   6   7
ENDBRANCH   4   6
ENDBRANCH   3   4
ENDBRANCH   2   3
TORSDOF 15
ENDMDL
MODEL      181
REMARK 921   NORMALIZED FREE ENERGY PREDICTED BY IDOCK:   -4.08 KCAL/MOL
REMARK 922        TOTAL FREE ENERGY PREDICTED BY IDOCK:  -10.21 KCAL/MOL
REMARK 923 INTER-LIGAND FREE ENERGY PREDICTED BY IDOCK:   -7.23 KCAL/MOL
REMARK 924 INTRA-LIGAND FREE ENERGY PREDICTED BY IDOCK:   -2.98 KCAL/MOL
REMARK 927      BINDING AFFINITY PREDICTED BY RF-SCORE:    0.00 PKD
ROOT
HETATM    1  C   UNL     1     -10.633   9.313  69.716  1.00  0.00    -0.244 C  
HETATM    2  C   UNL     1     -10.286   9.709  68.292  1.00  0.00    -0.204 C  
ENDROOT
BRANCH   2   3
HETATM    3  O   UNL     1      -8.923  10.150  68.287  1.00  0.00    -0.118 OA 
BRANCH   3   4
HETATM    4  C   UNL     1      -8.688  11.233  67.494  1.00  0.00    -0.138 C  
HETATM    5  O   UNL     1      -9.059  11.361  66.339  1.00  0.00    -0.182 OA 
BRANCH   4   6
HETATM    6  C   UNL     1      -7.991  12.286  68.311  1.00  0.00    -0.163 C  
BRANCH   6   7
HETATM    7  C   UNL     1      -7.735  13.535  67.462  1.00  0.00    -0.182 C  
BRANCH   7   8
HETATM    8  C   UNL     1      -7.472  14.763  68.320  1.00  0.00    -0.115 C  
BRANCH   8   9
HETATM    9  C   UNL     1      -6.524  15.732  67.656  1.00  0.00    -0.190 C  
HETATM   10  C   UNL     1      -6.639  17.070  67.677  1.00  0.00    -0.163 C  
BRANCH  10  11
HETATM   11  C   UNL     1      -7.819  17.800  68.230  1.00  0.00    -0.279 C  
BRANCH  11  12
HETATM   12  C   UNL     1      -8.646  18.532  67.218  1.00  0.00    -0.268 C  
HETATM   13  C   UNL     1      -9.830  18.083  66.763  1.00  0.00    -0.335 C  
BRANCH  13  14
HETATM   14  C   UNL     1     -10.567  16.820  67.149  1.00  0.00    -0.256 C  
BRANCH  14  15
HETATM   15  C   UNL     1     -10.391  15.657  66.206  1.00  0.00    -0.316 C  
HETATM   16  C   UNL     1     -11.150  14.551  66.165  1.00  0.00    -0.334 C  
BRANCH  16  17
HETATM   17  C   UNL     1     -12.197  14.200  67.170  1.00  0.00    -0.348 C  
BRANCH  17  18
HETATM   18  C   UNL     1     -11.587  13.320  68.227  1.00  0.00    -0.369 C  
HETATM   19  C   UNL     1     -11.416  13.678  69.508  1.00  0.00    -0.324 C  
BRANCH  19  20
HETATM   20  C   UNL     1     -11.781  15.011  70.069  1.00  0.00    -0.345 C  
BRANCH  20  21
HETATM   21  C   UNL     1     -13.124  15.000  70.735  1.00  0.00    -0.420 C  
HETATM   22  C   UNL     1     -13.369  15.511  71.952  1.00  0.00    -0.569 C  
BRANCH  22  23
HETATM   23  C   UNL     1     -12.350  16.133  72.858  1.00  0.00    -0.607 C  
HETATM   24  C   UNL     1     -12.245  15.390  74.177  1.00  0.00    -0.759 C  
ENDBRANCH  22  23
ENDBRANCH  20  21
ENDBRANCH  19  20
ENDBRANCH  17  18
ENDBRANCH  16  17
ENDBRANCH  14  15
ENDBRANCH  13  14
ENDBRANCH  11  12
ENDBRANCH  10  11
ENDBRANCH   8   9
ENDBRANCH   7   8
ENDBRANCH   6   7
ENDBRANCH   4   6
ENDBRANCH   3   4
ENDBRANCH   2   3
TORSDOF 15
ENDMDL
MODEL      182
REMARK 921   NORMALIZED FREE ENERGY PREDICTED BY IDOCK:   -4.07 KCAL/MOL
REMARK 922        TOTAL FREE ENERGY PREDICTED BY IDOCK:  -10.19 KCAL/MOL
REMARK 923 INTER-LIGAND FREE ENERGY PREDICTED BY IDOCK:   -8.15 KCAL/MOL
REMARK 924 INTRA-LIGAND FREE ENERGY PREDICTED BY IDOCK:   -2.04 KCAL/MOL
REMARK 927      BINDING AFFINITY PREDICTED BY RF-SCORE:    0.00 PKD
ROOT
HETATM    1  C   UNL     1      -7.584  13.316  68.197  1.00  0.00    -0.141 C  
HETATM    2  C   UNL     1      -8.812  14.186  68.001  1.00  0.00    -0.182 C  
ENDROOT
BRANCH   2   3
HETATM    3  O   UNL     1      -9.120  14.189  66.602  1.00  0.00    -0.257 OA 
BRANCH   3   4
HETATM    4  C   UNL     1     -10.020  15.141  66.229  1.00  0.00    -0.288 C  
HETATM    5  O   UNL     1      -9.836  15.996  65.378  1.00  0.00    -0.440 OA 
BRANCH   4   6
HETATM    6  C   UNL     1     -11.310  14.898  66.962  1.00  0.00    -0.345 C  
BRANCH   6   7
HETATM    7  C   UNL     1     -12.063  13.719  66.337  1.00  0.00    -0.483 C  
BRANCH   7   8
HETATM    8  C   UNL     1     -12.341  13.939  64.858  1.00  0.00    -0.445 C  
BRANCH   8   9
HETATM    9  C   UNL     1     -12.733  12.663  64.154  1.00  0.00    -0.373 C  
HETATM   10  C   UNL     1     -11.880  11.795  63.587  1.00  0.00    -0.498 C  
BRANCH  10  11
HETATM   11  C   UNL     1     -10.415  12.042  63.428  1.00  0.00    -0.474 C  
BRANCH  11  12
HETATM   12  C   UNL     1      -9.557  10.814  63.447  1.00  0.00    -0.375 C  
HETATM   13  C   UNL     1      -8.981  10.329  64.562  1.00  0.00    -0.247 C  
BRANCH  13  14
HETATM   14  C   UNL     1      -9.069  10.864  65.973  1.00  0.00    -0.208 C  
BRANCH  14  15
HETATM   15  C   UNL     1     -10.331  10.514  66.718  1.00  0.00    -0.301 C  
HETATM   16  C   UNL     1     -10.532   9.414  67.461  1.00  0.00    -0.343 C  
BRANCH  16  17
HETATM   17  C   UNL     1      -9.594   8.255  67.535  1.00  0.00    -0.194 C  
BRANCH  17  18
HETATM   18  C   UNL     1     -10.327   7.004  67.130  1.00  0.00    -0.351 C  
HETATM   19  C   UNL     1     -11.007   6.215  67.975  1.00  0.00    -0.399 C  
BRANCH  19  20
HETATM   20  C   UNL     1     -11.115   6.446  69.445  1.00  0.00    -0.450 C  
BRANCH  20  21
HETATM   21  C   UNL     1     -10.167   5.587  70.227  1.00  0.00    -0.326 C  
HETATM   22  C   UNL     1     -10.261   5.367  71.548  1.00  0.00    -0.280 C  
BRANCH  22  23
HETATM   23  C   UNL     1     -11.287   5.965  72.461  1.00  0.00    -0.352 C  
HETATM   24  C   UNL     1     -10.819   7.289  73.039  1.00  0.00    -0.399 C  
ENDBRANCH  22  23
ENDBRANCH  20  21
ENDBRANCH  19  20
ENDBRANCH  17  18
ENDBRANCH  16  17
ENDBRANCH  14  15
ENDBRANCH  13  14
ENDBRANCH  11  12
ENDBRANCH  10  11
ENDBRANCH   8   9
ENDBRANCH   7   8
ENDBRANCH   6   7
ENDBRANCH   4   6
ENDBRANCH   3   4
ENDBRANCH   2   3
TORSDOF 15
ENDMDL
MODEL      183
REMARK 921   NORMALIZED FREE ENERGY PREDICTED BY IDOCK:   -4.07 KCAL/MOL
REMARK 922        TOTAL FREE ENERGY PREDICTED BY IDOCK:  -10.18 KCAL/MOL
REMARK 923 INTER-LIGAND FREE ENERGY PREDICTED BY IDOCK:   -8.31 KCAL/MOL
REMARK 924 INTRA-LIGAND FREE ENERGY PREDICTED BY IDOCK:   -1.87 KCAL/MOL
REMARK 927      BINDING AFFINITY PREDICTED BY RF-SCORE:    0.00 PKD
ROOT
HETATM    1  C   UNL     1     -11.074   6.221  68.964  1.00  0.00    -0.446 C  
HETATM    2  C   UNL     1     -10.336   5.309  69.927  1.00  0.00    -0.304 C  
ENDROOT
BRANCH   2   3
HETATM    3  O   UNL     1     -10.908   5.500  71.226  1.00  0.00    -0.242 OA 
BRANCH   3   4
HETATM    4  C   UNL     1     -10.108   6.178  72.096  1.00  0.00    -0.183 C  
HETATM    5  O   UNL     1      -8.888   6.155  72.103  1.00  0.00    -0.138 OA 
BRANCH   4   6
HETATM    6  C   UNL     1     -10.973   7.037  72.977  1.00  0.00    -0.327 C  
BRANCH   6   7
HETATM    7  C   UNL     1     -11.113   8.440  72.378  1.00  0.00    -0.431 C  
BRANCH   7   8
HETATM    8  C   UNL     1     -12.390   8.588  71.565  1.00  0.00    -0.354 C  
BRANCH   8   9
HETATM    9  C   UNL     1     -13.182   9.809  71.961  1.00  0.00    -0.557 C  
HETATM   10  C   UNL     1     -13.015  11.042  71.456  1.00  0.00    -0.553 C  
BRANCH  10  11
HETATM   11  C   UNL     1     -11.905  11.425  70.533  1.00  0.00    -0.394 C  
BRANCH  11  12
HETATM   12  C   UNL     1     -12.121  11.070  69.094  1.00  0.00    -0.333 C  
HETATM   13  C   UNL     1     -11.578  11.755  68.071  1.00  0.00    -0.386 C  
BRANCH  13  14
HETATM   14  C   UNL     1     -10.667  12.960  68.127  1.00  0.00    -0.258 C  
BRANCH  14  15
HETATM   15  C   UNL     1     -11.354  14.294  67.984  1.00  0.00    -0.318 C  
HETATM   16  C   UNL     1     -11.751  14.860  66.834  1.00  0.00    -0.260 C  
BRANCH  16  17
HETATM   17  C   UNL     1     -11.420  14.342  65.473  1.00  0.00    -0.329 C  
BRANCH  17  18
HETATM   18  C   UNL     1     -12.483  13.365  65.048  1.00  0.00    -0.479 C  
HETATM   19  C   UNL     1     -12.284  12.349  64.195  1.00  0.00    -0.558 C  
BRANCH  19  20
HETATM   20  C   UNL     1     -10.986  12.053  63.521  1.00  0.00    -0.514 C  
BRANCH  20  21
HETATM   21  C   UNL     1      -9.824  12.139  64.463  1.00  0.00    -0.151 C  
HETATM   22  C   UNL     1      -9.373  11.114  65.203  1.00  0.00    -0.237 C  
BRANCH  22  23
HETATM   23  C   UNL     1      -9.970   9.740  65.246  1.00  0.00    -0.251 C  
HETATM   24  C   UNL     1      -9.711   9.057  66.576  1.00  0.00    -0.311 C  
ENDBRANCH  22  23
ENDBRANCH  20  21
ENDBRANCH  19  20
ENDBRANCH  17  18
ENDBRANCH  16  17
ENDBRANCH  14  15
ENDBRANCH  13  14
ENDBRANCH  11  12
ENDBRANCH  10  11
ENDBRANCH   8   9
ENDBRANCH   7   8
ENDBRANCH   6   7
ENDBRANCH   4   6
ENDBRANCH   3   4
ENDBRANCH   2   3
TORSDOF 15
ENDMDL
MODEL      184
REMARK 921   NORMALIZED FREE ENERGY PREDICTED BY IDOCK:   -4.06 KCAL/MOL
REMARK 922        TOTAL FREE ENERGY PREDICTED BY IDOCK:  -10.18 KCAL/MOL
REMARK 923 INTER-LIGAND FREE ENERGY PREDICTED BY IDOCK:   -7.83 KCAL/MOL
REMARK 924 INTRA-LIGAND FREE ENERGY PREDICTED BY IDOCK:   -2.35 KCAL/MOL
REMARK 927      BINDING AFFINITY PREDICTED BY RF-SCORE:    0.00 PKD
ROOT
HETATM    1  C   UNL     1     -12.358   7.994  71.533  1.00  0.00    -0.335 C  
HETATM    2  C   UNL     1     -12.304   9.499  71.344  1.00  0.00    -0.364 C  
ENDROOT
BRANCH   2   3
HETATM    3  O   UNL     1     -11.149   9.793  70.549  1.00  0.00    -0.270 OA 
BRANCH   3   4
HETATM    4  C   UNL     1     -11.312  10.837  69.689  1.00  0.00    -0.294 C  
HETATM    5  O   UNL     1     -11.741  11.940  69.985  1.00  0.00    -0.317 OA 
BRANCH   4   6
HETATM    6  C   UNL     1     -10.778  10.438  68.341  1.00  0.00    -0.263 C  
BRANCH   6   7
HETATM    7  C   UNL     1      -9.497  11.216  68.024  1.00  0.00    -0.174 C  
BRANCH   7   8
HETATM    8  C   UNL     1      -9.442  11.656  66.570  1.00  0.00    -0.219 C  
BRANCH   8   9
HETATM    9  C   UNL     1     -10.088  10.655  65.644  1.00  0.00    -0.335 C  
HETATM   10  C   UNL     1     -10.479  10.902  64.383  1.00  0.00    -0.403 C  
BRANCH  10  11
HETATM   11  C   UNL     1     -10.478  12.258  63.756  1.00  0.00    -0.476 C  
BRANCH  11  12
HETATM   12  C   UNL     1     -11.832  12.819  63.451  1.00  0.00    -0.591 C  
HETATM   13  C   UNL     1     -12.402  13.810  64.161  1.00  0.00    -0.382 C  
BRANCH  13  14
HETATM   14  C   UNL     1     -11.841  14.555  65.351  1.00  0.00    -0.344 C  
BRANCH  14  15
HETATM   15  C   UNL     1     -10.512  15.229  65.123  1.00  0.00    -0.438 C  
HETATM   16  C   UNL     1      -9.583  15.482  66.057  1.00  0.00    -0.380 C  
BRANCH  16  17
HETATM   17  C   UNL     1      -9.781  15.298  67.526  1.00  0.00    -0.204 C  
BRANCH  17  18
HETATM   18  C   UNL     1      -8.454  14.989  68.165  1.00  0.00    -0.151 C  
HETATM   19  C   UNL     1      -7.588  15.915  68.602  1.00  0.00    -0.161 C  
BRANCH  19  20
HETATM   20  C   UNL     1      -7.800  17.388  68.495  1.00  0.00    -0.268 C  
BRANCH  20  21
HETATM   21  C   UNL     1      -7.411  17.922  67.149  1.00  0.00    -0.211 C  
HETATM   22  C   UNL     1      -8.092  18.869  66.486  1.00  0.00    -0.298 C  
BRANCH  22  23
HETATM   23  C   UNL     1      -9.362  19.516  66.948  1.00  0.00    -0.424 C  
HETATM   24  C   UNL     1     -10.546  19.104  66.092  1.00  0.00    -0.524 C  
ENDBRANCH  22  23
ENDBRANCH  20  21
ENDBRANCH  19  20
ENDBRANCH  17  18
ENDBRANCH  16  17
ENDBRANCH  14  15
ENDBRANCH  13  14
ENDBRANCH  11  12
ENDBRANCH  10  11
ENDBRANCH   8   9
ENDBRANCH   7   8
ENDBRANCH   6   7
ENDBRANCH   4   6
ENDBRANCH   3   4
ENDBRANCH   2   3
TORSDOF 15
ENDMDL
MODEL      185
REMARK 921   NORMALIZED FREE ENERGY PREDICTED BY IDOCK:   -4.06 KCAL/MOL
REMARK 922        TOTAL FREE ENERGY PREDICTED BY IDOCK:  -10.17 KCAL/MOL
REMARK 923 INTER-LIGAND FREE ENERGY PREDICTED BY IDOCK:   -7.52 KCAL/MOL
REMARK 924 INTRA-LIGAND FREE ENERGY PREDICTED BY IDOCK:   -2.65 KCAL/MOL
REMARK 927      BINDING AFFINITY PREDICTED BY RF-SCORE:    0.00 PKD
ROOT
HETATM    1  C   UNL     1     -10.242   5.711  68.965  1.00  0.00    -0.291 C  
HETATM    2  C   UNL     1     -10.475   5.316  70.412  1.00  0.00    -0.251 C  
ENDROOT
BRANCH   2   3
HETATM    3  O   UNL     1     -11.503   6.169  70.932  1.00  0.00    -0.315 OA 
BRANCH   3   4
HETATM    4  C   UNL     1     -11.573   6.196  72.292  1.00  0.00    -0.313 C  
HETATM    5  O   UNL     1     -11.772   5.231  73.012  1.00  0.00    -0.294 OA 
BRANCH   4   6
HETATM    6  C   UNL     1     -11.260   7.590  72.763  1.00  0.00    -0.403 C  
BRANCH   6   7
HETATM    7  C   UNL     1     -12.116   8.611  72.007  1.00  0.00    -0.442 C  
BRANCH   7   8
HETATM    8  C   UNL     1     -11.274   9.716  71.390  1.00  0.00    -0.426 C  
BRANCH   8   9
HETATM    9  C   UNL     1     -10.050   9.179  70.688  1.00  0.00    -0.307 C  
HETATM   10  C   UNL     1      -9.431   9.762  69.650  1.00  0.00    -0.237 C  
BRANCH  10  11
HETATM   11  C   UNL     1      -9.956  10.959  68.926  1.00  0.00    -0.208 C  
BRANCH  11  12
HETATM   12  C   UNL     1     -11.147  10.703  68.054  1.00  0.00    -0.361 C  
HETATM   13  C   UNL     1     -11.774  11.666  67.354  1.00  0.00    -0.278 C  
BRANCH  13  14
HETATM   14  C   UNL     1     -11.440  13.139  67.275  1.00  0.00    -0.375 C  
BRANCH  14  15
HETATM   15  C   UNL     1     -12.319  13.951  66.359  1.00  0.00    -0.468 C  
HETATM   16  C   UNL     1     -12.166  14.088  65.033  1.00  0.00    -0.448 C  
BRANCH  16  17
HETATM   17  C   UNL     1     -10.987  13.599  64.258  1.00  0.00    -0.317 C  
BRANCH  17  18
HETATM   18  C   UNL     1     -11.350  12.308  63.575  1.00  0.00    -0.549 C  
HETATM   19  C   UNL     1     -10.655  11.167  63.689  1.00  0.00    -0.414 C  
BRANCH  19  20
HETATM   20  C   UNL     1      -9.404  11.016  64.488  1.00  0.00    -0.227 C  
BRANCH  20  21
HETATM   21  C   UNL     1      -9.282   9.654  65.102  1.00  0.00    -0.305 C  
HETATM   22  C   UNL     1      -8.299   9.288  65.940  1.00  0.00    -0.122 C  
BRANCH  22  23
HETATM   23  C   UNL     1      -7.151  10.150  66.367  1.00  0.00    -0.107 C  
HETATM   24  C   UNL     1      -5.815   9.517  66.020  1.00  0.00    -0.061 C  
ENDBRANCH  22  23
ENDBRANCH  20  21
ENDBRANCH  19  20
ENDBRANCH  17  18
ENDBRANCH  16  17
ENDBRANCH  14  15
ENDBRANCH  13  14
ENDBRANCH  11  12
ENDBRANCH  10  11
ENDBRANCH   8   9
ENDBRANCH   7   8
ENDBRANCH   6   7
ENDBRANCH   4   6
ENDBRANCH   3   4
ENDBRANCH   2   3
TORSDOF 15
ENDMDL
MODEL      186
REMARK 921   NORMALIZED FREE ENERGY PREDICTED BY IDOCK:   -4.06 KCAL/MOL
REMARK 922        TOTAL FREE ENERGY PREDICTED BY IDOCK:  -10.17 KCAL/MOL
REMARK 923 INTER-LIGAND FREE ENERGY PREDICTED BY IDOCK:   -7.90 KCAL/MOL
REMARK 924 INTRA-LIGAND FREE ENERGY PREDICTED BY IDOCK:   -2.27 KCAL/MOL
REMARK 927      BINDING AFFINITY PREDICTED BY RF-SCORE:    0.00 PKD
ROOT
HETATM    1  C   UNL     1      -8.308   8.340  72.407  1.00  0.00    -0.231 C  
HETATM    2  C   UNL     1      -9.109   7.820  73.588  1.00  0.00    -0.286 C  
ENDROOT
BRANCH   2   3
HETATM    3  O   UNL     1      -8.381   6.725  74.154  1.00  0.00    -0.125 OA 
BRANCH   3   4
HETATM    4  C   UNL     1      -8.369   5.602  73.383  1.00  0.00    -0.116 C  
HETATM    5  O   UNL     1      -7.371   5.046  72.955  1.00  0.00    -0.086 OA 
BRANCH   4   6
HETATM    6  C   UNL     1      -9.781   5.103  73.236  1.00  0.00    -0.160 C  
BRANCH   6   7
HETATM    7  C   UNL     1     -10.020   4.597  71.811  1.00  0.00    -0.260 C  
BRANCH   7   8
HETATM    8  C   UNL     1      -9.828   5.694  70.776  1.00  0.00    -0.239 C  
BRANCH   8   9
HETATM    9  C   UNL     1     -11.061   5.906  69.931  1.00  0.00    -0.417 C  
HETATM   10  C   UNL     1     -12.101   6.689  70.257  1.00  0.00    -0.188 C  
BRANCH  10  11
HETATM   11  C   UNL     1     -12.268   7.350  71.587  1.00  0.00    -0.361 C  
BRANCH  11  12
HETATM   12  C   UNL     1     -13.201   8.521  71.604  1.00  0.00    -0.371 C  
HETATM   13  C   UNL     1     -12.814   9.782  71.335  1.00  0.00    -0.489 C  
BRANCH  13  14
HETATM   14  C   UNL     1     -11.436  10.282  70.964  1.00  0.00    -0.386 C  
BRANCH  14  15
HETATM   15  C   UNL     1     -10.979   9.936  69.570  1.00  0.00    -0.274 C  
HETATM   16  C   UNL     1     -11.092  10.717  68.484  1.00  0.00    -0.317 C  
BRANCH  16  17
HETATM   17  C   UNL     1     -11.855  12.000  68.435  1.00  0.00    -0.360 C  
BRANCH  17  18
HETATM   18  C   UNL     1     -10.963  13.119  68.903  1.00  0.00    -0.270 C  
HETATM   19  C   UNL     1     -11.358  14.122  69.701  1.00  0.00    -0.289 C  
BRANCH  19  20
HETATM   20  C   UNL     1     -12.746  14.292  70.221  1.00  0.00    -0.305 C  
BRANCH  20  21
HETATM   21  C   UNL     1     -12.955  13.588  71.527  1.00  0.00    -0.440 C  
HETATM   22  C   UNL     1     -13.283  14.204  72.674  1.00  0.00    -0.612 C  
BRANCH  22  23
HETATM   23  C   UNL     1     -13.454  15.682  72.853  1.00  0.00    -0.657 C  
HETATM   24  C   UNL     1     -12.487  16.238  73.882  1.00  0.00    -0.661 C  
ENDBRANCH  22  23
ENDBRANCH  20  21
ENDBRANCH  19  20
ENDBRANCH  17  18
ENDBRANCH  16  17
ENDBRANCH  14  15
ENDBRANCH  13  14
ENDBRANCH  11  12
ENDBRANCH  10  11
ENDBRANCH   8   9
ENDBRANCH   7   8
ENDBRANCH   6   7
ENDBRANCH   4   6
ENDBRANCH   3   4
ENDBRANCH   2   3
TORSDOF 15
ENDMDL
MODEL      187
REMARK 921   NORMALIZED FREE ENERGY PREDICTED BY IDOCK:   -4.06 KCAL/MOL
REMARK 922        TOTAL FREE ENERGY PREDICTED BY IDOCK:  -10.17 KCAL/MOL
REMARK 923 INTER-LIGAND FREE ENERGY PREDICTED BY IDOCK:   -7.76 KCAL/MOL
REMARK 924 INTRA-LIGAND FREE ENERGY PREDICTED BY IDOCK:   -2.40 KCAL/MOL
REMARK 927      BINDING AFFINITY PREDICTED BY RF-SCORE:    0.00 PKD
ROOT
HETATM    1  C   UNL     1      -8.852  19.238  68.380  1.00  0.00    -0.395 C  
HETATM    2  C   UNL     1     -10.228  18.625  68.195  1.00  0.00    -0.382 C  
ENDROOT
BRANCH   2   3
HETATM    3  O   UNL     1     -10.413  18.395  66.793  1.00  0.00    -0.380 OA 
BRANCH   3   4
HETATM    4  C   UNL     1     -10.448  17.080  66.441  1.00  0.00    -0.252 C  
HETATM    5  O   UNL     1     -10.157  16.631  65.344  1.00  0.00    -0.578 OA 
BRANCH   4   6
HETATM    6  C   UNL     1     -10.801  16.265  67.655  1.00  0.00    -0.293 C  
BRANCH   6   7
HETATM    7  C   UNL     1     -11.632  15.043  67.252  1.00  0.00    -0.285 C  
BRANCH   7   8
HETATM    8  C   UNL     1     -11.195  13.787  67.989  1.00  0.00    -0.293 C  
BRANCH   8   9
HETATM    9  C   UNL     1      -9.772  13.401  67.668  1.00  0.00    -0.222 C  
HETATM   10  C   UNL     1      -9.393  12.597  66.662  1.00  0.00    -0.236 C  
BRANCH  10  11
HETATM   11  C   UNL     1     -10.342  11.831  65.799  1.00  0.00    -0.293 C  
BRANCH  11  12
HETATM   12  C   UNL     1      -9.771  10.603  65.159  1.00  0.00    -0.327 C  
HETATM   13  C   UNL     1      -9.833   9.379  65.715  1.00  0.00    -0.345 C  
BRANCH  13  14
HETATM   14  C   UNL     1     -10.464   8.975  67.029  1.00  0.00    -0.316 C  
BRANCH  14  15
HETATM   15  C   UNL     1      -9.496   8.589  68.118  1.00  0.00    -0.152 C  
HETATM   16  C   UNL     1      -9.619   7.545  68.952  1.00  0.00    -0.149 C  
BRANCH  16  17
HETATM   17  C   UNL     1     -10.833   6.683  69.061  1.00  0.00    -0.324 C  
BRANCH  17  18
HETATM   18  C   UNL     1     -10.630   5.688  70.172  1.00  0.00    -0.380 C  
HETATM   19  C   UNL     1     -11.178   5.790  71.392  1.00  0.00    -0.234 C  
BRANCH  19  20
HETATM   20  C   UNL     1     -12.047   6.918  71.837  1.00  0.00    -0.370 C  
BRANCH  20  21
HETATM   21  C   UNL     1     -11.252   8.084  72.343  1.00  0.00    -0.432 C  
HETATM   22  C   UNL     1     -11.353   9.333  71.862  1.00  0.00    -0.359 C  
BRANCH  22  23
HETATM   23  C   UNL     1     -12.234   9.764  70.729  1.00  0.00    -0.342 C  
HETATM   24  C   UNL     1     -11.638  10.936  69.970  1.00  0.00    -0.424 C  
ENDBRANCH  22  23
ENDBRANCH  20  21
ENDBRANCH  19  20
ENDBRANCH  17  18
ENDBRANCH  16  17
ENDBRANCH  14  15
ENDBRANCH  13  14
ENDBRANCH  11  12
ENDBRANCH  10  11
ENDBRANCH   8   9
ENDBRANCH   7   8
ENDBRANCH   6   7
ENDBRANCH   4   6
ENDBRANCH   3   4
ENDBRANCH   2   3
TORSDOF 15
ENDMDL
MODEL      188
REMARK 921   NORMALIZED FREE ENERGY PREDICTED BY IDOCK:   -4.05 KCAL/MOL
REMARK 922        TOTAL FREE ENERGY PREDICTED BY IDOCK:  -10.16 KCAL/MOL
REMARK 923 INTER-LIGAND FREE ENERGY PREDICTED BY IDOCK:   -6.09 KCAL/MOL
REMARK 924 INTRA-LIGAND FREE ENERGY PREDICTED BY IDOCK:   -4.07 KCAL/MOL
REMARK 927      BINDING AFFINITY PREDICTED BY RF-SCORE:    0.00 PKD
ROOT
HETATM    1  C   UNL     1     -12.769  13.396  64.976  1.00  0.00    -0.420 C  
HETATM    2  C   UNL     1     -11.601  13.150  64.038  1.00  0.00    -0.428 C  
ENDROOT
BRANCH   2   3
HETATM    3  O   UNL     1     -11.645  11.773  63.647  1.00  0.00    -0.434 OA 
BRANCH   3   4
HETATM    4  C   UNL     1     -10.434  11.148  63.660  1.00  0.00    -0.376 C  
HETATM    5  O   UNL     1      -9.869  10.675  62.687  1.00  0.00    -0.263 OA 
BRANCH   4   6
HETATM    6  C   UNL     1      -9.862  11.233  65.048  1.00  0.00    -0.307 C  
BRANCH   6   7
HETATM    7  C   UNL     1     -10.110   9.926  65.806  1.00  0.00    -0.317 C  
BRANCH   7   8
HETATM    8  C   UNL     1      -9.075   9.693  66.896  1.00  0.00    -0.160 C  
BRANCH   8   9
HETATM    9  C   UNL     1      -7.970  10.721  66.865  1.00  0.00    -0.133 C  
HETATM   10  C   UNL     1      -7.298  11.172  67.936  1.00  0.00    -0.092 C  
BRANCH  10  11
HETATM   11  C   UNL     1      -7.652  10.838  69.349  1.00  0.00    -0.114 C  
BRANCH  11  12
HETATM   12  C   UNL     1      -7.033   9.582  69.881  1.00  0.00    -0.078 C  
HETATM   13  C   UNL     1      -7.628   8.790  70.791  1.00  0.00    -0.097 C  
BRANCH  13  14
HETATM   14  C   UNL     1      -8.982   8.960  71.442  1.00  0.00    -0.300 C  
BRANCH  14  15
HETATM   15  C   UNL     1     -10.150   8.431  70.649  1.00  0.00    -0.220 C  
HETATM   16  C   UNL     1     -11.070   9.168  70.008  1.00  0.00    -0.208 C  
BRANCH  16  17
HETATM   17  C   UNL     1     -11.197  10.652  70.118  1.00  0.00    -0.378 C  
BRANCH  17  18
HETATM   18  C   UNL     1     -11.952  11.169  68.922  1.00  0.00    -0.367 C  
HETATM   19  C   UNL     1     -11.626  12.277  68.240  1.00  0.00    -0.385 C  
BRANCH  19  20
HETATM   20  C   UNL     1     -10.484  13.174  68.580  1.00  0.00    -0.262 C  
BRANCH  20  21
HETATM   21  C   UNL     1     -10.015  13.971  67.400  1.00  0.00    -0.243 C  
HETATM   22  C   UNL     1      -8.850  14.635  67.351  1.00  0.00    -0.205 C  
BRANCH  22  23
HETATM   23  C   UNL     1      -7.852  14.729  68.464  1.00  0.00    -0.130 C  
HETATM   24  C   UNL     1      -6.455  15.011  67.943  1.00  0.00    -0.175 C  
ENDBRANCH  22  23
ENDBRANCH  20  21
ENDBRANCH  19  20
ENDBRANCH  17  18
ENDBRANCH  16  17
ENDBRANCH  14  15
ENDBRANCH  13  14
ENDBRANCH  11  12
ENDBRANCH  10  11
ENDBRANCH   8   9
ENDBRANCH   7   8
ENDBRANCH   6   7
ENDBRANCH   4   6
ENDBRANCH   3   4
ENDBRANCH   2   3
TORSDOF 15
ENDMDL
MODEL      189
REMARK 921   NORMALIZED FREE ENERGY PREDICTED BY IDOCK:   -4.05 KCAL/MOL
REMARK 922        TOTAL FREE ENERGY PREDICTED BY IDOCK:  -10.15 KCAL/MOL
REMARK 923 INTER-LIGAND FREE ENERGY PREDICTED BY IDOCK:   -6.95 KCAL/MOL
REMARK 924 INTRA-LIGAND FREE ENERGY PREDICTED BY IDOCK:   -3.20 KCAL/MOL
REMARK 927      BINDING AFFINITY PREDICTED BY RF-SCORE:    0.00 PKD
ROOT
HETATM    1  C   UNL     1     -11.765  10.923  70.531  1.00  0.00    -0.441 C  
HETATM    2  C   UNL     1     -11.079  10.281  69.339  1.00  0.00    -0.252 C  
ENDROOT
BRANCH   2   3
HETATM    3  O   UNL     1      -9.674  10.529  69.465  1.00  0.00    -0.202 OA 
BRANCH   3   4
HETATM    4  C   UNL     1      -9.086  11.007  68.333  1.00  0.00    -0.161 C  
HETATM    5  O   UNL     1      -8.955  10.392  67.287  1.00  0.00    -0.135 OA 
BRANCH   4   6
HETATM    6  C   UNL     1      -8.721  12.450  68.553  1.00  0.00    -0.060 C  
BRANCH   6   7
HETATM    7  C   UNL     1      -7.971  12.999  67.336  1.00  0.00    -0.173 C  
BRANCH   7   8
HETATM    8  C   UNL     1      -7.989  14.520  67.293  1.00  0.00    -0.216 C  
BRANCH   8   9
HETATM    9  C   UNL     1      -8.132  15.129  68.666  1.00  0.00    -0.154 C  
HETATM   10  C   UNL     1      -8.107  16.443  68.940  1.00  0.00    -0.236 C  
BRANCH  10  11
HETATM   11  C   UNL     1      -7.774  17.501  67.939  1.00  0.00    -0.213 C  
BRANCH  11  12
HETATM   12  C   UNL     1      -8.019  18.907  68.393  1.00  0.00    -0.373 C  
HETATM   13  C   UNL     1      -9.204  19.531  68.267  1.00  0.00    -0.412 C  
BRANCH  13  14
HETATM   14  C   UNL     1     -10.493  18.992  67.688  1.00  0.00    -0.523 C  
BRANCH  14  15
HETATM   15  C   UNL     1     -10.545  18.928  66.183  1.00  0.00    -0.476 C  
HETATM   16  C   UNL     1     -10.611  17.812  65.441  1.00  0.00     0.074 C  
BRANCH  16  17
HETATM   17  C   UNL     1     -10.466  16.425  65.975  1.00  0.00    -0.333 C  
BRANCH  17  18
HETATM   18  C   UNL     1     -10.598  15.445  64.841  1.00  0.00    -0.380 C  
HETATM   19  C   UNL     1     -11.544  14.498  64.762  1.00  0.00    -0.414 C  
BRANCH  19  20
HETATM   20  C   UNL     1     -12.589  14.259  65.799  1.00  0.00    -0.405 C  
BRANCH  20  21
HETATM   21  C   UNL     1     -12.161  13.243  66.814  1.00  0.00    -0.403 C  
HETATM   22  C   UNL     1     -11.841  13.533  68.085  1.00  0.00    -0.400 C  
BRANCH  22  23
HETATM   23  C   UNL     1     -11.817  14.904  68.688  1.00  0.00    -0.332 C  
HETATM   24  C   UNL     1     -11.594  14.854  70.189  1.00  0.00    -0.333 C  
ENDBRANCH  22  23
ENDBRANCH  20  21
ENDBRANCH  19  20
ENDBRANCH  17  18
ENDBRANCH  16  17
ENDBRANCH  14  15
ENDBRANCH  13  14
ENDBRANCH  11  12
ENDBRANCH  10  11
ENDBRANCH   8   9
ENDBRANCH   7   8
ENDBRANCH   6   7
ENDBRANCH   4   6
ENDBRANCH   3   4
ENDBRANCH   2   3
TORSDOF 15
ENDMDL
MODEL      190
REMARK 921   NORMALIZED FREE ENERGY PREDICTED BY IDOCK:   -4.05 KCAL/MOL
REMARK 922        TOTAL FREE ENERGY PREDICTED BY IDOCK:  -10.15 KCAL/MOL
REMARK 923 INTER-LIGAND FREE ENERGY PREDICTED BY IDOCK:   -7.45 KCAL/MOL
REMARK 924 INTRA-LIGAND FREE ENERGY PREDICTED BY IDOCK:   -2.70 KCAL/MOL
REMARK 927      BINDING AFFINITY PREDICTED BY RF-SCORE:    0.00 PKD
ROOT
HETATM    1  C   UNL     1      -9.137  17.834  68.310  1.00  0.00    -0.281 C  
HETATM    2  C   UNL     1     -10.532  17.250  68.440  1.00  0.00    -0.381 C  
ENDROOT
BRANCH   2   3
HETATM    3  O   UNL     1     -10.702  16.297  67.384  1.00  0.00    -0.319 OA 
BRANCH   3   4
HETATM    4  C   UNL     1     -11.479  15.228  67.714  1.00  0.00    -0.303 C  
HETATM    5  O   UNL     1     -11.938  14.999  68.822  1.00  0.00    -0.308 OA 
BRANCH   4   6
HETATM    6  C   UNL     1     -11.764  14.437  66.467  1.00  0.00    -0.404 C  
BRANCH   6   7
HETATM    7  C   UNL     1     -10.492  13.736  65.980  1.00  0.00    -0.297 C  
BRANCH   7   8
HETATM    8  C   UNL     1     -10.090  12.586  66.890  1.00  0.00    -0.232 C  
BRANCH   8   9
HETATM    9  C   UNL     1     -11.183  11.553  67.024  1.00  0.00    -0.365 C  
HETATM   10  C   UNL     1     -11.802  11.221  68.169  1.00  0.00    -0.276 C  
BRANCH  10  11
HETATM   11  C   UNL     1     -11.390  11.713  69.517  1.00  0.00    -0.328 C  
BRANCH  11  12
HETATM   12  C   UNL     1     -12.399  11.511  70.605  1.00  0.00    -0.457 C  
HETATM   13  C   UNL     1     -12.419  10.432  71.408  1.00  0.00    -0.521 C  
BRANCH  13  14
HETATM   14  C   UNL     1     -11.479   9.247  71.413  1.00  0.00    -0.439 C  
BRANCH  14  15
HETATM   15  C   UNL     1     -11.662   8.283  72.556  1.00  0.00    -0.451 C  
HETATM   16  C   UNL     1     -10.937   7.176  72.782  1.00  0.00    -0.346 C  
BRANCH  16  17
HETATM   17  C   UNL     1      -9.932   6.611  71.833  1.00  0.00    -0.189 C  
BRANCH  17  18
HETATM   18  C   UNL     1     -10.500   5.369  71.199  1.00  0.00    -0.295 C  
HETATM   19  C   UNL     1     -10.366   5.049  69.904  1.00  0.00    -0.298 C  
BRANCH  19  20
HETATM   20  C   UNL     1      -9.657   5.888  68.894  1.00  0.00    -0.158 C  
BRANCH  20  21
HETATM   21  C   UNL     1     -10.536   6.964  68.332  1.00  0.00    -0.249 C  
HETATM   22  C   UNL     1     -10.117   8.204  68.035  1.00  0.00    -0.241 C  
BRANCH  22  23
HETATM   23  C   UNL     1      -8.731   8.731  68.248  1.00  0.00    -0.135 C  
HETATM   24  C   UNL     1      -8.662   9.657  69.449  1.00  0.00    -0.173 C  
ENDBRANCH  22  23
ENDBRANCH  20  21
ENDBRANCH  19  20
ENDBRANCH  17  18
ENDBRANCH  16  17
ENDBRANCH  14  15
ENDBRANCH  13  14
ENDBRANCH  11  12
ENDBRANCH  10  11
ENDBRANCH   8   9
ENDBRANCH   7   8
ENDBRANCH   6   7
ENDBRANCH   4   6
ENDBRANCH   3   4
ENDBRANCH   2   3
TORSDOF 15
ENDMDL
MODEL      191
REMARK 921   NORMALIZED FREE ENERGY PREDICTED BY IDOCK:   -4.04 KCAL/MOL
REMARK 922        TOTAL FREE ENERGY PREDICTED BY IDOCK:  -10.14 KCAL/MOL
REMARK 923 INTER-LIGAND FREE ENERGY PREDICTED BY IDOCK:   -7.90 KCAL/MOL
REMARK 924 INTRA-LIGAND FREE ENERGY PREDICTED BY IDOCK:   -2.25 KCAL/MOL
REMARK 927      BINDING AFFINITY PREDICTED BY RF-SCORE:    0.00 PKD
ROOT
HETATM    1  C   UNL     1     -13.062  10.468  71.680  1.00  0.00    -0.551 C  
HETATM    2  C   UNL     1     -11.927   9.509  71.374  1.00  0.00    -0.386 C  
ENDROOT
BRANCH   2   3
HETATM    3  O   UNL     1     -12.492   8.199  71.244  1.00  0.00    -0.307 OA 
BRANCH   3   4
HETATM    4  C   UNL     1     -11.692   7.196  71.703  1.00  0.00    -0.291 C  
HETATM    5  O   UNL     1     -12.077   6.118  72.126  1.00  0.00    -0.327 OA 
BRANCH   4   6
HETATM    6  C   UNL     1     -10.255   7.596  71.503  1.00  0.00    -0.212 C  
BRANCH   6   7
HETATM    7  C   UNL     1      -9.565   6.632  70.534  1.00  0.00    -0.177 C  
BRANCH   7   8
HETATM    8  C   UNL     1      -9.103   7.332  69.265  1.00  0.00    -0.138 C  
BRANCH   8   9
HETATM    9  C   UNL     1     -10.214   7.479  68.255  1.00  0.00    -0.218 C  
HETATM   10  C   UNL     1     -10.348   8.497  67.390  1.00  0.00    -0.356 C  
BRANCH  10  11
HETATM   11  C   UNL     1      -9.499   9.725  67.404  1.00  0.00    -0.178 C  
BRANCH  11  12
HETATM   12  C   UNL     1      -9.748  10.658  68.550  1.00  0.00    -0.177 C  
HETATM   13  C   UNL     1     -10.684  11.624  68.531  1.00  0.00    -0.250 C  
BRANCH  13  14
HETATM   14  C   UNL     1     -11.656  11.968  67.424  1.00  0.00    -0.388 C  
BRANCH  14  15
HETATM   15  C   UNL     1     -11.030  12.483  66.154  1.00  0.00    -0.318 C  
HETATM   16  C   UNL     1     -10.754  13.766  65.872  1.00  0.00    -0.285 C  
BRANCH  16  17
HETATM   17  C   UNL     1     -11.185  14.930  66.702  1.00  0.00    -0.340 C  
BRANCH  17  18
HETATM   18  C   UNL     1     -10.067  15.308  67.636  1.00  0.00    -0.235 C  
HETATM   19  C   UNL     1     -10.164  15.314  68.973  1.00  0.00    -0.239 C  
BRANCH  19  20
HETATM   20  C   UNL     1     -11.402  14.974  69.732  1.00  0.00    -0.310 C  
BRANCH  20  21
HETATM   21  C   UNL     1     -11.432  15.613  71.088  1.00  0.00    -0.463 C  
HETATM   22  C   UNL     1     -12.531  15.715  71.852  1.00  0.00    -0.505 C  
BRANCH  22  23
HETATM   23  C   UNL     1     -13.904  15.252  71.471  1.00  0.00    -0.617 C  
HETATM   24  C   UNL     1     -14.285  13.974  72.195  1.00  0.00    -0.628 C  
ENDBRANCH  22  23
ENDBRANCH  20  21
ENDBRANCH  19  20
ENDBRANCH  17  18
ENDBRANCH  16  17
ENDBRANCH  14  15
ENDBRANCH  13  14
ENDBRANCH  11  12
ENDBRANCH  10  11
ENDBRANCH   8   9
ENDBRANCH   7   8
ENDBRANCH   6   7
ENDBRANCH   4   6
ENDBRANCH   3   4
ENDBRANCH   2   3
TORSDOF 15
ENDMDL
MODEL      192
REMARK 921   NORMALIZED FREE ENERGY PREDICTED BY IDOCK:   -4.04 KCAL/MOL
REMARK 922        TOTAL FREE ENERGY PREDICTED BY IDOCK:  -10.14 KCAL/MOL
REMARK 923 INTER-LIGAND FREE ENERGY PREDICTED BY IDOCK:   -7.97 KCAL/MOL
REMARK 924 INTRA-LIGAND FREE ENERGY PREDICTED BY IDOCK:   -2.17 KCAL/MOL
REMARK 927      BINDING AFFINITY PREDICTED BY RF-SCORE:    0.00 PKD
ROOT
HETATM    1  C   UNL     1      -9.423   3.903  70.106  1.00  0.00    -0.261 C  
HETATM    2  C   UNL     1     -10.397   5.061  69.989  1.00  0.00    -0.233 C  
ENDROOT
BRANCH   2   3
HETATM    3  O   UNL     1     -10.754   5.460  71.318  1.00  0.00    -0.237 OA 
BRANCH   3   4
HETATM    4  C   UNL     1     -10.434   6.749  71.621  1.00  0.00    -0.209 C  
HETATM    5  O   UNL     1      -9.434   7.339  71.245  1.00  0.00    -0.156 OA 
BRANCH   4   6
HETATM    6  C   UNL     1     -11.566   7.355  72.404  1.00  0.00    -0.327 C  
BRANCH   6   7
HETATM    7  C   UNL     1     -12.842   7.386  71.557  1.00  0.00    -0.416 C  
BRANCH   7   8
HETATM    8  C   UNL     1     -13.271   8.806  71.222  1.00  0.00    -0.203 C  
BRANCH   8   9
HETATM    9  C   UNL     1     -12.233   9.826  71.624  1.00  0.00    -0.488 C  
HETATM   10  C   UNL     1     -11.308  10.355  70.808  1.00  0.00    -0.370 C  
BRANCH  10  11
HETATM   11  C   UNL     1     -11.062   9.894  69.409  1.00  0.00    -0.237 C  
BRANCH  11  12
HETATM   12  C   UNL     1     -11.648  10.763  68.339  1.00  0.00    -0.311 C  
HETATM   13  C   UNL     1     -11.013  11.052  67.188  1.00  0.00    -0.344 C  
BRANCH  13  14
HETATM   14  C   UNL     1      -9.651  10.588  66.724  1.00  0.00    -0.205 C  
BRANCH  14  15
HETATM   15  C   UNL     1      -9.641   9.811  65.432  1.00  0.00    -0.359 C  
HETATM   16  C   UNL     1      -9.709  10.330  64.197  1.00  0.00    -0.357 C  
BRANCH  16  17
HETATM   17  C   UNL     1      -9.986  11.766  63.892  1.00  0.00    -0.356 C  
BRANCH  17  18
HETATM   18  C   UNL     1     -11.347  11.879  63.258  1.00  0.00    -0.373 C  
HETATM   19  C   UNL     1     -12.185  12.910  63.437  1.00  0.00    -0.574 C  
BRANCH  19  20
HETATM   20  C   UNL     1     -11.904  14.086  64.312  1.00  0.00    -0.435 C  
BRANCH  20  21
HETATM   21  C   UNL     1     -12.655  14.023  65.607  1.00  0.00    -0.542 C  
HETATM   22  C   UNL     1     -12.113  14.278  66.808  1.00  0.00    -0.446 C  
BRANCH  22  23
HETATM   23  C   UNL     1     -10.677  14.622  67.062  1.00  0.00    -0.290 C  
HETATM   24  C   UNL     1     -10.250  14.244  68.469  1.00  0.00    -0.245 C  
ENDBRANCH  22  23
ENDBRANCH  20  21
ENDBRANCH  19  20
ENDBRANCH  17  18
ENDBRANCH  16  17
ENDBRANCH  14  15
ENDBRANCH  13  14
ENDBRANCH  11  12
ENDBRANCH  10  11
ENDBRANCH   8   9
ENDBRANCH   7   8
ENDBRANCH   6   7
ENDBRANCH   4   6
ENDBRANCH   3   4
ENDBRANCH   2   3
TORSDOF 15
ENDMDL
MODEL      193
REMARK 921   NORMALIZED FREE ENERGY PREDICTED BY IDOCK:   -4.02 KCAL/MOL
REMARK 922        TOTAL FREE ENERGY PREDICTED BY IDOCK:  -10.10 KCAL/MOL
REMARK 923 INTER-LIGAND FREE ENERGY PREDICTED BY IDOCK:   -7.55 KCAL/MOL
REMARK 924 INTRA-LIGAND FREE ENERGY PREDICTED BY IDOCK:   -2.56 KCAL/MOL
REMARK 927      BINDING AFFINITY PREDICTED BY RF-SCORE:    0.00 PKD
ROOT
HETATM    1  C   UNL     1      -9.984  19.450  68.200  1.00  0.00    -0.510 C  
HETATM    2  C   UNL     1     -10.874  19.257  66.985  1.00  0.00    -0.414 C  
ENDROOT
BRANCH   2   3
HETATM    3  O   UNL     1     -10.052  18.764  65.921  1.00  0.00    -0.512 OA 
BRANCH   3   4
HETATM    4  C   UNL     1     -10.388  17.517  65.486  1.00  0.00    -0.019 C  
HETATM    5  O   UNL     1     -11.277  17.259  64.692  1.00  0.00    -1.014 OA 
BRANCH   4   6
HETATM    6  C   UNL     1      -9.415  16.527  66.065  1.00  0.00    -0.317 C  
BRANCH   6   7
HETATM    7  C   UNL     1      -8.059  17.195  66.310  1.00  0.00    -0.325 C  
BRANCH   7   8
HETATM    8  C   UNL     1      -7.090  16.271  67.033  1.00  0.00    -0.259 C  
BRANCH   8   9
HETATM    9  C   UNL     1      -7.686  15.690  68.292  1.00  0.00    -0.130 C  
HETATM   10  C   UNL     1      -7.952  14.390  68.498  1.00  0.00    -0.144 C  
BRANCH  10  11
HETATM   11  C   UNL     1      -7.844  13.336  67.444  1.00  0.00    -0.159 C  
BRANCH  11  12
HETATM   12  C   UNL     1      -6.538  12.604  67.406  1.00  0.00    -0.145 C  
HETATM   13  C   UNL     1      -6.358  11.441  66.754  1.00  0.00    -0.142 C  
BRANCH  13  14
HETATM   14  C   UNL     1      -7.363  10.653  65.945  1.00  0.00    -0.128 C  
BRANCH  14  15
HETATM   15  C   UNL     1      -8.567  10.167  66.710  1.00  0.00    -0.129 C  
HETATM   16  C   UNL     1      -9.822  10.087  66.241  1.00  0.00    -0.297 C  
BRANCH  16  17
HETATM   17  C   UNL     1     -10.276  10.637  64.929  1.00  0.00    -0.395 C  
BRANCH  17  18
HETATM   18  C   UNL     1      -9.883  12.087  64.842  1.00  0.00    -0.198 C  
HETATM   19  C   UNL     1     -10.645  13.107  65.264  1.00  0.00    -0.325 C  
BRANCH  19  20
HETATM   20  C   UNL     1     -12.006  12.957  65.857  1.00  0.00    -0.504 C  
BRANCH  20  21
HETATM   21  C   UNL     1     -12.207  13.841  67.051  1.00  0.00    -0.381 C  
HETATM   22  C   UNL     1     -11.771  13.552  68.287  1.00  0.00    -0.394 C  
BRANCH  22  23
HETATM   23  C   UNL     1     -11.058  12.298  68.690  1.00  0.00    -0.291 C  
HETATM   24  C   UNL     1     -12.030  11.200  69.081  1.00  0.00    -0.413 C  
ENDBRANCH  22  23
ENDBRANCH  20  21
ENDBRANCH  19  20
ENDBRANCH  17  18
ENDBRANCH  16  17
ENDBRANCH  14  15
ENDBRANCH  13  14
ENDBRANCH  11  12
ENDBRANCH  10  11
ENDBRANCH   8   9
ENDBRANCH   7   8
ENDBRANCH   6   7
ENDBRANCH   4   6
ENDBRANCH   3   4
ENDBRANCH   2   3
TORSDOF 15
ENDMDL
MODEL      194
REMARK 921   NORMALIZED FREE ENERGY PREDICTED BY IDOCK:   -4.02 KCAL/MOL
REMARK 922        TOTAL FREE ENERGY PREDICTED BY IDOCK:  -10.10 KCAL/MOL
REMARK 923 INTER-LIGAND FREE ENERGY PREDICTED BY IDOCK:   -7.60 KCAL/MOL
REMARK 924 INTRA-LIGAND FREE ENERGY PREDICTED BY IDOCK:   -2.50 KCAL/MOL
REMARK 927      BINDING AFFINITY PREDICTED BY RF-SCORE:    0.00 PKD
ROOT
HETATM    1  C   UNL     1     -12.538  16.209  74.065  1.00  0.00    -0.694 C  
HETATM    2  C   UNL     1     -12.374  14.744  73.706  1.00  0.00    -0.331 C  
ENDROOT
BRANCH   2   3
HETATM    3  O   UNL     1     -13.507  14.364  72.916  1.00  0.00    -0.559 OA 
BRANCH   3   4
HETATM    4  C   UNL     1     -13.454  14.786  71.622  1.00  0.00    -0.384 C  
HETATM    5  O   UNL     1     -14.213  15.591  71.107  1.00  0.00    -0.528 OA 
BRANCH   4   6
HETATM    6  C   UNL     1     -12.245  14.179  70.966  1.00  0.00    -0.432 C  
BRANCH   6   7
HETATM    7  C   UNL     1     -12.435  14.123  69.447  1.00  0.00    -0.114 C  
BRANCH   7   8
HETATM    8  C   UNL     1     -11.265  13.449  68.749  1.00  0.00    -0.315 C  
BRANCH   8   9
HETATM    9  C   UNL     1     -11.676  12.186  68.033  1.00  0.00    -0.409 C  
HETATM   10  C   UNL     1     -11.622  10.947  68.548  1.00  0.00    -0.360 C  
BRANCH  10  11
HETATM   11  C   UNL     1     -10.993  10.613  69.861  1.00  0.00    -0.337 C  
BRANCH  11  12
HETATM   12  C   UNL     1     -11.954  10.337  70.976  1.00  0.00    -0.483 C  
HETATM   13  C   UNL     1     -11.881   9.251  71.767  1.00  0.00    -0.454 C  
BRANCH  13  14
HETATM   14  C   UNL     1     -10.868   8.129  71.730  1.00  0.00    -0.317 C  
BRANCH  14  15
HETATM   15  C   UNL     1     -11.395   6.801  71.248  1.00  0.00    -0.333 C  
HETATM   16  C   UNL     1     -11.402   6.367  69.978  1.00  0.00    -0.496 C  
BRANCH  16  17
HETATM   17  C   UNL     1     -11.048   7.203  68.792  1.00  0.00    -0.019 C  
BRANCH  17  18
HETATM   18  C   UNL     1     -10.884   6.308  67.593  1.00  0.00    -0.433 C  
HETATM   19  C   UNL     1      -9.745   6.170  66.899  1.00  0.00    -0.178 C  
BRANCH  19  20
HETATM   20  C   UNL     1      -8.480   6.903  67.196  1.00  0.00    -0.121 C  
BRANCH  20  21
HETATM   21  C   UNL     1      -7.391   5.989  67.672  1.00  0.00    -0.077 C  
HETATM   22  C   UNL     1      -7.122   5.744  68.964  1.00  0.00    -0.069 C  
BRANCH  22  23
HETATM   23  C   UNL     1      -7.823   6.363  70.134  1.00  0.00    -0.107 C  
HETATM   24  C   UNL     1      -7.108   7.611  70.621  1.00  0.00    -0.054 C  
ENDBRANCH  22  23
ENDBRANCH  20  21
ENDBRANCH  19  20
ENDBRANCH  17  18
ENDBRANCH  16  17
ENDBRANCH  14  15
ENDBRANCH  13  14
ENDBRANCH  11  12
ENDBRANCH  10  11
ENDBRANCH   8   9
ENDBRANCH   7   8
ENDBRANCH   6   7
ENDBRANCH   4   6
ENDBRANCH   3   4
ENDBRANCH   2   3
TORSDOF 15
ENDMDL
MODEL      195
REMARK 921   NORMALIZED FREE ENERGY PREDICTED BY IDOCK:   -4.02 KCAL/MOL
REMARK 922        TOTAL FREE ENERGY PREDICTED BY IDOCK:  -10.10 KCAL/MOL
REMARK 923 INTER-LIGAND FREE ENERGY PREDICTED BY IDOCK:   -8.29 KCAL/MOL
REMARK 924 INTRA-LIGAND FREE ENERGY PREDICTED BY IDOCK:   -1.80 KCAL/MOL
REMARK 927      BINDING AFFINITY PREDICTED BY RF-SCORE:    0.00 PKD
ROOT
HETATM    1  C   UNL     1      -8.916   5.421  65.646  1.00  0.00    -0.160 C  
HETATM    2  C   UNL     1      -7.972   6.553  65.286  1.00  0.00    -0.119 C  
ENDROOT
BRANCH   2   3
HETATM    3  O   UNL     1      -8.417   7.724  65.980  1.00  0.00    -0.125 OA 
BRANCH   3   4
HETATM    4  C   UNL     1      -8.817   8.740  65.165  1.00  0.00    -0.133 C  
HETATM    5  O   UNL     1      -8.431   8.926  64.022  1.00  0.00    -0.176 OA 
BRANCH   4   6
HETATM    6  C   UNL     1      -9.887   9.530  65.868  1.00  0.00    -0.360 C  
BRANCH   6   7
HETATM    7  C   UNL     1     -10.384  10.668  64.971  1.00  0.00    -0.341 C  
BRANCH   7   8
HETATM    8  C   UNL     1      -9.842  12.019  65.410  1.00  0.00    -0.243 C  
BRANCH   8   9
HETATM    9  C   UNL     1     -10.533  13.166  64.715  1.00  0.00    -0.390 C  
HETATM   10  C   UNL     1     -10.621  14.420  65.186  1.00  0.00    -0.429 C  
BRANCH  10  11
HETATM   11  C   UNL     1     -10.183  14.835  66.553  1.00  0.00    -0.281 C  
BRANCH  11  12
HETATM   12  C   UNL     1     -11.270  15.359  67.439  1.00  0.00    -0.287 C  
HETATM   13  C   UNL     1     -11.749  14.687  68.502  1.00  0.00    -0.348 C  
BRANCH  13  14
HETATM   14  C   UNL     1     -11.321  13.335  69.030  1.00  0.00    -0.334 C  
BRANCH  14  15
HETATM   15  C   UNL     1     -11.751  12.154  68.198  1.00  0.00    -0.402 C  
HETATM   16  C   UNL     1     -11.856  10.885  68.622  1.00  0.00    -0.269 C  
BRANCH  16  17
HETATM   17  C   UNL     1     -11.392  10.392  69.953  1.00  0.00    -0.370 C  
BRANCH  17  18
HETATM   18  C   UNL     1     -12.588  10.175  70.840  1.00  0.00    -0.454 C  
HETATM   19  C   UNL     1     -13.160  11.127  71.592  1.00  0.00    -0.529 C  
BRANCH  19  20
HETATM   20  C   UNL     1     -12.678  12.537  71.680  1.00  0.00    -0.297 C  
BRANCH  20  21
HETATM   21  C   UNL     1     -13.749  13.475  72.149  1.00  0.00    -0.654 C  
HETATM   22  C   UNL     1     -13.515  14.611  72.825  1.00  0.00    -0.570 C  
BRANCH  22  23
HETATM   23  C   UNL     1     -12.169  15.109  73.256  1.00  0.00    -0.540 C  
HETATM   24  C   UNL     1     -12.209  16.578  73.635  1.00  0.00    -0.484 C  
ENDBRANCH  22  23
ENDBRANCH  20  21
ENDBRANCH  19  20
ENDBRANCH  17  18
ENDBRANCH  16  17
ENDBRANCH  14  15
ENDBRANCH  13  14
ENDBRANCH  11  12
ENDBRANCH  10  11
ENDBRANCH   8   9
ENDBRANCH   7   8
ENDBRANCH   6   7
ENDBRANCH   4   6
ENDBRANCH   3   4
ENDBRANCH   2   3
TORSDOF 15
ENDMDL
MODEL      196
REMARK 921   NORMALIZED FREE ENERGY PREDICTED BY IDOCK:   -4.02 KCAL/MOL
REMARK 922        TOTAL FREE ENERGY PREDICTED BY IDOCK:  -10.09 KCAL/MOL
REMARK 923 INTER-LIGAND FREE ENERGY PREDICTED BY IDOCK:   -8.17 KCAL/MOL
REMARK 924 INTRA-LIGAND FREE ENERGY PREDICTED BY IDOCK:   -1.92 KCAL/MOL
REMARK 927      BINDING AFFINITY PREDICTED BY RF-SCORE:    0.00 PKD
ROOT
HETATM    1  C   UNL     1     -10.295   4.631  66.028  1.00  0.00    -0.318 C  
HETATM    2  C   UNL     1     -10.553   5.669  67.105  1.00  0.00    -0.270 C  
ENDROOT
BRANCH   2   3
HETATM    3  O   UNL     1      -9.675   5.383  68.199  1.00  0.00    -0.125 OA 
BRANCH   3   4
HETATM    4  C   UNL     1     -10.190   5.684  69.424  1.00  0.00    -0.245 C  
HETATM    5  O   UNL     1      -9.872   5.155  70.477  1.00  0.00    -0.183 OA 
BRANCH   4   6
HETATM    6  C   UNL     1     -11.135   6.844  69.278  1.00  0.00    -0.229 C  
BRANCH   6   7
HETATM    7  C   UNL     1     -11.603   7.326  70.655  1.00  0.00    -0.322 C  
BRANCH   7   8
HETATM    8  C   UNL     1     -10.971   8.655  71.038  1.00  0.00    -0.314 C  
BRANCH   8   9
HETATM    9  C   UNL     1     -11.973   9.783  71.049  1.00  0.00    -0.440 C  
HETATM   10  C   UNL     1     -12.010  10.798  70.171  1.00  0.00    -0.432 C  
BRANCH  10  11
HETATM   11  C   UNL     1     -10.961  11.051  69.138  1.00  0.00    -0.289 C  
BRANCH  11  12
HETATM   12  C   UNL     1     -10.995  10.131  67.957  1.00  0.00    -0.326 C  
HETATM   13  C   UNL     1     -10.662  10.511  66.710  1.00  0.00    -0.252 C  
BRANCH  13  14
HETATM   14  C   UNL     1     -10.191  11.868  66.236  1.00  0.00    -0.247 C  
BRANCH  14  15
HETATM   15  C   UNL     1     -11.072  12.533  65.209  1.00  0.00    -0.332 C  
HETATM   16  C   UNL     1     -11.904  13.562  65.429  1.00  0.00    -0.379 C  
BRANCH  16  17
HETATM   17  C   UNL     1     -12.235  14.115  66.776  1.00  0.00    -0.429 C  
BRANCH  17  18
HETATM   18  C   UNL     1     -11.050  14.882  67.297  1.00  0.00    -0.336 C  
HETATM   19  C   UNL     1     -10.825  15.146  68.592  1.00  0.00    -0.245 C  
BRANCH  19  20
HETATM   20  C   UNL     1     -11.731  14.742  69.706  1.00  0.00    -0.354 C  
BRANCH  20  21
HETATM   21  C   UNL     1     -11.251  15.236  71.038  1.00  0.00    -0.378 C  
HETATM   22  C   UNL     1     -12.027  15.350  72.127  1.00  0.00    -0.514 C  
BRANCH  22  23
HETATM   23  C   UNL     1     -13.493  15.047  72.188  1.00  0.00    -0.508 C  
HETATM   24  C   UNL     1     -13.752  13.561  72.355  1.00  0.00    -0.704 C  
ENDBRANCH  22  23
ENDBRANCH  20  21
ENDBRANCH  19  20
ENDBRANCH  17  18
ENDBRANCH  16  17
ENDBRANCH  14  15
ENDBRANCH  13  14
ENDBRANCH  11  12
ENDBRANCH  10  11
ENDBRANCH   8   9
ENDBRANCH   7   8
ENDBRANCH   6   7
ENDBRANCH   4   6
ENDBRANCH   3   4
ENDBRANCH   2   3
TORSDOF 15
ENDMDL
MODEL      197
REMARK 921   NORMALIZED FREE ENERGY PREDICTED BY IDOCK:   -4.02 KCAL/MOL
REMARK 922        TOTAL FREE ENERGY PREDICTED BY IDOCK:  -10.09 KCAL/MOL
REMARK 923 INTER-LIGAND FREE ENERGY PREDICTED BY IDOCK:   -6.84 KCAL/MOL
REMARK 924 INTRA-LIGAND FREE ENERGY PREDICTED BY IDOCK:   -3.25 KCAL/MOL
REMARK 927      BINDING AFFINITY PREDICTED BY RF-SCORE:    0.00 PKD
ROOT
HETATM    1  C   UNL     1     -10.003   9.220  66.435  1.00  0.00    -0.356 C  
HETATM    2  C   UNL     1      -8.874   8.734  65.545  1.00  0.00    -0.188 C  
ENDROOT
BRANCH   2   3
HETATM    3  O   UNL     1      -8.340   9.876  64.864  1.00  0.00    -0.134 OA 
BRANCH   3   4
HETATM    4  C   UNL     1      -8.802  10.038  63.593  1.00  0.00    -0.232 C  
HETATM    5  O   UNL     1      -8.883   9.158  62.750  1.00  0.00    -0.220 OA 
BRANCH   4   6
HETATM    6  C   UNL     1      -9.294  11.450  63.435  1.00  0.00    -0.227 C  
BRANCH   6   7
HETATM    7  C   UNL     1     -10.825  11.486  63.465  1.00  0.00    -0.473 C  
BRANCH   7   8
HETATM    8  C   UNL     1     -11.355  12.195  64.702  1.00  0.00    -0.382 C  
BRANCH   8   9
HETATM    9  C   UNL     1     -12.326  13.298  64.358  1.00  0.00    -0.410 C  
HETATM   10  C   UNL     1     -12.110  14.610  64.547  1.00  0.00    -0.490 C  
BRANCH  10  11
HETATM   11  C   UNL     1     -10.932  15.169  65.276  1.00  0.00    -0.405 C  
BRANCH  11  12
HETATM   12  C   UNL     1     -10.709  16.639  65.094  1.00  0.00    -0.205 C  
HETATM   13  C   UNL     1     -10.535  17.495  66.117  1.00  0.00    -0.288 C  
BRANCH  13  14
HETATM   14  C   UNL     1     -10.512  17.196  67.599  1.00  0.00    -0.355 C  
BRANCH  14  15
HETATM   15  C   UNL     1      -9.829  18.231  68.455  1.00  0.00    -0.386 C  
HETATM   16  C   UNL     1      -8.506  18.431  68.550  1.00  0.00    -0.346 C  
BRANCH  16  17
HETATM   17  C   UNL     1      -7.466  17.539  67.955  1.00  0.00    -0.206 C  
BRANCH  17  18
HETATM   18  C   UNL     1      -7.192  16.404  68.904  1.00  0.00    -0.203 C  
HETATM   19  C   UNL     1      -7.373  15.108  68.611  1.00  0.00    -0.121 C  
BRANCH  19  20
HETATM   20  C   UNL     1      -7.899  14.601  67.310  1.00  0.00    -0.213 C  
BRANCH  20  21
HETATM   21  C   UNL     1      -8.216  13.137  67.356  1.00  0.00    -0.187 C  
HETATM   22  C   UNL     1      -9.377  12.628  67.798  1.00  0.00    -0.198 C  
BRANCH  22  23
HETATM   23  C   UNL     1     -10.522  13.421  68.350  1.00  0.00    -0.257 C  
HETATM   24  C   UNL     1     -11.832  12.660  68.247  1.00  0.00    -0.354 C  
ENDBRANCH  22  23
ENDBRANCH  20  21
ENDBRANCH  19  20
ENDBRANCH  17  18
ENDBRANCH  16  17
ENDBRANCH  14  15
ENDBRANCH  13  14
ENDBRANCH  11  12
ENDBRANCH  10  11
ENDBRANCH   8   9
ENDBRANCH   7   8
ENDBRANCH   6   7
ENDBRANCH   4   6
ENDBRANCH   3   4
ENDBRANCH   2   3
TORSDOF 15
ENDMDL
MODEL      198
REMARK 921   NORMALIZED FREE ENERGY PREDICTED BY IDOCK:   -4.02 KCAL/MOL
REMARK 922        TOTAL FREE ENERGY PREDICTED BY IDOCK:  -10.09 KCAL/MOL
REMARK 923 INTER-LIGAND FREE ENERGY PREDICTED BY IDOCK:   -8.66 KCAL/MOL
REMARK 924 INTRA-LIGAND FREE ENERGY PREDICTED BY IDOCK:   -1.43 KCAL/MOL
REMARK 927      BINDING AFFINITY PREDICTED BY RF-SCORE:    0.00 PKD
ROOT
HETATM    1  C   UNL     1      -9.427  10.477  64.911  1.00  0.00    -0.304 C  
HETATM    2  C   UNL     1     -10.581  11.172  64.212  1.00  0.00    -0.357 C  
ENDROOT
BRANCH   2   3
HETATM    3  O   UNL     1     -11.405  11.764  65.224  1.00  0.00    -0.298 OA 
BRANCH   3   4
HETATM    4  C   UNL     1     -12.355  12.614  64.745  1.00  0.00    -0.489 C  
HETATM    5  O   UNL     1     -13.195  12.338  63.902  1.00  0.00    -0.766 OA 
BRANCH   4   6
HETATM    6  C   UNL     1     -12.267  13.911  65.500  1.00  0.00    -0.467 C  
BRANCH   6   7
HETATM    7  C   UNL     1     -11.499  14.953  64.680  1.00  0.00    -0.380 C  
BRANCH   7   8
HETATM    8  C   UNL     1     -10.355  15.570  65.470  1.00  0.00    -0.419 C  
BRANCH   8   9
HETATM    9  C   UNL     1      -9.636  14.555  66.324  1.00  0.00    -0.328 C  
HETATM   10  C   UNL     1      -9.610  14.547  67.666  1.00  0.00    -0.214 C  
BRANCH  10  11
HETATM   11  C   UNL     1     -10.162  15.641  68.521  1.00  0.00    -0.211 C  
BRANCH  11  12
HETATM   12  C   UNL     1     -11.656  15.689  68.608  1.00  0.00    -0.391 C  
HETATM   13  C   UNL     1     -12.387  14.805  69.311  1.00  0.00    -0.148 C  
BRANCH  13  14
HETATM   14  C   UNL     1     -11.905  13.635  70.139  1.00  0.00    -0.351 C  
BRANCH  14  15
HETATM   15  C   UNL     1     -12.745  13.311  71.348  1.00  0.00    -0.401 C  
HETATM   16  C   UNL     1     -13.061  12.082  71.785  1.00  0.00    -0.460 C  
BRANCH  16  17
HETATM   17  C   UNL     1     -12.778  10.817  71.042  1.00  0.00    -0.513 C  
BRANCH  17  18
HETATM   18  C   UNL     1     -12.936   9.652  71.981  1.00  0.00    -0.518 C  
HETATM   19  C   UNL     1     -12.371   8.449  71.801  1.00  0.00    -0.375 C  
BRANCH  19  20
HETATM   20  C   UNL     1     -11.523   8.080  70.630  1.00  0.00    -0.237 C  
BRANCH  20  21
HETATM   21  C   UNL     1     -10.093   7.849  71.014  1.00  0.00    -0.212 C  
HETATM   22  C   UNL     1      -9.609   6.676  71.451  1.00  0.00    -0.174 C  
BRANCH  22  23
HETATM   23  C   UNL     1     -10.408   5.427  71.667  1.00  0.00    -0.280 C  
HETATM   24  C   UNL     1     -11.123   5.444  73.007  1.00  0.00    -0.368 C  
ENDBRANCH  22  23
ENDBRANCH  20  21
ENDBRANCH  19  20
ENDBRANCH  17  18
ENDBRANCH  16  17
ENDBRANCH  14  15
ENDBRANCH  13  14
ENDBRANCH  11  12
ENDBRANCH  10  11
ENDBRANCH   8   9
ENDBRANCH   7   8
ENDBRANCH   6   7
ENDBRANCH   4   6
ENDBRANCH   3   4
ENDBRANCH   2   3
TORSDOF 15
ENDMDL
MODEL      199
REMARK 921   NORMALIZED FREE ENERGY PREDICTED BY IDOCK:   -4.02 KCAL/MOL
REMARK 922        TOTAL FREE ENERGY PREDICTED BY IDOCK:  -10.09 KCAL/MOL
REMARK 923 INTER-LIGAND FREE ENERGY PREDICTED BY IDOCK:   -7.52 KCAL/MOL
REMARK 924 INTRA-LIGAND FREE ENERGY PREDICTED BY IDOCK:   -2.57 KCAL/MOL
REMARK 927      BINDING AFFINITY PREDICTED BY RF-SCORE:    0.00 PKD
ROOT
HETATM    1  C   UNL     1     -11.649  15.360  68.983  1.00  0.00    -0.361 C  
HETATM    2  C   UNL     1     -11.287  15.052  67.542  1.00  0.00    -0.333 C  
ENDROOT
BRANCH   2   3
HETATM    3  O   UNL     1     -12.169  14.020  67.086  1.00  0.00    -0.419 OA 
BRANCH   3   4
HETATM    4  C   UNL     1     -11.690  12.756  67.260  1.00  0.00    -0.378 C  
HETATM    5  O   UNL     1     -12.166  11.912  68.002  1.00  0.00    -0.491 OA 
BRANCH   4   6
HETATM    6  C   UNL     1     -10.544  12.541  66.309  1.00  0.00    -0.273 C  
BRANCH   6   7
HETATM    7  C   UNL     1     -11.062  12.049  64.955  1.00  0.00    -0.368 C  
BRANCH   7   8
HETATM    8  C   UNL     1     -10.045  12.260  63.844  1.00  0.00    -0.374 C  
BRANCH   8   9
HETATM    9  C   UNL     1      -9.813  11.008  63.035  1.00  0.00    -0.370 C  
HETATM   10  C   UNL     1      -9.239   9.883  63.491  1.00  0.00    -0.279 C  
BRANCH  10  11
HETATM   11  C   UNL     1      -8.595   9.756  64.833  1.00  0.00    -0.183 C  
BRANCH  11  12
HETATM   12  C   UNL     1      -8.643   8.386  65.435  1.00  0.00    -0.193 C  
HETATM   13  C   UNL     1      -9.347   8.086  66.542  1.00  0.00    -0.261 C  
BRANCH  13  14
HETATM   14  C   UNL     1     -10.213   9.000  67.380  1.00  0.00    -0.308 C  
BRANCH  14  15
HETATM   15  C   UNL     1      -9.501   9.715  68.499  1.00  0.00    -0.145 C  
HETATM   16  C   UNL     1      -9.955   9.874  69.752  1.00  0.00    -0.275 C  
BRANCH  16  17
HETATM   17  C   UNL     1     -11.333   9.520  70.208  1.00  0.00    -0.284 C  
BRANCH  17  18
HETATM   18  C   UNL     1     -11.329   9.363  71.705  1.00  0.00    -0.452 C  
HETATM   19  C   UNL     1     -11.704   8.250  72.353  1.00  0.00    -0.463 C  
BRANCH  19  20
HETATM   20  C   UNL     1     -12.207   7.014  71.687  1.00  0.00    -0.395 C  
BRANCH  20  21
HETATM   21  C   UNL     1     -11.514   5.780  72.181  1.00  0.00    -0.295 C  
HETATM   22  C   UNL     1     -10.383   5.286  71.655  1.00  0.00    -0.281 C  
BRANCH  22  23
HETATM   23  C   UNL     1      -9.651   5.850  70.475  1.00  0.00    -0.208 C  
HETATM   24  C   UNL     1      -8.473   6.706  70.903  1.00  0.00    -0.133 C  
ENDBRANCH  22  23
ENDBRANCH  20  21
ENDBRANCH  19  20
ENDBRANCH  17  18
ENDBRANCH  16  17
ENDBRANCH  14  15
ENDBRANCH  13  14
ENDBRANCH  11  12
ENDBRANCH  10  11
ENDBRANCH   8   9
ENDBRANCH   7   8
ENDBRANCH   6   7
ENDBRANCH   4   6
ENDBRANCH   3   4
ENDBRANCH   2   3
TORSDOF 15
ENDMDL
MODEL      200
REMARK 921   NORMALIZED FREE ENERGY PREDICTED BY IDOCK:   -4.00 KCAL/MOL
REMARK 922        TOTAL FREE ENERGY PREDICTED BY IDOCK:  -10.06 KCAL/MOL
REMARK 923 INTER-LIGAND FREE ENERGY PREDICTED BY IDOCK:   -7.73 KCAL/MOL
REMARK 924 INTRA-LIGAND FREE ENERGY PREDICTED BY IDOCK:   -2.33 KCAL/MOL
REMARK 927      BINDING AFFINITY PREDICTED BY RF-SCORE:    0.00 PKD
ROOT
HETATM    1  C   UNL     1      -7.446  17.109  68.441  1.00  0.00    -0.227 C  
HETATM    2  C   UNL     1      -6.484  16.081  67.874  1.00  0.00    -0.143 C  
ENDROOT
BRANCH   2   3
HETATM    3  O   UNL     1      -7.229  15.232  66.993  1.00  0.00    -0.171 OA 
BRANCH   3   4
HETATM    4  C   UNL     1      -7.281  13.928  67.384  1.00  0.00    -0.093 C  
HETATM    5  O   UNL     1      -6.404  13.099  67.207  1.00  0.00    -0.270 OA 
BRANCH   4   6
HETATM    6  C   UNL     1      -8.551  13.708  68.160  1.00  0.00    -0.176 C  
BRANCH   6   7
HETATM    7  C   UNL     1      -9.713  13.412  67.206  1.00  0.00    -0.232 C  
BRANCH   7   8
HETATM    8  C   UNL     1     -10.626  14.616  67.029  1.00  0.00    -0.280 C  
BRANCH   8   9
HETATM    9  C   UNL     1     -12.068  14.216  66.834  1.00  0.00    -0.466 C  
HETATM   10  C   UNL     1     -12.655  13.979  65.650  1.00  0.00    -0.542 C  
BRANCH  10  11
HETATM   11  C   UNL     1     -12.007  14.231  64.328  1.00  0.00    -0.449 C  
BRANCH  11  12
HETATM   12  C   UNL     1     -12.122  13.113  63.338  1.00  0.00    -0.558 C  
HETATM   13  C   UNL     1     -11.620  11.882  63.547  1.00  0.00    -0.537 C  
BRANCH  13  14
HETATM   14  C   UNL     1     -10.879  11.364  64.758  1.00  0.00    -0.339 C  
BRANCH  14  15
HETATM   15  C   UNL     1      -9.815  10.335  64.472  1.00  0.00    -0.384 C  
HETATM   16  C   UNL     1      -9.176   9.583  65.381  1.00  0.00    -0.306 C  
BRANCH  16  17
HETATM   17  C   UNL     1      -9.284   9.763  66.860  1.00  0.00    -0.174 C  
BRANCH  17  18
HETATM   18  C   UNL     1     -10.260   8.757  67.407  1.00  0.00    -0.318 C  
HETATM   19  C   UNL     1     -10.738   8.765  68.660  1.00  0.00    -0.109 C  
BRANCH  19  20
HETATM   20  C   UNL     1     -10.351   9.758  69.705  1.00  0.00    -0.274 C  
BRANCH  20  21
HETATM   21  C   UNL     1     -11.466  10.033  70.669  1.00  0.00    -0.425 C  
HETATM   22  C   UNL     1     -12.142  11.191  70.732  1.00  0.00    -0.458 C  
BRANCH  22  23
HETATM   23  C   UNL     1     -11.876  12.403  69.893  1.00  0.00    -0.376 C  
HETATM   24  C   UNL     1     -12.397  13.667  70.554  1.00  0.00    -0.425 C  
ENDBRANCH  22  23
ENDBRANCH  20  21
ENDBRANCH  19  20
ENDBRANCH  17  18
ENDBRANCH  16  17
ENDBRANCH  14  15
ENDBRANCH  13  14
ENDBRANCH  11  12
ENDBRANCH  10  11
ENDBRANCH   8   9
ENDBRANCH   7   8
ENDBRANCH   6   7
ENDBRANCH   4   6
ENDBRANCH   3   4
ENDBRANCH   2   3
TORSDOF 15
ENDMDL
MODEL      201
REMARK 921   NORMALIZED FREE ENERGY PREDICTED BY IDOCK:   -4.00 KCAL/MOL
REMARK 922        TOTAL FREE ENERGY PREDICTED BY IDOCK:  -10.06 KCAL/MOL
REMARK 923 INTER-LIGAND FREE ENERGY PREDICTED BY IDOCK:   -7.94 KCAL/MOL
REMARK 924 INTRA-LIGAND FREE ENERGY PREDICTED BY IDOCK:   -2.12 KCAL/MOL
REMARK 927      BINDING AFFINITY PREDICTED BY RF-SCORE:    0.00 PKD
ROOT
HETATM    1  C   UNL     1     -13.569   9.232  72.130  1.00  0.00    -0.536 C  
HETATM    2  C   UNL     1     -12.108   8.852  72.289  1.00  0.00    -0.322 C  
ENDROOT
BRANCH   2   3
HETATM    3  O   UNL     1     -11.952   7.518  71.792  1.00  0.00    -0.280 OA 
BRANCH   3   4
HETATM    4  C   UNL     1     -11.002   7.388  70.825  1.00  0.00    -0.255 C  
HETATM    5  O   UNL     1      -9.977   8.046  70.744  1.00  0.00    -0.186 OA 
BRANCH   4   6
HETATM    6  C   UNL     1     -11.373   6.232  69.937  1.00  0.00    -0.504 C  
BRANCH   6   7
HETATM    7  C   UNL     1     -10.177   5.291  69.762  1.00  0.00    -0.364 C  
BRANCH   7   8
HETATM    8  C   UNL     1      -9.577   5.385  68.367  1.00  0.00    -0.166 C  
BRANCH   8   9
HETATM    9  C   UNL     1      -8.386   6.310  68.317  1.00  0.00    -0.115 C  
HETATM   10  C   UNL     1      -8.316   7.449  67.610  1.00  0.00    -0.118 C  
BRANCH  10  11
HETATM   11  C   UNL     1      -9.355   7.894  66.634  1.00  0.00    -0.244 C  
BRANCH  11  12
HETATM   12  C   UNL     1     -10.518   8.624  67.231  1.00  0.00    -0.360 C  
HETATM   13  C   UNL     1     -10.572   9.964  67.349  1.00  0.00    -0.338 C  
BRANCH  13  14
HETATM   14  C   UNL     1      -9.543  10.986  66.923  1.00  0.00    -0.205 C  
BRANCH  14  15
HETATM   15  C   UNL     1      -9.799  11.641  65.590  1.00  0.00    -0.270 C  
HETATM   16  C   UNL     1     -10.837  12.435  65.285  1.00  0.00    -0.324 C  
BRANCH  16  17
HETATM   17  C   UNL     1     -12.020  12.665  66.168  1.00  0.00    -0.458 C  
BRANCH  17  18
HETATM   18  C   UNL     1     -12.064  14.118  66.559  1.00  0.00    -0.481 C  
HETATM   19  C   UNL     1     -11.613  14.605  67.724  1.00  0.00    -0.382 C  
BRANCH  19  20
HETATM   20  C   UNL     1     -11.024  13.775  68.816  1.00  0.00    -0.289 C  
BRANCH  20  21
HETATM   21  C   UNL     1     -12.068  13.230  69.742  1.00  0.00    -0.355 C  
HETATM   22  C   UNL     1     -12.633  13.928  70.739  1.00  0.00    -0.424 C  
BRANCH  22  23
HETATM   23  C   UNL     1     -12.294  15.337  71.119  1.00  0.00    -0.421 C  
HETATM   24  C   UNL     1     -13.061  15.786  72.349  1.00  0.00    -0.544 C  
ENDBRANCH  22  23
ENDBRANCH  20  21
ENDBRANCH  19  20
ENDBRANCH  17  18
ENDBRANCH  16  17
ENDBRANCH  14  15
ENDBRANCH  13  14
ENDBRANCH  11  12
ENDBRANCH  10  11
ENDBRANCH   8   9
ENDBRANCH   7   8
ENDBRANCH   6   7
ENDBRANCH   4   6
ENDBRANCH   3   4
ENDBRANCH   2   3
TORSDOF 15
ENDMDL
MODEL      202
REMARK 921   NORMALIZED FREE ENERGY PREDICTED BY IDOCK:   -4.00 KCAL/MOL
REMARK 922        TOTAL FREE ENERGY PREDICTED BY IDOCK:  -10.05 KCAL/MOL
REMARK 923 INTER-LIGAND FREE ENERGY PREDICTED BY IDOCK:   -7.83 KCAL/MOL
REMARK 924 INTRA-LIGAND FREE ENERGY PREDICTED BY IDOCK:   -2.23 KCAL/MOL
REMARK 927      BINDING AFFINITY PREDICTED BY RF-SCORE:    0.00 PKD
ROOT
HETATM    1  C   UNL     1     -14.058   9.135  72.175  1.00  0.00    -0.416 C  
HETATM    2  C   UNL     1     -13.553   7.809  71.638  1.00  0.00    -0.357 C  
ENDROOT
BRANCH   2   3
HETATM    3  O   UNL     1     -12.291   8.052  71.005  1.00  0.00    -0.263 OA 
BRANCH   3   4
HETATM    4  C   UNL     1     -11.247   8.184  71.871  1.00  0.00    -0.290 C  
HETATM    5  O   UNL     1     -11.074   7.521  72.881  1.00  0.00    -0.337 OA 
BRANCH   4   6
HETATM    6  C   UNL     1     -10.291   9.206  71.320  1.00  0.00    -0.405 C  
BRANCH   6   7
HETATM    7  C   UNL     1     -11.048  10.256  70.502  1.00  0.00    -0.381 C  
BRANCH   7   8
HETATM    8  C   UNL     1     -10.202  10.817  69.370  1.00  0.00    -0.187 C  
BRANCH   8   9
HETATM    9  C   UNL     1      -9.962   9.802  68.279  1.00  0.00    -0.175 C  
HETATM   10  C   UNL     1     -10.204   9.993  66.972  1.00  0.00    -0.295 C  
BRANCH  10  11
HETATM   11  C   UNL     1     -10.902  11.191  66.416  1.00  0.00    -0.284 C  
BRANCH  11  12
HETATM   12  C   UNL     1     -10.001  12.286  65.932  1.00  0.00    -0.272 C  
HETATM   13  C   UNL     1     -10.366  13.580  65.883  1.00  0.00    -0.301 C  
BRANCH  13  14
HETATM   14  C   UNL     1     -11.684  14.200  66.291  1.00  0.00    -0.402 C  
BRANCH  14  15
HETATM   15  C   UNL     1     -11.976  14.179  67.769  1.00  0.00    -0.389 C  
HETATM   16  C   UNL     1     -11.719  15.167  68.640  1.00  0.00    -0.364 C  
BRANCH  16  17
HETATM   17  C   UNL     1     -10.932  16.396  68.324  1.00  0.00    -0.355 C  
BRANCH  17  18
HETATM   18  C   UNL     1      -9.488  16.160  68.677  1.00  0.00    -0.227 C  
HETATM   19  C   UNL     1      -8.454  16.421  67.865  1.00  0.00    -0.171 C  
BRANCH  19  20
HETATM   20  C   UNL     1      -8.584  16.961  66.480  1.00  0.00    -0.305 C  
BRANCH  20  21
HETATM   21  C   UNL     1      -7.986  18.329  66.344  1.00  0.00    -0.290 C  
HETATM   22  C   UNL     1      -8.700  19.453  66.175  1.00  0.00    -0.294 C  
BRANCH  22  23
HETATM   23  C   UNL     1     -10.191  19.529  66.053  1.00  0.00    -0.567 C  
HETATM   24  C   UNL     1     -10.856  19.710  67.405  1.00  0.00    -0.497 C  
ENDBRANCH  22  23
ENDBRANCH  20  21
ENDBRANCH  19  20
ENDBRANCH  17  18
ENDBRANCH  16  17
ENDBRANCH  14  15
ENDBRANCH  13  14
ENDBRANCH  11  12
ENDBRANCH  10  11
ENDBRANCH   8   9
ENDBRANCH   7   8
ENDBRANCH   6   7
ENDBRANCH   4   6
ENDBRANCH   3   4
ENDBRANCH   2   3
TORSDOF 15
ENDMDL
MODEL      203
REMARK 921   NORMALIZED FREE ENERGY PREDICTED BY IDOCK:   -3.99 KCAL/MOL
REMARK 922        TOTAL FREE ENERGY PREDICTED BY IDOCK:  -10.05 KCAL/MOL
REMARK 923 INTER-LIGAND FREE ENERGY PREDICTED BY IDOCK:   -8.11 KCAL/MOL
REMARK 924 INTRA-LIGAND FREE ENERGY PREDICTED BY IDOCK:   -1.94 KCAL/MOL
REMARK 927      BINDING AFFINITY PREDICTED BY RF-SCORE:    0.00 PKD
ROOT
HETATM    1  C   UNL     1     -12.298  12.480  63.609  1.00  0.00    -0.618 C  
HETATM    2  C   UNL     1     -10.849  12.246  63.994  1.00  0.00    -0.389 C  
ENDROOT
BRANCH   2   3
HETATM    3  O   UNL     1     -10.824  11.190  64.962  1.00  0.00    -0.261 OA 
BRANCH   3   4
HETATM    4  C   UNL     1      -9.871  11.336  65.924  1.00  0.00    -0.232 C  
HETATM    5  O   UNL     1      -8.918  10.594  66.097  1.00  0.00    -0.158 OA 
BRANCH   4   6
HETATM    6  C   UNL     1     -10.130  12.617  66.669  1.00  0.00    -0.248 C  
BRANCH   6   7
HETATM    7  C   UNL     1     -10.269  12.341  68.169  1.00  0.00    -0.212 C  
BRANCH   7   8
HETATM    8  C   UNL     1     -11.686  12.588  68.665  1.00  0.00    -0.368 C  
BRANCH   8   9
HETATM    9  C   UNL     1     -11.850  12.239  70.124  1.00  0.00    -0.352 C  
HETATM   10  C   UNL     1     -12.476  12.997  71.039  1.00  0.00    -0.385 C  
BRANCH  10  11
HETATM   11  C   UNL     1     -12.971  14.382  70.782  1.00  0.00    -0.388 C  
BRANCH  11  12
HETATM   12  C   UNL     1     -12.024  15.478  71.165  1.00  0.00    -0.432 C  
HETATM   13  C   UNL     1     -11.381  16.250  70.269  1.00  0.00    -0.299 C  
BRANCH  13  14
HETATM   14  C   UNL     1     -11.467  16.207  68.760  1.00  0.00    -0.340 C  
BRANCH  14  15
HETATM   15  C   UNL     1     -10.156  15.999  68.046  1.00  0.00    -0.240 C  
HETATM   16  C   UNL     1      -9.556  16.872  67.222  1.00  0.00    -0.246 C  
BRANCH  16  17
HETATM   17  C   UNL     1     -10.176  18.138  66.729  1.00  0.00    -0.379 C  
BRANCH  17  18
HETATM   18  C   UNL     1     -10.303  19.102  67.878  1.00  0.00    -0.505 C  
HETATM   19  C   UNL     1      -9.275  19.546  68.615  1.00  0.00    -0.410 C  
BRANCH  19  20
HETATM   20  C   UNL     1      -7.855  19.128  68.423  1.00  0.00    -0.370 C  
BRANCH  20  21
HETATM   21  C   UNL     1      -6.968  20.280  68.058  1.00  0.00    -0.327 C  
HETATM   22  C   UNL     1      -6.698  20.657  66.798  1.00  0.00    -0.337 C  
BRANCH  22  23
HETATM   23  C   UNL     1      -7.195  19.977  65.558  1.00  0.00    -0.307 C  
HETATM   24  C   UNL     1      -6.134  19.080  64.947  1.00  0.00    -0.307 C  
ENDBRANCH  22  23
ENDBRANCH  20  21
ENDBRANCH  19  20
ENDBRANCH  17  18
ENDBRANCH  16  17
ENDBRANCH  14  15
ENDBRANCH  13  14
ENDBRANCH  11  12
ENDBRANCH  10  11
ENDBRANCH   8   9
ENDBRANCH   7   8
ENDBRANCH   6   7
ENDBRANCH   4   6
ENDBRANCH   3   4
ENDBRANCH   2   3
TORSDOF 15
ENDMDL
MODEL      204
REMARK 921   NORMALIZED FREE ENERGY PREDICTED BY IDOCK:   -3.98 KCAL/MOL
REMARK 922        TOTAL FREE ENERGY PREDICTED BY IDOCK:  -10.03 KCAL/MOL
REMARK 923 INTER-LIGAND FREE ENERGY PREDICTED BY IDOCK:   -7.68 KCAL/MOL
REMARK 924 INTRA-LIGAND FREE ENERGY PREDICTED BY IDOCK:   -2.35 KCAL/MOL
REMARK 927      BINDING AFFINITY PREDICTED BY RF-SCORE:    0.00 PKD
ROOT
HETATM    1  C   UNL     1     -11.408  14.976  69.989  1.00  0.00    -0.305 C  
HETATM    2  C   UNL     1     -10.577  15.577  68.869  1.00  0.00    -0.240 C  
ENDROOT
BRANCH   2   3
HETATM    3  O   UNL     1     -11.237  15.277  67.634  1.00  0.00    -0.313 OA 
BRANCH   3   4
HETATM    4  C   UNL     1     -10.729  14.198  66.975  1.00  0.00    -0.285 C  
HETATM    5  O   UNL     1      -9.548  14.000  66.743  1.00  0.00    -0.265 OA 
BRANCH   4   6
HETATM    6  C   UNL     1     -11.852  13.243  66.676  1.00  0.00    -0.447 C  
BRANCH   6   7
HETATM    7  C   UNL     1     -12.781  13.832  65.610  1.00  0.00    -0.523 C  
BRANCH   7   8
HETATM    8  C   UNL     1     -12.108  13.915  64.249  1.00  0.00    -0.477 C  
BRANCH   8   9
HETATM    9  C   UNL     1     -12.364  12.688  63.408  1.00  0.00    -0.553 C  
HETATM   10  C   UNL     1     -11.513  11.663  63.249  1.00  0.00    -0.266 C  
BRANCH  10  11
HETATM   11  C   UNL     1     -10.108  11.654  63.757  1.00  0.00    -0.416 C  
BRANCH  11  12
HETATM   12  C   UNL     1      -9.062  11.339  62.733  1.00  0.00    -0.327 C  
HETATM   13  C   UNL     1      -8.249  10.269  62.807  1.00  0.00    -0.162 C  
BRANCH  13  14
HETATM   14  C   UNL     1      -8.210   9.191  63.867  1.00  0.00    -0.172 C  
BRANCH  14  15
HETATM   15  C   UNL     1      -7.325   9.484  65.052  1.00  0.00    -0.110 C  
HETATM   16  C   UNL     1      -7.725   9.971  66.237  1.00  0.00    -0.105 C  
BRANCH  16  17
HETATM   17  C   UNL     1      -9.100  10.475  66.528  1.00  0.00    -0.175 C  
BRANCH  17  18
HETATM   18  C   UNL     1      -9.968   9.319  66.949  1.00  0.00    -0.298 C  
HETATM   19  C   UNL     1     -10.412   9.118  68.198  1.00  0.00    -0.260 C  
BRANCH  19  20
HETATM   20  C   UNL     1     -10.089   9.995  69.361  1.00  0.00    -0.235 C  
BRANCH  20  21
HETATM   21  C   UNL     1     -11.177  10.987  69.643  1.00  0.00    -0.345 C  
HETATM   22  C   UNL     1     -12.135  10.816  70.567  1.00  0.00    -0.459 C  
BRANCH  22  23
HETATM   23  C   UNL     1     -12.306   9.605  71.433  1.00  0.00    -0.468 C  
HETATM   24  C   UNL     1     -13.660   9.593  72.120  1.00  0.00    -0.471 C  
ENDBRANCH  22  23
ENDBRANCH  20  21
ENDBRANCH  19  20
ENDBRANCH  17  18
ENDBRANCH  16  17
ENDBRANCH  14  15
ENDBRANCH  13  14
ENDBRANCH  11  12
ENDBRANCH  10  11
ENDBRANCH   8   9
ENDBRANCH   7   8
ENDBRANCH   6   7
ENDBRANCH   4   6
ENDBRANCH   3   4
ENDBRANCH   2   3
TORSDOF 15
ENDMDL
MODEL      205
REMARK 921   NORMALIZED FREE ENERGY PREDICTED BY IDOCK:   -3.98 KCAL/MOL
REMARK 922        TOTAL FREE ENERGY PREDICTED BY IDOCK:  -10.02 KCAL/MOL
REMARK 923 INTER-LIGAND FREE ENERGY PREDICTED BY IDOCK:   -7.51 KCAL/MOL
REMARK 924 INTRA-LIGAND FREE ENERGY PREDICTED BY IDOCK:   -2.51 KCAL/MOL
REMARK 927      BINDING AFFINITY PREDICTED BY RF-SCORE:    0.00 PKD
ROOT
HETATM    1  C   UNL     1     -12.279  12.095  63.498  1.00  0.00    -0.670 C  
HETATM    2  C   UNL     1     -12.259  13.587  63.775  1.00  0.00    -0.388 C  
ENDROOT
BRANCH   2   3
HETATM    3  O   UNL     1     -12.290  13.762  65.197  1.00  0.00    -0.404 OA 
BRANCH   3   4
HETATM    4  C   UNL     1     -11.129  14.235  65.728  1.00  0.00    -0.310 C  
HETATM    5  O   UNL     1     -10.054  14.286  65.153  1.00  0.00    -0.373 OA 
BRANCH   4   6
HETATM    6  C   UNL     1     -11.414  14.781  67.101  1.00  0.00    -0.375 C  
BRANCH   6   7
HETATM    7  C   UNL     1     -12.069  13.707  67.974  1.00  0.00    -0.309 C  
BRANCH   7   8
HETATM    8  C   UNL     1     -11.047  12.741  68.553  1.00  0.00    -0.300 C  
BRANCH   8   9
HETATM    9  C   UNL     1     -11.697  11.565  69.241  1.00  0.00    -0.397 C  
HETATM   10  C   UNL     1     -11.256  10.298  69.195  1.00  0.00    -0.268 C  
BRANCH  10  11
HETATM   11  C   UNL     1     -10.139   9.830  68.321  1.00  0.00    -0.189 C  
BRANCH  11  12
HETATM   12  C   UNL     1     -10.555   9.007  67.141  1.00  0.00    -0.291 C  
HETATM   13  C   UNL     1      -9.718   8.192  66.473  1.00  0.00    -0.309 C  
BRANCH  13  14
HETATM   14  C   UNL     1      -8.255   7.920  66.745  1.00  0.00    -0.116 C  
BRANCH  14  15
HETATM   15  C   UNL     1      -7.891   6.468  66.919  1.00  0.00    -0.107 C  
HETATM   16  C   UNL     1      -8.094   5.728  68.019  1.00  0.00    -0.104 C  
BRANCH  16  17
HETATM   17  C   UNL     1      -8.558   6.266  69.333  1.00  0.00    -0.125 C  
BRANCH  17  18
HETATM   18  C   UNL     1      -9.342   5.201  70.051  1.00  0.00    -0.201 C  
HETATM   19  C   UNL     1     -10.644   5.295  70.359  1.00  0.00    -0.278 C  
BRANCH  19  20
HETATM   20  C   UNL     1     -11.500   6.479  70.060  1.00  0.00    -0.476 C  
BRANCH  20  21
HETATM   21  C   UNL     1     -12.168   7.023  71.288  1.00  0.00    -0.419 C  
HETATM   22  C   UNL     1     -11.610   7.918  72.117  1.00  0.00    -0.380 C  
BRANCH  22  23
HETATM   23  C   UNL     1     -10.231   8.489  71.986  1.00  0.00    -0.391 C  
HETATM   24  C   UNL     1      -9.370   8.160  73.192  1.00  0.00    -0.328 C  
ENDBRANCH  22  23
ENDBRANCH  20  21
ENDBRANCH  19  20
ENDBRANCH  17  18
ENDBRANCH  16  17
ENDBRANCH  14  15
ENDBRANCH  13  14
ENDBRANCH  11  12
ENDBRANCH  10  11
ENDBRANCH   8   9
ENDBRANCH   7   8
ENDBRANCH   6   7
ENDBRANCH   4   6
ENDBRANCH   3   4
ENDBRANCH   2   3
TORSDOF 15
ENDMDL
MODEL      206
REMARK 921   NORMALIZED FREE ENERGY PREDICTED BY IDOCK:   -3.98 KCAL/MOL
REMARK 922        TOTAL FREE ENERGY PREDICTED BY IDOCK:  -10.01 KCAL/MOL
REMARK 923 INTER-LIGAND FREE ENERGY PREDICTED BY IDOCK:   -7.40 KCAL/MOL
REMARK 924 INTRA-LIGAND FREE ENERGY PREDICTED BY IDOCK:   -2.61 KCAL/MOL
REMARK 927      BINDING AFFINITY PREDICTED BY RF-SCORE:    0.00 PKD
ROOT
HETATM    1  C   UNL     1      -8.844   8.234  71.251  1.00  0.00    -0.193 C  
HETATM    2  C   UNL     1      -9.213   6.814  70.864  1.00  0.00    -0.157 C  
ENDROOT
BRANCH   2   3
HETATM    3  O   UNL     1      -9.513   6.813  69.463  1.00  0.00    -0.149 OA 
BRANCH   3   4
HETATM    4  C   UNL     1     -10.797   6.468  69.166  1.00  0.00    -0.302 C  
HETATM    5  O   UNL     1     -11.659   6.173  69.979  1.00  0.00    -0.392 OA 
BRANCH   4   6
HETATM    6  C   UNL     1     -11.004   6.612  67.683  1.00  0.00    -0.392 C  
BRANCH   6   7
HETATM    7  C   UNL     1      -9.741   7.172  67.022  1.00  0.00    -0.222 C  
BRANCH   7   8
HETATM    8  C   UNL     1      -9.970   8.556  66.436  1.00  0.00    -0.314 C  
BRANCH   8   9
HETATM    9  C   UNL     1      -9.290   9.637  67.240  1.00  0.00    -0.163 C  
HETATM   10  C   UNL     1      -9.889  10.422  68.150  1.00  0.00    -0.168 C  
BRANCH  10  11
HETATM   11  C   UNL     1     -11.362  10.450  68.393  1.00  0.00    -0.292 C  
BRANCH  11  12
HETATM   12  C   UNL     1     -11.816   9.759  69.642  1.00  0.00     0.137 C  
HETATM   13  C   UNL     1     -12.231  10.412  70.742  1.00  0.00    -0.457 C  
BRANCH  13  14
HETATM   14  C   UNL     1     -12.344  11.904  70.961  1.00  0.00    -0.362 C  
BRANCH  14  15
HETATM   15  C   UNL     1     -13.341  12.328  72.010  1.00  0.00    -0.491 C  
HETATM   16  C   UNL     1     -13.486  13.565  72.509  1.00  0.00    -0.660 C  
BRANCH  16  17
HETATM   17  C   UNL     1     -12.560  14.705  72.239  1.00  0.00    -0.401 C  
BRANCH  17  18
HETATM   18  C   UNL     1     -13.010  15.418  70.992  1.00  0.00    -0.556 C  
HETATM   19  C   UNL     1     -12.254  15.586  69.897  1.00  0.00    -0.351 C  
BRANCH  19  20
HETATM   20  C   UNL     1     -10.844  15.115  69.764  1.00  0.00    -0.298 C  
BRANCH  20  21
HETATM   21  C   UNL     1     -10.726  13.924  68.861  1.00  0.00    -0.256 C  
HETATM   22  C   UNL     1     -10.675  13.994  67.521  1.00  0.00    -0.271 C  
BRANCH  22  23
HETATM   23  C   UNL     1     -10.769  15.249  66.709  1.00  0.00    -0.313 C  
HETATM   24  C   UNL     1      -9.412  15.676  66.178  1.00  0.00    -0.376 C  
ENDBRANCH  22  23
ENDBRANCH  20  21
ENDBRANCH  19  20
ENDBRANCH  17  18
ENDBRANCH  16  17
ENDBRANCH  14  15
ENDBRANCH  13  14
ENDBRANCH  11  12
ENDBRANCH  10  11
ENDBRANCH   8   9
ENDBRANCH   7   8
ENDBRANCH   6   7
ENDBRANCH   4   6
ENDBRANCH   3   4
ENDBRANCH   2   3
TORSDOF 15
ENDMDL
MODEL      207
REMARK 921   NORMALIZED FREE ENERGY PREDICTED BY IDOCK:   -3.97 KCAL/MOL
REMARK 922        TOTAL FREE ENERGY PREDICTED BY IDOCK:  -10.01 KCAL/MOL
REMARK 923 INTER-LIGAND FREE ENERGY PREDICTED BY IDOCK:   -6.44 KCAL/MOL
REMARK 924 INTRA-LIGAND FREE ENERGY PREDICTED BY IDOCK:   -3.57 KCAL/MOL
REMARK 927      BINDING AFFINITY PREDICTED BY RF-SCORE:    0.00 PKD
ROOT
HETATM    1  C   UNL     1     -10.651   7.743  67.366  1.00  0.00    -0.345 C  
HETATM    2  C   UNL     1      -9.472   8.524  66.815  1.00  0.00    -0.194 C  
ENDROOT
BRANCH   2   3
HETATM    3  O   UNL     1      -9.959   9.342  65.745  1.00  0.00    -0.309 OA 
BRANCH   3   4
HETATM    4  C   UNL     1      -9.202  10.447  65.495  1.00  0.00    -0.184 C  
HETATM    5  O   UNL     1      -8.143  10.459  64.890  1.00  0.00    -0.157 OA 
BRANCH   4   6
HETATM    6  C   UNL     1      -9.939  11.659  65.996  1.00  0.00    -0.260 C  
BRANCH   6   7
HETATM    7  C   UNL     1      -9.215  12.259  67.206  1.00  0.00    -0.185 C  
BRANCH   7   8
HETATM    8  C   UNL     1     -10.104  12.302  68.439  1.00  0.00    -0.215 C  
BRANCH   8   9
HETATM    9  C   UNL     1     -11.364  11.490  68.264  1.00  0.00    -0.352 C  
HETATM   10  C   UNL     1     -12.237  11.191  69.239  1.00  0.00    -0.295 C  
BRANCH  10  11
HETATM   11  C   UNL     1     -12.010  11.484  70.686  1.00  0.00    -0.391 C  
BRANCH  11  12
HETATM   12  C   UNL     1     -13.028  10.907  71.621  1.00  0.00    -0.569 C  
HETATM   13  C   UNL     1     -13.065   9.607  71.967  1.00  0.00    -0.537 C  
BRANCH  13  14
HETATM   14  C   UNL     1     -12.139   8.493  71.533  1.00  0.00    -0.351 C  
BRANCH  14  15
HETATM   15  C   UNL     1     -10.860   8.374  72.322  1.00  0.00    -0.422 C  
HETATM   16  C   UNL     1      -9.642   8.767  71.919  1.00  0.00    -0.372 C  
BRANCH  16  17
HETATM   17  C   UNL     1      -9.313   9.231  70.538  1.00  0.00    -0.316 C  
BRANCH  17  18
HETATM   18  C   UNL     1      -7.825   9.433  70.430  1.00  0.00    -0.179 C  
HETATM   19  C   UNL     1      -6.965   8.510  69.977  1.00  0.00    -0.043 C  
BRANCH  19  20
HETATM   20  C   UNL     1      -7.351   7.137  69.539  1.00  0.00    -0.089 C  
BRANCH  20  21
HETATM   21  C   UNL     1      -7.335   6.153  70.669  1.00  0.00    -0.086 C  
HETATM   22  C   UNL     1      -8.380   5.386  71.018  1.00  0.00    -0.119 C  
BRANCH  22  23
HETATM   23  C   UNL     1      -9.733   5.409  70.375  1.00  0.00    -0.254 C  
HETATM   24  C   UNL     1      -9.817   4.442  69.209  1.00  0.00    -0.218 C  
ENDBRANCH  22  23
ENDBRANCH  20  21
ENDBRANCH  19  20
ENDBRANCH  17  18
ENDBRANCH  16  17
ENDBRANCH  14  15
ENDBRANCH  13  14
ENDBRANCH  11  12
ENDBRANCH  10  11
ENDBRANCH   8   9
ENDBRANCH   7   8
ENDBRANCH   6   7
ENDBRANCH   4   6
ENDBRANCH   3   4
ENDBRANCH   2   3
TORSDOF 15
ENDMDL
MODEL      208
REMARK 921   NORMALIZED FREE ENERGY PREDICTED BY IDOCK:   -3.97 KCAL/MOL
REMARK 922        TOTAL FREE ENERGY PREDICTED BY IDOCK:  -10.01 KCAL/MOL
REMARK 923 INTER-LIGAND FREE ENERGY PREDICTED BY IDOCK:   -7.68 KCAL/MOL
REMARK 924 INTRA-LIGAND FREE ENERGY PREDICTED BY IDOCK:   -2.33 KCAL/MOL
REMARK 927      BINDING AFFINITY PREDICTED BY RF-SCORE:    0.00 PKD
ROOT
HETATM    1  C   UNL     1     -12.767  11.480  71.336  1.00  0.00    -0.469 C  
HETATM    2  C   UNL     1     -13.327  10.190  71.906  1.00  0.00    -0.402 C  
ENDROOT
BRANCH   2   3
HETATM    3  O   UNL     1     -12.679   9.104  71.234  1.00  0.00    -0.317 OA 
BRANCH   3   4
HETATM    4  C   UNL     1     -13.188   7.876  71.533  1.00  0.00    -0.306 C  
HETATM    5  O   UNL     1     -14.373   7.609  71.649  1.00  0.00    -0.426 OA 
BRANCH   4   6
HETATM    6  C   UNL     1     -12.057   6.886  71.591  1.00  0.00    -0.394 C  
BRANCH   6   7
HETATM    7  C   UNL     1     -11.068   7.141  70.449  1.00  0.00    -0.309 C  
BRANCH   7   8
HETATM    8  C   UNL     1     -11.144   6.065  69.378  1.00  0.00    -0.445 C  
BRANCH   8   9
HETATM    9  C   UNL     1      -9.831   5.342  69.199  1.00  0.00    -0.242 C  
HETATM   10  C   UNL     1      -8.883   5.664  68.304  1.00  0.00    -0.108 C  
BRANCH  10  11
HETATM   11  C   UNL     1      -9.053   6.695  67.238  1.00  0.00    -0.119 C  
BRANCH  11  12
HETATM   12  C   UNL     1      -8.451   8.032  67.543  1.00  0.00    -0.127 C  
HETATM   13  C   UNL     1      -9.164   9.172  67.598  1.00  0.00    -0.143 C  
BRANCH  13  14
HETATM   14  C   UNL     1     -10.650   9.361  67.393  1.00  0.00    -0.326 C  
BRANCH  14  15
HETATM   15  C   UNL     1     -11.234  10.605  68.013  1.00  0.00    -0.373 C  
HETATM   16  C   UNL     1     -11.616  11.711  67.356  1.00  0.00    -0.330 C  
BRANCH  16  17
HETATM   17  C   UNL     1     -11.364  11.969  65.907  1.00  0.00    -0.391 C  
BRANCH  17  18
HETATM   18  C   UNL     1     -12.344  13.000  65.414  1.00  0.00    -0.538 C  
HETATM   19  C   UNL     1     -12.003  14.212  64.953  1.00  0.00    -0.424 C  
BRANCH  19  20
HETATM   20  C   UNL     1     -10.605  14.728  64.884  1.00  0.00    -0.431 C  
BRANCH  20  21
HETATM   21  C   UNL     1     -10.439  16.022  65.622  1.00  0.00    -0.416 C  
HETATM   22  C   UNL     1     -10.126  16.115  66.924  1.00  0.00    -0.273 C  
BRANCH  22  23
HETATM   23  C   UNL     1      -9.931  14.960  67.859  1.00  0.00    -0.219 C  
HETATM   24  C   UNL     1      -8.493  14.861  68.335  1.00  0.00    -0.153 C  
ENDBRANCH  22  23
ENDBRANCH  20  21
ENDBRANCH  19  20
ENDBRANCH  17  18
ENDBRANCH  16  17
ENDBRANCH  14  15
ENDBRANCH  13  14
ENDBRANCH  11  12
ENDBRANCH  10  11
ENDBRANCH   8   9
ENDBRANCH   7   8
ENDBRANCH   6   7
ENDBRANCH   4   6
ENDBRANCH   3   4
ENDBRANCH   2   3
TORSDOF 15
ENDMDL
MODEL      209
REMARK 921   NORMALIZED FREE ENERGY PREDICTED BY IDOCK:   -3.97 KCAL/MOL
REMARK 922        TOTAL FREE ENERGY PREDICTED BY IDOCK:  -10.00 KCAL/MOL
REMARK 923 INTER-LIGAND FREE ENERGY PREDICTED BY IDOCK:   -7.81 KCAL/MOL
REMARK 924 INTRA-LIGAND FREE ENERGY PREDICTED BY IDOCK:   -2.19 KCAL/MOL
REMARK 927      BINDING AFFINITY PREDICTED BY RF-SCORE:    0.00 PKD
ROOT
HETATM    1  C   UNL     1     -12.331  10.939  69.963  1.00  0.00    -0.385 C  
HETATM    2  C   UNL     1     -11.658  11.436  68.697  1.00  0.00    -0.320 C  
ENDROOT
BRANCH   2   3
HETATM    3  O   UNL     1     -10.242  11.343  68.896  1.00  0.00    -0.207 OA 
BRANCH   3   4
HETATM    4  C   UNL     1      -9.498  11.825  67.861  1.00  0.00    -0.191 C  
HETATM    5  O   UNL     1      -9.871  11.919  66.703  1.00  0.00    -0.196 OA 
BRANCH   4   6
HETATM    6  C   UNL     1      -8.184  12.318  68.402  1.00  0.00    -0.146 C  
BRANCH   6   7
HETATM    7  C   UNL     1      -7.444  13.133  67.337  1.00  0.00    -0.131 C  
BRANCH   7   8
HETATM    8  C   UNL     1      -7.821  14.606  67.380  1.00  0.00    -0.225 C  
BRANCH   8   9
HETATM    9  C   UNL     1      -6.840  15.424  68.185  1.00  0.00    -0.135 C  
HETATM   10  C   UNL     1      -6.539  16.713  67.964  1.00  0.00    -0.146 C  
BRANCH  10  11
HETATM   11  C   UNL     1      -7.014  17.494  66.783  1.00  0.00    -0.239 C  
BRANCH  11  12
HETATM   12  C   UNL     1      -6.705  18.959  66.822  1.00  0.00    -0.205 C  
HETATM   13  C   UNL     1      -7.436  19.853  67.513  1.00  0.00    -0.314 C  
BRANCH  13  14
HETATM   14  C   UNL     1      -8.656  19.606  68.371  1.00  0.00    -0.357 C  
BRANCH  14  15
HETATM   15  C   UNL     1      -9.917  19.269  67.616  1.00  0.00    -0.453 C  
HETATM   16  C   UNL     1     -10.657  18.160  67.767  1.00  0.00    -0.407 C  
BRANCH  16  17
HETATM   17  C   UNL     1     -10.258  16.978  68.588  1.00  0.00    -0.321 C  
BRANCH  17  18
HETATM   18  C   UNL     1     -11.036  15.775  68.126  1.00  0.00    -0.330 C  
HETATM   19  C   UNL     1     -11.974  15.151  68.853  1.00  0.00    -0.284 C  
BRANCH  19  20
HETATM   20  C   UNL     1     -12.368  15.542  70.238  1.00  0.00    -0.431 C  
BRANCH  20  21
HETATM   21  C   UNL     1     -12.841  14.371  71.046  1.00  0.00    -0.423 C  
HETATM   22  C   UNL     1     -13.318  14.460  72.298  1.00  0.00    -0.512 C  
BRANCH  22  23
HETATM   23  C   UNL     1     -13.419  15.718  73.106  1.00  0.00    -0.652 C  
HETATM   24  C   UNL     1     -12.499  15.684  74.313  1.00  0.00    -0.804 C  
ENDBRANCH  22  23
ENDBRANCH  20  21
ENDBRANCH  19  20
ENDBRANCH  17  18
ENDBRANCH  16  17
ENDBRANCH  14  15
ENDBRANCH  13  14
ENDBRANCH  11  12
ENDBRANCH  10  11
ENDBRANCH   8   9
ENDBRANCH   7   8
ENDBRANCH   6   7
ENDBRANCH   4   6
ENDBRANCH   3   4
ENDBRANCH   2   3
TORSDOF 15
ENDMDL
MODEL      210
REMARK 921   NORMALIZED FREE ENERGY PREDICTED BY IDOCK:   -3.97 KCAL/MOL
REMARK 922        TOTAL FREE ENERGY PREDICTED BY IDOCK:  -10.00 KCAL/MOL
REMARK 923 INTER-LIGAND FREE ENERGY PREDICTED BY IDOCK:   -8.38 KCAL/MOL
REMARK 924 INTRA-LIGAND FREE ENERGY PREDICTED BY IDOCK:   -1.62 KCAL/MOL
REMARK 927      BINDING AFFINITY PREDICTED BY RF-SCORE:    0.00 PKD
ROOT
HETATM    1  C   UNL     1      -9.026   7.392  72.563  1.00  0.00    -0.165 C  
HETATM    2  C   UNL     1     -10.257   6.557  72.258  1.00  0.00    -0.184 C  
ENDROOT
BRANCH   2   3
HETATM    3  O   UNL     1     -11.397   7.275  72.743  1.00  0.00    -0.300 OA 
BRANCH   3   4
HETATM    4  C   UNL     1     -12.281   7.642  71.773  1.00  0.00    -0.311 C  
HETATM    5  O   UNL     1     -12.843   6.883  71.001  1.00  0.00    -0.333 OA 
BRANCH   4   6
HETATM    6  C   UNL     1     -12.528   9.122  71.882  1.00  0.00    -0.459 C  
BRANCH   6   7
HETATM    7  C   UNL     1     -11.528   9.893  71.015  1.00  0.00    -0.466 C  
BRANCH   7   8
HETATM    8  C   UNL     1     -12.224  10.784  69.997  1.00  0.00    -0.409 C  
BRANCH   8   9
HETATM    9  C   UNL     1     -12.644  12.108  70.587  1.00  0.00    -0.255 C  
HETATM   10  C   UNL     1     -12.398  13.312  70.047  1.00  0.00    -0.269 C  
BRANCH  10  11
HETATM   11  C   UNL     1     -11.528  13.533  68.853  1.00  0.00    -0.348 C  
BRANCH  11  12
HETATM   12  C   UNL     1     -11.590  12.458  67.812  1.00  0.00    -0.413 C  
HETATM   13  C   UNL     1     -12.070  12.654  66.570  1.00  0.00    -0.296 C  
BRANCH  13  14
HETATM   14  C   UNL     1     -12.613  13.928  65.964  1.00  0.00    -0.467 C  
BRANCH  14  15
HETATM   15  C   UNL     1     -11.803  14.498  64.828  1.00  0.00    -0.446 C  
HETATM   16  C   UNL     1     -10.782  15.361  64.941  1.00  0.00    -0.416 C  
BRANCH  16  17
HETATM   17  C   UNL     1     -10.383  16.047  66.207  1.00  0.00    -0.330 C  
BRANCH  17  18
HETATM   18  C   UNL     1      -9.188  15.343  66.791  1.00  0.00    -0.273 C  
HETATM   19  C   UNL     1      -8.601  15.677  67.949  1.00  0.00    -0.163 C  
BRANCH  19  20
HETATM   20  C   UNL     1      -9.028  16.814  68.816  1.00  0.00    -0.254 C  
BRANCH  20  21
HETATM   21  C   UNL     1      -8.121  18.000  68.688  1.00  0.00    -0.293 C  
HETATM   22  C   UNL     1      -8.539  19.245  68.411  1.00  0.00    -0.389 C  
BRANCH  22  23
HETATM   23  C   UNL     1      -9.956  19.651  68.146  1.00  0.00    -0.547 C  
HETATM   24  C   UNL     1     -10.226  19.809  66.661  1.00  0.00    -0.595 C  
ENDBRANCH  22  23
ENDBRANCH  20  21
ENDBRANCH  19  20
ENDBRANCH  17  18
ENDBRANCH  16  17
ENDBRANCH  14  15
ENDBRANCH  13  14
ENDBRANCH  11  12
ENDBRANCH  10  11
ENDBRANCH   8   9
ENDBRANCH   7   8
ENDBRANCH   6   7
ENDBRANCH   4   6
ENDBRANCH   3   4
ENDBRANCH   2   3
TORSDOF 15
ENDMDL
MODEL      211
REMARK 921   NORMALIZED FREE ENERGY PREDICTED BY IDOCK:   -3.96 KCAL/MOL
REMARK 922        TOTAL FREE ENERGY PREDICTED BY IDOCK:   -9.98 KCAL/MOL
REMARK 923 INTER-LIGAND FREE ENERGY PREDICTED BY IDOCK:   -6.40 KCAL/MOL
REMARK 924 INTRA-LIGAND FREE ENERGY PREDICTED BY IDOCK:   -3.57 KCAL/MOL
REMARK 927      BINDING AFFINITY PREDICTED BY RF-SCORE:    0.00 PKD
ROOT
HETATM    1  C   UNL     1     -10.915   9.275  70.638  1.00  0.00    -0.336 C  
HETATM    2  C   UNL     1     -10.455   8.098  69.796  1.00  0.00    -0.227 C  
ENDROOT
BRANCH   2   3
HETATM    3  O   UNL     1      -9.417   8.568  68.929  1.00  0.00    -0.146 OA 
BRANCH   3   4
HETATM    4  C   UNL     1      -9.631   8.311  67.608  1.00  0.00    -0.152 C  
HETATM    5  O   UNL     1     -10.715   8.075  67.098  1.00  0.00    -0.322 OA 
BRANCH   4   6
HETATM    6  C   UNL     1      -8.331   8.471  66.869  1.00  0.00    -0.109 C  
BRANCH   6   7
HETATM    7  C   UNL     1      -7.337   9.279  67.709  1.00  0.00    -0.084 C  
BRANCH   7   8
HETATM    8  C   UNL     1      -6.890  10.547  66.999  1.00  0.00    -0.087 C  
BRANCH   8   9
HETATM    9  C   UNL     1      -6.956  11.758  67.897  1.00  0.00    -0.085 C  
HETATM   10  C   UNL     1      -8.043  12.521  68.095  1.00  0.00    -0.167 C  
BRANCH  10  11
HETATM   11  C   UNL     1      -9.317  12.379  67.329  1.00  0.00    -0.184 C  
BRANCH  11  12
HETATM   12  C   UNL     1     -10.462  11.797  68.099  1.00  0.00    -0.221 C  
HETATM   13  C   UNL     1     -11.735  12.210  67.961  1.00  0.00    -0.409 C  
BRANCH  13  14
HETATM   14  C   UNL     1     -12.281  13.282  67.044  1.00  0.00    -0.310 C  
BRANCH  14  15
HETATM   15  C   UNL     1     -12.101  13.021  65.570  1.00  0.00    -0.501 C  
HETATM   16  C   UNL     1     -11.626  13.891  64.666  1.00  0.00    -0.398 C  
BRANCH  16  17
HETATM   17  C   UNL     1     -11.357  15.336  64.935  1.00  0.00    -0.387 C  
BRANCH  17  18
HETATM   18  C   UNL     1      -9.915  15.501  65.332  1.00  0.00    -0.339 C  
HETATM   19  C   UNL     1      -9.500  15.870  66.552  1.00  0.00    -0.299 C  
BRANCH  19  20
HETATM   20  C   UNL     1     -10.408  16.197  67.690  1.00  0.00    -0.288 C  
BRANCH  20  21
HETATM   21  C   UNL     1      -9.886  15.686  68.999  1.00  0.00    -0.236 C  
HETATM   22  C   UNL     1     -10.663  15.293  70.021  1.00  0.00    -0.297 C  
BRANCH  22  23
HETATM   23  C   UNL     1     -12.160  15.335  70.046  1.00  0.00    -0.386 C  
HETATM   24  C   UNL     1     -12.740  14.195  70.862  1.00  0.00    -0.432 C  
ENDBRANCH  22  23
ENDBRANCH  20  21
ENDBRANCH  19  20
ENDBRANCH  17  18
ENDBRANCH  16  17
ENDBRANCH  14  15
ENDBRANCH  13  14
ENDBRANCH  11  12
ENDBRANCH  10  11
ENDBRANCH   8   9
ENDBRANCH   7   8
ENDBRANCH   6   7
ENDBRANCH   4   6
ENDBRANCH   3   4
ENDBRANCH   2   3
TORSDOF 15
ENDMDL
MODEL      212
REMARK 921   NORMALIZED FREE ENERGY PREDICTED BY IDOCK:   -3.95 KCAL/MOL
REMARK 922        TOTAL FREE ENERGY PREDICTED BY IDOCK:   -9.97 KCAL/MOL
REMARK 923 INTER-LIGAND FREE ENERGY PREDICTED BY IDOCK:   -8.58 KCAL/MOL
REMARK 924 INTRA-LIGAND FREE ENERGY PREDICTED BY IDOCK:   -1.39 KCAL/MOL
REMARK 927      BINDING AFFINITY PREDICTED BY RF-SCORE:    0.00 PKD
ROOT
HETATM    1  C   UNL     1     -11.597  15.619  70.036  1.00  0.00    -0.360 C  
HETATM    2  C   UNL     1     -11.537  15.433  68.531  1.00  0.00    -0.359 C  
ENDROOT
BRANCH   2   3
HETATM    3  O   UNL     1     -10.171  15.178  68.182  1.00  0.00    -0.223 OA 
BRANCH   3   4
HETATM    4  C   UNL     1      -9.781  15.736  67.002  1.00  0.00    -0.228 C  
HETATM    5  O   UNL     1      -9.097  16.741  66.884  1.00  0.00    -0.213 OA 
BRANCH   4   6
HETATM    6  C   UNL     1     -10.242  14.854  65.875  1.00  0.00    -0.333 C  
BRANCH   6   7
HETATM    7  C   UNL     1     -10.988  15.680  64.823  1.00  0.00    -0.418 C  
BRANCH   7   8
HETATM    8  C   UNL     1     -12.243  14.976  64.330  1.00  0.00    -0.353 C  
BRANCH   8   9
HETATM    9  C   UNL     1     -12.639  13.822  65.219  1.00  0.00    -0.510 C  
HETATM   10  C   UNL     1     -12.467  12.523  64.927  1.00  0.00    -0.524 C  
BRANCH  10  11
HETATM   11  C   UNL     1     -12.001  12.016  63.602  1.00  0.00    -0.612 C  
BRANCH  11  12
HETATM   12  C   UNL     1     -10.514  11.927  63.441  1.00  0.00    -0.487 C  
HETATM   13  C   UNL     1      -9.738  11.102  64.166  1.00  0.00    -0.318 C  
BRANCH  13  14
HETATM   14  C   UNL     1     -10.155  10.119  65.237  1.00  0.00    -0.344 C  
BRANCH  14  15
HETATM   15  C   UNL     1      -9.072   9.186  65.713  1.00  0.00    -0.265 C  
HETATM   16  C   UNL     1      -9.242   8.110  66.497  1.00  0.00    -0.237 C  
BRANCH  16  17
HETATM   17  C   UNL     1     -10.520   7.752  67.183  1.00  0.00    -0.413 C  
BRANCH  17  18
HETATM   18  C   UNL     1     -10.456   6.313  67.619  1.00  0.00    -0.288 C  
HETATM   19  C   UNL     1     -10.834   5.868  68.826  1.00  0.00    -0.353 C  
BRANCH  19  20
HETATM   20  C   UNL     1     -11.349   6.737  69.924  1.00  0.00    -0.374 C  
BRANCH  20  21
HETATM   21  C   UNL     1     -10.251   7.250  70.806  1.00  0.00    -0.204 C  
HETATM   22  C   UNL     1     -10.408   8.216  71.725  1.00  0.00    -0.293 C  
BRANCH  22  23
HETATM   23  C   UNL     1     -11.677   8.966  71.994  1.00  0.00    -0.438 C  
HETATM   24  C   UNL     1     -11.760  10.241  71.174  1.00  0.00    -0.430 C  
ENDBRANCH  22  23
ENDBRANCH  20  21
ENDBRANCH  19  20
ENDBRANCH  17  18
ENDBRANCH  16  17
ENDBRANCH  14  15
ENDBRANCH  13  14
ENDBRANCH  11  12
ENDBRANCH  10  11
ENDBRANCH   8   9
ENDBRANCH   7   8
ENDBRANCH   6   7
ENDBRANCH   4   6
ENDBRANCH   3   4
ENDBRANCH   2   3
TORSDOF 15
ENDMDL
MODEL      213
REMARK 921   NORMALIZED FREE ENERGY PREDICTED BY IDOCK:   -3.95 KCAL/MOL
REMARK 922        TOTAL FREE ENERGY PREDICTED BY IDOCK:   -9.96 KCAL/MOL
REMARK 923 INTER-LIGAND FREE ENERGY PREDICTED BY IDOCK:   -7.50 KCAL/MOL
REMARK 924 INTRA-LIGAND FREE ENERGY PREDICTED BY IDOCK:   -2.45 KCAL/MOL
REMARK 927      BINDING AFFINITY PREDICTED BY RF-SCORE:    0.00 PKD
ROOT
HETATM    1  C   UNL     1      -9.874   3.849  65.051  1.00  0.00    -0.192 C  
HETATM    2  C   UNL     1     -10.428   4.727  66.158  1.00  0.00    -0.290 C  
ENDROOT
BRANCH   2   3
HETATM    3  O   UNL     1      -9.336   5.083  67.013  1.00  0.00    -0.119 OA 
BRANCH   3   4
HETATM    4  C   UNL     1      -9.566   4.862  68.338  1.00  0.00    -0.146 C  
HETATM    5  O   UNL     1      -9.720   3.768  68.858  1.00  0.00    -0.151 OA 
BRANCH   4   6
HETATM    6  C   UNL     1      -9.495   6.176  69.066  1.00  0.00    -0.138 C  
BRANCH   6   7
HETATM    7  C   UNL     1     -10.883   6.817  69.143  1.00  0.00    -0.298 C  
BRANCH   7   8
HETATM    8  C   UNL     1     -11.660   6.352  70.365  1.00  0.00    -0.440 C  
BRANCH   8   9
HETATM    9  C   UNL     1     -11.191   7.027  71.631  1.00  0.00    -0.276 C  
HETATM   10  C   UNL     1     -11.828   8.027  72.260  1.00  0.00    -0.424 C  
BRANCH  10  11
HETATM   11  C   UNL     1     -13.024   8.735  71.711  1.00  0.00    -0.404 C  
BRANCH  11  12
HETATM   12  C   UNL     1     -13.074  10.207  71.986  1.00  0.00    -0.538 C  
HETATM   13  C   UNL     1     -12.714  11.142  71.088  1.00  0.00    -0.510 C  
BRANCH  13  14
HETATM   14  C   UNL     1     -12.216  10.944  69.674  1.00  0.00    -0.354 C  
BRANCH  14  15
HETATM   15  C   UNL     1     -10.746  10.637  69.545  1.00  0.00    -0.290 C  
HETATM   16  C   UNL     1     -10.116  10.244  68.428  1.00  0.00    -0.178 C  
BRANCH  16  17
HETATM   17  C   UNL     1     -10.798   9.872  67.152  1.00  0.00    -0.227 C  
BRANCH  17  18
HETATM   18  C   UNL     1     -10.149  10.612  66.014  1.00  0.00    -0.308 C  
HETATM   19  C   UNL     1     -10.646  11.722  65.449  1.00  0.00    -0.325 C  
BRANCH  19  20
HETATM   20  C   UNL     1     -11.929  12.372  65.847  1.00  0.00    -0.434 C  
BRANCH  20  21
HETATM   21  C   UNL     1     -11.746  13.357  66.962  1.00  0.00    -0.426 C  
HETATM   22  C   UNL     1     -11.367  14.633  66.787  1.00  0.00    -0.360 C  
BRANCH  22  23
HETATM   23  C   UNL     1     -11.027  15.271  65.475  1.00  0.00    -0.365 C  
HETATM   24  C   UNL     1     -10.511  16.687  65.657  1.00  0.00    -0.313 C  
ENDBRANCH  22  23
ENDBRANCH  20  21
ENDBRANCH  19  20
ENDBRANCH  17  18
ENDBRANCH  16  17
ENDBRANCH  14  15
ENDBRANCH  13  14
ENDBRANCH  11  12
ENDBRANCH  10  11
ENDBRANCH   8   9
ENDBRANCH   7   8
ENDBRANCH   6   7
ENDBRANCH   4   6
ENDBRANCH   3   4
ENDBRANCH   2   3
TORSDOF 15
ENDMDL
MODEL      214
REMARK 921   NORMALIZED FREE ENERGY PREDICTED BY IDOCK:   -3.95 KCAL/MOL
REMARK 922        TOTAL FREE ENERGY PREDICTED BY IDOCK:   -9.96 KCAL/MOL
REMARK 923 INTER-LIGAND FREE ENERGY PREDICTED BY IDOCK:   -7.52 KCAL/MOL
REMARK 924 INTRA-LIGAND FREE ENERGY PREDICTED BY IDOCK:   -2.44 KCAL/MOL
REMARK 927      BINDING AFFINITY PREDICTED BY RF-SCORE:    0.00 PKD
ROOT
HETATM    1  C   UNL     1      -9.127   3.913  69.047  1.00  0.00    -0.198 C  
HETATM    2  C   UNL     1      -9.170   5.075  70.023  1.00  0.00    -0.131 C  
ENDROOT
BRANCH   2   3
HETATM    3  O   UNL     1     -10.424   5.013  70.713  1.00  0.00    -0.227 OA 
BRANCH   3   4
HETATM    4  C   UNL     1     -10.325   5.135  72.066  1.00  0.00    -0.214 C  
HETATM    5  O   UNL     1      -9.378   4.773  72.744  1.00  0.00    -0.128 OA 
BRANCH   4   6
HETATM    6  C   UNL     1     -11.528   5.885  72.571  1.00  0.00    -0.347 C  
BRANCH   6   7
HETATM    7  C   UNL     1     -12.070   6.816  71.482  1.00  0.00    -0.410 C  
BRANCH   7   8
HETATM    8  C   UNL     1     -11.871   8.282  71.835  1.00  0.00    -0.380 C  
BRANCH   8   9
HETATM    9  C   UNL     1     -10.421   8.621  72.074  1.00  0.00    -0.422 C  
HETATM   10  C   UNL     1      -9.542   8.990  71.128  1.00  0.00    -0.356 C  
BRANCH  10  11
HETATM   11  C   UNL     1      -9.830   8.966  69.663  1.00  0.00    -0.182 C  
BRANCH  11  12
HETATM   12  C   UNL     1      -9.670  10.279  68.961  1.00  0.00    -0.213 C  
HETATM   13  C   UNL     1     -10.646  11.202  68.882  1.00  0.00    -0.239 C  
BRANCH  13  14
HETATM   14  C   UNL     1     -12.042  11.143  69.458  1.00  0.00    -0.396 C  
BRANCH  14  15
HETATM   15  C   UNL     1     -12.238  11.893  70.751  1.00  0.00    -0.401 C  
HETATM   16  C   UNL     1     -12.468  13.209  70.876  1.00  0.00    -0.407 C  
BRANCH  16  17
HETATM   17  C   UNL     1     -12.393  14.195  69.756  1.00  0.00    -0.350 C  
BRANCH  17  18
HETATM   18  C   UNL     1     -10.990  14.734  69.670  1.00  0.00    -0.285 C  
HETATM   19  C   UNL     1     -10.368  15.051  68.525  1.00  0.00    -0.230 C  
BRANCH  19  20
HETATM   20  C   UNL     1     -10.964  14.892  67.167  1.00  0.00    -0.323 C  
BRANCH  20  21
HETATM   21  C   UNL     1     -10.218  13.895  66.332  1.00  0.00    -0.292 C  
HETATM   22  C   UNL     1     -10.742  13.250  65.277  1.00  0.00    -0.322 C  
BRANCH  22  23
HETATM   23  C   UNL     1     -12.151  13.382  64.786  1.00  0.00    -0.448 C  
HETATM   24  C   UNL     1     -12.506  12.283  63.800  1.00  0.00    -0.619 C  
ENDBRANCH  22  23
ENDBRANCH  20  21
ENDBRANCH  19  20
ENDBRANCH  17  18
ENDBRANCH  16  17
ENDBRANCH  14  15
ENDBRANCH  13  14
ENDBRANCH  11  12
ENDBRANCH  10  11
ENDBRANCH   8   9
ENDBRANCH   7   8
ENDBRANCH   6   7
ENDBRANCH   4   6
ENDBRANCH   3   4
ENDBRANCH   2   3
TORSDOF 15
ENDMDL
MODEL      215
REMARK 921   NORMALIZED FREE ENERGY PREDICTED BY IDOCK:   -3.94 KCAL/MOL
REMARK 922        TOTAL FREE ENERGY PREDICTED BY IDOCK:   -9.94 KCAL/MOL
REMARK 923 INTER-LIGAND FREE ENERGY PREDICTED BY IDOCK:   -7.40 KCAL/MOL
REMARK 924 INTRA-LIGAND FREE ENERGY PREDICTED BY IDOCK:   -2.55 KCAL/MOL
REMARK 927      BINDING AFFINITY PREDICTED BY RF-SCORE:    0.00 PKD
ROOT
HETATM    1  C   UNL     1     -12.746  11.930  63.440  1.00  0.00    -0.496 C  
HETATM    2  C   UNL     1     -11.739  13.034  63.710  1.00  0.00    -0.485 C  
ENDROOT
BRANCH   2   3
HETATM    3  O   UNL     1     -12.032  13.578  65.002  1.00  0.00    -0.341 OA 
BRANCH   3   4
HETATM    4  C   UNL     1     -11.007  13.481  65.895  1.00  0.00    -0.278 C  
HETATM    5  O   UNL     1     -10.101  12.665  65.850  1.00  0.00    -0.257 OA 
BRANCH   4   6
HETATM    6  C   UNL     1     -11.121  14.610  66.882  1.00  0.00    -0.333 C  
BRANCH   6   7
HETATM    7  C   UNL     1     -12.009  14.200  68.061  1.00  0.00    -0.372 C  
BRANCH   7   8
HETATM    8  C   UNL     1     -11.217  13.500  69.155  1.00  0.00    -0.310 C  
BRANCH   8   9
HETATM    9  C   UNL     1     -11.977  12.346  69.762  1.00  0.00    -0.359 C  
HETATM   10  C   UNL     1     -11.578  11.064  69.756  1.00  0.00    -0.401 C  
BRANCH  10  11
HETATM   11  C   UNL     1     -10.391  10.560  69.003  1.00  0.00    -0.232 C  
BRANCH  11  12
HETATM   12  C   UNL     1     -10.707   9.746  67.786  1.00  0.00    -0.329 C  
HETATM   13  C   UNL     1     -10.467   8.425  67.695  1.00  0.00    -0.307 C  
BRANCH  13  14
HETATM   14  C   UNL     1      -9.873   7.504  68.737  1.00  0.00    -0.166 C  
BRANCH  14  15
HETATM   15  C   UNL     1     -10.787   6.410  69.227  1.00  0.00    -0.387 C  
HETATM   16  C   UNL     1     -11.762   6.544  70.139  1.00  0.00    -0.419 C  
BRANCH  16  17
HETATM   17  C   UNL     1     -11.995   7.770  70.961  1.00  0.00    -0.281 C  
BRANCH  17  18
HETATM   18  C   UNL     1     -11.627   7.478  72.391  1.00  0.00    -0.356 C  
HETATM   19  C   UNL     1     -10.465   7.827  72.963  1.00  0.00    -0.432 C  
BRANCH  19  20
HETATM   20  C   UNL     1      -9.355   8.531  72.258  1.00  0.00    -0.363 C  
BRANCH  20  21
HETATM   21  C   UNL     1      -8.005   8.064  72.714  1.00  0.00    -0.198 C  
HETATM   22  C   UNL     1      -7.579   6.794  72.636  1.00  0.00    -0.091 C  
BRANCH  22  23
HETATM   23  C   UNL     1      -8.379   5.634  72.126  1.00  0.00    -0.115 C  
HETATM   24  C   UNL     1      -7.800   5.076  70.839  1.00  0.00    -0.087 C  
ENDBRANCH  22  23
ENDBRANCH  20  21
ENDBRANCH  19  20
ENDBRANCH  17  18
ENDBRANCH  16  17
ENDBRANCH  14  15
ENDBRANCH  13  14
ENDBRANCH  11  12
ENDBRANCH  10  11
ENDBRANCH   8   9
ENDBRANCH   7   8
ENDBRANCH   6   7
ENDBRANCH   4   6
ENDBRANCH   3   4
ENDBRANCH   2   3
TORSDOF 15
ENDMDL
MODEL      216
REMARK 921   NORMALIZED FREE ENERGY PREDICTED BY IDOCK:   -3.94 KCAL/MOL
REMARK 922        TOTAL FREE ENERGY PREDICTED BY IDOCK:   -9.94 KCAL/MOL
REMARK 923 INTER-LIGAND FREE ENERGY PREDICTED BY IDOCK:   -8.04 KCAL/MOL
REMARK 924 INTRA-LIGAND FREE ENERGY PREDICTED BY IDOCK:   -1.90 KCAL/MOL
REMARK 927      BINDING AFFINITY PREDICTED BY RF-SCORE:    0.00 PKD
ROOT
HETATM    1  C   UNL     1      -7.749  19.683  67.852  1.00  0.00    -0.331 C  
HETATM    2  C   UNL     1      -9.103  19.291  67.291  1.00  0.00    -0.297 C  
ENDROOT
BRANCH   2   3
HETATM    3  O   UNL     1      -8.878  18.637  66.036  1.00  0.00    -0.489 OA 
BRANCH   3   4
HETATM    4  C   UNL     1      -8.864  17.277  66.108  1.00  0.00    -0.160 C  
HETATM    5  O   UNL     1      -7.882  16.589  66.338  1.00  0.00    -0.281 OA 
BRANCH   4   6
HETATM    6  C   UNL     1     -10.273  16.772  65.964  1.00  0.00    -0.361 C  
BRANCH   6   7
HETATM    7  C   UNL     1     -10.270  15.286  65.590  1.00  0.00    -0.398 C  
BRANCH   7   8
HETATM    8  C   UNL     1     -10.356  14.390  66.816  1.00  0.00    -0.273 C  
BRANCH   8   9
HETATM    9  C   UNL     1      -9.208  13.413  66.892  1.00  0.00    -0.251 C  
HETATM   10  C   UNL     1      -9.270  12.180  67.420  1.00  0.00    -0.182 C  
BRANCH  10  11
HETATM   11  C   UNL     1     -10.452  11.644  68.160  1.00  0.00    -0.217 C  
BRANCH  11  12
HETATM   12  C   UNL     1     -10.625  10.158  68.093  1.00  0.00    -0.262 C  
HETATM   13  C   UNL     1     -10.713   9.372  69.181  1.00  0.00    -0.216 C  
BRANCH  13  14
HETATM   14  C   UNL     1     -10.675   9.776  70.638  1.00  0.00    -0.394 C  
BRANCH  14  15
HETATM   15  C   UNL     1     -11.924   9.471  71.424  1.00  0.00    -0.464 C  
HETATM   16  C   UNL     1     -12.910  10.335  71.710  1.00  0.00    -0.565 C  
BRANCH  16  17
HETATM   17  C   UNL     1     -12.855  11.805  71.446  1.00  0.00    -0.440 C  
BRANCH  17  18
HETATM   18  C   UNL     1     -13.979  12.478  72.188  1.00  0.00    -0.016 C  
HETATM   19  C   UNL     1     -14.332  13.762  72.028  1.00  0.00    -0.392 C  
BRANCH  19  20
HETATM   20  C   UNL     1     -13.647  14.719  71.112  1.00  0.00    -0.432 C  
BRANCH  20  21
HETATM   21  C   UNL     1     -12.903  15.787  71.857  1.00  0.00    -0.514 C  
HETATM   22  C   UNL     1     -11.670  16.210  71.540  1.00  0.00    -0.533 C  
BRANCH  22  23
HETATM   23  C   UNL     1     -10.820  15.670  70.430  1.00  0.00    -0.358 C  
HETATM   24  C   UNL     1     -10.324  16.775  69.515  1.00  0.00    -0.217 C  
ENDBRANCH  22  23
ENDBRANCH  20  21
ENDBRANCH  19  20
ENDBRANCH  17  18
ENDBRANCH  16  17
ENDBRANCH  14  15
ENDBRANCH  13  14
ENDBRANCH  11  12
ENDBRANCH  10  11
ENDBRANCH   8   9
ENDBRANCH   7   8
ENDBRANCH   6   7
ENDBRANCH   4   6
ENDBRANCH   3   4
ENDBRANCH   2   3
TORSDOF 15
ENDMDL
MODEL      217
REMARK 921   NORMALIZED FREE ENERGY PREDICTED BY IDOCK:   -3.93 KCAL/MOL
REMARK 922        TOTAL FREE ENERGY PREDICTED BY IDOCK:   -9.93 KCAL/MOL
REMARK 923 INTER-LIGAND FREE ENERGY PREDICTED BY IDOCK:   -6.99 KCAL/MOL
REMARK 924 INTRA-LIGAND FREE ENERGY PREDICTED BY IDOCK:   -2.94 KCAL/MOL
REMARK 927      BINDING AFFINITY PREDICTED BY RF-SCORE:    0.00 PKD
ROOT
HETATM    1  C   UNL     1     -12.413  12.738  64.840  1.00  0.00    -0.563 C  
HETATM    2  C   UNL     1     -10.951  12.341  64.919  1.00  0.00    -0.302 C  
ENDROOT
BRANCH   2   3
HETATM    3  O   UNL     1     -10.805  11.091  64.234  1.00  0.00    -0.353 OA 
BRANCH   3   4
HETATM    4  C   UNL     1      -9.815  10.295  64.725  1.00  0.00    -0.334 C  
HETATM    5  O   UNL     1      -8.923   9.785  64.067  1.00  0.00    -0.218 OA 
BRANCH   4   6
HETATM    6  C   UNL     1      -9.943  10.235  66.223  1.00  0.00    -0.295 C  
BRANCH   6   7
HETATM    7  C   UNL     1     -10.187   8.793  66.678  1.00  0.00    -0.340 C  
BRANCH   7   8
HETATM    8  C   UNL     1      -9.498   8.488  67.999  1.00  0.00    -0.154 C  
BRANCH   8   9
HETATM    9  C   UNL     1      -8.674   9.650  68.497  1.00  0.00    -0.120 C  
HETATM   10  C   UNL     1      -8.233   9.808  69.755  1.00  0.00    -0.182 C  
BRANCH  10  11
HETATM   11  C   UNL     1      -8.627   8.930  70.897  1.00  0.00    -0.242 C  
BRANCH  11  12
HETATM   12  C   UNL     1      -7.933   7.604  70.951  1.00  0.00    -0.094 C  
HETATM   13  C   UNL     1      -8.552   6.455  71.276  1.00  0.00    -0.127 C  
BRANCH  13  14
HETATM   14  C   UNL     1     -10.007   6.239  71.629  1.00  0.00    -0.202 C  
BRANCH  14  15
HETATM   15  C   UNL     1     -10.970   6.327  70.473  1.00  0.00    -0.374 C  
HETATM   16  C   UNL     1     -12.160   6.947  70.481  1.00  0.00    -0.315 C  
BRANCH  16  17
HETATM   17  C   UNL     1     -12.818   7.509  71.698  1.00  0.00    -0.392 C  
BRANCH  17  18
HETATM   18  C   UNL     1     -11.978   8.638  72.233  1.00  0.00    -0.438 C  
HETATM   19  C   UNL     1     -12.046   9.906  71.801  1.00  0.00    -0.382 C  
BRANCH  19  20
HETATM   20  C   UNL     1     -12.945  10.380  70.709  1.00  0.00    -0.422 C  
BRANCH  20  21
HETATM   21  C   UNL     1     -12.214  10.578  69.415  1.00  0.00    -0.094 C  
HETATM   22  C   UNL     1     -11.720  11.754  68.999  1.00  0.00    -0.390 C  
BRANCH  22  23
HETATM   23  C   UNL     1     -11.847  13.060  69.723  1.00  0.00    -0.381 C  
HETATM   24  C   UNL     1     -10.940  14.122  69.128  1.00  0.00    -0.280 C  
ENDBRANCH  22  23
ENDBRANCH  20  21
ENDBRANCH  19  20
ENDBRANCH  17  18
ENDBRANCH  16  17
ENDBRANCH  14  15
ENDBRANCH  13  14
ENDBRANCH  11  12
ENDBRANCH  10  11
ENDBRANCH   8   9
ENDBRANCH   7   8
ENDBRANCH   6   7
ENDBRANCH   4   6
ENDBRANCH   3   4
ENDBRANCH   2   3
TORSDOF 15
ENDMDL
MODEL      218
REMARK 921   NORMALIZED FREE ENERGY PREDICTED BY IDOCK:   -3.93 KCAL/MOL
REMARK 922        TOTAL FREE ENERGY PREDICTED BY IDOCK:   -9.93 KCAL/MOL
REMARK 923 INTER-LIGAND FREE ENERGY PREDICTED BY IDOCK:   -8.09 KCAL/MOL
REMARK 924 INTRA-LIGAND FREE ENERGY PREDICTED BY IDOCK:   -1.84 KCAL/MOL
REMARK 927      BINDING AFFINITY PREDICTED BY RF-SCORE:    0.00 PKD
ROOT
HETATM    1  C   UNL     1     -12.537  16.196  74.065  1.00  0.00    -0.694 C  
HETATM    2  C   UNL     1     -12.359  14.728  73.724  1.00  0.00    -0.331 C  
ENDROOT
BRANCH   2   3
HETATM    3  O   UNL     1     -13.488  14.327  72.939  1.00  0.00    -0.593 OA 
BRANCH   3   4
HETATM    4  C   UNL     1     -13.437  14.731  71.639  1.00  0.00    -0.384 C  
HETATM    5  O   UNL     1     -14.198  15.528  71.113  1.00  0.00    -0.528 OA 
BRANCH   4   6
HETATM    6  C   UNL     1     -12.229  14.114  70.990  1.00  0.00    -0.432 C  
BRANCH   6   7
HETATM    7  C   UNL     1     -12.405  14.073  69.469  1.00  0.00    -0.275 C  
BRANCH   7   8
HETATM    8  C   UNL     1     -11.231  13.398  68.777  1.00  0.00    -0.315 C  
BRANCH   8   9
HETATM    9  C   UNL     1     -11.650  12.164  68.015  1.00  0.00    -0.411 C  
HETATM   10  C   UNL     1     -11.586  10.905  68.479  1.00  0.00    -0.360 C  
BRANCH  10  11
HETATM   11  C   UNL     1     -10.940  10.520  69.769  1.00  0.00    -0.350 C  
BRANCH  11  12
HETATM   12  C   UNL     1     -11.887  10.173  70.877  1.00  0.00    -0.468 C  
HETATM   13  C   UNL     1     -11.790   9.049  71.611  1.00  0.00    -0.431 C  
BRANCH  13  14
HETATM   14  C   UNL     1     -10.760   7.947  71.509  1.00  0.00    -0.267 C  
BRANCH  14  15
HETATM   15  C   UNL     1     -11.282   6.621  71.017  1.00  0.00    -0.349 C  
HETATM   16  C   UNL     1     -11.379   6.235  69.736  1.00  0.00    -0.506 C  
BRANCH  16  17
HETATM   17  C   UNL     1     -11.150   7.127  68.560  1.00  0.00    -0.003 C  
BRANCH  17  18
HETATM   18  C   UNL     1     -11.060   6.285  67.316  1.00  0.00    -0.387 C  
HETATM   19  C   UNL     1      -9.995   6.243  66.502  1.00  0.00    -0.172 C  
BRANCH  19  20
HETATM   20  C   UNL     1      -8.752   7.046  66.695  1.00  0.00    -0.131 C  
BRANCH  20  21
HETATM   21  C   UNL     1      -9.043   8.498  66.926  1.00  0.00    -0.177 C  
HETATM   22  C   UNL     1      -9.072   9.427  65.956  1.00  0.00    -0.228 C  
BRANCH  22  23
HETATM   23  C   UNL     1      -8.783   9.184  64.506  1.00  0.00    -0.192 C  
HETATM   24  C   UNL     1      -7.324   9.442  64.175  1.00  0.00    -0.106 C  
ENDBRANCH  22  23
ENDBRANCH  20  21
ENDBRANCH  19  20
ENDBRANCH  17  18
ENDBRANCH  16  17
ENDBRANCH  14  15
ENDBRANCH  13  14
ENDBRANCH  11  12
ENDBRANCH  10  11
ENDBRANCH   8   9
ENDBRANCH   7   8
ENDBRANCH   6   7
ENDBRANCH   4   6
ENDBRANCH   3   4
ENDBRANCH   2   3
TORSDOF 15
ENDMDL
MODEL      219
REMARK 921   NORMALIZED FREE ENERGY PREDICTED BY IDOCK:   -3.92 KCAL/MOL
REMARK 922        TOTAL FREE ENERGY PREDICTED BY IDOCK:   -9.91 KCAL/MOL
REMARK 923 INTER-LIGAND FREE ENERGY PREDICTED BY IDOCK:   -7.56 KCAL/MOL
REMARK 924 INTRA-LIGAND FREE ENERGY PREDICTED BY IDOCK:   -2.35 KCAL/MOL
REMARK 927      BINDING AFFINITY PREDICTED BY RF-SCORE:    0.00 PKD
ROOT
HETATM    1  C   UNL     1      -9.867   7.866  73.202  1.00  0.00    -0.357 C  
HETATM    2  C   UNL     1     -11.348   7.738  72.896  1.00  0.00    -0.349 C  
ENDROOT
BRANCH   2   3
HETATM    3  O   UNL     1     -11.484   7.593  71.478  1.00  0.00    -0.254 OA 
BRANCH   3   4
HETATM    4  C   UNL     1     -11.477   8.769  70.791  1.00  0.00    -0.270 C  
HETATM    5  O   UNL     1     -12.173   9.741  71.040  1.00  0.00    -0.312 OA 
BRANCH   4   6
HETATM    6  C   UNL     1     -10.398   8.710  69.745  1.00  0.00    -0.212 C  
BRANCH   6   7
HETATM    7  C   UNL     1     -10.356   7.320  69.102  1.00  0.00    -0.207 C  
BRANCH   7   8
HETATM    8  C   UNL     1     -10.144   7.393  67.598  1.00  0.00    -0.240 C  
BRANCH   8   9
HETATM    9  C   UNL     1      -8.796   7.968  67.238  1.00  0.00    -0.135 C  
HETATM   10  C   UNL     1      -8.583   8.951  66.349  1.00  0.00    -0.136 C  
BRANCH  10  11
HETATM   11  C   UNL     1      -9.640   9.520  65.460  1.00  0.00    -0.349 C  
BRANCH  11  12
HETATM   12  C   UNL     1      -9.144  10.112  64.177  1.00  0.00    -0.287 C  
HETATM   13  C   UNL     1      -9.816  11.048  63.482  1.00  0.00    -0.403 C  
BRANCH  13  14
HETATM   14  C   UNL     1     -11.142  11.693  63.816  1.00  0.00    -0.499 C  
BRANCH  14  15
HETATM   15  C   UNL     1     -11.055  12.961  64.627  1.00  0.00    -0.352 C  
HETATM   16  C   UNL     1     -11.217  13.062  65.956  1.00  0.00    -0.320 C  
BRANCH  16  17
HETATM   17  C   UNL     1     -11.689  11.956  66.841  1.00  0.00    -0.291 C  
BRANCH  17  18
HETATM   18  C   UNL     1     -10.737  11.814  67.999  1.00  0.00    -0.244 C  
HETATM   19  C   UNL     1     -10.897  12.406  69.191  1.00  0.00    -0.148 C  
BRANCH  19  20
HETATM   20  C   UNL     1     -12.029  13.314  69.538  1.00  0.00    -0.366 C  
BRANCH  20  21
HETATM   21  C   UNL     1     -11.673  14.760  69.362  1.00  0.00    -0.358 C  
HETATM   22  C   UNL     1     -11.997  15.729  70.231  1.00  0.00    -0.383 C  
BRANCH  22  23
HETATM   23  C   UNL     1     -12.793  15.545  71.488  1.00  0.00    -0.519 C  
HETATM   24  C   UNL     1     -11.898  15.468  72.712  1.00  0.00    -0.575 C  
ENDBRANCH  22  23
ENDBRANCH  20  21
ENDBRANCH  19  20
ENDBRANCH  17  18
ENDBRANCH  16  17
ENDBRANCH  14  15
ENDBRANCH  13  14
ENDBRANCH  11  12
ENDBRANCH  10  11
ENDBRANCH   8   9
ENDBRANCH   7   8
ENDBRANCH   6   7
ENDBRANCH   4   6
ENDBRANCH   3   4
ENDBRANCH   2   3
TORSDOF 15
ENDMDL
MODEL      220
REMARK 921   NORMALIZED FREE ENERGY PREDICTED BY IDOCK:   -3.92 KCAL/MOL
REMARK 922        TOTAL FREE ENERGY PREDICTED BY IDOCK:   -9.91 KCAL/MOL
REMARK 923 INTER-LIGAND FREE ENERGY PREDICTED BY IDOCK:   -7.60 KCAL/MOL
REMARK 924 INTRA-LIGAND FREE ENERGY PREDICTED BY IDOCK:   -2.31 KCAL/MOL
REMARK 927      BINDING AFFINITY PREDICTED BY RF-SCORE:    0.00 PKD
ROOT
HETATM    1  C   UNL     1     -11.803  15.675  72.563  1.00  0.00    -0.583 C  
HETATM    2  C   UNL     1     -12.336  15.935  71.166  1.00  0.00    -0.384 C  
ENDROOT
BRANCH   2   3
HETATM    3  O   UNL     1     -13.062  14.770  70.758  1.00  0.00    -0.361 OA 
BRANCH   3   4
HETATM    4  C   UNL     1     -12.346  13.906  69.986  1.00  0.00    -0.316 C  
HETATM    5  O   UNL     1     -11.771  14.191  68.948  1.00  0.00    -0.292 OA 
BRANCH   4   6
HETATM    6  C   UNL     1     -12.293  12.571  70.678  1.00  0.00    -0.369 C  
BRANCH   6   7
HETATM    7  C   UNL     1     -11.756  11.499  69.725  1.00  0.00    -0.426 C  
BRANCH   7   8
HETATM    8  C   UNL     1     -11.833  10.106  70.331  1.00  0.00    -0.373 C  
BRANCH   8   9
HETATM    9  C   UNL     1     -12.885  10.009  71.409  1.00  0.00    -0.519 C  
HETATM   10  C   UNL     1     -13.030   8.983  72.262  1.00  0.00    -0.490 C  
BRANCH  10  11
HETATM   11  C   UNL     1     -12.266   7.703  72.171  1.00  0.00    -0.301 C  
BRANCH  11  12
HETATM   12  C   UNL     1     -10.999   7.658  72.970  1.00  0.00    -0.457 C  
HETATM   13  C   UNL     1      -9.814   7.276  72.460  1.00  0.00    -0.195 C  
BRANCH  13  14
HETATM   14  C   UNL     1      -9.496   6.840  71.048  1.00  0.00    -0.165 C  
BRANCH  14  15
HETATM   15  C   UNL     1      -9.721   5.378  70.758  1.00  0.00    -0.239 C  
HETATM   16  C   UNL     1      -9.586   4.779  69.565  1.00  0.00    -0.250 C  
BRANCH  16  17
HETATM   17  C   UNL     1      -9.357   5.495  68.275  1.00  0.00    -0.127 C  
BRANCH  17  18
HETATM   18  C   UNL     1     -10.680   5.968  67.735  1.00  0.00    -0.369 C  
HETATM   19  C   UNL     1     -10.913   7.204  67.271  1.00  0.00    -0.333 C  
BRANCH  19  20
HETATM   20  C   UNL     1      -9.903   8.302  67.247  1.00  0.00    -0.258 C  
BRANCH  20  21
HETATM   21  C   UNL     1     -10.369   9.486  66.454  1.00  0.00    -0.243 C  
HETATM   22  C   UNL     1      -9.731  10.666  66.413  1.00  0.00    -0.241 C  
BRANCH  22  23
HETATM   23  C   UNL     1      -8.486  11.012  67.171  1.00  0.00    -0.137 C  
HETATM   24  C   UNL     1      -8.595  12.370  67.839  1.00  0.00    -0.171 C  
ENDBRANCH  22  23
ENDBRANCH  20  21
ENDBRANCH  19  20
ENDBRANCH  17  18
ENDBRANCH  16  17
ENDBRANCH  14  15
ENDBRANCH  13  14
ENDBRANCH  11  12
ENDBRANCH  10  11
ENDBRANCH   8   9
ENDBRANCH   7   8
ENDBRANCH   6   7
ENDBRANCH   4   6
ENDBRANCH   3   4
ENDBRANCH   2   3
TORSDOF 15
ENDMDL
MODEL      221
REMARK 921   NORMALIZED FREE ENERGY PREDICTED BY IDOCK:   -3.92 KCAL/MOL
REMARK 922        TOTAL FREE ENERGY PREDICTED BY IDOCK:   -9.91 KCAL/MOL
REMARK 923 INTER-LIGAND FREE ENERGY PREDICTED BY IDOCK:   -7.85 KCAL/MOL
REMARK 924 INTRA-LIGAND FREE ENERGY PREDICTED BY IDOCK:   -2.05 KCAL/MOL
REMARK 927      BINDING AFFINITY PREDICTED BY RF-SCORE:    0.00 PKD
ROOT
HETATM    1  C   UNL     1     -10.516  19.198  66.470  1.00  0.00    -0.534 C  
HETATM    2  C   UNL     1      -9.751  17.963  66.030  1.00  0.00    -0.129 C  
ENDROOT
BRANCH   2   3
HETATM    3  O   UNL     1     -10.595  16.829  66.258  1.00  0.00    -0.279 OA 
BRANCH   3   4
HETATM    4  C   UNL     1     -10.969  16.173  65.124  1.00  0.00    -0.316 C  
HETATM    5  O   UNL     1     -11.342  16.701  64.089  1.00  0.00    -1.141 OA 
BRANCH   4   6
HETATM    6  C   UNL     1     -10.746  14.699  65.324  1.00  0.00    -0.396 C  
BRANCH   6   7
HETATM    7  C   UNL     1     -10.215  14.428  66.735  1.00  0.00    -0.270 C  
BRANCH   7   8
HETATM    8  C   UNL     1      -9.186  13.309  66.753  1.00  0.00    -0.237 C  
BRANCH   8   9
HETATM    9  C   UNL     1      -9.348  12.402  67.948  1.00  0.00    -0.195 C  
HETATM   10  C   UNL     1      -9.946  11.199  67.936  1.00  0.00    -0.189 C  
BRANCH  10  11
HETATM   11  C   UNL     1     -10.685  10.643  66.763  1.00  0.00    -0.272 C  
BRANCH  11  12
HETATM   12  C   UNL     1      -9.836  10.305  65.577  1.00  0.00    -0.347 C  
HETATM   13  C   UNL     1      -9.061   9.207  65.508  1.00  0.00    -0.275 C  
BRANCH  13  14
HETATM   14  C   UNL     1      -8.884   8.116  66.540  1.00  0.00    -0.173 C  
BRANCH  14  15
HETATM   15  C   UNL     1      -9.878   6.986  66.460  1.00  0.00    -0.175 C  
HETATM   16  C   UNL     1     -10.798   6.674  67.386  1.00  0.00    -0.434 C  
BRANCH  16  17
HETATM   17  C   UNL     1     -10.878   7.289  68.745  1.00  0.00    -0.121 C  
BRANCH  17  18
HETATM   18  C   UNL     1     -11.283   6.233  69.738  1.00  0.00    -0.499 C  
HETATM   19  C   UNL     1     -11.758   6.487  70.966  1.00  0.00    -0.402 C  
BRANCH  19  20
HETATM   20  C   UNL     1     -11.930   7.854  71.539  1.00  0.00    -0.333 C  
BRANCH  20  21
HETATM   21  C   UNL     1     -11.041   8.089  72.724  1.00  0.00    -0.448 C  
HETATM   22  C   UNL     1      -9.792   8.573  72.647  1.00  0.00    -0.281 C  
BRANCH  22  23
HETATM   23  C   UNL     1      -9.065   8.917  71.383  1.00  0.00    -0.318 C  
HETATM   24  C   UNL     1      -7.935   7.944  71.102  1.00  0.00    -0.091 C  
ENDBRANCH  22  23
ENDBRANCH  20  21
ENDBRANCH  19  20
ENDBRANCH  17  18
ENDBRANCH  16  17
ENDBRANCH  14  15
ENDBRANCH  13  14
ENDBRANCH  11  12
ENDBRANCH  10  11
ENDBRANCH   8   9
ENDBRANCH   7   8
ENDBRANCH   6   7
ENDBRANCH   4   6
ENDBRANCH   3   4
ENDBRANCH   2   3
TORSDOF 15
ENDMDL
MODEL      222
REMARK 921   NORMALIZED FREE ENERGY PREDICTED BY IDOCK:   -3.92 KCAL/MOL
REMARK 922        TOTAL FREE ENERGY PREDICTED BY IDOCK:   -9.90 KCAL/MOL
REMARK 923 INTER-LIGAND FREE ENERGY PREDICTED BY IDOCK:   -7.04 KCAL/MOL
REMARK 924 INTRA-LIGAND FREE ENERGY PREDICTED BY IDOCK:   -2.86 KCAL/MOL
REMARK 927      BINDING AFFINITY PREDICTED BY RF-SCORE:    0.00 PKD
ROOT
HETATM    1  C   UNL     1     -12.624  12.659  64.609  1.00  0.00    -0.517 C  
HETATM    2  C   UNL     1     -12.515  14.130  64.968  1.00  0.00    -0.419 C  
ENDROOT
BRANCH   2   3
HETATM    3  O   UNL     1     -12.290  14.213  66.380  1.00  0.00    -0.460 OA 
BRANCH   3   4
HETATM    4  C   UNL     1     -10.986  14.393  66.730  1.00  0.00    -0.314 C  
HETATM    5  O   UNL     1     -10.042  14.429  65.957  1.00  0.00    -0.294 OA 
BRANCH   4   6
HETATM    6  C   UNL     1     -10.914  14.644  68.211  1.00  0.00    -0.261 C  
BRANCH   6   7
HETATM    7  C   UNL     1     -11.313  13.384  68.985  1.00  0.00    -0.335 C  
BRANCH   7   8
HETATM    8  C   UNL     1     -10.407  12.206  68.661  1.00  0.00    -0.211 C  
BRANCH   8   9
HETATM    9  C   UNL     1     -11.167  11.044  68.070  1.00  0.00    -0.372 C  
HETATM   10  C   UNL     1     -10.878  10.438  66.907  1.00  0.00    -0.229 C  
BRANCH  10  11
HETATM   11  C   UNL     1      -9.849  10.926  65.941  1.00  0.00    -0.285 C  
BRANCH  11  12
HETATM   12  C   UNL     1      -9.811  10.201  64.631  1.00  0.00    -0.361 C  
HETATM   13  C   UNL     1      -8.746   9.500  64.201  1.00  0.00    -0.239 C  
BRANCH  13  14
HETATM   14  C   UNL     1      -7.423   9.279  64.901  1.00  0.00    -0.107 C  
BRANCH  14  15
HETATM   15  C   UNL     1      -7.080   7.840  65.189  1.00  0.00    -0.060 C  
HETATM   16  C   UNL     1      -7.617   7.076  66.153  1.00  0.00    -0.095 C  
BRANCH  16  17
HETATM   17  C   UNL     1      -8.528   7.577  67.226  1.00  0.00    -0.118 C  
BRANCH  17  18
HETATM   18  C   UNL     1      -9.928   7.105  66.941  1.00  0.00    -0.293 C  
HETATM   19  C   UNL     1     -10.713   6.476  67.829  1.00  0.00    -0.368 C  
BRANCH  19  20
HETATM   20  C   UNL     1     -10.304   6.129  69.221  1.00  0.00    -0.276 C  
BRANCH  20  21
HETATM   21  C   UNL     1     -11.430   6.278  70.199  1.00  0.00    -0.452 C  
HETATM   22  C   UNL     1     -11.733   7.422  70.833  1.00  0.00    -0.325 C  
BRANCH  22  23
HETATM   23  C   UNL     1     -10.985   8.714  70.708  1.00  0.00    -0.286 C  
HETATM   24  C   UNL     1      -9.773   8.751  71.622  1.00  0.00    -0.366 C  
ENDBRANCH  22  23
ENDBRANCH  20  21
ENDBRANCH  19  20
ENDBRANCH  17  18
ENDBRANCH  16  17
ENDBRANCH  14  15
ENDBRANCH  13  14
ENDBRANCH  11  12
ENDBRANCH  10  11
ENDBRANCH   8   9
ENDBRANCH   7   8
ENDBRANCH   6   7
ENDBRANCH   4   6
ENDBRANCH   3   4
ENDBRANCH   2   3
TORSDOF 15
ENDMDL
MODEL      223
REMARK 921   NORMALIZED FREE ENERGY PREDICTED BY IDOCK:   -3.92 KCAL/MOL
REMARK 922        TOTAL FREE ENERGY PREDICTED BY IDOCK:   -9.90 KCAL/MOL
REMARK 923 INTER-LIGAND FREE ENERGY PREDICTED BY IDOCK:   -7.85 KCAL/MOL
REMARK 924 INTRA-LIGAND FREE ENERGY PREDICTED BY IDOCK:   -2.05 KCAL/MOL
REMARK 927      BINDING AFFINITY PREDICTED BY RF-SCORE:    0.00 PKD
ROOT
HETATM    1  C   UNL     1      -7.627   5.202  72.777  1.00  0.00    -0.097 C  
HETATM    2  C   UNL     1      -8.576   6.135  73.507  1.00  0.00    -0.125 C  
ENDROOT
BRANCH   2   3
HETATM    3  O   UNL     1      -9.906   5.641  73.306  1.00  0.00    -0.162 OA 
BRANCH   3   4
HETATM    4  C   UNL     1     -10.777   6.564  72.810  1.00  0.00    -0.240 C  
HETATM    5  O   UNL     1     -11.084   7.613  73.352  1.00  0.00    -0.337 OA 
BRANCH   4   6
HETATM    6  C   UNL     1     -11.215   6.125  71.439  1.00  0.00    -0.346 C  
BRANCH   6   7
HETATM    7  C   UNL     1     -10.320   6.756  70.368  1.00  0.00    -0.223 C  
BRANCH   7   8
HETATM    8  C   UNL     1     -10.794   8.146  69.976  1.00  0.00    -0.233 C  
BRANCH   8   9
HETATM    9  C   UNL     1      -9.652   9.048  69.573  1.00  0.00    -0.165 C  
HETATM   10  C   UNL     1      -9.409   9.486  68.328  1.00  0.00    -0.139 C  
BRANCH  10  11
HETATM   11  C   UNL     1     -10.146   9.016  67.116  1.00  0.00    -0.309 C  
BRANCH  11  12
HETATM   12  C   UNL     1      -9.488   9.331  65.808  1.00  0.00    -0.329 C  
HETATM   13  C   UNL     1      -9.702  10.470  65.126  1.00  0.00    -0.341 C  
BRANCH  13  14
HETATM   14  C   UNL     1     -10.590  11.636  65.499  1.00  0.00    -0.329 C  
BRANCH  14  15
HETATM   15  C   UNL     1      -9.937  12.697  66.348  1.00  0.00    -0.262 C  
HETATM   16  C   UNL     1     -10.452  13.250  67.457  1.00  0.00    -0.237 C  
BRANCH  16  17
HETATM   17  C   UNL     1     -11.847  13.034  67.946  1.00  0.00    -0.389 C  
BRANCH  17  18
HETATM   18  C   UNL     1     -11.844  11.922  68.960  1.00  0.00    -0.368 C  
HETATM   19  C   UNL     1     -12.100  12.085  70.267  1.00  0.00    -0.395 C  
BRANCH  19  20
HETATM   20  C   UNL     1     -12.398  13.397  70.912  1.00  0.00    -0.436 C  
BRANCH  20  21
HETATM   21  C   UNL     1     -13.400  13.271  72.019  1.00  0.00    -0.582 C  
HETATM   22  C   UNL     1     -13.774  14.283  72.819  1.00  0.00    -0.456 C  
BRANCH  22  23
HETATM   23  C   UNL     1     -13.233  15.679  72.771  1.00  0.00    -0.610 C  
HETATM   24  C   UNL     1     -12.446  16.019  74.023  1.00  0.00    -0.742 C  
ENDBRANCH  22  23
ENDBRANCH  20  21
ENDBRANCH  19  20
ENDBRANCH  17  18
ENDBRANCH  16  17
ENDBRANCH  14  15
ENDBRANCH  13  14
ENDBRANCH  11  12
ENDBRANCH  10  11
ENDBRANCH   8   9
ENDBRANCH   7   8
ENDBRANCH   6   7
ENDBRANCH   4   6
ENDBRANCH   3   4
ENDBRANCH   2   3
TORSDOF 15
ENDMDL
MODEL      224
REMARK 921   NORMALIZED FREE ENERGY PREDICTED BY IDOCK:   -3.91 KCAL/MOL
REMARK 922        TOTAL FREE ENERGY PREDICTED BY IDOCK:   -9.89 KCAL/MOL
REMARK 923 INTER-LIGAND FREE ENERGY PREDICTED BY IDOCK:   -7.69 KCAL/MOL
REMARK 924 INTRA-LIGAND FREE ENERGY PREDICTED BY IDOCK:   -2.21 KCAL/MOL
REMARK 927      BINDING AFFINITY PREDICTED BY RF-SCORE:    0.00 PKD
ROOT
HETATM    1  C   UNL     1     -13.767   9.165  71.160  1.00  0.00    -0.161 C  
HETATM    2  C   UNL     1     -12.708   8.868  72.206  1.00  0.00    -0.397 C  
ENDROOT
BRANCH   2   3
HETATM    3  O   UNL     1     -11.503   9.529  71.801  1.00  0.00    -0.384 OA 
BRANCH   3   4
HETATM    4  C   UNL     1     -10.366   8.818  72.042  1.00  0.00    -0.340 C  
HETATM    5  O   UNL     1      -9.232   9.186  71.783  1.00  0.00    -0.338 OA 
BRANCH   4   6
HETATM    6  C   UNL     1     -10.733   7.557  72.774  1.00  0.00    -0.382 C  
BRANCH   6   7
HETATM    7  C   UNL     1      -9.658   6.487  72.561  1.00  0.00    -0.156 C  
BRANCH   7   8
HETATM    8  C   UNL     1     -10.168   5.323  71.725  1.00  0.00    -0.269 C  
BRANCH   8   9
HETATM    9  C   UNL     1     -11.129   5.768  70.651  1.00  0.00    -0.272 C  
HETATM   10  C   UNL     1     -10.868   5.789  69.334  1.00  0.00    -0.393 C  
BRANCH  10  11
HETATM   11  C   UNL     1      -9.522   5.523  68.743  1.00  0.00    -0.163 C  
BRANCH  11  12
HETATM   12  C   UNL     1      -8.551   6.660  68.832  1.00  0.00    -0.126 C  
HETATM   13  C   UNL     1      -8.564   7.714  67.995  1.00  0.00    -0.123 C  
BRANCH  13  14
HETATM   14  C   UNL     1      -9.511   7.991  66.849  1.00  0.00    -0.244 C  
BRANCH  14  15
HETATM   15  C   UNL     1     -10.468   9.135  67.065  1.00  0.00    -0.311 C  
HETATM   16  C   UNL     1     -10.411  10.337  66.471  1.00  0.00    -0.276 C  
BRANCH  16  17
HETATM   17  C   UNL     1      -9.278  10.813  65.622  1.00  0.00    -0.226 C  
BRANCH  17  18
HETATM   18  C   UNL     1      -9.499  10.351  64.206  1.00  0.00    -0.349 C  
HETATM   19  C   UNL     1     -10.132  11.065  63.264  1.00  0.00    -0.400 C  
BRANCH  19  20
HETATM   20  C   UNL     1     -10.734  12.412  63.487  1.00  0.00    -0.473 C  
BRANCH  20  21
HETATM   21  C   UNL     1     -12.183  12.332  63.864  1.00  0.00    -0.608 C  
HETATM   22  C   UNL     1     -12.750  13.052  64.845  1.00  0.00    -0.456 C  
BRANCH  22  23
HETATM   23  C   UNL     1     -12.036  14.013  65.746  1.00  0.00    -0.417 C  
HETATM   24  C   UNL     1     -12.025  13.530  67.185  1.00  0.00    -0.426 C  
ENDBRANCH  22  23
ENDBRANCH  20  21
ENDBRANCH  19  20
ENDBRANCH  17  18
ENDBRANCH  16  17
ENDBRANCH  14  15
ENDBRANCH  13  14
ENDBRANCH  11  12
ENDBRANCH  10  11
ENDBRANCH   8   9
ENDBRANCH   7   8
ENDBRANCH   6   7
ENDBRANCH   4   6
ENDBRANCH   3   4
ENDBRANCH   2   3
TORSDOF 15
ENDMDL
MODEL      225
REMARK 921   NORMALIZED FREE ENERGY PREDICTED BY IDOCK:   -3.91 KCAL/MOL
REMARK 922        TOTAL FREE ENERGY PREDICTED BY IDOCK:   -9.89 KCAL/MOL
REMARK 923 INTER-LIGAND FREE ENERGY PREDICTED BY IDOCK:   -8.13 KCAL/MOL
REMARK 924 INTRA-LIGAND FREE ENERGY PREDICTED BY IDOCK:   -1.76 KCAL/MOL
REMARK 927      BINDING AFFINITY PREDICTED BY RF-SCORE:    0.00 PKD
ROOT
HETATM    1  C   UNL     1     -13.506   9.130  71.797  1.00  0.00    -0.478 C  
HETATM    2  C   UNL     1     -12.094   8.705  72.155  1.00  0.00    -0.381 C  
ENDROOT
BRANCH   2   3
HETATM    3  O   UNL     1     -11.886   7.396  71.613  1.00  0.00    -0.269 OA 
BRANCH   3   4
HETATM    4  C   UNL     1     -10.940   7.339  70.634  1.00  0.00    -0.256 C  
HETATM    5  O   UNL     1      -9.921   8.009  70.592  1.00  0.00    -0.188 OA 
BRANCH   4   6
HETATM    6  C   UNL     1     -11.308   6.243  69.672  1.00  0.00    -0.492 C  
BRANCH   6   7
HETATM    7  C   UNL     1     -10.051   5.506  69.199  1.00  0.00    -0.286 C  
BRANCH   7   8
HETATM    8  C   UNL     1      -9.829   5.659  67.702  1.00  0.00    -0.154 C  
BRANCH   8   9
HETATM    9  C   UNL     1      -8.735   6.648  67.384  1.00  0.00    -0.118 C  
HETATM   10  C   UNL     1      -8.925   7.909  66.963  1.00  0.00    -0.145 C  
BRANCH  10  11
HETATM   11  C   UNL     1     -10.256   8.476  66.591  1.00  0.00    -0.345 C  
BRANCH  11  12
HETATM   12  C   UNL     1     -10.675   9.683  67.372  1.00  0.00    -0.308 C  
HETATM   13  C   UNL     1     -10.442  10.945  66.969  1.00  0.00    -0.291 C  
BRANCH  13  14
HETATM   14  C   UNL     1      -9.758  11.416  65.705  1.00  0.00    -0.263 C  
BRANCH  14  15
HETATM   15  C   UNL     1     -10.623  11.430  64.471  1.00  0.00    -0.390 C  
HETATM   16  C   UNL     1     -11.594  12.314  64.195  1.00  0.00    -0.463 C  
BRANCH  16  17
HETATM   17  C   UNL     1     -12.107  13.339  65.153  1.00  0.00    -0.452 C  
BRANCH  17  18
HETATM   18  C   UNL     1     -11.963  14.704  64.534  1.00  0.00    -0.473 C  
HETATM   19  C   UNL     1     -10.953  15.549  64.786  1.00  0.00    -0.416 C  
BRANCH  19  20
HETATM   20  C   UNL     1      -9.837  15.273  65.737  1.00  0.00    -0.395 C  
BRANCH  20  21
HETATM   21  C   UNL     1     -10.181  15.658  67.145  1.00  0.00    -0.270 C  
HETATM   22  C   UNL     1     -10.435  16.913  67.544  1.00  0.00    -0.328 C  
BRANCH  22  23
HETATM   23  C   UNL     1     -10.380  18.133  66.676  1.00  0.00    -0.387 C  
HETATM   24  C   UNL     1     -10.504  19.408  67.492  1.00  0.00    -0.577 C  
ENDBRANCH  22  23
ENDBRANCH  20  21
ENDBRANCH  19  20
ENDBRANCH  17  18
ENDBRANCH  16  17
ENDBRANCH  14  15
ENDBRANCH  13  14
ENDBRANCH  11  12
ENDBRANCH  10  11
ENDBRANCH   8   9
ENDBRANCH   7   8
ENDBRANCH   6   7
ENDBRANCH   4   6
ENDBRANCH   3   4
ENDBRANCH   2   3
TORSDOF 15
ENDMDL
MODEL      226
REMARK 921   NORMALIZED FREE ENERGY PREDICTED BY IDOCK:   -3.90 KCAL/MOL
REMARK 922        TOTAL FREE ENERGY PREDICTED BY IDOCK:   -9.86 KCAL/MOL
REMARK 923 INTER-LIGAND FREE ENERGY PREDICTED BY IDOCK:   -6.98 KCAL/MOL
REMARK 924 INTRA-LIGAND FREE ENERGY PREDICTED BY IDOCK:   -2.89 KCAL/MOL
REMARK 927      BINDING AFFINITY PREDICTED BY RF-SCORE:    0.00 PKD
ROOT
HETATM    1  C   UNL     1     -13.047  11.626  71.753  1.00  0.00    -0.487 C  
HETATM    2  C   UNL     1     -12.567  10.398  71.000  1.00  0.00    -0.393 C  
ENDROOT
BRANCH   2   3
HETATM    3  O   UNL     1     -11.305  10.723  70.406  1.00  0.00    -0.301 OA 
BRANCH   3   4
HETATM    4  C   UNL     1     -11.377  11.063  69.089  1.00  0.00    -0.280 C  
HETATM    5  O   UNL     1     -12.397  11.095  68.419  1.00  0.00    -0.556 OA 
BRANCH   4   6
HETATM    6  C   UNL     1     -10.011  11.491  68.627  1.00  0.00    -0.207 C  
BRANCH   6   7
HETATM    7  C   UNL     1      -9.988  11.638  67.102  1.00  0.00    -0.219 C  
BRANCH   7   8
HETATM    8  C   UNL     1      -8.678  12.230  66.606  1.00  0.00    -0.132 C  
BRANCH   8   9
HETATM    9  C   UNL     1      -7.476  11.534  67.197  1.00  0.00    -0.142 C  
HETATM   10  C   UNL     1      -6.487  12.136  67.877  1.00  0.00    -0.078 C  
BRANCH  10  11
HETATM   11  C   UNL     1      -6.345  13.616  68.016  1.00  0.00    -0.139 C  
BRANCH  11  12
HETATM   12  C   UNL     1      -7.168  14.235  69.104  1.00  0.00    -0.104 C  
HETATM   13  C   UNL     1      -8.076  15.204  68.888  1.00  0.00    -0.178 C  
BRANCH  13  14
HETATM   14  C   UNL     1      -8.468  15.848  67.577  1.00  0.00    -0.181 C  
BRANCH  14  15
HETATM   15  C   UNL     1      -9.942  15.827  67.264  1.00  0.00    -0.238 C  
HETATM   16  C   UNL     1     -10.806  16.836  67.455  1.00  0.00    -0.216 C  
BRANCH  16  17
HETATM   17  C   UNL     1     -10.487  18.102  68.181  1.00  0.00    -0.365 C  
BRANCH  17  18
HETATM   18  C   UNL     1     -10.769  19.271  67.276  1.00  0.00    -0.594 C  
HETATM   19  C   UNL     1      -9.868  19.832  66.458  1.00  0.00    -0.546 C  
BRANCH  19  20
HETATM   20  C   UNL     1      -8.445  19.398  66.343  1.00  0.00    -0.361 C  
BRANCH  20  21
HETATM   21  C   UNL     1      -7.500  20.372  66.980  1.00  0.00    -0.356 C  
HETATM   22  C   UNL     1      -6.889  20.172  68.158  1.00  0.00    -0.326 C  
BRANCH  22  23
HETATM   23  C   UNL     1      -7.075  18.978  69.045  1.00  0.00    -0.361 C  
HETATM   24  C   UNL     1      -5.806  18.152  69.145  1.00  0.00    -0.218 C  
ENDBRANCH  22  23
ENDBRANCH  20  21
ENDBRANCH  19  20
ENDBRANCH  17  18
ENDBRANCH  16  17
ENDBRANCH  14  15
ENDBRANCH  13  14
ENDBRANCH  11  12
ENDBRANCH  10  11
ENDBRANCH   8   9
ENDBRANCH   7   8
ENDBRANCH   6   7
ENDBRANCH   4   6
ENDBRANCH   3   4
ENDBRANCH   2   3
TORSDOF 15
ENDMDL
MODEL      227
REMARK 921   NORMALIZED FREE ENERGY PREDICTED BY IDOCK:   -3.89 KCAL/MOL
REMARK 922        TOTAL FREE ENERGY PREDICTED BY IDOCK:   -9.86 KCAL/MOL
REMARK 923 INTER-LIGAND FREE ENERGY PREDICTED BY IDOCK:   -7.55 KCAL/MOL
REMARK 924 INTRA-LIGAND FREE ENERGY PREDICTED BY IDOCK:   -2.31 KCAL/MOL
REMARK 927      BINDING AFFINITY PREDICTED BY RF-SCORE:    0.00 PKD
ROOT
HETATM    1  C   UNL     1      -7.880  15.355  69.084  1.00  0.00    -0.212 C  
HETATM    2  C   UNL     1      -8.437  15.660  67.706  1.00  0.00    -0.151 C  
ENDROOT
BRANCH   2   3
HETATM    3  O   UNL     1      -9.722  15.034  67.612  1.00  0.00    -0.214 OA 
BRANCH   3   4
HETATM    4  C   UNL     1      -9.677  13.677  67.502  1.00  0.00    -0.227 C  
HETATM    5  O   UNL     1      -8.807  13.040  66.931  1.00  0.00    -0.214 OA 
BRANCH   4   6
HETATM    6  C   UNL     1     -10.817  13.092  68.290  1.00  0.00    -0.267 C  
BRANCH   6   7
HETATM    7  C   UNL     1     -11.911  12.584  67.345  1.00  0.00    -0.381 C  
BRANCH   7   8
HETATM    8  C   UNL     1     -12.180  13.557  66.208  1.00  0.00    -0.468 C  
BRANCH   8   9
HETATM    9  C   UNL     1     -12.831  12.887  65.023  1.00  0.00    -0.348 C  
HETATM   10  C   UNL     1     -12.179  12.304  64.005  1.00  0.00    -0.569 C  
BRANCH  10  11
HETATM   11  C   UNL     1     -10.699  12.370  63.810  1.00  0.00    -0.492 C  
BRANCH  11  12
HETATM   12  C   UNL     1     -10.057  11.092  63.366  1.00  0.00    -0.439 C  
HETATM   13  C   UNL     1      -9.635  10.139  64.217  1.00  0.00    -0.354 C  
BRANCH  13  14
HETATM   14  C   UNL     1      -9.715  10.125  65.727  1.00  0.00    -0.307 C  
BRANCH  14  15
HETATM   15  C   UNL     1      -9.830   8.760  66.354  1.00  0.00    -0.352 C  
HETATM   16  C   UNL     1     -10.198   8.498  67.617  1.00  0.00    -0.297 C  
BRANCH  16  17
HETATM   17  C   UNL     1     -10.387   9.531  68.679  1.00  0.00    -0.229 C  
BRANCH  17  18
HETATM   18  C   UNL     1      -9.061   9.810  69.335  1.00  0.00    -0.209 C  
HETATM   19  C   UNL     1      -8.767   9.514  70.609  1.00  0.00    -0.189 C  
BRANCH  19  20
HETATM   20  C   UNL     1      -9.719   8.890  71.573  1.00  0.00    -0.372 C  
BRANCH  20  21
HETATM   21  C   UNL     1      -9.521   7.408  71.689  1.00  0.00    -0.163 C  
HETATM   22  C   UNL     1     -10.367   6.492  71.194  1.00  0.00    -0.237 C  
BRANCH  22  23
HETATM   23  C   UNL     1     -11.655   6.784  70.488  1.00  0.00    -0.426 C  
HETATM   24  C   UNL     1     -12.749   7.187  71.460  1.00  0.00    -0.433 C  
ENDBRANCH  22  23
ENDBRANCH  20  21
ENDBRANCH  19  20
ENDBRANCH  17  18
ENDBRANCH  16  17
ENDBRANCH  14  15
ENDBRANCH  13  14
ENDBRANCH  11  12
ENDBRANCH  10  11
ENDBRANCH   8   9
ENDBRANCH   7   8
ENDBRANCH   6   7
ENDBRANCH   4   6
ENDBRANCH   3   4
ENDBRANCH   2   3
TORSDOF 15
ENDMDL
MODEL      228
REMARK 921   NORMALIZED FREE ENERGY PREDICTED BY IDOCK:   -3.89 KCAL/MOL
REMARK 922        TOTAL FREE ENERGY PREDICTED BY IDOCK:   -9.85 KCAL/MOL
REMARK 923 INTER-LIGAND FREE ENERGY PREDICTED BY IDOCK:   -6.96 KCAL/MOL
REMARK 924 INTRA-LIGAND FREE ENERGY PREDICTED BY IDOCK:   -2.89 KCAL/MOL
REMARK 927      BINDING AFFINITY PREDICTED BY RF-SCORE:    0.00 PKD
ROOT
HETATM    1  C   UNL     1     -10.970  19.231  67.260  1.00  0.00    -0.443 C  
HETATM    2  C   UNL     1      -9.876  20.253  67.007  1.00  0.00    -0.467 C  
ENDROOT
BRANCH   2   3
HETATM    3  O   UNL     1      -9.110  19.797  65.886  1.00  0.00    -0.364 OA 
BRANCH   3   4
HETATM    4  C   UNL     1      -7.761  19.828  66.079  1.00  0.00    -0.332 C  
HETATM    5  O   UNL     1      -6.928  20.087  65.225  1.00  0.00    -0.307 OA 
BRANCH   4   6
HETATM    6  C   UNL     1      -7.478  19.596  67.538  1.00  0.00    -0.292 C  
BRANCH   6   7
HETATM    7  C   UNL     1      -6.918  18.187  67.753  1.00  0.00    -0.207 C  
BRANCH   7   8
HETATM    8  C   UNL     1      -7.909  17.282  68.468  1.00  0.00    -0.266 C  
BRANCH   8   9
HETATM    9  C   UNL     1      -8.828  16.568  67.507  1.00  0.00    -0.198 C  
HETATM   10  C   UNL     1      -8.672  15.307  67.074  1.00  0.00    -0.260 C  
BRANCH  10  11
HETATM   11  C   UNL     1      -7.470  14.467  67.357  1.00  0.00    -0.194 C  
BRANCH  11  12
HETATM   12  C   UNL     1      -7.617  13.507  68.497  1.00  0.00    -0.129 C  
HETATM   13  C   UNL     1      -7.953  12.214  68.340  1.00  0.00    -0.152 C  
BRANCH  13  14
HETATM   14  C   UNL     1      -8.231  11.465  67.056  1.00  0.00    -0.160 C  
BRANCH  14  15
HETATM   15  C   UNL     1      -8.014   9.975  67.119  1.00  0.00    -0.109 C  
HETATM   16  C   UNL     1      -8.947   9.051  67.391  1.00  0.00    -0.135 C  
BRANCH  16  17
HETATM   17  C   UNL     1     -10.334   9.354  67.855  1.00  0.00    -0.276 C  
BRANCH  17  18
HETATM   18  C   UNL     1     -10.307   9.630  69.334  1.00  0.00    -0.226 C  
HETATM   19  C   UNL     1     -11.086  10.529  69.954  1.00  0.00    -0.371 C  
BRANCH  19  20
HETATM   20  C   UNL     1     -12.076  11.407  69.264  1.00  0.00    -0.356 C  
BRANCH  20  21
HETATM   21  C   UNL     1     -11.542  12.787  69.025  1.00  0.00    -0.366 C  
HETATM   22  C   UNL     1     -11.442  13.360  67.815  1.00  0.00    -0.351 C  
BRANCH  22  23
HETATM   23  C   UNL     1     -11.801  12.714  66.512  1.00  0.00    -0.463 C  
HETATM   24  C   UNL     1     -12.570  13.662  65.610  1.00  0.00    -0.531 C  
ENDBRANCH  22  23
ENDBRANCH  20  21
ENDBRANCH  19  20
ENDBRANCH  17  18
ENDBRANCH  16  17
ENDBRANCH  14  15
ENDBRANCH  13  14
ENDBRANCH  11  12
ENDBRANCH  10  11
ENDBRANCH   8   9
ENDBRANCH   7   8
ENDBRANCH   6   7
ENDBRANCH   4   6
ENDBRANCH   3   4
ENDBRANCH   2   3
TORSDOF 15
ENDMDL
MODEL      229
REMARK 921   NORMALIZED FREE ENERGY PREDICTED BY IDOCK:   -3.88 KCAL/MOL
REMARK 922        TOTAL FREE ENERGY PREDICTED BY IDOCK:   -9.84 KCAL/MOL
REMARK 923 INTER-LIGAND FREE ENERGY PREDICTED BY IDOCK:   -7.71 KCAL/MOL
REMARK 924 INTRA-LIGAND FREE ENERGY PREDICTED BY IDOCK:   -2.13 KCAL/MOL
REMARK 927      BINDING AFFINITY PREDICTED BY RF-SCORE:    0.00 PKD
ROOT
HETATM    1  C   UNL     1     -10.265   3.356  72.761  1.00  0.00    -0.244 C  
HETATM    2  C   UNL     1     -10.985   4.512  73.431  1.00  0.00    -0.301 C  
ENDROOT
BRANCH   2   3
HETATM    3  O   UNL     1     -10.235   5.702  73.160  1.00  0.00    -0.175 OA 
BRANCH   3   4
HETATM    4  C   UNL     1     -10.935   6.667  72.499  1.00  0.00    -0.247 C  
HETATM    5  O   UNL     1     -12.016   6.512  71.954  1.00  0.00    -0.323 OA 
BRANCH   4   6
HETATM    6  C   UNL     1     -10.206   7.975  72.643  1.00  0.00    -0.385 C  
BRANCH   6   7
HETATM    7  C   UNL     1      -9.311   8.222  71.425  1.00  0.00    -0.223 C  
BRANCH   7   8
HETATM    8  C   UNL     1     -10.070   8.880  70.283  1.00  0.00    -0.218 C  
BRANCH   8   9
HETATM    9  C   UNL     1     -10.168   7.988  69.071  1.00  0.00    -0.217 C  
HETATM   10  C   UNL     1     -10.340   8.409  67.807  1.00  0.00    -0.297 C  
BRANCH  10  11
HETATM   11  C   UNL     1     -10.620   9.826  67.428  1.00  0.00    -0.330 C  
BRANCH  11  12
HETATM   12  C   UNL     1      -9.440  10.595  66.920  1.00  0.00    -0.189 C  
HETATM   13  C   UNL     1      -9.245  10.884  65.620  1.00  0.00    -0.227 C  
BRANCH  13  14
HETATM   14  C   UNL     1     -10.122  10.533  64.439  1.00  0.00    -0.395 C  
BRANCH  14  15
HETATM   15  C   UNL     1     -10.311  11.635  63.427  1.00  0.00    -0.482 C  
HETATM   16  C   UNL     1     -11.314  12.526  63.406  1.00  0.00    -0.489 C  
BRANCH  16  17
HETATM   17  C   UNL     1     -12.520  12.469  64.284  1.00  0.00    -0.520 C  
BRANCH  17  18
HETATM   18  C   UNL     1     -12.768  13.835  64.866  1.00  0.00    -0.314 C  
HETATM   19  C   UNL     1     -12.497  14.181  66.133  1.00  0.00    -0.426 C  
BRANCH  19  20
HETATM   20  C   UNL     1     -11.934  13.256  67.160  1.00  0.00    -0.400 C  
BRANCH  20  21
HETATM   21  C   UNL     1     -11.103  13.975  68.179  1.00  0.00    -0.280 C  
HETATM   22  C   UNL     1     -11.183  13.768  69.503  1.00  0.00    -0.221 C  
BRANCH  22  23
HETATM   23  C   UNL     1     -12.131  12.827  70.183  1.00  0.00    -0.370 C  
HETATM   24  C   UNL     1     -12.822  13.484  71.364  1.00  0.00    -0.440 C  
ENDBRANCH  22  23
ENDBRANCH  20  21
ENDBRANCH  19  20
ENDBRANCH  17  18
ENDBRANCH  16  17
ENDBRANCH  14  15
ENDBRANCH  13  14
ENDBRANCH  11  12
ENDBRANCH  10  11
ENDBRANCH   8   9
ENDBRANCH   7   8
ENDBRANCH   6   7
ENDBRANCH   4   6
ENDBRANCH   3   4
ENDBRANCH   2   3
TORSDOF 15
ENDMDL
MODEL      230
REMARK 921   NORMALIZED FREE ENERGY PREDICTED BY IDOCK:   -3.88 KCAL/MOL
REMARK 922        TOTAL FREE ENERGY PREDICTED BY IDOCK:   -9.83 KCAL/MOL
REMARK 923 INTER-LIGAND FREE ENERGY PREDICTED BY IDOCK:   -7.02 KCAL/MOL
REMARK 924 INTRA-LIGAND FREE ENERGY PREDICTED BY IDOCK:   -2.81 KCAL/MOL
REMARK 927      BINDING AFFINITY PREDICTED BY RF-SCORE:    0.00 PKD
ROOT
HETATM    1  C   UNL     1     -13.931   9.169  72.309  1.00  0.00    -0.489 C  
HETATM    2  C   UNL     1     -12.481   9.263  71.870  1.00  0.00    -0.382 C  
ENDROOT
BRANCH   2   3
HETATM    3  O   UNL     1     -11.806   8.098  72.358  1.00  0.00    -0.352 OA 
BRANCH   3   4
HETATM    4  C   UNL     1     -11.319   7.282  71.381  1.00  0.00    -0.255 C  
HETATM    5  O   UNL     1     -11.971   6.805  70.466  1.00  0.00    -0.386 OA 
BRANCH   4   6
HETATM    6  C   UNL     1      -9.831   7.154  71.558  1.00  0.00    -0.176 C  
BRANCH   6   7
HETATM    7  C   UNL     1      -9.097   7.991  70.506  1.00  0.00    -0.153 C  
BRANCH   7   8
HETATM    8  C   UNL     1      -8.042   7.181  69.767  1.00  0.00    -0.129 C  
BRANCH   8   9
HETATM    9  C   UNL     1      -8.307   5.697  69.837  1.00  0.00    -0.117 C  
HETATM   10  C   UNL     1      -8.508   4.893  68.781  1.00  0.00    -0.089 C  
BRANCH  10  11
HETATM   11  C   UNL     1      -8.657   5.377  67.376  1.00  0.00    -0.108 C  
BRANCH  11  12
HETATM   12  C   UNL     1     -10.043   5.284  66.815  1.00  0.00    -0.255 C  
HETATM   13  C   UNL     1     -10.902   6.319  66.785  1.00  0.00    -0.367 C  
BRANCH  13  14
HETATM   14  C   UNL     1     -10.683   7.736  67.267  1.00  0.00    -0.326 C  
BRANCH  14  15
HETATM   15  C   UNL     1      -9.882   8.615  66.341  1.00  0.00    -0.341 C  
HETATM   16  C   UNL     1      -9.473   9.867  66.597  1.00  0.00    -0.220 C  
BRANCH  16  17
HETATM   17  C   UNL     1      -9.895  10.674  67.781  1.00  0.00    -0.187 C  
BRANCH  17  18
HETATM   18  C   UNL     1      -9.506  12.111  67.558  1.00  0.00    -0.180 C  
HETATM   19  C   UNL     1     -10.353  13.076  67.169  1.00  0.00    -0.243 C  
BRANCH  19  20
HETATM   20  C   UNL     1     -11.799  12.861  66.872  1.00  0.00    -0.444 C  
BRANCH  20  21
HETATM   21  C   UNL     1     -12.253  13.630  65.668  1.00  0.00    -0.490 C  
HETATM   22  C   UNL     1     -12.300  13.129  64.424  1.00  0.00    -0.426 C  
BRANCH  22  23
HETATM   23  C   UNL     1     -11.874  11.749  64.023  1.00  0.00    -0.402 C  
HETATM   24  C   UNL     1     -10.460  11.736  63.473  1.00  0.00    -0.500 C  
ENDBRANCH  22  23
ENDBRANCH  20  21
ENDBRANCH  19  20
ENDBRANCH  17  18
ENDBRANCH  16  17
ENDBRANCH  14  15
ENDBRANCH  13  14
ENDBRANCH  11  12
ENDBRANCH  10  11
ENDBRANCH   8   9
ENDBRANCH   7   8
ENDBRANCH   6   7
ENDBRANCH   4   6
ENDBRANCH   3   4
ENDBRANCH   2   3
TORSDOF 15
ENDMDL
MODEL      231
REMARK 921   NORMALIZED FREE ENERGY PREDICTED BY IDOCK:   -3.87 KCAL/MOL
REMARK 922        TOTAL FREE ENERGY PREDICTED BY IDOCK:   -9.82 KCAL/MOL
REMARK 923 INTER-LIGAND FREE ENERGY PREDICTED BY IDOCK:   -8.01 KCAL/MOL
REMARK 924 INTRA-LIGAND FREE ENERGY PREDICTED BY IDOCK:   -1.81 KCAL/MOL
REMARK 927      BINDING AFFINITY PREDICTED BY RF-SCORE:    0.00 PKD
ROOT
HETATM    1  C   UNL     1      -5.664  16.134  70.181  1.00  0.00    -0.176 C  
HETATM    2  C   UNL     1      -5.793  17.376  69.317  1.00  0.00    -0.210 C  
ENDROOT
BRANCH   2   3
HETATM    3  O   UNL     1      -5.869  18.506  70.194  1.00  0.00    -0.240 OA 
BRANCH   3   4
HETATM    4  C   UNL     1      -6.458  19.604  69.643  1.00  0.00    -0.336 C  
HETATM    5  O   UNL     1      -6.031  20.745  69.708  1.00  0.00    -0.375 OA 
BRANCH   4   6
HETATM    6  C   UNL     1      -7.660  19.161  68.855  1.00  0.00    -0.371 C  
BRANCH   6   7
HETATM    7  C   UNL     1      -7.886  20.093  67.661  1.00  0.00    -0.335 C  
BRANCH   7   8
HETATM    8  C   UNL     1      -9.361  20.238  67.321  1.00  0.00    -0.538 C  
BRANCH   8   9
HETATM    9  C   UNL     1     -10.216  19.226  68.042  1.00  0.00    -0.507 C  
HETATM   10  C   UNL     1     -10.598  18.037  67.547  1.00  0.00    -0.402 C  
BRANCH  10  11
HETATM   11  C   UNL     1     -10.362  17.603  66.138  1.00  0.00    -0.334 C  
BRANCH  11  12
HETATM   12  C   UNL     1      -9.406  16.462  65.974  1.00  0.00    -0.335 C  
HETATM   13  C   UNL     1      -9.783  15.224  65.605  1.00  0.00    -0.360 C  
BRANCH  13  14
HETATM   14  C   UNL     1     -11.172  14.725  65.274  1.00  0.00    -0.366 C  
BRANCH  14  15
HETATM   15  C   UNL     1     -12.055  14.442  66.462  1.00  0.00    -0.395 C  
HETATM   16  C   UNL     1     -11.957  13.389  67.287  1.00  0.00    -0.393 C  
BRANCH  16  17
HETATM   17  C   UNL     1     -11.060  12.215  67.064  1.00  0.00    -0.347 C  
BRANCH  17  18
HETATM   18  C   UNL     1     -11.503  11.084  67.953  1.00  0.00    -0.358 C  
HETATM   19  C   UNL     1     -10.774   9.988  68.207  1.00  0.00    -0.280 C  
BRANCH  19  20
HETATM   20  C   UNL     1      -9.427   9.715  67.626  1.00  0.00    -0.155 C  
BRANCH  20  21
HETATM   21  C   UNL     1      -9.497   8.834  66.416  1.00  0.00    -0.291 C  
HETATM   22  C   UNL     1      -9.319   9.264  65.157  1.00  0.00    -0.239 C  
BRANCH  22  23
HETATM   23  C   UNL     1      -9.065  10.683  64.747  1.00  0.00    -0.236 C  
HETATM   24  C   UNL     1     -10.061  11.152  63.702  1.00  0.00    -0.432 C  
ENDBRANCH  22  23
ENDBRANCH  20  21
ENDBRANCH  19  20
ENDBRANCH  17  18
ENDBRANCH  16  17
ENDBRANCH  14  15
ENDBRANCH  13  14
ENDBRANCH  11  12
ENDBRANCH  10  11
ENDBRANCH   8   9
ENDBRANCH   7   8
ENDBRANCH   6   7
ENDBRANCH   4   6
ENDBRANCH   3   4
ENDBRANCH   2   3
TORSDOF 15
ENDMDL
MODEL      232
REMARK 921   NORMALIZED FREE ENERGY PREDICTED BY IDOCK:   -3.87 KCAL/MOL
REMARK 922        TOTAL FREE ENERGY PREDICTED BY IDOCK:   -9.81 KCAL/MOL
REMARK 923 INTER-LIGAND FREE ENERGY PREDICTED BY IDOCK:   -8.40 KCAL/MOL
REMARK 924 INTRA-LIGAND FREE ENERGY PREDICTED BY IDOCK:   -1.41 KCAL/MOL
REMARK 927      BINDING AFFINITY PREDICTED BY RF-SCORE:    0.00 PKD
ROOT
HETATM    1  C   UNL     1     -14.319   8.221  71.934  1.00  0.00    -0.564 C  
HETATM    2  C   UNL     1     -13.123   9.152  72.006  1.00  0.00    -0.429 C  
ENDROOT
BRANCH   2   3
HETATM    3  O   UNL     1     -12.106   8.490  72.767  1.00  0.00    -0.337 OA 
BRANCH   3   4
HETATM    4  C   UNL     1     -11.175   7.841  72.012  1.00  0.00    -0.278 C  
HETATM    5  O   UNL     1     -11.116   6.634  71.842  1.00  0.00    -0.236 OA 
BRANCH   4   6
HETATM    6  C   UNL     1     -10.300   8.865  71.341  1.00  0.00    -0.377 C  
BRANCH   6   7
HETATM    7  C   UNL     1     -10.091   8.501  69.868  1.00  0.00    -0.195 C  
BRANCH   7   8
HETATM    8  C   UNL     1      -9.215   9.515  69.149  1.00  0.00    -0.163 C  
BRANCH   8   9
HETATM    9  C   UNL     1      -8.337   8.874  68.103  1.00  0.00    -0.125 C  
HETATM   10  C   UNL     1      -8.614   8.805  66.791  1.00  0.00    -0.122 C  
BRANCH  10  11
HETATM   11  C   UNL     1      -9.917   9.218  66.188  1.00  0.00    -0.348 C  
BRANCH  11  12
HETATM   12  C   UNL     1      -9.828  10.310  65.167  1.00  0.00    -0.389 C  
HETATM   13  C   UNL     1     -10.461  11.492  65.288  1.00  0.00    -0.336 C  
BRANCH  13  14
HETATM   14  C   UNL     1     -11.344  11.972  66.417  1.00  0.00    -0.411 C  
BRANCH  14  15
HETATM   15  C   UNL     1     -12.263  13.117  66.074  1.00  0.00    -0.478 C  
HETATM   16  C   UNL     1     -11.909  14.405  65.948  1.00  0.00    -0.371 C  
BRANCH  16  17
HETATM   17  C   UNL     1     -10.567  14.956  66.302  1.00  0.00    -0.309 C  
BRANCH  17  18
HETATM   18  C   UNL     1     -10.689  15.776  67.558  1.00  0.00    -0.317 C  
HETATM   19  C   UNL     1     -10.635  17.115  67.599  1.00  0.00    -0.343 C  
BRANCH  19  20
HETATM   20  C   UNL     1     -10.420  17.989  66.409  1.00  0.00    -0.345 C  
BRANCH  20  21
HETATM   21  C   UNL     1     -10.646  19.438  66.720  1.00  0.00    -0.574 C  
HETATM   22  C   UNL     1      -9.676  20.296  67.073  1.00  0.00    -0.598 C  
BRANCH  22  23
HETATM   23  C   UNL     1      -8.230  19.950  67.256  1.00  0.00    -0.350 C  
HETATM   24  C   UNL     1      -7.967  19.339  68.621  1.00  0.00    -0.405 C  
ENDBRANCH  22  23
ENDBRANCH  20  21
ENDBRANCH  19  20
ENDBRANCH  17  18
ENDBRANCH  16  17
ENDBRANCH  14  15
ENDBRANCH  13  14
ENDBRANCH  11  12
ENDBRANCH  10  11
ENDBRANCH   8   9
ENDBRANCH   7   8
ENDBRANCH   6   7
ENDBRANCH   4   6
ENDBRANCH   3   4
ENDBRANCH   2   3
TORSDOF 15
ENDMDL
MODEL      233
REMARK 921   NORMALIZED FREE ENERGY PREDICTED BY IDOCK:   -3.85 KCAL/MOL
REMARK 922        TOTAL FREE ENERGY PREDICTED BY IDOCK:   -9.78 KCAL/MOL
REMARK 923 INTER-LIGAND FREE ENERGY PREDICTED BY IDOCK:   -7.01 KCAL/MOL
REMARK 924 INTRA-LIGAND FREE ENERGY PREDICTED BY IDOCK:   -2.78 KCAL/MOL
REMARK 927      BINDING AFFINITY PREDICTED BY RF-SCORE:    0.00 PKD
ROOT
HETATM    1  C   UNL     1      -9.630   5.207  65.770  1.00  0.00    -0.138 C  
HETATM    2  C   UNL     1      -9.431   4.921  67.247  1.00  0.00    -0.142 C  
ENDROOT
BRANCH   2   3
HETATM    3  O   UNL     1      -9.375   6.181  67.927  1.00  0.00    -0.116 OA 
BRANCH   3   4
HETATM    4  C   UNL     1      -9.383   6.085  69.286  1.00  0.00    -0.133 C  
HETATM    5  O   UNL     1      -8.417   6.243  70.014  1.00  0.00    -0.130 OA 
BRANCH   4   6
HETATM    6  C   UNL     1     -10.798   5.858  69.744  1.00  0.00    -0.447 C  
BRANCH   6   7
HETATM    7  C   UNL     1     -10.853   5.765  71.272  1.00  0.00    -0.313 C  
BRANCH   7   8
HETATM    8  C   UNL     1     -11.464   7.009  71.898  1.00  0.00    -0.304 C  
BRANCH   8   9
HETATM    9  C   UNL     1     -12.906   7.202  71.497  1.00  0.00    -0.434 C  
HETATM   10  C   UNL     1     -13.593   8.352  71.593  1.00  0.00    -0.380 C  
BRANCH  10  11
HETATM   11  C   UNL     1     -13.075   9.582  72.263  1.00  0.00    -0.492 C  
BRANCH  11  12
HETATM   12  C   UNL     1     -13.039  10.808  71.403  1.00  0.00    -0.469 C  
HETATM   13  C   UNL     1     -12.028  11.096  70.563  1.00  0.00    -0.475 C  
BRANCH  13  14
HETATM   14  C   UNL     1     -10.773  10.296  70.295  1.00  0.00    -0.310 C  
BRANCH  14  15
HETATM   15  C   UNL     1     -10.834   9.386  69.095  1.00  0.00    -0.176 C  
HETATM   16  C   UNL     1     -10.460   9.699  67.845  1.00  0.00    -0.296 C  
BRANCH  16  17
HETATM   17  C   UNL     1     -10.081  11.071  67.389  1.00  0.00    -0.216 C  
BRANCH  17  18
HETATM   18  C   UNL     1     -11.138  11.584  66.448  1.00  0.00    -0.328 C  
HETATM   19  C   UNL     1     -11.789  12.746  66.598  1.00  0.00    -0.462 C  
BRANCH  19  20
HETATM   20  C   UNL     1     -11.583  13.690  67.735  1.00  0.00    -0.373 C  
BRANCH  20  21
HETATM   21  C   UNL     1     -10.867  14.938  67.315  1.00  0.00    -0.306 C  
HETATM   22  C   UNL     1      -9.566  15.177  67.545  1.00  0.00    -0.207 C  
BRANCH  22  23
HETATM   23  C   UNL     1      -8.630  14.271  68.286  1.00  0.00    -0.176 C  
HETATM   24  C   UNL     1      -7.398  13.944  67.462  1.00  0.00    -0.181 C  
ENDBRANCH  22  23
ENDBRANCH  20  21
ENDBRANCH  19  20
ENDBRANCH  17  18
ENDBRANCH  16  17
ENDBRANCH  14  15
ENDBRANCH  13  14
ENDBRANCH  11  12
ENDBRANCH  10  11
ENDBRANCH   8   9
ENDBRANCH   7   8
ENDBRANCH   6   7
ENDBRANCH   4   6
ENDBRANCH   3   4
ENDBRANCH   2   3
TORSDOF 15
ENDMDL
MODEL      234
REMARK 921   NORMALIZED FREE ENERGY PREDICTED BY IDOCK:   -3.85 KCAL/MOL
REMARK 922        TOTAL FREE ENERGY PREDICTED BY IDOCK:   -9.78 KCAL/MOL
REMARK 923 INTER-LIGAND FREE ENERGY PREDICTED BY IDOCK:   -6.45 KCAL/MOL
REMARK 924 INTRA-LIGAND FREE ENERGY PREDICTED BY IDOCK:   -3.32 KCAL/MOL
REMARK 927      BINDING AFFINITY PREDICTED BY RF-SCORE:    0.00 PKD
ROOT
HETATM    1  C   UNL     1      -6.336  17.200  69.330  1.00  0.00    -0.238 C  
HETATM    2  C   UNL     1      -6.994  18.029  68.242  1.00  0.00    -0.228 C  
ENDROOT
BRANCH   2   3
HETATM    3  O   UNL     1      -7.627  19.147  68.875  1.00  0.00    -0.339 OA 
BRANCH   3   4
HETATM    4  C   UNL     1      -8.793  19.537  68.287  1.00  0.00    -0.335 C  
HETATM    5  O   UNL     1      -8.932  20.509  67.563  1.00  0.00    -0.330 OA 
BRANCH   4   6
HETATM    6  C   UNL     1      -9.851  18.513  68.592  1.00  0.00    -0.419 C  
BRANCH   6   7
HETATM    7  C   UNL     1     -10.498  18.014  67.296  1.00  0.00    -0.390 C  
BRANCH   7   8
HETATM    8  C   UNL     1     -10.677  16.504  67.293  1.00  0.00    -0.243 C  
BRANCH   8   9
HETATM    9  C   UNL     1     -10.182  15.866  68.568  1.00  0.00    -0.226 C  
HETATM   10  C   UNL     1      -9.166  14.993  68.657  1.00  0.00    -0.198 C  
BRANCH  10  11
HETATM   11  C   UNL     1      -8.470  14.395  67.478  1.00  0.00    -0.202 C  
BRANCH  11  12
HETATM   12  C   UNL     1      -7.162  13.731  67.780  1.00  0.00    -0.169 C  
HETATM   13  C   UNL     1      -7.047  12.430  68.103  1.00  0.00    -0.097 C  
BRANCH  13  14
HETATM   14  C   UNL     1      -8.140  11.391  68.218  1.00  0.00    -0.143 C  
BRANCH  14  15
HETATM   15  C   UNL     1      -7.809  10.041  67.636  1.00  0.00    -0.095 C  
HETATM   16  C   UNL     1      -7.767   9.731  66.331  1.00  0.00    -0.102 C  
BRANCH  16  17
HETATM   17  C   UNL     1      -8.216  10.633  65.228  1.00  0.00    -0.105 C  
BRANCH  17  18
HETATM   18  C   UNL     1      -9.655  10.334  64.905  1.00  0.00    -0.365 C  
HETATM   19  C   UNL     1     -10.613  11.263  64.776  1.00  0.00    -0.376 C  
BRANCH  19  20
HETATM   20  C   UNL     1     -10.400  12.728  64.961  1.00  0.00    -0.323 C  
BRANCH  20  21
HETATM   21  C   UNL     1     -11.586  13.401  65.584  1.00  0.00    -0.350 C  
HETATM   22  C   UNL     1     -12.020  13.164  66.832  1.00  0.00    -0.421 C  
BRANCH  22  23
HETATM   23  C   UNL     1     -11.428  12.174  67.788  1.00  0.00    -0.398 C  
HETATM   24  C   UNL     1     -11.856  12.451  69.218  1.00  0.00    -0.361 C  
ENDBRANCH  22  23
ENDBRANCH  20  21
ENDBRANCH  19  20
ENDBRANCH  17  18
ENDBRANCH  16  17
ENDBRANCH  14  15
ENDBRANCH  13  14
ENDBRANCH  11  12
ENDBRANCH  10  11
ENDBRANCH   8   9
ENDBRANCH   7   8
ENDBRANCH   6   7
ENDBRANCH   4   6
ENDBRANCH   3   4
ENDBRANCH   2   3
TORSDOF 15
ENDMDL
MODEL      235
REMARK 921   NORMALIZED FREE ENERGY PREDICTED BY IDOCK:   -3.83 KCAL/MOL
REMARK 922        TOTAL FREE ENERGY PREDICTED BY IDOCK:   -9.74 KCAL/MOL
REMARK 923 INTER-LIGAND FREE ENERGY PREDICTED BY IDOCK:   -7.51 KCAL/MOL
REMARK 924 INTRA-LIGAND FREE ENERGY PREDICTED BY IDOCK:   -2.23 KCAL/MOL
REMARK 927      BINDING AFFINITY PREDICTED BY RF-SCORE:    0.00 PKD
ROOT
HETATM    1  C   UNL     1      -9.184   8.049  73.390  1.00  0.00    -0.332 C  
HETATM    2  C   UNL     1     -10.364   7.226  72.908  1.00  0.00    -0.262 C  
ENDROOT
BRANCH   2   3
HETATM    3  O   UNL     1     -11.515   8.079  72.912  1.00  0.00    -0.411 OA 
BRANCH   3   4
HETATM    4  C   UNL     1     -12.048   8.306  71.679  1.00  0.00    -0.306 C  
HETATM    5  O   UNL     1     -12.451   7.447  70.910  1.00  0.00    -0.270 OA 
BRANCH   4   6
HETATM    6  C   UNL     1     -12.155   9.791  71.466  1.00  0.00    -0.493 C  
BRANCH   6   7
HETATM    7  C   UNL     1     -11.204  10.239  70.352  1.00  0.00    -0.407 C  
BRANCH   7   8
HETATM    8  C   UNL     1     -11.906  11.100  69.314  1.00  0.00    -0.422 C  
BRANCH   8   9
HETATM    9  C   UNL     1     -11.865  12.567  69.667  1.00  0.00    -0.382 C  
HETATM   10  C   UNL     1     -11.706  13.573  68.791  1.00  0.00    -0.373 C  
BRANCH  10  11
HETATM   11  C   UNL     1     -11.385  13.381  67.345  1.00  0.00    -0.338 C  
BRANCH  11  12
HETATM   12  C   UNL     1     -12.338  14.029  66.389  1.00  0.00    -0.468 C  
HETATM   13  C   UNL     1     -12.129  14.094  65.062  1.00  0.00    -0.428 C  
BRANCH  13  14
HETATM   14  C   UNL     1     -10.962  13.551  64.267  1.00  0.00    -0.355 C  
BRANCH  14  15
HETATM   15  C   UNL     1     -11.206  12.231  63.583  1.00  0.00    -0.539 C  
HETATM   16  C   UNL     1     -10.662  11.052  63.923  1.00  0.00    -0.310 C  
BRANCH  16  17
HETATM   17  C   UNL     1      -9.577  10.876  64.933  1.00  0.00    -0.297 C  
BRANCH  17  18
HETATM   18  C   UNL     1      -9.894   9.681  65.791  1.00  0.00    -0.373 C  
HETATM   19  C   UNL     1      -9.532   9.551  67.076  1.00  0.00    -0.197 C  
BRANCH  19  20
HETATM   20  C   UNL     1      -8.738  10.560  67.837  1.00  0.00    -0.126 C  
BRANCH  20  21
HETATM   21  C   UNL     1      -7.275  10.488  67.519  1.00  0.00    -0.090 C  
HETATM   22  C   UNL     1      -6.379  11.424  67.870  1.00  0.00    -0.055 C  
BRANCH  22  23
HETATM   23  C   UNL     1      -6.688  12.701  68.590  1.00  0.00    -0.088 C  
HETATM   24  C   UNL     1      -6.791  13.874  67.633  1.00  0.00    -0.193 C  
ENDBRANCH  22  23
ENDBRANCH  20  21
ENDBRANCH  19  20
ENDBRANCH  17  18
ENDBRANCH  16  17
ENDBRANCH  14  15
ENDBRANCH  13  14
ENDBRANCH  11  12
ENDBRANCH  10  11
ENDBRANCH   8   9
ENDBRANCH   7   8
ENDBRANCH   6   7
ENDBRANCH   4   6
ENDBRANCH   3   4
ENDBRANCH   2   3
TORSDOF 15
ENDMDL
MODEL      236
REMARK 921   NORMALIZED FREE ENERGY PREDICTED BY IDOCK:   -3.83 KCAL/MOL
REMARK 922        TOTAL FREE ENERGY PREDICTED BY IDOCK:   -9.74 KCAL/MOL
REMARK 923 INTER-LIGAND FREE ENERGY PREDICTED BY IDOCK:   -7.10 KCAL/MOL
REMARK 924 INTRA-LIGAND FREE ENERGY PREDICTED BY IDOCK:   -2.64 KCAL/MOL
REMARK 927      BINDING AFFINITY PREDICTED BY RF-SCORE:    0.00 PKD
ROOT
HETATM    1  C   UNL     1     -10.776  19.005  65.949  1.00  0.00    -0.404 C  
HETATM    2  C   UNL     1     -10.180  19.813  67.087  1.00  0.00    -0.444 C  
ENDROOT
BRANCH   2   3
HETATM    3  O   UNL     1      -9.080  20.561  66.556  1.00  0.00    -0.195 OA 
BRANCH   3   4
HETATM    4  C   UNL     1      -7.875  19.935  66.659  1.00  0.00    -0.309 C  
HETATM    5  O   UNL     1      -7.180  19.574  65.722  1.00  0.00    -0.284 OA 
BRANCH   4   6
HETATM    6  C   UNL     1      -7.495  19.857  68.112  1.00  0.00    -0.329 C  
BRANCH   6   7
HETATM    7  C   UNL     1      -6.960  18.461  68.448  1.00  0.00    -0.263 C  
BRANCH   7   8
HETATM    8  C   UNL     1      -8.081  17.446  68.614  1.00  0.00    -0.264 C  
BRANCH   8   9
HETATM    9  C   UNL     1      -7.608  16.030  68.389  1.00  0.00    -0.145 C  
HETATM   10  C   UNL     1      -7.830  15.303  67.282  1.00  0.00    -0.240 C  
BRANCH  10  11
HETATM   11  C   UNL     1      -8.720  15.733  66.162  1.00  0.00    -0.293 C  
BRANCH  11  12
HETATM   12  C   UNL     1      -9.901  14.847  65.912  1.00  0.00    -0.362 C  
HETATM   13  C   UNL     1     -11.051  14.930  66.605  1.00  0.00    -0.329 C  
BRANCH  13  14
HETATM   14  C   UNL     1     -11.407  15.886  67.723  1.00  0.00    -0.199 C  
BRANCH  14  15
HETATM   15  C   UNL     1     -11.069  15.407  69.112  1.00  0.00    -0.267 C  
HETATM   16  C   UNL     1     -11.313  14.184  69.608  1.00  0.00    -0.289 C  
BRANCH  16  17
HETATM   17  C   UNL     1     -12.125  13.135  68.922  1.00  0.00    -0.232 C  
BRANCH  17  18
HETATM   18  C   UNL     1     -11.622  11.778  69.336  1.00  0.00    -0.386 C  
HETATM   19  C   UNL     1     -10.803  11.014  68.598  1.00  0.00    -0.256 C  
BRANCH  19  20
HETATM   20  C   UNL     1     -10.290  11.385  67.247  1.00  0.00    -0.230 C  
BRANCH  20  21
HETATM   21  C   UNL     1     -10.283  10.221  66.302  1.00  0.00    -0.287 C  
HETATM   22  C   UNL     1      -9.988  10.310  64.996  1.00  0.00    -0.393 C  
BRANCH  22  23
HETATM   23  C   UNL     1      -9.661  11.573  64.259  1.00  0.00    -0.174 C  
HETATM   24  C   UNL     1     -10.894  12.187  63.623  1.00  0.00    -0.523 C  
ENDBRANCH  22  23
ENDBRANCH  20  21
ENDBRANCH  19  20
ENDBRANCH  17  18
ENDBRANCH  16  17
ENDBRANCH  14  15
ENDBRANCH  13  14
ENDBRANCH  11  12
ENDBRANCH  10  11
ENDBRANCH   8   9
ENDBRANCH   7   8
ENDBRANCH   6   7
ENDBRANCH   4   6
ENDBRANCH   3   4
ENDBRANCH   2   3
TORSDOF 15
ENDMDL
MODEL      237
REMARK 921   NORMALIZED FREE ENERGY PREDICTED BY IDOCK:   -3.82 KCAL/MOL
REMARK 922        TOTAL FREE ENERGY PREDICTED BY IDOCK:   -9.72 KCAL/MOL
REMARK 923 INTER-LIGAND FREE ENERGY PREDICTED BY IDOCK:   -7.99 KCAL/MOL
REMARK 924 INTRA-LIGAND FREE ENERGY PREDICTED BY IDOCK:   -1.73 KCAL/MOL
REMARK 927      BINDING AFFINITY PREDICTED BY RF-SCORE:    0.00 PKD
ROOT
HETATM    1  C   UNL     1      -9.055   9.199  64.925  1.00  0.00    -0.190 C  
HETATM    2  C   UNL     1     -10.086   9.498  65.998  1.00  0.00    -0.249 C  
ENDROOT
BRANCH   2   3
HETATM    3  O   UNL     1     -10.525  10.849  65.811  1.00  0.00    -0.248 OA 
BRANCH   3   4
HETATM    4  C   UNL     1     -11.151  11.389  66.893  1.00  0.00    -0.295 C  
HETATM    5  O   UNL     1     -11.840  12.396  66.885  1.00  0.00    -0.490 OA 
BRANCH   4   6
HETATM    6  C   UNL     1     -10.940  10.482  68.075  1.00  0.00    -0.345 C  
BRANCH   6   7
HETATM    7  C   UNL     1     -11.207  11.238  69.380  1.00  0.00    -0.345 C  
BRANCH   7   8
HETATM    8  C   UNL     1     -12.658  11.121  69.821  1.00  0.00    -0.129 C  
BRANCH   8   9
HETATM    9  C   UNL     1     -12.798  11.080  71.323  1.00  0.00    -0.528 C  
HETATM   10  C   UNL     1     -13.157  12.115  72.098  1.00  0.00    -0.380 C  
BRANCH  10  11
HETATM   11  C   UNL     1     -13.319  13.516  71.604  1.00  0.00    -0.420 C  
BRANCH  11  12
HETATM   12  C   UNL     1     -12.628  14.563  72.421  1.00  0.00    -0.387 C  
HETATM   13  C   UNL     1     -11.865  15.536  71.890  1.00  0.00    -0.514 C  
BRANCH  13  14
HETATM   14  C   UNL     1     -11.555  15.795  70.432  1.00  0.00    -0.376 C  
BRANCH  14  15
HETATM   15  C   UNL     1     -10.951  14.633  69.686  1.00  0.00    -0.255 C  
HETATM   16  C   UNL     1     -10.008  14.709  68.734  1.00  0.00    -0.235 C  
BRANCH  16  17
HETATM   17  C   UNL     1      -9.518  15.980  68.122  1.00  0.00    -0.208 C  
BRANCH  17  18
HETATM   18  C   UNL     1      -8.303  16.450  68.875  1.00  0.00    -0.234 C  
HETATM   19  C   UNL     1      -7.434  17.365  68.419  1.00  0.00    -0.234 C  
BRANCH  19  20
HETATM   20  C   UNL     1      -7.529  18.031  67.088  1.00  0.00    -0.221 C  
BRANCH  20  21
HETATM   21  C   UNL     1      -7.666  19.520  67.205  1.00  0.00    -0.285 C  
HETATM   22  C   UNL     1      -8.838  20.173  67.209  1.00  0.00    -0.445 C  
BRANCH  22  23
HETATM   23  C   UNL     1     -10.189  19.543  67.057  1.00  0.00    -0.540 C  
HETATM   24  C   UNL     1     -10.639  19.522  65.607  1.00  0.00    -0.434 C  
ENDBRANCH  22  23
ENDBRANCH  20  21
ENDBRANCH  19  20
ENDBRANCH  17  18
ENDBRANCH  16  17
ENDBRANCH  14  15
ENDBRANCH  13  14
ENDBRANCH  11  12
ENDBRANCH  10  11
ENDBRANCH   8   9
ENDBRANCH   7   8
ENDBRANCH   6   7
ENDBRANCH   4   6
ENDBRANCH   3   4
ENDBRANCH   2   3
TORSDOF 15
ENDMDL
MODEL      238
REMARK 921   NORMALIZED FREE ENERGY PREDICTED BY IDOCK:   -3.81 KCAL/MOL
REMARK 922        TOTAL FREE ENERGY PREDICTED BY IDOCK:   -9.70 KCAL/MOL
REMARK 923 INTER-LIGAND FREE ENERGY PREDICTED BY IDOCK:   -6.96 KCAL/MOL
REMARK 924 INTRA-LIGAND FREE ENERGY PREDICTED BY IDOCK:   -2.74 KCAL/MOL
REMARK 927      BINDING AFFINITY PREDICTED BY RF-SCORE:    0.00 PKD
ROOT
HETATM    1  C   UNL     1     -11.103   3.116  73.458  1.00  0.00    -0.316 C  
HETATM    2  C   UNL     1     -11.291   4.622  73.410  1.00  0.00    -0.305 C  
ENDROOT
BRANCH   2   3
HETATM    3  O   UNL     1     -10.007   5.209  73.169  1.00  0.00    -0.154 OA 
BRANCH   3   4
HETATM    4  C   UNL     1     -10.029   6.273  72.318  1.00  0.00    -0.165 C  
HETATM    5  O   UNL     1      -9.055   6.765  71.772  1.00  0.00    -0.141 OA 
BRANCH   4   6
HETATM    6  C   UNL     1     -11.460   6.672  72.082  1.00  0.00    -0.323 C  
BRANCH   6   7
HETATM    7  C   UNL     1     -11.662   8.152  72.420  1.00  0.00    -0.461 C  
BRANCH   7   8
HETATM    8  C   UNL     1     -11.852   9.002  71.173  1.00  0.00    -0.362 C  
BRANCH   8   9
HETATM    9  C   UNL     1     -10.550   9.574  70.668  1.00  0.00    -0.374 C  
HETATM   10  C   UNL     1     -10.434  10.575  69.780  1.00  0.00    -0.245 C  
BRANCH  10  11
HETATM   11  C   UNL     1     -11.582  11.170  69.034  1.00  0.00    -0.392 C  
BRANCH  11  12
HETATM   12  C   UNL     1     -11.675  12.664  69.092  1.00  0.00    -0.375 C  
HETATM   13  C   UNL     1     -10.878  13.485  68.384  1.00  0.00    -0.286 C  
BRANCH  13  14
HETATM   14  C   UNL     1      -9.779  13.118  67.411  1.00  0.00    -0.220 C  
BRANCH  14  15
HETATM   15  C   UNL     1      -9.916  13.709  66.031  1.00  0.00    -0.313 C  
HETATM   16  C   UNL     1     -10.577  13.163  64.999  1.00  0.00    -0.347 C  
BRANCH  16  17
HETATM   17  C   UNL     1     -11.146  11.782  64.989  1.00  0.00    -0.343 C  
BRANCH  17  18
HETATM   18  C   UNL     1     -10.213  10.872  64.236  1.00  0.00    -0.430 C  
HETATM   19  C   UNL     1      -9.462   9.916  64.801  1.00  0.00    -0.356 C  
BRANCH  19  20
HETATM   20  C   UNL     1      -9.421   9.629  66.265  1.00  0.00    -0.255 C  
BRANCH  20  21
HETATM   21  C   UNL     1     -10.404   8.570  66.665  1.00  0.00    -0.303 C  
HETATM   22  C   UNL     1     -10.122   7.552  67.493  1.00  0.00    -0.261 C  
BRANCH  22  23
HETATM   23  C   UNL     1      -8.788   7.279  68.119  1.00  0.00    -0.126 C  
HETATM   24  C   UNL     1      -8.059   6.150  67.414  1.00  0.00    -0.109 C  
ENDBRANCH  22  23
ENDBRANCH  20  21
ENDBRANCH  19  20
ENDBRANCH  17  18
ENDBRANCH  16  17
ENDBRANCH  14  15
ENDBRANCH  13  14
ENDBRANCH  11  12
ENDBRANCH  10  11
ENDBRANCH   8   9
ENDBRANCH   7   8
ENDBRANCH   6   7
ENDBRANCH   4   6
ENDBRANCH   3   4
ENDBRANCH   2   3
TORSDOF 15
ENDMDL
MODEL      239
REMARK 921   NORMALIZED FREE ENERGY PREDICTED BY IDOCK:   -3.81 KCAL/MOL
REMARK 922        TOTAL FREE ENERGY PREDICTED BY IDOCK:   -9.70 KCAL/MOL
REMARK 923 INTER-LIGAND FREE ENERGY PREDICTED BY IDOCK:   -7.50 KCAL/MOL
REMARK 924 INTRA-LIGAND FREE ENERGY PREDICTED BY IDOCK:   -2.19 KCAL/MOL
REMARK 927      BINDING AFFINITY PREDICTED BY RF-SCORE:    0.00 PKD
ROOT
HETATM    1  C   UNL     1     -13.028  16.120  73.300  1.00  0.00    -0.578 C  
HETATM    2  C   UNL     1     -12.762  14.626  73.293  1.00  0.00    -0.440 C  
ENDROOT
BRANCH   2   3
HETATM    3  O   UNL     1     -13.602  14.043  72.290  1.00  0.00    -0.430 OA 
BRANCH   3   4
HETATM    4  C   UNL     1     -13.125  12.879  71.767  1.00  0.00    -0.360 C  
HETATM    5  O   UNL     1     -13.453  11.757  72.117  1.00  0.00    -0.446 OA 
BRANCH   4   6
HETATM    6  C   UNL     1     -12.209  13.207  70.620  1.00  0.00    -0.402 C  
BRANCH   6   7
HETATM    7  C   UNL     1     -12.780  14.366  69.798  1.00  0.00    -0.025 C  
BRANCH   7   8
HETATM    8  C   UNL     1     -11.960  14.636  68.545  1.00  0.00    -0.298 C  
BRANCH   8   9
HETATM    9  C   UNL     1     -11.325  16.004  68.561  1.00  0.00    -0.382 C  
HETATM   10  C   UNL     1     -10.540  16.508  67.596  1.00  0.00    -0.321 C  
BRANCH  10  11
HETATM   11  C   UNL     1     -10.045  15.724  66.425  1.00  0.00    -0.305 C  
BRANCH  11  12
HETATM   12  C   UNL     1     -10.437  16.264  65.084  1.00  0.00    -0.254 C  
HETATM   13  C   UNL     1     -11.435  15.752  64.341  1.00  0.00    -0.268 C  
BRANCH  13  14
HETATM   14  C   UNL     1     -12.349  14.592  64.667  1.00  0.00    -0.419 C  
BRANCH  14  15
HETATM   15  C   UNL     1     -12.054  13.312  63.927  1.00  0.00    -0.531 C  
HETATM   16  C   UNL     1     -11.667  12.151  64.478  1.00  0.00    -0.410 C  
BRANCH  16  17
HETATM   17  C   UNL     1     -11.287  11.975  65.911  1.00  0.00    -0.391 C  
BRANCH  17  18
HETATM   18  C   UNL     1      -9.793  12.096  66.041  1.00  0.00    -0.260 C  
HETATM   19  C   UNL     1      -8.925  11.108  65.779  1.00  0.00    -0.207 C  
BRANCH  19  20
HETATM   20  C   UNL     1      -9.314   9.735  65.345  1.00  0.00    -0.311 C  
BRANCH  20  21
HETATM   21  C   UNL     1      -9.088   9.516  63.880  1.00  0.00    -0.172 C  
HETATM   22  C   UNL     1      -8.032   8.863  63.367  1.00  0.00    -0.157 C  
BRANCH  22  23
HETATM   23  C   UNL     1      -6.896   8.286  64.155  1.00  0.00    -0.067 C  
HETATM   24  C   UNL     1      -5.747   9.269  64.284  1.00  0.00    -0.070 C  
ENDBRANCH  22  23
ENDBRANCH  20  21
ENDBRANCH  19  20
ENDBRANCH  17  18
ENDBRANCH  16  17
ENDBRANCH  14  15
ENDBRANCH  13  14
ENDBRANCH  11  12
ENDBRANCH  10  11
ENDBRANCH   8   9
ENDBRANCH   7   8
ENDBRANCH   6   7
ENDBRANCH   4   6
ENDBRANCH   3   4
ENDBRANCH   2   3
TORSDOF 15
ENDMDL
MODEL      240
REMARK 921   NORMALIZED FREE ENERGY PREDICTED BY IDOCK:   -3.81 KCAL/MOL
REMARK 922        TOTAL FREE ENERGY PREDICTED BY IDOCK:   -9.70 KCAL/MOL
REMARK 923 INTER-LIGAND FREE ENERGY PREDICTED BY IDOCK:   -7.41 KCAL/MOL
REMARK 924 INTRA-LIGAND FREE ENERGY PREDICTED BY IDOCK:   -2.28 KCAL/MOL
REMARK 927      BINDING AFFINITY PREDICTED BY RF-SCORE:    0.00 PKD
ROOT
HETATM    1  C   UNL     1     -13.185   9.008  72.511  1.00  0.00    -0.467 C  
HETATM    2  C   UNL     1     -12.943   9.689  71.176  1.00  0.00    -0.309 C  
ENDROOT
BRANCH   2   3
HETATM    3  O   UNL     1     -11.625  10.248  71.209  1.00  0.00    -0.344 OA 
BRANCH   3   4
HETATM    4  C   UNL     1     -10.637   9.374  70.866  1.00  0.00    -0.320 C  
HETATM    5  O   UNL     1      -9.832   8.876  71.636  1.00  0.00    -0.281 OA 
BRANCH   4   6
HETATM    6  C   UNL     1     -10.771   9.045  69.404  1.00  0.00    -0.202 C  
BRANCH   6   7
HETATM    7  C   UNL     1     -11.078  10.312  68.600  1.00  0.00    -0.290 C  
BRANCH   7   8
HETATM    8  C   UNL     1     -10.288  10.369  67.302  1.00  0.00    -0.278 C  
BRANCH   8   9
HETATM    9  C   UNL     1      -8.819  10.096  67.513  1.00  0.00    -0.126 C  
HETATM   10  C   UNL     1      -7.893  11.019  67.817  1.00  0.00    -0.110 C  
BRANCH  10  11
HETATM   11  C   UNL     1      -8.151  12.490  67.836  1.00  0.00    -0.163 C  
BRANCH  11  12
HETATM   12  C   UNL     1      -6.945  13.351  67.618  1.00  0.00    -0.168 C  
HETATM   13  C   UNL     1      -7.000  14.691  67.512  1.00  0.00    -0.193 C  
BRANCH  13  14
HETATM   14  C   UNL     1      -8.212  15.591  67.596  1.00  0.00    -0.168 C  
BRANCH  14  15
HETATM   15  C   UNL     1      -8.828  15.968  66.273  1.00  0.00    -0.379 C  
HETATM   16  C   UNL     1      -9.768  15.275  65.612  1.00  0.00    -0.360 C  
BRANCH  16  17
HETATM   17  C   UNL     1     -10.242  13.910  65.991  1.00  0.00    -0.317 C  
BRANCH  17  18
HETATM   18  C   UNL     1     -11.701  13.980  66.353  1.00  0.00    -0.407 C  
HETATM   19  C   UNL     1     -12.171  14.030  67.609  1.00  0.00    -0.235 C  
BRANCH  19  20
HETATM   20  C   UNL     1     -11.317  13.997  68.832  1.00  0.00    -0.314 C  
BRANCH  20  21
HETATM   21  C   UNL     1     -11.977  13.272  69.966  1.00  0.00    -0.399 C  
HETATM   22  C   UNL     1     -12.692  13.870  70.932  1.00  0.00    -0.410 C  
BRANCH  22  23
HETATM   23  C   UNL     1     -12.916  15.346  71.064  1.00  0.00    -0.556 C  
HETATM   24  C   UNL     1     -13.550  15.699  72.398  1.00  0.00    -0.616 C  
ENDBRANCH  22  23
ENDBRANCH  20  21
ENDBRANCH  19  20
ENDBRANCH  17  18
ENDBRANCH  16  17
ENDBRANCH  14  15
ENDBRANCH  13  14
ENDBRANCH  11  12
ENDBRANCH  10  11
ENDBRANCH   8   9
ENDBRANCH   7   8
ENDBRANCH   6   7
ENDBRANCH   4   6
ENDBRANCH   3   4
ENDBRANCH   2   3
TORSDOF 15
ENDMDL
MODEL      241
REMARK 921   NORMALIZED FREE ENERGY PREDICTED BY IDOCK:   -3.81 KCAL/MOL
REMARK 922        TOTAL FREE ENERGY PREDICTED BY IDOCK:   -9.70 KCAL/MOL
REMARK 923 INTER-LIGAND FREE ENERGY PREDICTED BY IDOCK:   -7.89 KCAL/MOL
REMARK 924 INTRA-LIGAND FREE ENERGY PREDICTED BY IDOCK:   -1.80 KCAL/MOL
REMARK 927      BINDING AFFINITY PREDICTED BY RF-SCORE:    0.00 PKD
ROOT
HETATM    1  C   UNL     1      -9.839  20.387  66.802  1.00  0.00    -0.541 C  
HETATM    2  C   UNL     1     -10.396  19.192  66.050  1.00  0.00    -0.463 C  
ENDROOT
BRANCH   2   3
HETATM    3  O   UNL     1      -9.462  18.116  66.197  1.00  0.00    -0.466 OA 
BRANCH   3   4
HETATM    4  C   UNL     1      -9.967  17.017  66.824  1.00  0.00    -0.295 C  
HETATM    5  O   UNL     1     -10.668  17.030  67.823  1.00  0.00    -0.347 OA 
BRANCH   4   6
HETATM    6  C   UNL     1      -9.606  15.797  66.022  1.00  0.00    -0.388 C  
BRANCH   6   7
HETATM    7  C   UNL     1     -10.726  15.460  65.033  1.00  0.00    -0.460 C  
BRANCH   7   8
HETATM    8  C   UNL     1     -11.288  14.065  65.261  1.00  0.00    -0.321 C  
BRANCH   8   9
HETATM    9  C   UNL     1     -12.361  14.046  66.322  1.00  0.00    -0.482 C  
HETATM   10  C   UNL     1     -12.190  13.649  67.593  1.00  0.00    -0.224 C  
BRANCH  10  11
HETATM   11  C   UNL     1     -10.943  13.011  68.111  1.00  0.00    -0.269 C  
BRANCH  11  12
HETATM   12  C   UNL     1     -10.830  11.538  67.864  1.00  0.00    -0.257 C  
HETATM   13  C   UNL     1     -11.290  10.606  68.718  1.00  0.00    -0.339 C  
BRANCH  13  14
HETATM   14  C   UNL     1     -11.997  10.809  70.039  1.00  0.00    -0.427 C  
BRANCH  14  15
HETATM   15  C   UNL     1     -11.351  10.142  71.226  1.00  0.00    -0.241 C  
HETATM   16  C   UNL     1     -11.552   8.878  71.628  1.00  0.00    -0.408 C  
BRANCH  16  17
HETATM   17  C   UNL     1     -12.592   7.963  71.070  1.00  0.00    -0.111 C  
BRANCH  17  18
HETATM   18  C   UNL     1     -12.000   6.588  70.908  1.00  0.00    -0.353 C  
HETATM   19  C   UNL     1     -11.122   6.248  69.954  1.00  0.00    -0.469 C  
BRANCH  19  20
HETATM   20  C   UNL     1     -10.621   7.173  68.896  1.00  0.00    -0.218 C  
BRANCH  20  21
HETATM   21  C   UNL     1     -11.045   6.750  67.522  1.00  0.00    -0.340 C  
HETATM   22  C   UNL     1     -10.273   6.053  66.674  1.00  0.00    -0.246 C  
BRANCH  22  23
HETATM   23  C   UNL     1      -8.863   5.619  66.934  1.00  0.00    -0.113 C  
HETATM   24  C   UNL     1      -7.940   6.000  65.791  1.00  0.00    -0.113 C  
ENDBRANCH  22  23
ENDBRANCH  20  21
ENDBRANCH  19  20
ENDBRANCH  17  18
ENDBRANCH  16  17
ENDBRANCH  14  15
ENDBRANCH  13  14
ENDBRANCH  11  12
ENDBRANCH  10  11
ENDBRANCH   8   9
ENDBRANCH   7   8
ENDBRANCH   6   7
ENDBRANCH   4   6
ENDBRANCH   3   4
ENDBRANCH   2   3
TORSDOF 15
ENDMDL
MODEL      242
REMARK 921   NORMALIZED FREE ENERGY PREDICTED BY IDOCK:   -3.80 KCAL/MOL
REMARK 922        TOTAL FREE ENERGY PREDICTED BY IDOCK:   -9.69 KCAL/MOL
REMARK 923 INTER-LIGAND FREE ENERGY PREDICTED BY IDOCK:   -7.69 KCAL/MOL
REMARK 924 INTRA-LIGAND FREE ENERGY PREDICTED BY IDOCK:   -2.00 KCAL/MOL
REMARK 927      BINDING AFFINITY PREDICTED BY RF-SCORE:    0.00 PKD
ROOT
HETATM    1  C   UNL     1      -9.234   3.629  63.020  1.00  0.00    -0.101 C  
HETATM    2  C   UNL     1      -9.738   3.726  64.448  1.00  0.00    -0.180 C  
ENDROOT
BRANCH   2   3
HETATM    3  O   UNL     1      -8.742   4.417  65.211  1.00  0.00    -0.120 OA 
BRANCH   3   4
HETATM    4  C   UNL     1      -9.175   5.577  65.778  1.00  0.00    -0.120 C  
HETATM    5  O   UNL     1      -8.761   6.694  65.513  1.00  0.00    -0.130 OA 
BRANCH   4   6
HETATM    6  C   UNL     1     -10.318   5.264  66.704  1.00  0.00    -0.330 C  
BRANCH   6   7
HETATM    7  C   UNL     1     -10.980   6.557  67.189  1.00  0.00    -0.480 C  
BRANCH   7   8
HETATM    8  C   UNL     1     -10.933   6.689  68.703  1.00  0.00    -0.317 C  
BRANCH   8   9
HETATM    9  C   UNL     1     -10.056   5.640  69.342  1.00  0.00    -0.290 C  
HETATM   10  C   UNL     1     -10.195   5.166  70.590  1.00  0.00    -0.326 C  
BRANCH  10  11
HETATM   11  C   UNL     1     -11.148   5.723  71.597  1.00  0.00    -0.290 C  
BRANCH  11  12
HETATM   12  C   UNL     1     -10.517   6.512  72.702  1.00  0.00    -0.236 C  
HETATM   13  C   UNL     1     -10.520   7.857  72.750  1.00  0.00    -0.412 C  
BRANCH  13  14
HETATM   14  C   UNL     1     -11.134   8.830  71.767  1.00  0.00    -0.417 C  
BRANCH  14  15
HETATM   15  C   UNL     1     -12.510   9.327  72.128  1.00  0.00    -0.421 C  
HETATM   16  C   UNL     1     -13.082  10.458  71.688  1.00  0.00    -0.553 C  
BRANCH  16  17
HETATM   17  C   UNL     1     -12.381  11.515  70.900  1.00  0.00    -0.460 C  
BRANCH  17  18
HETATM   18  C   UNL     1     -12.874  12.866  71.343  1.00  0.00    -0.377 C  
HETATM   19  C   UNL     1     -12.496  14.030  70.794  1.00  0.00    -0.442 C  
BRANCH  19  20
HETATM   20  C   UNL     1     -11.511  14.160  69.682  1.00  0.00    -0.329 C  
BRANCH  20  21
HETATM   21  C   UNL     1     -12.128  13.895  68.341  1.00  0.00    -0.327 C  
HETATM   22  C   UNL     1     -11.733  12.921  67.506  1.00  0.00    -0.422 C  
BRANCH  22  23
HETATM   23  C   UNL     1     -10.598  11.973  67.747  1.00  0.00    -0.234 C  
HETATM   24  C   UNL     1     -11.040  10.526  67.616  1.00  0.00    -0.375 C  
ENDBRANCH  22  23
ENDBRANCH  20  21
ENDBRANCH  19  20
ENDBRANCH  17  18
ENDBRANCH  16  17
ENDBRANCH  14  15
ENDBRANCH  13  14
ENDBRANCH  11  12
ENDBRANCH  10  11
ENDBRANCH   8   9
ENDBRANCH   7   8
ENDBRANCH   6   7
ENDBRANCH   4   6
ENDBRANCH   3   4
ENDBRANCH   2   3
TORSDOF 15
ENDMDL
MODEL      243
REMARK 921   NORMALIZED FREE ENERGY PREDICTED BY IDOCK:   -3.80 KCAL/MOL
REMARK 922        TOTAL FREE ENERGY PREDICTED BY IDOCK:   -9.69 KCAL/MOL
REMARK 923 INTER-LIGAND FREE ENERGY PREDICTED BY IDOCK:   -7.06 KCAL/MOL
REMARK 924 INTRA-LIGAND FREE ENERGY PREDICTED BY IDOCK:   -2.63 KCAL/MOL
REMARK 927      BINDING AFFINITY PREDICTED BY RF-SCORE:    0.00 PKD
ROOT
HETATM    1  C   UNL     1      -8.167   2.242  66.444  1.00  0.00    -0.088 C  
HETATM    2  C   UNL     1      -8.594   3.504  67.172  1.00  0.00    -0.110 C  
ENDROOT
BRANCH   2   3
HETATM    3  O   UNL     1      -9.608   3.136  68.115  1.00  0.00    -0.180 OA 
BRANCH   3   4
HETATM    4  C   UNL     1      -9.651   3.922  69.227  1.00  0.00    -0.162 C  
HETATM    5  O   UNL     1      -9.713   3.521  70.378  1.00  0.00    -0.185 OA 
BRANCH   4   6
HETATM    6  C   UNL     1      -9.505   5.359  68.806  1.00  0.00    -0.168 C  
BRANCH   6   7
HETATM    7  C   UNL     1     -10.882   6.013  68.659  1.00  0.00    -0.379 C  
BRANCH   7   8
HETATM    8  C   UNL     1     -11.125   7.075  69.720  1.00  0.00    -0.278 C  
BRANCH   8   9
HETATM    9  C   UNL     1     -11.415   6.475  71.074  1.00  0.00    -0.392 C  
HETATM   10  C   UNL     1     -12.512   6.713  71.811  1.00  0.00    -0.360 C  
BRANCH  10  11
HETATM   11  C   UNL     1     -13.544   7.737  71.470  1.00  0.00    -0.391 C  
BRANCH  11  12
HETATM   12  C   UNL     1     -13.589   8.924  72.382  1.00  0.00    -0.500 C  
HETATM   13  C   UNL     1     -13.285  10.175  71.989  1.00  0.00    -0.534 C  
BRANCH  13  14
HETATM   14  C   UNL     1     -12.864  10.651  70.617  1.00  0.00    -0.404 C  
BRANCH  14  15
HETATM   15  C   UNL     1     -11.397  10.500  70.304  1.00  0.00    -0.407 C  
HETATM   16  C   UNL     1     -10.789  10.874  69.168  1.00  0.00    -0.280 C  
BRANCH  16  17
HETATM   17  C   UNL     1     -11.496  11.346  67.940  1.00  0.00    -0.361 C  
BRANCH  17  18
HETATM   18  C   UNL     1     -10.633  12.359  67.235  1.00  0.00    -0.246 C  
HETATM   19  C   UNL     1     -10.379  12.355  65.919  1.00  0.00    -0.282 C  
BRANCH  19  20
HETATM   20  C   UNL     1     -10.892  11.332  64.962  1.00  0.00    -0.285 C  
BRANCH  20  21
HETATM   21  C   UNL     1      -9.786  10.583  64.282  1.00  0.00    -0.391 C  
HETATM   22  C   UNL     1      -9.218   9.468  64.768  1.00  0.00    -0.267 C  
BRANCH  22  23
HETATM   23  C   UNL     1      -9.558   8.813  66.072  1.00  0.00    -0.297 C  
HETATM   24  C   UNL     1      -8.417   8.919  67.067  1.00  0.00    -0.112 C  
ENDBRANCH  22  23
ENDBRANCH  20  21
ENDBRANCH  19  20
ENDBRANCH  17  18
ENDBRANCH  16  17
ENDBRANCH  14  15
ENDBRANCH  13  14
ENDBRANCH  11  12
ENDBRANCH  10  11
ENDBRANCH   8   9
ENDBRANCH   7   8
ENDBRANCH   6   7
ENDBRANCH   4   6
ENDBRANCH   3   4
ENDBRANCH   2   3
TORSDOF 15
ENDMDL
MODEL      244
REMARK 921   NORMALIZED FREE ENERGY PREDICTED BY IDOCK:   -3.80 KCAL/MOL
REMARK 922        TOTAL FREE ENERGY PREDICTED BY IDOCK:   -9.68 KCAL/MOL
REMARK 923 INTER-LIGAND FREE ENERGY PREDICTED BY IDOCK:   -6.63 KCAL/MOL
REMARK 924 INTRA-LIGAND FREE ENERGY PREDICTED BY IDOCK:   -3.05 KCAL/MOL
REMARK 927      BINDING AFFINITY PREDICTED BY RF-SCORE:    0.00 PKD
ROOT
HETATM    1  C   UNL     1      -9.878  19.460  68.814  1.00  0.00    -0.530 C  
HETATM    2  C   UNL     1     -10.488  18.455  67.854  1.00  0.00    -0.391 C  
ENDROOT
BRANCH   2   3
HETATM    3  O   UNL     1      -9.676  18.439  66.673  1.00  0.00    -0.307 OA 
BRANCH   3   4
HETATM    4  C   UNL     1      -9.708  17.263  65.988  1.00  0.00    -0.168 C  
HETATM    5  O   UNL     1     -10.649  16.851  65.328  1.00  0.00    -0.633 OA 
BRANCH   4   6
HETATM    6  C   UNL     1      -8.358  16.608  66.091  1.00  0.00    -0.305 C  
BRANCH   6   7
HETATM    7  C   UNL     1      -7.247  17.646  65.902  1.00  0.00    -0.235 C  
BRANCH   7   8
HETATM    8  C   UNL     1      -6.009  17.312  66.719  1.00  0.00    -0.232 C  
BRANCH   8   9
HETATM    9  C   UNL     1      -6.034  17.956  68.084  1.00  0.00    -0.170 C  
HETATM   10  C   UNL     1      -6.273  17.318  69.240  1.00  0.00    -0.237 C  
BRANCH  10  11
HETATM   11  C   UNL     1      -6.710  15.893  69.335  1.00  0.00    -0.189 C  
BRANCH  11  12
HETATM   12  C   UNL     1      -5.605  14.883  69.289  1.00  0.00    -0.093 C  
HETATM   13  C   UNL     1      -5.668  13.746  68.571  1.00  0.00    -0.091 C  
BRANCH  13  14
HETATM   14  C   UNL     1      -6.791  13.256  67.685  1.00  0.00    -0.168 C  
BRANCH  14  15
HETATM   15  C   UNL     1      -7.832  12.410  68.373  1.00  0.00    -0.142 C  
HETATM   16  C   UNL     1      -9.161  12.565  68.283  1.00  0.00    -0.186 C  
BRANCH  16  17
HETATM   17  C   UNL     1      -9.840  13.719  67.623  1.00  0.00    -0.234 C  
BRANCH  17  18
HETATM   18  C   UNL     1     -10.030  14.820  68.632  1.00  0.00    -0.232 C  
HETATM   19  C   UNL     1     -11.090  14.930  69.445  1.00  0.00    -0.296 C  
BRANCH  19  20
HETATM   20  C   UNL     1     -12.251  13.993  69.452  1.00  0.00    -0.336 C  
BRANCH  20  21
HETATM   21  C   UNL     1     -12.288  13.142  70.685  1.00  0.00    -0.405 C  
HETATM   22  C   UNL     1     -12.249  11.800  70.678  1.00  0.00    -0.443 C  
BRANCH  22  23
HETATM   23  C   UNL     1     -12.205  10.934  69.456  1.00  0.00    -0.331 C  
HETATM   24  C   UNL     1     -10.978  10.042  69.445  1.00  0.00    -0.280 C  
ENDBRANCH  22  23
ENDBRANCH  20  21
ENDBRANCH  19  20
ENDBRANCH  17  18
ENDBRANCH  16  17
ENDBRANCH  14  15
ENDBRANCH  13  14
ENDBRANCH  11  12
ENDBRANCH  10  11
ENDBRANCH   8   9
ENDBRANCH   7   8
ENDBRANCH   6   7
ENDBRANCH   4   6
ENDBRANCH   3   4
ENDBRANCH   2   3
TORSDOF 15
ENDMDL
MODEL      245
REMARK 921   NORMALIZED FREE ENERGY PREDICTED BY IDOCK:   -3.79 KCAL/MOL
REMARK 922        TOTAL FREE ENERGY PREDICTED BY IDOCK:   -9.67 KCAL/MOL
REMARK 923 INTER-LIGAND FREE ENERGY PREDICTED BY IDOCK:   -7.75 KCAL/MOL
REMARK 924 INTRA-LIGAND FREE ENERGY PREDICTED BY IDOCK:   -1.92 KCAL/MOL
REMARK 927      BINDING AFFINITY PREDICTED BY RF-SCORE:    0.00 PKD
ROOT
HETATM    1  C   UNL     1     -11.648   6.573  70.660  1.00  0.00    -0.442 C  
HETATM    2  C   UNL     1     -10.755   6.173  69.499  1.00  0.00    -0.320 C  
ENDROOT
BRANCH   2   3
HETATM    3  O   UNL     1     -10.696   7.285  68.598  1.00  0.00    -0.203 OA 
BRANCH   3   4
HETATM    4  C   UNL     1     -10.584   6.937  67.286  1.00  0.00    -0.322 C  
HETATM    5  O   UNL     1     -11.275   6.112  66.709  1.00  0.00    -0.279 OA 
BRANCH   4   6
HETATM    6  C   UNL     1      -9.543   7.810  66.642  1.00  0.00    -0.286 C  
BRANCH   6   7
HETATM    7  C   UNL     1      -8.771   8.592  67.709  1.00  0.00    -0.137 C  
BRANCH   7   8
HETATM    8  C   UNL     1      -8.577  10.049  67.321  1.00  0.00    -0.125 C  
BRANCH   8   9
HETATM    9  C   UNL     1      -9.849  10.851  67.454  1.00  0.00    -0.199 C  
HETATM   10  C   UNL     1     -10.453  11.522  66.460  1.00  0.00    -0.284 C  
BRANCH  10  11
HETATM   11  C   UNL     1      -9.867  11.708  65.098  1.00  0.00    -0.281 C  
BRANCH  11  12
HETATM   12  C   UNL     1     -10.847  11.641  63.968  1.00  0.00    -0.455 C  
HETATM   13  C   UNL     1     -11.938  12.424  63.884  1.00  0.00    -0.572 C  
BRANCH  13  14
HETATM   14  C   UNL     1     -12.397  13.500  64.843  1.00  0.00    -0.447 C  
BRANCH  14  15
HETATM   15  C   UNL     1     -12.116  14.915  64.407  1.00  0.00    -0.417 C  
HETATM   16  C   UNL     1     -11.073  15.668  64.787  1.00  0.00    -0.426 C  
BRANCH  16  17
HETATM   17  C   UNL     1     -10.098  15.292  65.854  1.00  0.00    -0.359 C  
BRANCH  17  18
HETATM   18  C   UNL     1     -10.829  15.158  67.163  1.00  0.00    -0.320 C  
HETATM   19  C   UNL     1     -11.160  16.187  67.957  1.00  0.00    -0.317 C  
BRANCH  19  20
HETATM   20  C   UNL     1     -10.827  17.613  67.674  1.00  0.00    -0.227 C  
BRANCH  20  21
HETATM   21  C   UNL     1      -9.751  18.137  68.577  1.00  0.00    -0.372 C  
HETATM   22  C   UNL     1      -8.597  18.670  68.147  1.00  0.00    -0.332 C  
BRANCH  22  23
HETATM   23  C   UNL     1      -8.173  18.795  66.715  1.00  0.00    -0.286 C  
HETATM   24  C   UNL     1      -7.216  17.687  66.315  1.00  0.00    -0.342 C  
ENDBRANCH  22  23
ENDBRANCH  20  21
ENDBRANCH  19  20
ENDBRANCH  17  18
ENDBRANCH  16  17
ENDBRANCH  14  15
ENDBRANCH  13  14
ENDBRANCH  11  12
ENDBRANCH  10  11
ENDBRANCH   8   9
ENDBRANCH   7   8
ENDBRANCH   6   7
ENDBRANCH   4   6
ENDBRANCH   3   4
ENDBRANCH   2   3
TORSDOF 15
ENDMDL
MODEL      246
REMARK 921   NORMALIZED FREE ENERGY PREDICTED BY IDOCK:   -3.79 KCAL/MOL
REMARK 922        TOTAL FREE ENERGY PREDICTED BY IDOCK:   -9.67 KCAL/MOL
REMARK 923 INTER-LIGAND FREE ENERGY PREDICTED BY IDOCK:   -7.59 KCAL/MOL
REMARK 924 INTRA-LIGAND FREE ENERGY PREDICTED BY IDOCK:   -2.08 KCAL/MOL
REMARK 927      BINDING AFFINITY PREDICTED BY RF-SCORE:    0.00 PKD
ROOT
HETATM    1  C   UNL     1     -10.761  19.745  67.051  1.00  0.00    -0.542 C  
HETATM    2  C   UNL     1      -9.656  19.651  68.088  1.00  0.00    -0.377 C  
ENDROOT
BRANCH   2   3
HETATM    3  O   UNL     1      -8.423  19.977  67.436  1.00  0.00    -0.314 OA 
BRANCH   3   4
HETATM    4  C   UNL     1      -7.838  18.930  66.791  1.00  0.00    -0.251 C  
HETATM    5  O   UNL     1      -7.670  18.843  65.585  1.00  0.00    -0.478 OA 
BRANCH   4   6
HETATM    6  C   UNL     1      -7.338  17.950  67.817  1.00  0.00    -0.209 C  
BRANCH   6   7
HETATM    7  C   UNL     1      -7.275  16.541  67.220  1.00  0.00    -0.202 C  
BRANCH   7   8
HETATM    8  C   UNL     1      -8.502  15.716  67.575  1.00  0.00    -0.182 C  
BRANCH   8   9
HETATM    9  C   UNL     1      -8.174  14.569  68.499  1.00  0.00    -0.154 C  
HETATM   10  C   UNL     1      -8.313  13.267  68.202  1.00  0.00    -0.161 C  
BRANCH  10  11
HETATM   11  C   UNL     1      -8.969  12.757  66.960  1.00  0.00    -0.221 C  
BRANCH  11  12
HETATM   12  C   UNL     1      -9.645  11.428  67.097  1.00  0.00    -0.193 C  
HETATM   13  C   UNL     1     -10.903  11.278  67.553  1.00  0.00    -0.292 C  
BRANCH  13  14
HETATM   14  C   UNL     1     -11.875  12.349  67.994  1.00  0.00    -0.376 C  
BRANCH  14  15
HETATM   15  C   UNL     1     -11.761  12.768  69.438  1.00  0.00    -0.380 C  
HETATM   16  C   UNL     1     -12.060  12.012  70.506  1.00  0.00    -0.402 C  
BRANCH  16  17
HETATM   17  C   UNL     1     -12.729  10.678  70.443  1.00  0.00    -0.340 C  
BRANCH  17  18
HETATM   18  C   UNL     1     -13.424  10.417  71.752  1.00  0.00    -0.366 C  
HETATM   19  C   UNL     1     -13.379   9.253  72.417  1.00  0.00    -0.521 C  
BRANCH  19  20
HETATM   20  C   UNL     1     -12.655   8.037  71.944  1.00  0.00    -0.359 C  
BRANCH  20  21
HETATM   21  C   UNL     1     -11.337   7.855  72.635  1.00  0.00    -0.468 C  
HETATM   22  C   UNL     1     -10.149   8.165  72.092  1.00  0.00    -0.320 C  
BRANCH  22  23
HETATM   23  C   UNL     1      -9.935   8.699  70.709  1.00  0.00    -0.241 C  
HETATM   24  C   UNL     1      -8.506   9.167  70.503  1.00  0.00    -0.236 C  
ENDBRANCH  22  23
ENDBRANCH  20  21
ENDBRANCH  19  20
ENDBRANCH  17  18
ENDBRANCH  16  17
ENDBRANCH  14  15
ENDBRANCH  13  14
ENDBRANCH  11  12
ENDBRANCH  10  11
ENDBRANCH   8   9
ENDBRANCH   7   8
ENDBRANCH   6   7
ENDBRANCH   4   6
ENDBRANCH   3   4
ENDBRANCH   2   3
TORSDOF 15
ENDMDL
MODEL      247
REMARK 921   NORMALIZED FREE ENERGY PREDICTED BY IDOCK:   -3.79 KCAL/MOL
REMARK 922        TOTAL FREE ENERGY PREDICTED BY IDOCK:   -9.66 KCAL/MOL
REMARK 923 INTER-LIGAND FREE ENERGY PREDICTED BY IDOCK:   -7.28 KCAL/MOL
REMARK 924 INTRA-LIGAND FREE ENERGY PREDICTED BY IDOCK:   -2.39 KCAL/MOL
REMARK 927      BINDING AFFINITY PREDICTED BY RF-SCORE:    0.00 PKD
ROOT
HETATM    1  C   UNL     1     -12.800  10.744  70.627  1.00  0.00    -0.377 C  
HETATM    2  C   UNL     1     -11.612  10.157  71.368  1.00  0.00    -0.235 C  
ENDROOT
BRANCH   2   3
HETATM    3  O   UNL     1     -11.663   8.735  71.208  1.00  0.00    -0.275 OA 
BRANCH   3   4
HETATM    4  C   UNL     1     -10.536   8.191  70.668  1.00  0.00    -0.215 C  
HETATM    5  O   UNL     1     -10.430   7.050  70.247  1.00  0.00    -0.201 OA 
BRANCH   4   6
HETATM    6  C   UNL     1      -9.481   9.259  70.580  1.00  0.00    -0.317 C  
BRANCH   6   7
HETATM    7  C   UNL     1      -8.738   9.164  69.243  1.00  0.00    -0.139 C  
BRANCH   7   8
HETATM    8  C   UNL     1      -8.698  10.499  68.517  1.00  0.00    -0.140 C  
BRANCH   8   9
HETATM    9  C   UNL     1     -10.063  10.935  68.044  1.00  0.00    -0.197 C  
HETATM   10  C   UNL     1     -10.623  10.598  66.871  1.00  0.00    -0.311 C  
BRANCH  10  11
HETATM   11  C   UNL     1      -9.909   9.866  65.782  1.00  0.00    -0.356 C  
BRANCH  11  12
HETATM   12  C   UNL     1      -9.345  10.730  64.697  1.00  0.00    -0.271 C  
HETATM   13  C   UNL     1     -10.089  11.566  63.951  1.00  0.00    -0.388 C  
BRANCH  13  14
HETATM   14  C   UNL     1     -11.577  11.827  64.034  1.00  0.00    -0.428 C  
BRANCH  14  15
HETATM   15  C   UNL     1     -12.029  13.158  63.492  1.00  0.00    -0.580 C  
HETATM   16  C   UNL     1     -11.917  14.343  64.112  1.00  0.00    -0.373 C  
BRANCH  16  17
HETATM   17  C   UNL     1     -11.481  14.524  65.529  1.00  0.00    -0.343 C  
BRANCH  17  18
HETATM   18  C   UNL     1      -9.985  14.682  65.566  1.00  0.00    -0.384 C  
HETATM   19  C   UNL     1      -9.226  14.480  66.653  1.00  0.00    -0.290 C  
BRANCH  19  20
HETATM   20  C   UNL     1      -9.756  14.095  67.994  1.00  0.00    -0.226 C  
BRANCH  20  21
HETATM   21  C   UNL     1      -9.305  15.032  69.074  1.00  0.00    -0.206 C  
HETATM   22  C   UNL     1     -10.136  15.706  69.885  1.00  0.00    -0.272 C  
BRANCH  22  23
HETATM   23  C   UNL     1     -11.633  15.672  69.825  1.00  0.00    -0.360 C  
HETATM   24  C   UNL     1     -12.211  14.678  70.816  1.00  0.00    -0.394 C  
ENDBRANCH  22  23
ENDBRANCH  20  21
ENDBRANCH  19  20
ENDBRANCH  17  18
ENDBRANCH  16  17
ENDBRANCH  14  15
ENDBRANCH  13  14
ENDBRANCH  11  12
ENDBRANCH  10  11
ENDBRANCH   8   9
ENDBRANCH   7   8
ENDBRANCH   6   7
ENDBRANCH   4   6
ENDBRANCH   3   4
ENDBRANCH   2   3
TORSDOF 15
ENDMDL
MODEL      248
REMARK 921   NORMALIZED FREE ENERGY PREDICTED BY IDOCK:   -3.78 KCAL/MOL
REMARK 922        TOTAL FREE ENERGY PREDICTED BY IDOCK:   -9.64 KCAL/MOL
REMARK 923 INTER-LIGAND FREE ENERGY PREDICTED BY IDOCK:   -6.24 KCAL/MOL
REMARK 924 INTRA-LIGAND FREE ENERGY PREDICTED BY IDOCK:   -3.40 KCAL/MOL
REMARK 927      BINDING AFFINITY PREDICTED BY RF-SCORE:    0.00 PKD
ROOT
HETATM    1  C   UNL     1     -12.766  10.787  71.808  1.00  0.00    -0.464 C  
HETATM    2  C   UNL     1     -12.477   9.710  70.779  1.00  0.00    -0.169 C  
ENDROOT
BRANCH   2   3
HETATM    3  O   UNL     1     -11.055   9.570  70.688  1.00  0.00    -0.252 OA 
BRANCH   3   4
HETATM    4  C   UNL     1     -10.579   9.505  69.412  1.00  0.00    -0.219 C  
HETATM    5  O   UNL     1     -11.133   8.952  68.476  1.00  0.00     0.045 OA 
BRANCH   4   6
HETATM    6  C   UNL     1      -9.315  10.316  69.328  1.00  0.00    -0.221 C  
BRANCH   6   7
HETATM    7  C   UNL     1      -8.775  10.311  67.895  1.00  0.00    -0.122 C  
BRANCH   7   8
HETATM    8  C   UNL     1      -8.316  11.692  67.453  1.00  0.00    -0.152 C  
BRANCH   8   9
HETATM    9  C   UNL     1      -7.596  12.434  68.552  1.00  0.00    -0.122 C  
HETATM   10  C   UNL     1      -7.454  13.767  68.626  1.00  0.00    -0.116 C  
BRANCH  10  11
HETATM   11  C   UNL     1      -7.854  14.713  67.541  1.00  0.00    -0.212 C  
BRANCH  11  12
HETATM   12  C   UNL     1      -8.031  16.137  67.971  1.00  0.00    -0.150 C  
HETATM   13  C   UNL     1      -9.192  16.807  67.859  1.00  0.00    -0.225 C  
BRANCH  13  14
HETATM   14  C   UNL     1     -10.515  16.310  67.320  1.00  0.00    -0.300 C  
BRANCH  14  15
HETATM   15  C   UNL     1     -10.773  16.612  65.866  1.00  0.00    -0.179 C  
HETATM   16  C   UNL     1     -10.711  15.735  64.853  1.00  0.00    -0.385 C  
BRANCH  16  17
HETATM   17  C   UNL     1     -10.201  14.336  64.970  1.00  0.00    -0.402 C  
BRANCH  17  18
HETATM   18  C   UNL     1     -11.294  13.380  64.576  1.00  0.00    -0.391 C  
HETATM   19  C   UNL     1     -12.320  13.032  65.366  1.00  0.00    -0.538 C  
BRANCH  19  20
HETATM   20  C   UNL     1     -12.515  13.520  66.763  1.00  0.00    -0.213 C  
BRANCH  20  21
HETATM   21  C   UNL     1     -11.709  12.738  67.756  1.00  0.00    -0.412 C  
HETATM   22  C   UNL     1     -11.616  13.042  69.060  1.00  0.00    -0.367 C  
BRANCH  22  23
HETATM   23  C   UNL     1     -12.258  14.219  69.730  1.00  0.00    -0.390 C  
HETATM   24  C   UNL     1     -11.252  15.023  70.533  1.00  0.00    -0.286 C  
ENDBRANCH  22  23
ENDBRANCH  20  21
ENDBRANCH  19  20
ENDBRANCH  17  18
ENDBRANCH  16  17
ENDBRANCH  14  15
ENDBRANCH  13  14
ENDBRANCH  11  12
ENDBRANCH  10  11
ENDBRANCH   8   9
ENDBRANCH   7   8
ENDBRANCH   6   7
ENDBRANCH   4   6
ENDBRANCH   3   4
ENDBRANCH   2   3
TORSDOF 15
ENDMDL
MODEL      249
REMARK 921   NORMALIZED FREE ENERGY PREDICTED BY IDOCK:   -3.77 KCAL/MOL
REMARK 922        TOTAL FREE ENERGY PREDICTED BY IDOCK:   -9.63 KCAL/MOL
REMARK 923 INTER-LIGAND FREE ENERGY PREDICTED BY IDOCK:   -6.77 KCAL/MOL
REMARK 924 INTRA-LIGAND FREE ENERGY PREDICTED BY IDOCK:   -2.86 KCAL/MOL
REMARK 927      BINDING AFFINITY PREDICTED BY RF-SCORE:    0.00 PKD
ROOT
HETATM    1  C   UNL     1     -13.493   9.395  72.143  1.00  0.00    -0.543 C  
HETATM    2  C   UNL     1     -12.539   9.994  71.127  1.00  0.00    -0.381 C  
ENDROOT
BRANCH   2   3
HETATM    3  O   UNL     1     -11.214   9.580  71.482  1.00  0.00    -0.372 OA 
BRANCH   3   4
HETATM    4  C   UNL     1     -10.732   8.548  70.734  1.00  0.00    -0.217 C  
HETATM    5  O   UNL     1     -11.374   7.578  70.364  1.00  0.00    -0.275 OA 
BRANCH   4   6
HETATM    6  C   UNL     1      -9.309   8.853  70.353  1.00  0.00    -0.223 C  
BRANCH   6   7
HETATM    7  C   UNL     1      -9.016   8.341  68.940  1.00  0.00    -0.144 C  
BRANCH   7   8
HETATM    8  C   UNL     1      -7.587   8.638  68.510  1.00  0.00    -0.095 C  
BRANCH   8   9
HETATM    9  C   UNL     1      -6.862   7.400  68.042  1.00  0.00    -0.070 C  
HETATM   10  C   UNL     1      -6.735   7.011  66.764  1.00  0.00    -0.060 C  
BRANCH  10  11
HETATM   11  C   UNL     1      -7.434   7.664  65.616  1.00  0.00    -0.079 C  
BRANCH  11  12
HETATM   12  C   UNL     1      -6.704   8.818  65.000  1.00  0.00    -0.068 C  
HETATM   13  C   UNL     1      -7.228  10.052  64.889  1.00  0.00    -0.140 C  
BRANCH  13  14
HETATM   14  C   UNL     1      -8.586  10.541  65.342  1.00  0.00    -0.188 C  
BRANCH  14  15
HETATM   15  C   UNL     1      -9.689  10.414  64.324  1.00  0.00    -0.389 C  
HETATM   16  C   UNL     1     -10.488  11.404  63.896  1.00  0.00    -0.444 C  
BRANCH  16  17
HETATM   17  C   UNL     1     -10.537  12.774  64.491  1.00  0.00    -0.383 C  
BRANCH  17  18
HETATM   18  C   UNL     1     -11.973  13.147  64.744  1.00  0.00    -0.435 C  
HETATM   19  C   UNL     1     -12.396  13.876  65.788  1.00  0.00    -0.518 C  
BRANCH  19  20
HETATM   20  C   UNL     1     -11.508  14.403  66.865  1.00  0.00    -0.379 C  
BRANCH  20  21
HETATM   21  C   UNL     1     -12.022  14.077  68.235  1.00  0.00    -0.384 C  
HETATM   22  C   UNL     1     -11.624  13.021  68.961  1.00  0.00    -0.367 C  
BRANCH  22  23
HETATM   23  C   UNL     1     -10.643  11.978  68.518  1.00  0.00    -0.252 C  
HETATM   24  C   UNL     1     -11.320  10.869  67.734  1.00  0.00    -0.366 C  
ENDBRANCH  22  23
ENDBRANCH  20  21
ENDBRANCH  19  20
ENDBRANCH  17  18
ENDBRANCH  16  17
ENDBRANCH  14  15
ENDBRANCH  13  14
ENDBRANCH  11  12
ENDBRANCH  10  11
ENDBRANCH   8   9
ENDBRANCH   7   8
ENDBRANCH   6   7
ENDBRANCH   4   6
ENDBRANCH   3   4
ENDBRANCH   2   3
TORSDOF 15
ENDMDL
MODEL      250
REMARK 921   NORMALIZED FREE ENERGY PREDICTED BY IDOCK:   -3.77 KCAL/MOL
REMARK 922        TOTAL FREE ENERGY PREDICTED BY IDOCK:   -9.62 KCAL/MOL
REMARK 923 INTER-LIGAND FREE ENERGY PREDICTED BY IDOCK:   -8.04 KCAL/MOL
REMARK 924 INTRA-LIGAND FREE ENERGY PREDICTED BY IDOCK:   -1.58 KCAL/MOL
REMARK 927      BINDING AFFINITY PREDICTED BY RF-SCORE:    0.00 PKD
ROOT
HETATM    1  C   UNL     1      -9.157   2.302  63.312  1.00  0.00    -0.092 C  
HETATM    2  C   UNL     1      -9.748   3.676  63.572  1.00  0.00    -0.147 C  
ENDROOT
BRANCH   2   3
HETATM    3  O   UNL     1     -10.149   3.719  64.947  1.00  0.00    -0.185 OA 
BRANCH   3   4
HETATM    4  C   UNL     1      -9.658   4.784  65.640  1.00  0.00    -0.174 C  
HETATM    5  O   UNL     1      -8.786   5.544  65.250  1.00  0.00    -0.156 OA 
BRANCH   4   6
HETATM    6  C   UNL     1     -10.440   4.930  66.917  1.00  0.00    -0.202 C  
BRANCH   6   7
HETATM    7  C   UNL     1     -10.892   6.381  67.100  1.00  0.00    -0.467 C  
BRANCH   7   8
HETATM    8  C   UNL     1     -11.228   6.696  68.550  1.00  0.00    -0.227 C  
BRANCH   8   9
HETATM    9  C   UNL     1     -10.604   5.711  69.508  1.00  0.00    -0.384 C  
HETATM   10  C   UNL     1     -10.851   5.646  70.826  1.00  0.00    -0.294 C  
BRANCH  10  11
HETATM   11  C   UNL     1     -11.667   6.648  71.576  1.00  0.00    -0.369 C  
BRANCH  11  12
HETATM   12  C   UNL     1     -10.886   7.750  72.223  1.00  0.00    -0.339 C  
HETATM   13  C   UNL     1     -10.877   9.018  71.772  1.00  0.00    -0.437 C  
BRANCH  13  14
HETATM   14  C   UNL     1     -11.618   9.598  70.588  1.00  0.00    -0.371 C  
BRANCH  14  15
HETATM   15  C   UNL     1     -12.065  11.029  70.746  1.00  0.00    -0.467 C  
HETATM   16  C   UNL     1     -12.113  11.954  69.775  1.00  0.00    -0.321 C  
BRANCH  16  17
HETATM   17  C   UNL     1     -11.560  11.773  68.400  1.00  0.00    -0.380 C  
BRANCH  17  18
HETATM   18  C   UNL     1     -10.844  13.031  67.989  1.00  0.00    -0.261 C  
HETATM   19  C   UNL     1     -11.254  13.855  67.013  1.00  0.00    -0.327 C  
BRANCH  19  20
HETATM   20  C   UNL     1     -12.466  13.631  66.173  1.00  0.00    -0.449 C  
BRANCH  20  21
HETATM   21  C   UNL     1     -12.297  14.157  64.779  1.00  0.00    -0.436 C  
HETATM   22  C   UNL     1     -12.158  13.384  63.691  1.00  0.00    -0.513 C  
BRANCH  22  23
HETATM   23  C   UNL     1     -12.108  11.886  63.685  1.00  0.00    -0.580 C  
HETATM   24  C   UNL     1     -10.691  11.372  63.867  1.00  0.00    -0.462 C  
ENDBRANCH  22  23
ENDBRANCH  20  21
ENDBRANCH  19  20
ENDBRANCH  17  18
ENDBRANCH  16  17
ENDBRANCH  14  15
ENDBRANCH  13  14
ENDBRANCH  11  12
ENDBRANCH  10  11
ENDBRANCH   8   9
ENDBRANCH   7   8
ENDBRANCH   6   7
ENDBRANCH   4   6
ENDBRANCH   3   4
ENDBRANCH   2   3
TORSDOF 15
ENDMDL
MODEL      251
REMARK 921   NORMALIZED FREE ENERGY PREDICTED BY IDOCK:   -3.76 KCAL/MOL
REMARK 922        TOTAL FREE ENERGY PREDICTED BY IDOCK:   -9.61 KCAL/MOL
REMARK 923 INTER-LIGAND FREE ENERGY PREDICTED BY IDOCK:   -7.01 KCAL/MOL
REMARK 924 INTRA-LIGAND FREE ENERGY PREDICTED BY IDOCK:   -2.61 KCAL/MOL
REMARK 927      BINDING AFFINITY PREDICTED BY RF-SCORE:    0.00 PKD
ROOT
HETATM    1  C   UNL     1      -9.761   4.058  66.309  1.00  0.00    -0.201 C  
HETATM    2  C   UNL     1      -9.468   3.340  67.614  1.00  0.00    -0.165 C  
ENDROOT
BRANCH   2   3
HETATM    3  O   UNL     1      -8.219   3.837  68.109  1.00  0.00    -0.082 OA 
BRANCH   3   4
HETATM    4  C   UNL     1      -8.104   3.811  69.466  1.00  0.00    -0.054 C  
HETATM    5  O   UNL     1      -7.080   4.021  70.096  1.00  0.00    -0.040 OA 
BRANCH   4   6
HETATM    6  C   UNL     1      -9.468   3.587  70.060  1.00  0.00    -0.253 C  
BRANCH   6   7
HETATM    7  C   UNL     1      -9.744   4.618  71.160  1.00  0.00    -0.252 C  
BRANCH   7   8
HETATM    8  C   UNL     1      -9.997   6.005  70.591  1.00  0.00    -0.232 C  
BRANCH   8   9
HETATM    9  C   UNL     1     -11.126   6.016  69.589  1.00  0.00    -0.474 C  
HETATM   10  C   UNL     1     -11.125   6.681  68.423  1.00  0.00    -0.281 C  
BRANCH  10  11
HETATM   11  C   UNL     1     -10.061   7.645  68.010  1.00  0.00    -0.226 C  
BRANCH  11  12
HETATM   12  C   UNL     1     -10.559   8.944  67.454  1.00  0.00    -0.305 C  
HETATM   13  C   UNL     1     -10.634  10.079  68.172  1.00  0.00    -0.268 C  
BRANCH  13  14
HETATM   14  C   UNL     1     -10.244  10.304  69.616  1.00  0.00    -0.268 C  
BRANCH  14  15
HETATM   15  C   UNL     1     -11.268   9.872  70.635  1.00  0.00    -0.416 C  
HETATM   16  C   UNL     1     -12.293  10.610  71.087  1.00  0.00    -0.505 C  
BRANCH  16  17
HETATM   17  C   UNL     1     -12.495  12.059  70.788  1.00  0.00    -0.372 C  
BRANCH  17  18
HETATM   18  C   UNL     1     -12.812  12.785  72.068  1.00  0.00    -0.269 C  
HETATM   19  C   UNL     1     -13.183  14.072  72.140  1.00  0.00    -0.526 C  
BRANCH  19  20
HETATM   20  C   UNL     1     -13.312  14.981  70.964  1.00  0.00    -0.477 C  
BRANCH  20  21
HETATM   21  C   UNL     1     -12.142  15.908  70.831  1.00  0.00    -0.414 C  
HETATM   22  C   UNL     1     -11.330  15.952  69.763  1.00  0.00    -0.347 C  
BRANCH  22  23
HETATM   23  C   UNL     1     -11.426  15.069  68.557  1.00  0.00    -0.335 C  
HETATM   24  C   UNL     1     -10.367  13.982  68.571  1.00  0.00    -0.247 C  
ENDBRANCH  22  23
ENDBRANCH  20  21
ENDBRANCH  19  20
ENDBRANCH  17  18
ENDBRANCH  16  17
ENDBRANCH  14  15
ENDBRANCH  13  14
ENDBRANCH  11  12
ENDBRANCH  10  11
ENDBRANCH   8   9
ENDBRANCH   7   8
ENDBRANCH   6   7
ENDBRANCH   4   6
ENDBRANCH   3   4
ENDBRANCH   2   3
TORSDOF 15
ENDMDL
MODEL      252
REMARK 921   NORMALIZED FREE ENERGY PREDICTED BY IDOCK:   -3.76 KCAL/MOL
REMARK 922        TOTAL FREE ENERGY PREDICTED BY IDOCK:   -9.61 KCAL/MOL
REMARK 923 INTER-LIGAND FREE ENERGY PREDICTED BY IDOCK:   -7.19 KCAL/MOL
REMARK 924 INTRA-LIGAND FREE ENERGY PREDICTED BY IDOCK:   -2.43 KCAL/MOL
REMARK 927      BINDING AFFINITY PREDICTED BY RF-SCORE:    0.00 PKD
ROOT
HETATM    1  C   UNL     1     -12.584   8.578  72.171  1.00  0.00    -0.431 C  
HETATM    2  C   UNL     1     -11.713   7.343  72.025  1.00  0.00    -0.289 C  
ENDROOT
BRANCH   2   3
HETATM    3  O   UNL     1     -11.884   6.850  70.691  1.00  0.00    -0.358 OA 
BRANCH   3   4
HETATM    4  C   UNL     1     -10.800   6.192  70.194  1.00  0.00    -0.329 C  
HETATM    5  O   UNL     1     -10.647   4.982  70.184  1.00  0.00    -0.236 OA 
BRANCH   4   6
HETATM    6  C   UNL     1      -9.873   7.198  69.567  1.00  0.00    -0.162 C  
BRANCH   6   7
HETATM    7  C   UNL     1     -10.631   8.060  68.554  1.00  0.00    -0.144 C  
BRANCH   7   8
HETATM    8  C   UNL     1     -10.405   9.546  68.787  1.00  0.00    -0.228 C  
BRANCH   8   9
HETATM    9  C   UNL     1      -9.083  10.017  68.233  1.00  0.00    -0.122 C  
HETATM   10  C   UNL     1      -8.836  10.296  66.943  1.00  0.00    -0.141 C  
BRANCH  10  11
HETATM   11  C   UNL     1      -9.795  10.028  65.829  1.00  0.00    -0.345 C  
BRANCH  11  12
HETATM   12  C   UNL     1      -9.171   9.564  64.549  1.00  0.00    -0.223 C  
HETATM   13  C   UNL     1      -9.212  10.271  63.405  1.00  0.00    -0.321 C  
BRANCH  13  14
HETATM   14  C   UNL     1      -9.845  11.622  63.159  1.00  0.00    -0.407 C  
BRANCH  14  15
HETATM   15  C   UNL     1     -11.352  11.634  63.138  1.00  0.00    -0.153 C  
HETATM   16  C   UNL     1     -12.142  12.603  63.624  1.00  0.00    -0.632 C  
BRANCH  16  17
HETATM   17  C   UNL     1     -11.664  13.764  64.432  1.00  0.00    -0.436 C  
BRANCH  17  18
HETATM   18  C   UNL     1     -12.631  14.009  65.560  1.00  0.00    -0.543 C  
HETATM   19  C   UNL     1     -12.359  13.789  66.854  1.00  0.00    -0.328 C  
BRANCH  19  20
HETATM   20  C   UNL     1     -11.068  13.246  67.366  1.00  0.00    -0.300 C  
BRANCH  20  21
HETATM   21  C   UNL     1     -10.485  14.096  68.455  1.00  0.00    -0.252 C  
HETATM   22  C   UNL     1      -9.714  15.174  68.241  1.00  0.00    -0.219 C  
BRANCH  22  23
HETATM   23  C   UNL     1      -9.276  15.681  66.902  1.00  0.00    -0.257 C  
HETATM   24  C   UNL     1     -10.134  16.842  66.434  1.00  0.00    -0.331 C  
ENDBRANCH  22  23
ENDBRANCH  20  21
ENDBRANCH  19  20
ENDBRANCH  17  18
ENDBRANCH  16  17
ENDBRANCH  14  15
ENDBRANCH  13  14
ENDBRANCH  11  12
ENDBRANCH  10  11
ENDBRANCH   8   9
ENDBRANCH   7   8
ENDBRANCH   6   7
ENDBRANCH   4   6
ENDBRANCH   3   4
ENDBRANCH   2   3
TORSDOF 15
ENDMDL
MODEL      253
REMARK 921   NORMALIZED FREE ENERGY PREDICTED BY IDOCK:   -3.76 KCAL/MOL
REMARK 922        TOTAL FREE ENERGY PREDICTED BY IDOCK:   -9.61 KCAL/MOL
REMARK 923 INTER-LIGAND FREE ENERGY PREDICTED BY IDOCK:   -6.33 KCAL/MOL
REMARK 924 INTRA-LIGAND FREE ENERGY PREDICTED BY IDOCK:   -3.28 KCAL/MOL
REMARK 927      BINDING AFFINITY PREDICTED BY RF-SCORE:    0.00 PKD
ROOT
HETATM    1  C   UNL     1      -7.716   4.089  64.215  1.00  0.00    -0.084 C  
HETATM    2  C   UNL     1      -8.779   5.143  64.466  1.00  0.00    -0.106 C  
ENDROOT
BRANCH   2   3
HETATM    3  O   UNL     1      -9.873   4.501  65.133  1.00  0.00    -0.177 OA 
BRANCH   3   4
HETATM    4  C   UNL     1      -9.714   4.381  66.481  1.00  0.00    -0.215 C  
HETATM    5  O   UNL     1      -9.612   3.330  67.092  1.00  0.00    -0.183 OA 
BRANCH   4   6
HETATM    6  C   UNL     1      -9.580   5.757  67.075  1.00  0.00    -0.145 C  
BRANCH   6   7
HETATM    7  C   UNL     1     -10.944   6.264  67.553  1.00  0.00    -0.444 C  
BRANCH   7   8
HETATM    8  C   UNL     1     -11.084   6.184  69.066  1.00  0.00    -0.437 C  
BRANCH   8   9
HETATM    9  C   UNL     1      -9.824   5.687  69.731  1.00  0.00    -0.245 C  
HETATM   10  C   UNL     1      -9.744   5.201  70.980  1.00  0.00    -0.245 C  
BRANCH  10  11
HETATM   11  C   UNL     1     -10.870   5.225  71.961  1.00  0.00    -0.230 C  
BRANCH  11  12
HETATM   12  C   UNL     1     -10.649   6.091  73.163  1.00  0.00    -0.268 C  
HETATM   13  C   UNL     1     -10.857   7.420  73.169  1.00  0.00    -0.435 C  
BRANCH  13  14
HETATM   14  C   UNL     1     -11.346   8.299  72.039  1.00  0.00    -0.390 C  
BRANCH  14  15
HETATM   15  C   UNL     1     -12.764   8.793  72.173  1.00  0.00    -0.461 C  
HETATM   16  C   UNL     1     -13.250   9.944  71.683  1.00  0.00    -0.519 C  
BRANCH  16  17
HETATM   17  C   UNL     1     -12.421  11.023  71.069  1.00  0.00    -0.512 C  
BRANCH  17  18
HETATM   18  C   UNL     1     -12.399  10.835  69.575  1.00  0.00    -0.208 C  
HETATM   19  C   UNL     1     -11.293  10.594  68.857  1.00  0.00    -0.337 C  
BRANCH  19  20
HETATM   20  C   UNL     1      -9.917  10.504  69.427  1.00  0.00    -0.220 C  
BRANCH  20  21
HETATM   21  C   UNL     1      -9.113   9.405  68.802  1.00  0.00    -0.132 C  
HETATM   22  C   UNL     1      -8.050   8.823  69.380  1.00  0.00    -0.106 C  
BRANCH  22  23
HETATM   23  C   UNL     1      -7.469   9.194  70.710  1.00  0.00    -0.133 C  
HETATM   24  C   UNL     1      -7.603   8.064  71.715  1.00  0.00    -0.095 C  
ENDBRANCH  22  23
ENDBRANCH  20  21
ENDBRANCH  19  20
ENDBRANCH  17  18
ENDBRANCH  16  17
ENDBRANCH  14  15
ENDBRANCH  13  14
ENDBRANCH  11  12
ENDBRANCH  10  11
ENDBRANCH   8   9
ENDBRANCH   7   8
ENDBRANCH   6   7
ENDBRANCH   4   6
ENDBRANCH   3   4
ENDBRANCH   2   3
TORSDOF 15
ENDMDL
MODEL      254
REMARK 921   NORMALIZED FREE ENERGY PREDICTED BY IDOCK:   -3.76 KCAL/MOL
REMARK 922        TOTAL FREE ENERGY PREDICTED BY IDOCK:   -9.61 KCAL/MOL
REMARK 923 INTER-LIGAND FREE ENERGY PREDICTED BY IDOCK:   -7.41 KCAL/MOL
REMARK 924 INTRA-LIGAND FREE ENERGY PREDICTED BY IDOCK:   -2.20 KCAL/MOL
REMARK 927      BINDING AFFINITY PREDICTED BY RF-SCORE:    0.00 PKD
ROOT
HETATM    1  C   UNL     1     -11.385  16.085  70.296  1.00  0.00    -0.391 C  
HETATM    2  C   UNL     1     -11.750  15.795  71.740  1.00  0.00    -0.478 C  
ENDROOT
BRANCH   2   3
HETATM    3  O   UNL     1     -12.059  14.400  71.836  1.00  0.00    -0.291 OA 
BRANCH   3   4
HETATM    4  C   UNL     1     -13.392  14.121  71.855  1.00  0.00    -0.393 C  
HETATM    5  O   UNL     1     -14.286  14.911  71.594  1.00  0.00    -0.444 OA 
BRANCH   4   6
HETATM    6  C   UNL     1     -13.575  12.657  72.146  1.00  0.00    -0.510 C  
BRANCH   6   7
HETATM    7  C   UNL     1     -12.527  11.831  71.395  1.00  0.00    -0.281 C  
BRANCH   7   8
HETATM    8  C   UNL     1     -13.050  10.454  71.016  1.00  0.00    -0.450 C  
BRANCH   8   9
HETATM    9  C   UNL     1     -12.308   9.346  71.723  1.00  0.00    -0.471 C  
HETATM   10  C   UNL     1     -11.363   8.568  71.171  1.00  0.00    -0.319 C  
BRANCH  10  11
HETATM   11  C   UNL     1     -11.013   8.578  69.719  1.00  0.00    -0.131 C  
BRANCH  11  12
HETATM   12  C   UNL     1      -9.751   7.854  69.363  1.00  0.00    -0.170 C  
HETATM   13  C   UNL     1      -8.798   8.372  68.567  1.00  0.00    -0.136 C  
BRANCH  13  14
HETATM   14  C   UNL     1      -8.769   9.727  67.897  1.00  0.00    -0.125 C  
BRANCH  14  15
HETATM   15  C   UNL     1      -8.133   9.757  66.530  1.00  0.00    -0.116 C  
HETATM   16  C   UNL     1      -8.752  10.049  65.377  1.00  0.00    -0.176 C  
BRANCH  16  17
HETATM   17  C   UNL     1     -10.228  10.225  65.224  1.00  0.00    -0.308 C  
BRANCH  17  18
HETATM   18  C   UNL     1     -10.500  11.031  63.982  1.00  0.00    -0.433 C  
HETATM   19  C   UNL     1     -10.988  12.280  63.979  1.00  0.00    -0.438 C  
BRANCH  19  20
HETATM   20  C   UNL     1     -11.359  13.046  65.205  1.00  0.00    -0.325 C  
BRANCH  20  21
HETATM   21  C   UNL     1     -10.545  14.295  65.363  1.00  0.00    -0.367 C  
HETATM   22  C   UNL     1      -9.451  14.392  66.134  1.00  0.00    -0.271 C  
BRANCH  22  23
HETATM   23  C   UNL     1      -8.885  13.298  66.988  1.00  0.00    -0.216 C  
HETATM   24  C   UNL     1      -9.352  13.412  68.427  1.00  0.00    -0.165 C  
ENDBRANCH  22  23
ENDBRANCH  20  21
ENDBRANCH  19  20
ENDBRANCH  17  18
ENDBRANCH  16  17
ENDBRANCH  14  15
ENDBRANCH  13  14
ENDBRANCH  11  12
ENDBRANCH  10  11
ENDBRANCH   8   9
ENDBRANCH   7   8
ENDBRANCH   6   7
ENDBRANCH   4   6
ENDBRANCH   3   4
ENDBRANCH   2   3
TORSDOF 15
ENDMDL
MODEL      255
REMARK 921   NORMALIZED FREE ENERGY PREDICTED BY IDOCK:   -3.73 KCAL/MOL
REMARK 922        TOTAL FREE ENERGY PREDICTED BY IDOCK:   -9.55 KCAL/MOL
REMARK 923 INTER-LIGAND FREE ENERGY PREDICTED BY IDOCK:   -6.47 KCAL/MOL
REMARK 924 INTRA-LIGAND FREE ENERGY PREDICTED BY IDOCK:   -3.08 KCAL/MOL
REMARK 927      BINDING AFFINITY PREDICTED BY RF-SCORE:    0.00 PKD
ROOT
HETATM    1  C   UNL     1     -10.370  11.615  63.456  1.00  0.00    -0.488 C  
HETATM    2  C   UNL     1     -11.736  12.184  63.794  1.00  0.00    -0.485 C  
ENDROOT
BRANCH   2   3
HETATM    3  O   UNL     1     -11.531  13.465  64.402  1.00  0.00    -0.355 OA 
BRANCH   3   4
HETATM    4  C   UNL     1     -12.259  13.670  65.536  1.00  0.00    -0.443 C  
HETATM    5  O   UNL     1     -13.454  13.914  65.577  1.00  0.00    -0.657 OA 
BRANCH   4   6
HETATM    6  C   UNL     1     -11.369  13.441  66.727  1.00  0.00    -0.353 C  
BRANCH   6   7
HETATM    7  C   UNL     1     -11.996  12.409  67.669  1.00  0.00    -0.249 C  
BRANCH   7   8
HETATM    8  C   UNL     1     -11.064  11.237  67.933  1.00  0.00    -0.325 C  
BRANCH   8   9
HETATM    9  C   UNL     1      -9.824  11.287  67.074  1.00  0.00    -0.217 C  
HETATM   10  C   UNL     1      -8.707  10.571  67.279  1.00  0.00    -0.126 C  
BRANCH  10  11
HETATM   11  C   UNL     1      -8.463   9.728  68.488  1.00  0.00    -0.115 C  
BRANCH  11  12
HETATM   12  C   UNL     1      -7.477  10.289  69.467  1.00  0.00    -0.142 C  
HETATM   13  C   UNL     1      -7.091   9.645  70.582  1.00  0.00    -0.117 C  
BRANCH  13  14
HETATM   14  C   UNL     1      -7.520   8.281  71.076  1.00  0.00    -0.068 C  
BRANCH  14  15
HETATM   15  C   UNL     1      -6.758   7.117  70.497  1.00  0.00    -0.052 C  
HETATM   16  C   UNL     1      -7.291   5.991  70.000  1.00  0.00    -0.075 C  
BRANCH  16  17
HETATM   17  C   UNL     1      -8.735   5.620  70.095  1.00  0.00    -0.140 C  
BRANCH  17  18
HETATM   18  C   UNL     1      -9.414   5.952  68.793  1.00  0.00    -0.143 C  
HETATM   19  C   UNL     1     -10.592   6.584  68.691  1.00  0.00    -0.289 C  
BRANCH  19  20
HETATM   20  C   UNL     1     -11.416   7.029  69.852  1.00  0.00    -0.223 C  
BRANCH  20  21
HETATM   21  C   UNL     1     -11.062   8.413  70.305  1.00  0.00    -0.216 C  
HETATM   22  C   UNL     1     -11.121   8.829  71.580  1.00  0.00    -0.377 C  
BRANCH  22  23
HETATM   23  C   UNL     1     -11.584   8.009  72.745  1.00  0.00    -0.390 C  
HETATM   24  C   UNL     1     -10.427   7.307  73.432  1.00  0.00    -0.423 C  
ENDBRANCH  22  23
ENDBRANCH  20  21
ENDBRANCH  19  20
ENDBRANCH  17  18
ENDBRANCH  16  17
ENDBRANCH  14  15
ENDBRANCH  13  14
ENDBRANCH  11  12
ENDBRANCH  10  11
ENDBRANCH   8   9
ENDBRANCH   7   8
ENDBRANCH   6   7
ENDBRANCH   4   6
ENDBRANCH   3   4
ENDBRANCH   2   3
TORSDOF 15
ENDMDL
MODEL      256
REMARK 921   NORMALIZED FREE ENERGY PREDICTED BY IDOCK:   -3.73 KCAL/MOL
REMARK 922        TOTAL FREE ENERGY PREDICTED BY IDOCK:   -9.55 KCAL/MOL
REMARK 923 INTER-LIGAND FREE ENERGY PREDICTED BY IDOCK:   -7.46 KCAL/MOL
REMARK 924 INTRA-LIGAND FREE ENERGY PREDICTED BY IDOCK:   -2.09 KCAL/MOL
REMARK 927      BINDING AFFINITY PREDICTED BY RF-SCORE:    0.00 PKD
ROOT
HETATM    1  C   UNL     1      -9.946  19.412  68.679  1.00  0.00    -0.527 C  
HETATM    2  C   UNL     1     -10.799  18.845  67.559  1.00  0.00    -0.364 C  
ENDROOT
BRANCH   2   3
HETATM    3  O   UNL     1      -9.956  18.690  66.411  1.00  0.00    -0.349 OA 
BRANCH   3   4
HETATM    4  C   UNL     1     -10.205  17.567  65.681  1.00  0.00    -0.079 C  
HETATM    5  O   UNL     1     -11.110  17.432  64.873  1.00  0.00    -0.849 OA 
BRANCH   4   6
HETATM    6  C   UNL     1      -9.122  16.561  65.958  1.00  0.00    -0.290 C  
BRANCH   6   7
HETATM    7  C   UNL     1      -7.766  17.263  66.087  1.00  0.00    -0.317 C  
BRANCH   7   8
HETATM    8  C   UNL     1      -6.799  16.480  66.962  1.00  0.00    -0.248 C  
BRANCH   8   9
HETATM    9  C   UNL     1      -6.917  16.851  68.419  1.00  0.00    -0.173 C  
HETATM   10  C   UNL     1      -7.436  16.070  69.381  1.00  0.00    -0.201 C  
BRANCH  10  11
HETATM   11  C   UNL     1      -8.123  14.769  69.123  1.00  0.00    -0.119 C  
BRANCH  11  12
HETATM   12  C   UNL     1      -7.256  13.694  68.543  1.00  0.00    -0.109 C  
HETATM   13  C   UNL     1      -7.666  12.850  67.580  1.00  0.00    -0.174 C  
BRANCH  13  14
HETATM   14  C   UNL     1      -9.009  12.796  66.886  1.00  0.00    -0.213 C  
BRANCH  14  15
HETATM   15  C   UNL     1      -9.794  11.527  67.100  1.00  0.00    -0.210 C  
HETATM   16  C   UNL     1     -11.097  11.447  67.412  1.00  0.00    -0.349 C  
BRANCH  16  17
HETATM   17  C   UNL     1     -11.957  12.612  67.776  1.00  0.00    -0.303 C  
BRANCH  17  18
HETATM   18  C   UNL     1     -11.669  13.009  69.199  1.00  0.00    -0.378 C  
HETATM   19  C   UNL     1     -11.940  12.249  70.270  1.00  0.00    -0.373 C  
BRANCH  19  20
HETATM   20  C   UNL     1     -12.593  10.908  70.211  1.00  0.00    -0.342 C  
BRANCH  20  21
HETATM   21  C   UNL     1     -12.367  10.110  71.460  1.00  0.00    -0.505 C  
HETATM   22  C   UNL     1     -11.274   9.367  71.694  1.00  0.00    -0.431 C  
BRANCH  22  23
HETATM   23  C   UNL     1     -10.129   9.177  70.747  1.00  0.00    -0.333 C  
HETATM   24  C   UNL     1     -10.520   8.315  69.560  1.00  0.00    -0.228 C  
ENDBRANCH  22  23
ENDBRANCH  20  21
ENDBRANCH  19  20
ENDBRANCH  17  18
ENDBRANCH  16  17
ENDBRANCH  14  15
ENDBRANCH  13  14
ENDBRANCH  11  12
ENDBRANCH  10  11
ENDBRANCH   8   9
ENDBRANCH   7   8
ENDBRANCH   6   7
ENDBRANCH   4   6
ENDBRANCH   3   4
ENDBRANCH   2   3
TORSDOF 15
ENDMDL
MODEL      257
REMARK 921   NORMALIZED FREE ENERGY PREDICTED BY IDOCK:   -3.72 KCAL/MOL
REMARK 922        TOTAL FREE ENERGY PREDICTED BY IDOCK:   -9.54 KCAL/MOL
REMARK 923 INTER-LIGAND FREE ENERGY PREDICTED BY IDOCK:   -8.08 KCAL/MOL
REMARK 924 INTRA-LIGAND FREE ENERGY PREDICTED BY IDOCK:   -1.45 KCAL/MOL
REMARK 927      BINDING AFFINITY PREDICTED BY RF-SCORE:    0.00 PKD
ROOT
HETATM    1  C   UNL     1     -11.485  10.822  70.232  1.00  0.00    -0.406 C  
HETATM    2  C   UNL     1     -10.377   9.989  69.612  1.00  0.00    -0.247 C  
ENDROOT
BRANCH   2   3
HETATM    3  O   UNL     1      -9.791  10.765  68.560  1.00  0.00    -0.163 OA 
BRANCH   3   4
HETATM    4  C   UNL     1      -9.067  10.038  67.664  1.00  0.00    -0.134 C  
HETATM    5  O   UNL     1      -7.941   9.602  67.849  1.00  0.00    -0.097 OA 
BRANCH   4   6
HETATM    6  C   UNL     1      -9.921   9.771  66.456  1.00  0.00    -0.304 C  
BRANCH   6   7
HETATM    7  C   UNL     1      -9.289  10.398  65.209  1.00  0.00    -0.263 C  
BRANCH   7   8
HETATM    8  C   UNL     1     -10.334  10.794  64.178  1.00  0.00    -0.382 C  
BRANCH   8   9
HETATM    9  C   UNL     1     -10.224  12.246  63.781  1.00  0.00    -0.427 C  
HETATM   10  C   UNL     1     -10.998  13.239  64.246  1.00  0.00    -0.418 C  
BRANCH  10  11
HETATM   11  C   UNL     1     -12.196  13.032  65.114  1.00  0.00    -0.507 C  
BRANCH  11  12
HETATM   12  C   UNL     1     -11.899  12.741  66.552  1.00  0.00    -0.471 C  
HETATM   13  C   UNL     1     -11.654  13.697  67.467  1.00  0.00    -0.384 C  
BRANCH  13  14
HETATM   14  C   UNL     1     -11.636  15.197  67.276  1.00  0.00    -0.231 C  
BRANCH  14  15
HETATM   15  C   UNL     1     -10.434  15.739  66.546  1.00  0.00    -0.304 C  
HETATM   16  C   UNL     1     -10.001  17.009  66.569  1.00  0.00    -0.318 C  
BRANCH  16  17
HETATM   17  C   UNL     1     -10.744  18.149  67.184  1.00  0.00    -0.309 C  
BRANCH  17  18
HETATM   18  C   UNL     1     -10.318  19.430  66.517  1.00  0.00    -0.564 C  
HETATM   19  C   UNL     1      -9.244  20.150  66.871  1.00  0.00    -0.499 C  
BRANCH  19  20
HETATM   20  C   UNL     1      -8.328  19.804  67.997  1.00  0.00    -0.332 C  
BRANCH  20  21
HETATM   21  C   UNL     1      -7.020  20.531  67.910  1.00  0.00    -0.332 C  
HETATM   22  C   UNL     1      -6.117  20.583  68.901  1.00  0.00    -0.369 C  
BRANCH  22  23
HETATM   23  C   UNL     1      -6.274  19.967  70.258  1.00  0.00    -0.386 C  
HETATM   24  C   UNL     1      -5.318  18.806  70.461  1.00  0.00    -0.236 C  
ENDBRANCH  22  23
ENDBRANCH  20  21
ENDBRANCH  19  20
ENDBRANCH  17  18
ENDBRANCH  16  17
ENDBRANCH  14  15
ENDBRANCH  13  14
ENDBRANCH  11  12
ENDBRANCH  10  11
ENDBRANCH   8   9
ENDBRANCH   7   8
ENDBRANCH   6   7
ENDBRANCH   4   6
ENDBRANCH   3   4
ENDBRANCH   2   3
TORSDOF 15
ENDMDL
MODEL      258
REMARK 921   NORMALIZED FREE ENERGY PREDICTED BY IDOCK:   -3.72 KCAL/MOL
REMARK 922        TOTAL FREE ENERGY PREDICTED BY IDOCK:   -9.53 KCAL/MOL
REMARK 923 INTER-LIGAND FREE ENERGY PREDICTED BY IDOCK:   -7.34 KCAL/MOL
REMARK 924 INTRA-LIGAND FREE ENERGY PREDICTED BY IDOCK:   -2.19 KCAL/MOL
REMARK 927      BINDING AFFINITY PREDICTED BY RF-SCORE:    0.00 PKD
ROOT
HETATM    1  C   UNL     1      -8.521   9.327  69.708  1.00  0.00    -0.152 C  
HETATM    2  C   UNL     1      -8.475   7.864  70.110  1.00  0.00    -0.129 C  
ENDROOT
BRANCH   2   3
HETATM    3  O   UNL     1      -9.387   7.155  69.264  1.00  0.00    -0.147 OA 
BRANCH   3   4
HETATM    4  C   UNL     1     -10.518   6.729  69.893  1.00  0.00    -0.211 C  
HETATM    5  O   UNL     1     -11.563   6.420  69.342  1.00  0.00    -0.382 OA 
BRANCH   4   6
HETATM    6  C   UNL     1     -10.233   6.601  71.364  1.00  0.00    -0.220 C  
BRANCH   6   7
HETATM    7  C   UNL     1     -11.536   6.667  72.166  1.00  0.00    -0.335 C  
BRANCH   7   8
HETATM    8  C   UNL     1     -11.885   8.091  72.572  1.00  0.00    -0.419 C  
BRANCH   8   9
HETATM    9  C   UNL     1     -13.122   8.598  71.874  1.00  0.00    -0.409 C  
HETATM   10  C   UNL     1     -13.206   9.742  71.175  1.00  0.00    -0.404 C  
BRANCH  10  11
HETATM   11  C   UNL     1     -12.123  10.768  71.115  1.00  0.00    -0.415 C  
BRANCH  11  12
HETATM   12  C   UNL     1     -11.958  11.443  69.788  1.00  0.00    -0.422 C  
HETATM   13  C   UNL     1     -11.931  12.779  69.633  1.00  0.00    -0.354 C  
BRANCH  13  14
HETATM   14  C   UNL     1     -12.041  13.850  70.695  1.00  0.00    -0.417 C  
BRANCH  14  15
HETATM   15  C   UNL     1     -12.323  15.239  70.183  1.00  0.00    -0.392 C  
HETATM   16  C   UNL     1     -11.476  16.012  69.486  1.00  0.00    -0.326 C  
BRANCH  16  17
HETATM   17  C   UNL     1     -10.036  15.697  69.249  1.00  0.00    -0.265 C  
BRANCH  17  18
HETATM   18  C   UNL     1      -9.698  15.993  67.813  1.00  0.00    -0.221 C  
HETATM   19  C   UNL     1      -9.570  15.063  66.855  1.00  0.00    -0.251 C  
BRANCH  19  20
HETATM   20  C   UNL     1      -9.716  13.595  67.078  1.00  0.00    -0.251 C  
BRANCH  20  21
HETATM   21  C   UNL     1     -10.181  12.877  65.847  1.00  0.00    -0.299 C  
HETATM   22  C   UNL     1     -10.475  11.568  65.801  1.00  0.00    -0.308 C  
BRANCH  22  23
HETATM   23  C   UNL     1     -10.351  10.606  66.943  1.00  0.00    -0.288 C  
HETATM   24  C   UNL     1     -10.255   9.170  66.458  1.00  0.00    -0.322 C  
ENDBRANCH  22  23
ENDBRANCH  20  21
ENDBRANCH  19  20
ENDBRANCH  17  18
ENDBRANCH  16  17
ENDBRANCH  14  15
ENDBRANCH  13  14
ENDBRANCH  11  12
ENDBRANCH  10  11
ENDBRANCH   8   9
ENDBRANCH   7   8
ENDBRANCH   6   7
ENDBRANCH   4   6
ENDBRANCH   3   4
ENDBRANCH   2   3
TORSDOF 15
ENDMDL
MODEL      259
REMARK 921   NORMALIZED FREE ENERGY PREDICTED BY IDOCK:   -3.71 KCAL/MOL
REMARK 922        TOTAL FREE ENERGY PREDICTED BY IDOCK:   -9.52 KCAL/MOL
REMARK 923 INTER-LIGAND FREE ENERGY PREDICTED BY IDOCK:   -7.29 KCAL/MOL
REMARK 924 INTRA-LIGAND FREE ENERGY PREDICTED BY IDOCK:   -2.23 KCAL/MOL
REMARK 927      BINDING AFFINITY PREDICTED BY RF-SCORE:    0.00 PKD
ROOT
HETATM    1  C   UNL     1      -8.823   9.384  66.142  1.00  0.00    -0.178 C  
HETATM    2  C   UNL     1      -7.906   9.551  64.943  1.00  0.00    -0.119 C  
ENDROOT
BRANCH   2   3
HETATM    3  O   UNL     1      -8.235  10.798  64.319  1.00  0.00    -0.048 OA 
BRANCH   3   4
HETATM    4  C   UNL     1      -9.234  10.715  63.396  1.00  0.00    -0.270 C  
HETATM    5  O   UNL     1      -9.528   9.718  62.757  1.00  0.00    -0.231 OA 
BRANCH   4   6
HETATM    6  C   UNL     1      -9.978  12.022  63.372  1.00  0.00    -0.384 C  
BRANCH   6   7
HETATM    7  C   UNL     1     -11.349  11.866  64.037  1.00  0.00    -0.475 C  
BRANCH   7   8
HETATM    8  C   UNL     1     -11.295  12.156  65.529  1.00  0.00    -0.393 C  
BRANCH   8   9
HETATM    9  C   UNL     1     -12.334  13.166  65.953  1.00  0.00    -0.462 C  
HETATM   10  C   UNL     1     -12.115  14.478  66.132  1.00  0.00    -0.300 C  
BRANCH  10  11
HETATM   11  C   UNL     1     -10.764  15.115  66.091  1.00  0.00    -0.327 C  
BRANCH  11  12
HETATM   12  C   UNL     1     -10.634  16.273  65.150  1.00  0.00    -0.327 C  
HETATM   13  C   UNL     1     -10.594  17.556  65.553  1.00  0.00    -0.097 C  
BRANCH  13  14
HETATM   14  C   UNL     1     -10.653  18.100  66.963  1.00  0.00    -0.346 C  
BRANCH  14  15
HETATM   15  C   UNL     1     -10.641  19.603  67.075  1.00  0.00    -0.602 C  
HETATM   16  C   UNL     1      -9.554  20.389  67.053  1.00  0.00    -0.571 C  
BRANCH  16  17
HETATM   17  C   UNL     1      -8.146  19.893  67.090  1.00  0.00    -0.341 C  
BRANCH  17  18
HETATM   18  C   UNL     1      -7.772  19.585  68.515  1.00  0.00    -0.389 C  
HETATM   19  C   UNL     1      -7.587  18.349  69.002  1.00  0.00    -0.182 C  
BRANCH  19  20
HETATM   20  C   UNL     1      -7.751  17.096  68.209  1.00  0.00    -0.220 C  
BRANCH  20  21
HETATM   21  C   UNL     1      -7.819  15.877  69.079  1.00  0.00    -0.216 C  
HETATM   22  C   UNL     1      -8.957  15.354  69.560  1.00  0.00    -0.229 C  
BRANCH  22  23
HETATM   23  C   UNL     1     -10.332  15.912  69.348  1.00  0.00    -0.265 C  
HETATM   24  C   UNL     1     -11.043  16.167  70.665  1.00  0.00    -0.318 C  
ENDBRANCH  22  23
ENDBRANCH  20  21
ENDBRANCH  19  20
ENDBRANCH  17  18
ENDBRANCH  16  17
ENDBRANCH  14  15
ENDBRANCH  13  14
ENDBRANCH  11  12
ENDBRANCH  10  11
ENDBRANCH   8   9
ENDBRANCH   7   8
ENDBRANCH   6   7
ENDBRANCH   4   6
ENDBRANCH   3   4
ENDBRANCH   2   3
TORSDOF 15
ENDMDL
MODEL      260
REMARK 921   NORMALIZED FREE ENERGY PREDICTED BY IDOCK:   -3.71 KCAL/MOL
REMARK 922        TOTAL FREE ENERGY PREDICTED BY IDOCK:   -9.52 KCAL/MOL
REMARK 923 INTER-LIGAND FREE ENERGY PREDICTED BY IDOCK:   -7.85 KCAL/MOL
REMARK 924 INTRA-LIGAND FREE ENERGY PREDICTED BY IDOCK:   -1.66 KCAL/MOL
REMARK 927      BINDING AFFINITY PREDICTED BY RF-SCORE:    0.00 PKD
ROOT
HETATM    1  C   UNL     1      -9.351   3.791  63.662  1.00  0.00    -0.130 C  
HETATM    2  C   UNL     1     -10.207   4.105  64.876  1.00  0.00    -0.204 C  
ENDROOT
BRANCH   2   3
HETATM    3  O   UNL     1      -9.553   5.151  65.605  1.00  0.00    -0.153 OA 
BRANCH   3   4
HETATM    4  C   UNL     1     -10.179   5.500  66.764  1.00  0.00    -0.233 C  
HETATM    5  O   UNL     1     -11.152   6.231  66.852  1.00  0.00    -0.361 OA 
BRANCH   4   6
HETATM    6  C   UNL     1      -9.538   4.753  67.901  1.00  0.00    -0.198 C  
BRANCH   6   7
HETATM    7  C   UNL     1     -10.159   5.181  69.235  1.00  0.00    -0.283 C  
BRANCH   7   8
HETATM    8  C   UNL     1      -9.116   5.318  70.332  1.00  0.00    -0.173 C  
BRANCH   8   9
HETATM    9  C   UNL     1      -9.362   4.367  71.478  1.00  0.00    -0.203 C  
HETATM   10  C   UNL     1     -10.341   4.485  72.390  1.00  0.00    -0.256 C  
BRANCH  10  11
HETATM   11  C   UNL     1     -11.243   5.671  72.501  1.00  0.00    -0.346 C  
BRANCH  11  12
HETATM   12  C   UNL     1     -10.708   6.804  73.321  1.00  0.00    -0.330 C  
HETATM   13  C   UNL     1     -10.628   8.070  72.875  1.00  0.00    -0.399 C  
BRANCH  13  14
HETATM   14  C   UNL     1     -11.046   8.620  71.529  1.00  0.00    -0.358 C  
BRANCH  14  15
HETATM   15  C   UNL     1     -12.515   8.922  71.384  1.00  0.00    -0.357 C  
HETATM   16  C   UNL     1     -13.052  10.115  71.086  1.00  0.00    -0.480 C  
BRANCH  16  17
HETATM   17  C   UNL     1     -12.289  11.397  71.019  1.00  0.00    -0.448 C  
BRANCH  17  18
HETATM   18  C   UNL     1     -11.656  11.522  69.659  1.00  0.00    -0.403 C  
HETATM   19  C   UNL     1     -11.603  12.657  68.947  1.00  0.00    -0.363 C  
BRANCH  19  20
HETATM   20  C   UNL     1     -12.186  13.958  69.386  1.00  0.00    -0.338 C  
BRANCH  20  21
HETATM   21  C   UNL     1     -11.192  14.809  70.119  1.00  0.00    -0.256 C  
HETATM   22  C   UNL     1     -11.484  15.552  71.198  1.00  0.00    -0.442 C  
BRANCH  22  23
HETATM   23  C   UNL     1     -12.839  15.690  71.822  1.00  0.00    -0.530 C  
HETATM   24  C   UNL     1     -13.067  14.651  72.905  1.00  0.00    -0.609 C  
ENDBRANCH  22  23
ENDBRANCH  20  21
ENDBRANCH  19  20
ENDBRANCH  17  18
ENDBRANCH  16  17
ENDBRANCH  14  15
ENDBRANCH  13  14
ENDBRANCH  11  12
ENDBRANCH  10  11
ENDBRANCH   8   9
ENDBRANCH   7   8
ENDBRANCH   6   7
ENDBRANCH   4   6
ENDBRANCH   3   4
ENDBRANCH   2   3
TORSDOF 15
ENDMDL
MODEL      261
REMARK 921   NORMALIZED FREE ENERGY PREDICTED BY IDOCK:   -3.71 KCAL/MOL
REMARK 922        TOTAL FREE ENERGY PREDICTED BY IDOCK:   -9.51 KCAL/MOL
REMARK 923 INTER-LIGAND FREE ENERGY PREDICTED BY IDOCK:   -7.63 KCAL/MOL
REMARK 924 INTRA-LIGAND FREE ENERGY PREDICTED BY IDOCK:   -1.88 KCAL/MOL
REMARK 927      BINDING AFFINITY PREDICTED BY RF-SCORE:    0.00 PKD
ROOT
HETATM    1  C   UNL     1      -8.504   7.458  72.741  1.00  0.00    -0.141 C  
HETATM    2  C   UNL     1      -9.234   6.743  71.618  1.00  0.00    -0.144 C  
ENDROOT
BRANCH   2   3
HETATM    3  O   UNL     1     -10.565   6.470  72.074  1.00  0.00    -0.211 OA 
BRANCH   3   4
HETATM    4  C   UNL     1     -11.542   7.069  71.338  1.00  0.00    -0.292 C  
HETATM    5  O   UNL     1     -11.936   6.696  70.245  1.00  0.00    -0.387 OA 
BRANCH   4   6
HETATM    6  C   UNL     1     -12.126   8.199  72.141  1.00  0.00    -0.408 C  
BRANCH   6   7
HETATM    7  C   UNL     1     -11.661   9.546  71.580  1.00  0.00    -0.465 C  
BRANCH   7   8
HETATM    8  C   UNL     1     -12.747  10.230  70.764  1.00  0.00    -0.434 C  
BRANCH   8   9
HETATM    9  C   UNL     1     -12.658  11.734  70.839  1.00  0.00    -0.384 C  
HETATM   10  C   UNL     1     -11.926  12.511  70.024  1.00  0.00    -0.372 C  
BRANCH  10  11
HETATM   11  C   UNL     1     -10.960  11.987  69.012  1.00  0.00    -0.260 C  
BRANCH  11  12
HETATM   12  C   UNL     1     -11.543  11.702  67.663  1.00  0.00    -0.349 C  
HETATM   13  C   UNL     1     -11.799  12.655  66.748  1.00  0.00    -0.440 C  
BRANCH  13  14
HETATM   14  C   UNL     1     -11.561  14.145  66.853  1.00  0.00    -0.410 C  
BRANCH  14  15
HETATM   15  C   UNL     1     -10.136  14.587  66.636  1.00  0.00    -0.275 C  
HETATM   16  C   UNL     1      -9.407  15.341  67.472  1.00  0.00    -0.204 C  
BRANCH  16  17
HETATM   17  C   UNL     1      -9.942  16.024  68.688  1.00  0.00    -0.220 C  
BRANCH  17  18
HETATM   18  C   UNL     1     -10.726  17.236  68.264  1.00  0.00    -0.349 C  
HETATM   19  C   UNL     1     -10.262  18.494  68.304  1.00  0.00    -0.412 C  
BRANCH  19  20
HETATM   20  C   UNL     1      -8.908  18.879  68.799  1.00  0.00    -0.331 C  
BRANCH  20  21
HETATM   21  C   UNL     1      -8.188  19.781  67.843  1.00  0.00    -0.336 C  
HETATM   22  C   UNL     1      -7.668  19.380  66.672  1.00  0.00    -0.280 C  
BRANCH  22  23
HETATM   23  C   UNL     1      -7.681  17.977  66.146  1.00  0.00    -0.266 C  
HETATM   24  C   UNL     1      -6.392  17.244  66.473  1.00  0.00    -0.263 C  
ENDBRANCH  22  23
ENDBRANCH  20  21
ENDBRANCH  19  20
ENDBRANCH  17  18
ENDBRANCH  16  17
ENDBRANCH  14  15
ENDBRANCH  13  14
ENDBRANCH  11  12
ENDBRANCH  10  11
ENDBRANCH   8   9
ENDBRANCH   7   8
ENDBRANCH   6   7
ENDBRANCH   4   6
ENDBRANCH   3   4
ENDBRANCH   2   3
TORSDOF 15
ENDMDL
MODEL      262
REMARK 921   NORMALIZED FREE ENERGY PREDICTED BY IDOCK:   -3.70 KCAL/MOL
REMARK 922        TOTAL FREE ENERGY PREDICTED BY IDOCK:   -9.50 KCAL/MOL
REMARK 923 INTER-LIGAND FREE ENERGY PREDICTED BY IDOCK:   -7.22 KCAL/MOL
REMARK 924 INTRA-LIGAND FREE ENERGY PREDICTED BY IDOCK:   -2.28 KCAL/MOL
REMARK 927      BINDING AFFINITY PREDICTED BY RF-SCORE:    0.00 PKD
ROOT
HETATM    1  C   UNL     1     -11.419  15.037  68.700  1.00  0.00    -0.329 C  
HETATM    2  C   UNL     1     -12.281  13.974  69.356  1.00  0.00    -0.292 C  
ENDROOT
BRANCH   2   3
HETATM    3  O   UNL     1     -11.418  12.901  69.751  1.00  0.00    -0.228 OA 
BRANCH   3   4
HETATM    4  C   UNL     1     -11.841  11.668  69.357  1.00  0.00    -0.342 C  
HETATM    5  O   UNL     1     -12.165  11.358  68.222  1.00  0.00    -0.588 OA 
BRANCH   4   6
HETATM    6  C   UNL     1     -11.740  10.727  70.527  1.00  0.00    -0.449 C  
BRANCH   6   7
HETATM    7  C   UNL     1     -12.997  10.825  71.397  1.00  0.00    -0.535 C  
BRANCH   7   8
HETATM    8  C   UNL     1     -13.148   9.624  72.318  1.00  0.00    -0.468 C  
BRANCH   8   9
HETATM    9  C   UNL     1     -14.085   8.584  71.754  1.00  0.00    -0.515 C  
HETATM   10  C   UNL     1     -13.753   7.318  71.456  1.00  0.00    -0.451 C  
BRANCH  10  11
HETATM   11  C   UNL     1     -12.357   6.789  71.489  1.00  0.00    -0.407 C  
BRANCH  11  12
HETATM   12  C   UNL     1     -12.086   5.773  72.556  1.00  0.00    -0.084 C  
HETATM   13  C   UNL     1     -10.859   5.519  73.045  1.00  0.00    -0.316 C  
BRANCH  13  14
HETATM   14  C   UNL     1      -9.545   6.167  72.668  1.00  0.00    -0.160 C  
BRANCH  14  15
HETATM   15  C   UNL     1      -9.477   7.657  72.882  1.00  0.00    -0.262 C  
HETATM   16  C   UNL     1      -9.074   8.568  71.983  1.00  0.00    -0.317 C  
BRANCH  16  17
HETATM   17  C   UNL     1      -8.452   8.244  70.664  1.00  0.00    -0.131 C  
BRANCH  17  18
HETATM   18  C   UNL     1      -9.541   7.973  69.662  1.00  0.00    -0.168 C  
HETATM   19  C   UNL     1      -9.712   8.659  68.522  1.00  0.00    -0.174 C  
BRANCH  19  20
HETATM   20  C   UNL     1      -8.864   9.809  68.092  1.00  0.00    -0.119 C  
BRANCH  20  21
HETATM   21  C   UNL     1      -8.028   9.482  66.892  1.00  0.00    -0.109 C  
HETATM   22  C   UNL     1      -8.162  10.074  65.694  1.00  0.00    -0.143 C  
BRANCH  22  23
HETATM   23  C   UNL     1      -9.178  11.117  65.345  1.00  0.00    -0.225 C  
HETATM   24  C   UNL     1     -10.092  10.657  64.224  1.00  0.00    -0.411 C  
ENDBRANCH  22  23
ENDBRANCH  20  21
ENDBRANCH  19  20
ENDBRANCH  17  18
ENDBRANCH  16  17
ENDBRANCH  14  15
ENDBRANCH  13  14
ENDBRANCH  11  12
ENDBRANCH  10  11
ENDBRANCH   8   9
ENDBRANCH   7   8
ENDBRANCH   6   7
ENDBRANCH   4   6
ENDBRANCH   3   4
ENDBRANCH   2   3
TORSDOF 15
ENDMDL
MODEL      263
REMARK 921   NORMALIZED FREE ENERGY PREDICTED BY IDOCK:   -3.70 KCAL/MOL
REMARK 922        TOTAL FREE ENERGY PREDICTED BY IDOCK:   -9.50 KCAL/MOL
REMARK 923 INTER-LIGAND FREE ENERGY PREDICTED BY IDOCK:   -6.90 KCAL/MOL
REMARK 924 INTRA-LIGAND FREE ENERGY PREDICTED BY IDOCK:   -2.60 KCAL/MOL
REMARK 927      BINDING AFFINITY PREDICTED BY RF-SCORE:    0.00 PKD
ROOT
HETATM    1  C   UNL     1     -11.124  16.129  70.172  1.00  0.00    -0.373 C  
HETATM    2  C   UNL     1     -11.745  15.824  71.524  1.00  0.00    -0.453 C  
ENDROOT
BRANCH   2   3
HETATM    3  O   UNL     1     -12.308  14.509  71.452  1.00  0.00    -0.323 OA 
BRANCH   3   4
HETATM    4  C   UNL     1     -13.497  14.374  72.104  1.00  0.00    -0.417 C  
HETATM    5  O   UNL     1     -14.223  15.290  72.455  1.00  0.00    -0.523 OA 
BRANCH   4   6
HETATM    6  C   UNL     1     -13.816  12.909  72.225  1.00  0.00    -0.464 C  
BRANCH   6   7
HETATM    7  C   UNL     1     -12.605  12.065  71.817  1.00  0.00    -0.142 C  
BRANCH   7   8
HETATM    8  C   UNL     1     -13.012  10.808  71.064  1.00  0.00    -0.425 C  
BRANCH   8   9
HETATM    9  C   UNL     1     -12.580   9.550  71.776  1.00  0.00    -0.490 C  
HETATM   10  C   UNL     1     -11.420   8.903  71.577  1.00  0.00    -0.391 C  
BRANCH  10  11
HETATM   11  C   UNL     1     -10.444   9.246  70.500  1.00  0.00    -0.312 C  
BRANCH  11  12
HETATM   12  C   UNL     1      -9.305   8.287  70.344  1.00  0.00    -0.162 C  
HETATM   13  C   UNL     1      -8.032   8.674  70.142  1.00  0.00    -0.103 C  
BRANCH  13  14
HETATM   14  C   UNL     1      -7.481  10.079  70.045  1.00  0.00    -0.181 C  
BRANCH  14  15
HETATM   15  C   UNL     1      -6.420  10.285  68.994  1.00  0.00    -0.045 C  
HETATM   16  C   UNL     1      -6.462  11.177  67.993  1.00  0.00    -0.057 C  
BRANCH  16  17
HETATM   17  C   UNL     1      -7.653  12.005  67.641  1.00  0.00    -0.136 C  
BRANCH  17  18
HETATM   18  C   UNL     1      -8.791  11.094  67.266  1.00  0.00    -0.144 C  
HETATM   19  C   UNL     1     -10.074  11.306  67.593  1.00  0.00    -0.201 C  
BRANCH  19  20
HETATM   20  C   UNL     1     -10.560  12.462  68.401  1.00  0.00    -0.251 C  
BRANCH  20  21
HETATM   21  C   UNL     1     -11.599  13.264  67.677  1.00  0.00    -0.386 C  
HETATM   22  C   UNL     1     -11.334  14.109  66.668  1.00  0.00    -0.352 C  
BRANCH  22  23
HETATM   23  C   UNL     1      -9.973  14.422  66.126  1.00  0.00    -0.328 C  
HETATM   24  C   UNL     1      -9.203  15.352  67.046  1.00  0.00    -0.242 C  
ENDBRANCH  22  23
ENDBRANCH  20  21
ENDBRANCH  19  20
ENDBRANCH  17  18
ENDBRANCH  16  17
ENDBRANCH  14  15
ENDBRANCH  13  14
ENDBRANCH  11  12
ENDBRANCH  10  11
ENDBRANCH   8   9
ENDBRANCH   7   8
ENDBRANCH   6   7
ENDBRANCH   4   6
ENDBRANCH   3   4
ENDBRANCH   2   3
TORSDOF 15
ENDMDL
MODEL      264
REMARK 921   NORMALIZED FREE ENERGY PREDICTED BY IDOCK:   -3.69 KCAL/MOL
REMARK 922        TOTAL FREE ENERGY PREDICTED BY IDOCK:   -9.48 KCAL/MOL
REMARK 923 INTER-LIGAND FREE ENERGY PREDICTED BY IDOCK:   -7.15 KCAL/MOL
REMARK 924 INTRA-LIGAND FREE ENERGY PREDICTED BY IDOCK:   -2.32 KCAL/MOL
REMARK 927      BINDING AFFINITY PREDICTED BY RF-SCORE:    0.00 PKD
ROOT
HETATM    1  C   UNL     1     -12.010  11.041  70.429  1.00  0.00    -0.459 C  
HETATM    2  C   UNL     1     -11.527  10.775  69.014  1.00  0.00    -0.298 C  
ENDROOT
BRANCH   2   3
HETATM    3  O   UNL     1     -10.155  10.371  69.095  1.00  0.00    -0.200 OA 
BRANCH   3   4
HETATM    4  C   UNL     1      -9.409  10.702  68.004  1.00  0.00    -0.147 C  
HETATM    5  O   UNL     1      -9.672  10.409  66.849  1.00  0.00    -0.171 OA 
BRANCH   4   6
HETATM    6  C   UNL     1      -8.267  11.575  68.448  1.00  0.00    -0.152 C  
BRANCH   6   7
HETATM    7  C   UNL     1      -8.087  12.747  67.479  1.00  0.00    -0.180 C  
BRANCH   7   8
HETATM    8  C   UNL     1      -8.290  14.090  68.163  1.00  0.00    -0.164 C  
BRANCH   8   9
HETATM    9  C   UNL     1      -7.070  14.530  68.934  1.00  0.00    -0.118 C  
HETATM   10  C   UNL     1      -6.843  15.774  69.385  1.00  0.00    -0.190 C  
BRANCH  10  11
HETATM   11  C   UNL     1      -7.696  16.954  69.053  1.00  0.00    -0.199 C  
BRANCH  11  12
HETATM   12  C   UNL     1      -6.964  18.255  68.931  1.00  0.00    -0.289 C  
HETATM   13  C   UNL     1      -7.570  19.424  68.654  1.00  0.00    -0.398 C  
BRANCH  13  14
HETATM   14  C   UNL     1      -9.042  19.689  68.429  1.00  0.00    -0.386 C  
BRANCH  14  15
HETATM   15  C   UNL     1      -9.430  20.003  67.007  1.00  0.00    -0.523 C  
HETATM   16  C   UNL     1     -10.244  19.272  66.229  1.00  0.00    -0.546 C  
BRANCH  16  17
HETATM   17  C   UNL     1     -10.768  17.919  66.583  1.00  0.00    -0.137 C  
BRANCH  17  18
HETATM   18  C   UNL     1      -9.787  16.877  66.119  1.00  0.00    -0.318 C  
HETATM   19  C   UNL     1     -10.129  15.700  65.575  1.00  0.00    -0.395 C  
BRANCH  19  20
HETATM   20  C   UNL     1     -11.534  15.239  65.374  1.00  0.00    -0.184 C  
BRANCH  20  21
HETATM   21  C   UNL     1     -11.785  13.894  65.988  1.00  0.00    -0.381 C  
HETATM   22  C   UNL     1     -11.759  12.737  65.309  1.00  0.00    -0.403 C  
BRANCH  22  23
HETATM   23  C   UNL     1     -11.519  12.594  63.837  1.00  0.00    -0.509 C  
HETATM   24  C   UNL     1     -10.729  11.338  63.517  1.00  0.00    -0.408 C  
ENDBRANCH  22  23
ENDBRANCH  20  21
ENDBRANCH  19  20
ENDBRANCH  17  18
ENDBRANCH  16  17
ENDBRANCH  14  15
ENDBRANCH  13  14
ENDBRANCH  11  12
ENDBRANCH  10  11
ENDBRANCH   8   9
ENDBRANCH   7   8
ENDBRANCH   6   7
ENDBRANCH   4   6
ENDBRANCH   3   4
ENDBRANCH   2   3
TORSDOF 15
ENDMDL
MODEL      265
REMARK 921   NORMALIZED FREE ENERGY PREDICTED BY IDOCK:   -3.68 KCAL/MOL
REMARK 922        TOTAL FREE ENERGY PREDICTED BY IDOCK:   -9.47 KCAL/MOL
REMARK 923 INTER-LIGAND FREE ENERGY PREDICTED BY IDOCK:   -7.34 KCAL/MOL
REMARK 924 INTRA-LIGAND FREE ENERGY PREDICTED BY IDOCK:   -2.13 KCAL/MOL
REMARK 927      BINDING AFFINITY PREDICTED BY RF-SCORE:    0.00 PKD
ROOT
HETATM    1  C   UNL     1      -7.616   6.801  71.629  1.00  0.00    -0.088 C  
HETATM    2  C   UNL     1      -8.879   6.110  72.111  1.00  0.00    -0.138 C  
ENDROOT
BRANCH   2   3
HETATM    3  O   UNL     1      -9.987   6.719  71.437  1.00  0.00    -0.180 OA 
BRANCH   3   4
HETATM    4  C   UNL     1     -10.743   7.534  72.226  1.00  0.00    -0.250 C  
HETATM    5  O   UNL     1     -10.784   7.503  73.445  1.00  0.00    -0.387 OA 
BRANCH   4   6
HETATM    6  C   UNL     1     -11.434   8.544  71.352  1.00  0.00    -0.344 C  
BRANCH   6   7
HETATM    7  C   UNL     1     -10.771   8.596  69.972  1.00  0.00    -0.233 C  
BRANCH   7   8
HETATM    8  C   UNL     1     -10.436  10.019  69.553  1.00  0.00    -0.260 C  
BRANCH   8   9
HETATM    9  C   UNL     1     -11.351  11.034  70.192  1.00  0.00    -0.335 C  
HETATM   10  C   UNL     1     -11.977  12.032  69.547  1.00  0.00    -0.346 C  
BRANCH  10  11
HETATM   11  C   UNL     1     -11.734  12.386  68.116  1.00  0.00    -0.408 C  
BRANCH  11  12
HETATM   12  C   UNL     1     -12.008  13.814  67.758  1.00  0.00    -0.391 C  
HETATM   13  C   UNL     1     -11.203  14.549  66.970  1.00  0.00    -0.342 C  
BRANCH  13  14
HETATM   14  C   UNL     1      -9.917  14.132  66.291  1.00  0.00    -0.315 C  
BRANCH  14  15
HETATM   15  C   UNL     1      -8.744  13.911  67.212  1.00  0.00    -0.225 C  
HETATM   16  C   UNL     1      -8.007  14.868  67.796  1.00  0.00    -0.161 C  
BRANCH  16  17
HETATM   17  C   UNL     1      -8.111  16.326  67.492  1.00  0.00    -0.165 C  
BRANCH  17  18
HETATM   18  C   UNL     1      -8.727  17.030  68.671  1.00  0.00    -0.261 C  
HETATM   19  C   UNL     1      -9.822  17.802  68.608  1.00  0.00    -0.359 C  
BRANCH  19  20
HETATM   20  C   UNL     1     -10.576  18.099  67.355  1.00  0.00    -0.406 C  
BRANCH  20  21
HETATM   21  C   UNL     1     -10.829  19.565  67.178  1.00  0.00    -0.555 C  
HETATM   22  C   UNL     1      -9.940  20.429  66.665  1.00  0.00    -0.492 C  
BRANCH  22  23
HETATM   23  C   UNL     1      -8.547  20.091  66.227  1.00  0.00    -0.337 C  
HETATM   24  C   UNL     1      -7.522  20.460  67.283  1.00  0.00    -0.362 C  
ENDBRANCH  22  23
ENDBRANCH  20  21
ENDBRANCH  19  20
ENDBRANCH  17  18
ENDBRANCH  16  17
ENDBRANCH  14  15
ENDBRANCH  13  14
ENDBRANCH  11  12
ENDBRANCH  10  11
ENDBRANCH   8   9
ENDBRANCH   7   8
ENDBRANCH   6   7
ENDBRANCH   4   6
ENDBRANCH   3   4
ENDBRANCH   2   3
TORSDOF 15
ENDMDL
MODEL      266
REMARK 921   NORMALIZED FREE ENERGY PREDICTED BY IDOCK:   -3.68 KCAL/MOL
REMARK 922        TOTAL FREE ENERGY PREDICTED BY IDOCK:   -9.47 KCAL/MOL
REMARK 923 INTER-LIGAND FREE ENERGY PREDICTED BY IDOCK:   -8.13 KCAL/MOL
REMARK 924 INTRA-LIGAND FREE ENERGY PREDICTED BY IDOCK:   -1.34 KCAL/MOL
REMARK 927      BINDING AFFINITY PREDICTED BY RF-SCORE:    0.00 PKD
ROOT
HETATM    1  C   UNL     1      -5.838  16.261  69.712  1.00  0.00    -0.182 C  
HETATM    2  C   UNL     1      -5.944  17.528  68.882  1.00  0.00    -0.186 C  
ENDROOT
BRANCH   2   3
HETATM    3  O   UNL     1      -6.154  18.619  69.785  1.00  0.00    -0.257 OA 
BRANCH   3   4
HETATM    4  C   UNL     1      -6.581  19.767  69.186  1.00  0.00    -0.342 C  
HETATM    5  O   UNL     1      -5.914  20.777  69.034  1.00  0.00    -0.354 OA 
BRANCH   4   6
HETATM    6  C   UNL     1      -7.969  19.544  68.653  1.00  0.00    -0.381 C  
BRANCH   6   7
HETATM    7  C   UNL     1      -8.125  20.210  67.282  1.00  0.00    -0.369 C  
BRANCH   7   8
HETATM    8  C   UNL     1      -9.584  20.342  66.874  1.00  0.00    -0.546 C  
BRANCH   8   9
HETATM    9  C   UNL     1     -10.488  19.444  67.683  1.00  0.00    -0.573 C  
HETATM   10  C   UNL     1     -10.774  18.164  67.392  1.00  0.00    -0.355 C  
BRANCH  10  11
HETATM   11  C   UNL     1     -10.363  17.480  66.129  1.00  0.00    -0.330 C  
BRANCH  11  12
HETATM   12  C   UNL     1      -9.270  16.467  66.280  1.00  0.00    -0.350 C  
HETATM   13  C   UNL     1      -9.399  15.178  65.917  1.00  0.00    -0.279 C  
BRANCH  13  14
HETATM   14  C   UNL     1     -10.595  14.492  65.297  1.00  0.00    -0.400 C  
BRANCH  14  15
HETATM   15  C   UNL     1     -11.848  14.499  66.134  1.00  0.00    -0.344 C  
HETATM   16  C   UNL     1     -11.998  13.925  67.338  1.00  0.00    -0.436 C  
BRANCH  16  17
HETATM   17  C   UNL     1     -10.996  13.023  67.981  1.00  0.00    -0.274 C  
BRANCH  17  18
HETATM   18  C   UNL     1     -11.260  11.607  67.545  1.00  0.00    -0.355 C  
HETATM   19  C   UNL     1     -11.768  10.651  68.337  1.00  0.00    -0.168 C  
BRANCH  19  20
HETATM   20  C   UNL     1     -12.121  10.843  69.774  1.00  0.00    -0.409 C  
BRANCH  20  21
HETATM   21  C   UNL     1     -11.136  10.189  70.694  1.00  0.00    -0.397 C  
HETATM   22  C   UNL     1     -11.441   9.198  71.547  1.00  0.00    -0.437 C  
BRANCH  22  23
HETATM   23  C   UNL     1     -12.804   8.612  71.751  1.00  0.00    -0.397 C  
HETATM   24  C   UNL     1     -12.731   7.173  72.229  1.00  0.00    -0.009 C  
ENDBRANCH  22  23
ENDBRANCH  20  21
ENDBRANCH  19  20
ENDBRANCH  17  18
ENDBRANCH  16  17
ENDBRANCH  14  15
ENDBRANCH  13  14
ENDBRANCH  11  12
ENDBRANCH  10  11
ENDBRANCH   8   9
ENDBRANCH   7   8
ENDBRANCH   6   7
ENDBRANCH   4   6
ENDBRANCH   3   4
ENDBRANCH   2   3
TORSDOF 15
ENDMDL
MODEL      267
REMARK 921   NORMALIZED FREE ENERGY PREDICTED BY IDOCK:   -3.68 KCAL/MOL
REMARK 922        TOTAL FREE ENERGY PREDICTED BY IDOCK:   -9.46 KCAL/MOL
REMARK 923 INTER-LIGAND FREE ENERGY PREDICTED BY IDOCK:   -7.63 KCAL/MOL
REMARK 924 INTRA-LIGAND FREE ENERGY PREDICTED BY IDOCK:   -1.84 KCAL/MOL
REMARK 927      BINDING AFFINITY PREDICTED BY RF-SCORE:    0.00 PKD
ROOT
HETATM    1  C   UNL     1      -9.084   8.009  73.257  1.00  0.00    -0.349 C  
HETATM    2  C   UNL     1     -10.173   7.147  72.646  1.00  0.00    -0.200 C  
ENDROOT
BRANCH   2   3
HETATM    3  O   UNL     1     -11.427   7.791  72.901  1.00  0.00    -0.378 OA 
BRANCH   3   4
HETATM    4  C   UNL     1     -12.180   8.011  71.787  1.00  0.00    -0.316 C  
HETATM    5  O   UNL     1     -12.678   7.147  71.084  1.00  0.00    -0.367 OA 
BRANCH   4   6
HETATM    6  C   UNL     1     -12.382   9.493  71.628  1.00  0.00    -0.480 C  
BRANCH   6   7
HETATM    7  C   UNL     1     -11.300  10.083  70.717  1.00  0.00    -0.439 C  
BRANCH   7   8
HETATM    8  C   UNL     1     -11.830  11.231  69.872  1.00  0.00    -0.436 C  
BRANCH   8   9
HETATM    9  C   UNL     1     -12.454  12.318  70.712  1.00  0.00    -0.356 C  
HETATM   10  C   UNL     1     -12.216  13.633  70.584  1.00  0.00    -0.434 C  
BRANCH  10  11
HETATM   11  C   UNL     1     -11.169  14.212  69.690  1.00  0.00    -0.241 C  
BRANCH  11  12
HETATM   12  C   UNL     1     -11.464  15.584  69.168  1.00  0.00    -0.356 C  
HETATM   13  C   UNL     1     -11.372  15.920  67.868  1.00  0.00    -0.252 C  
BRANCH  13  14
HETATM   14  C   UNL     1     -10.986  15.044  66.697  1.00  0.00    -0.325 C  
BRANCH  14  15
HETATM   15  C   UNL     1     -12.136  14.386  65.979  1.00  0.00    -0.370 C  
HETATM   16  C   UNL     1     -12.344  13.065  65.864  1.00  0.00    -0.432 C  
BRANCH  16  17
HETATM   17  C   UNL     1     -11.371  12.011  66.280  1.00  0.00    -0.415 C  
BRANCH  17  18
HETATM   18  C   UNL     1     -10.651  11.499  65.062  1.00  0.00    -0.354 C  
HETATM   19  C   UNL     1      -9.969  10.345  65.011  1.00  0.00    -0.399 C  
BRANCH  19  20
HETATM   20  C   UNL     1      -9.801   9.412  66.163  1.00  0.00    -0.356 C  
BRANCH  20  21
HETATM   21  C   UNL     1      -8.676   9.821  67.066  1.00  0.00    -0.141 C  
HETATM   22  C   UNL     1      -7.387   9.861  66.696  1.00  0.00    -0.099 C  
BRANCH  22  23
HETATM   23  C   UNL     1      -6.852   9.473  65.351  1.00  0.00    -0.086 C  
HETATM   24  C   UNL     1      -6.137   8.135  65.398  1.00  0.00    -0.045 C  
ENDBRANCH  22  23
ENDBRANCH  20  21
ENDBRANCH  19  20
ENDBRANCH  17  18
ENDBRANCH  16  17
ENDBRANCH  14  15
ENDBRANCH  13  14
ENDBRANCH  11  12
ENDBRANCH  10  11
ENDBRANCH   8   9
ENDBRANCH   7   8
ENDBRANCH   6   7
ENDBRANCH   4   6
ENDBRANCH   3   4
ENDBRANCH   2   3
TORSDOF 15
ENDMDL
MODEL      268
REMARK 921   NORMALIZED FREE ENERGY PREDICTED BY IDOCK:   -3.67 KCAL/MOL
REMARK 922        TOTAL FREE ENERGY PREDICTED BY IDOCK:   -9.45 KCAL/MOL
REMARK 923 INTER-LIGAND FREE ENERGY PREDICTED BY IDOCK:   -7.63 KCAL/MOL
REMARK 924 INTRA-LIGAND FREE ENERGY PREDICTED BY IDOCK:   -1.81 KCAL/MOL
REMARK 927      BINDING AFFINITY PREDICTED BY RF-SCORE:    0.00 PKD
ROOT
HETATM    1  C   UNL     1     -12.621  16.254  73.455  1.00  0.00    -0.589 C  
HETATM    2  C   UNL     1     -12.642  14.736  73.420  1.00  0.00    -0.435 C  
ENDROOT
BRANCH   2   3
HETATM    3  O   UNL     1     -13.617  14.340  72.448  1.00  0.00    -0.417 OA 
BRANCH   3   4
HETATM    4  C   UNL     1     -13.452  14.915  71.224  1.00  0.00    -0.430 C  
HETATM    5  O   UNL     1     -14.308  15.529  70.607  1.00  0.00    -0.157 OA 
BRANCH   4   6
HETATM    6  C   UNL     1     -12.015  14.761  70.808  1.00  0.00    -0.371 C  
BRANCH   6   7
HETATM    7  C   UNL     1     -11.930  14.241  69.370  1.00  0.00    -0.381 C  
BRANCH   7   8
HETATM    8  C   UNL     1     -10.856  13.176  69.210  1.00  0.00    -0.055 C  
BRANCH   8   9
HETATM    9  C   UNL     1     -11.428  11.846  68.783  1.00  0.00    -0.347 C  
HETATM   10  C   UNL     1     -12.093  10.994  69.579  1.00  0.00    -0.400 C  
BRANCH  10  11
HETATM   11  C   UNL     1     -12.229  11.162  71.057  1.00  0.00    -0.438 C  
BRANCH  11  12
HETATM   12  C   UNL     1     -13.363  10.408  71.681  1.00  0.00    -0.432 C  
HETATM   13  C   UNL     1     -13.265   9.133  72.099  1.00  0.00    -0.524 C  
BRANCH  13  14
HETATM   14  C   UNL     1     -12.061   8.219  72.053  1.00  0.00    -0.402 C  
BRANCH  14  15
HETATM   15  C   UNL     1     -12.295   6.877  71.408  1.00  0.00    -0.421 C  
HETATM   16  C   UNL     1     -11.733   6.438  70.271  1.00  0.00    -0.389 C  
BRANCH  16  17
HETATM   17  C   UNL     1     -10.910   7.277  69.350  1.00  0.00    -0.206 C  
BRANCH  17  18
HETATM   18  C   UNL     1      -9.706   6.488  68.911  1.00  0.00    -0.134 C  
HETATM   19  C   UNL     1      -8.611   6.293  69.661  1.00  0.00    -0.133 C  
BRANCH  19  20
HETATM   20  C   UNL     1      -8.414   6.852  71.030  1.00  0.00    -0.131 C  
BRANCH  20  21
HETATM   21  C   UNL     1      -8.541   5.806  72.096  1.00  0.00    -0.129 C  
HETATM   22  C   UNL     1      -8.877   6.061  73.370  1.00  0.00    -0.126 C  
BRANCH  22  23
HETATM   23  C   UNL     1      -9.139   7.419  73.948  1.00  0.00    -0.298 C  
HETATM   24  C   UNL     1      -7.857   8.087  74.411  1.00  0.00    -0.287 C  
ENDBRANCH  22  23
ENDBRANCH  20  21
ENDBRANCH  19  20
ENDBRANCH  17  18
ENDBRANCH  16  17
ENDBRANCH  14  15
ENDBRANCH  13  14
ENDBRANCH  11  12
ENDBRANCH  10  11
ENDBRANCH   8   9
ENDBRANCH   7   8
ENDBRANCH   6   7
ENDBRANCH   4   6
ENDBRANCH   3   4
ENDBRANCH   2   3
TORSDOF 15
ENDMDL
MODEL      269
REMARK 921   NORMALIZED FREE ENERGY PREDICTED BY IDOCK:   -3.66 KCAL/MOL
REMARK 922        TOTAL FREE ENERGY PREDICTED BY IDOCK:   -9.42 KCAL/MOL
REMARK 923 INTER-LIGAND FREE ENERGY PREDICTED BY IDOCK:   -7.11 KCAL/MOL
REMARK 924 INTRA-LIGAND FREE ENERGY PREDICTED BY IDOCK:   -2.31 KCAL/MOL
REMARK 927      BINDING AFFINITY PREDICTED BY RF-SCORE:    0.00 PKD
ROOT
HETATM    1  C   UNL     1      -9.556   5.583  68.511  1.00  0.00    -0.162 C  
HETATM    2  C   UNL     1     -10.568   5.396  69.627  1.00  0.00    -0.258 C  
ENDROOT
BRANCH   2   3
HETATM    3  O   UNL     1     -10.156   4.259  70.396  1.00  0.00    -0.194 OA 
BRANCH   3   4
HETATM    4  C   UNL     1     -10.168   4.460  71.743  1.00  0.00    -0.131 C  
HETATM    5  O   UNL     1      -9.545   3.806  72.564  1.00  0.00    -0.122 OA 
BRANCH   4   6
HETATM    6  C   UNL     1     -10.992   5.683  72.041  1.00  0.00    -0.302 C  
BRANCH   6   7
HETATM    7  C   UNL     1     -10.865   6.062  73.519  1.00  0.00    -0.222 C  
BRANCH   7   8
HETATM    8  C   UNL     1     -10.012   7.305  73.719  1.00  0.00    -0.368 C  
BRANCH   8   9
HETATM    9  C   UNL     1      -8.548   6.975  73.880  1.00  0.00    -0.181 C  
HETATM   10  C   UNL     1      -7.630   7.016  72.901  1.00  0.00    -0.087 C  
BRANCH  10  11
HETATM   11  C   UNL     1      -7.952   7.243  71.460  1.00  0.00    -0.100 C  
BRANCH  11  12
HETATM   12  C   UNL     1      -7.851   8.666  71.001  1.00  0.00    -0.128 C  
HETATM   13  C   UNL     1      -8.893   9.365  70.517  1.00  0.00    -0.287 C  
BRANCH  13  14
HETATM   14  C   UNL     1     -10.327   8.915  70.344  1.00  0.00    -0.240 C  
BRANCH  14  15
HETATM   15  C   UNL     1     -11.321   9.554  71.279  1.00  0.00    -0.446 C  
HETATM   16  C   UNL     1     -12.211  10.504  70.957  1.00  0.00    -0.505 C  
BRANCH  16  17
HETATM   17  C   UNL     1     -12.253  11.223  69.648  1.00  0.00    -0.340 C  
BRANCH  17  18
HETATM   18  C   UNL     1     -12.025  12.691  69.887  1.00  0.00    -0.365 C  
HETATM   19  C   UNL     1     -11.636  13.562  68.944  1.00  0.00    -0.364 C  
BRANCH  19  20
HETATM   20  C   UNL     1     -11.346  13.200  67.527  1.00  0.00    -0.336 C  
BRANCH  20  21
HETATM   21  C   UNL     1     -12.131  14.029  66.555  1.00  0.00    -0.488 C  
HETATM   22  C   UNL     1     -12.241  13.757  65.246  1.00  0.00    -0.461 C  
BRANCH  22  23
HETATM   23  C   UNL     1     -11.577  12.620  64.532  1.00  0.00    -0.399 C  
HETATM   24  C   UNL     1     -12.457  12.058  63.430  1.00  0.00    -0.625 C  
ENDBRANCH  22  23
ENDBRANCH  20  21
ENDBRANCH  19  20
ENDBRANCH  17  18
ENDBRANCH  16  17
ENDBRANCH  14  15
ENDBRANCH  13  14
ENDBRANCH  11  12
ENDBRANCH  10  11
ENDBRANCH   8   9
ENDBRANCH   7   8
ENDBRANCH   6   7
ENDBRANCH   4   6
ENDBRANCH   3   4
ENDBRANCH   2   3
TORSDOF 15
ENDMDL
MODEL      270
REMARK 921   NORMALIZED FREE ENERGY PREDICTED BY IDOCK:   -3.66 KCAL/MOL
REMARK 922        TOTAL FREE ENERGY PREDICTED BY IDOCK:   -9.41 KCAL/MOL
REMARK 923 INTER-LIGAND FREE ENERGY PREDICTED BY IDOCK:   -6.64 KCAL/MOL
REMARK 924 INTRA-LIGAND FREE ENERGY PREDICTED BY IDOCK:   -2.77 KCAL/MOL
REMARK 927      BINDING AFFINITY PREDICTED BY RF-SCORE:    0.00 PKD
ROOT
HETATM    1  C   UNL     1     -10.516  12.139  68.539  1.00  0.00    -0.248 C  
HETATM    2  C   UNL     1     -11.409  10.944  68.259  1.00  0.00    -0.308 C  
ENDROOT
BRANCH   2   3
HETATM    3  O   UNL     1     -10.706   9.771  68.684  1.00  0.00    -0.218 OA 
BRANCH   3   4
HETATM    4  C   UNL     1      -9.683   9.403  67.863  1.00  0.00    -0.152 C  
HETATM    5  O   UNL     1      -8.519   9.256  68.202  1.00  0.00    -0.119 OA 
BRANCH   4   6
HETATM    6  C   UNL     1     -10.242   9.107  66.499  1.00  0.00    -0.322 C  
BRANCH   6   7
HETATM    7  C   UNL     1      -9.131   9.161  65.445  1.00  0.00    -0.271 C  
BRANCH   7   8
HETATM    8  C   UNL     1      -8.838  10.584  64.998  1.00  0.00    -0.207 C  
BRANCH   8   9
HETATM    9  C   UNL     1      -9.174  10.807  63.543  1.00  0.00    -0.275 C  
HETATM   10  C   UNL     1     -10.314  11.347  63.083  1.00  0.00    -0.357 C  
BRANCH  10  11
HETATM   11  C   UNL     1     -11.495  11.666  63.939  1.00  0.00    -0.433 C  
BRANCH  11  12
HETATM   12  C   UNL     1     -12.273  12.878  63.526  1.00  0.00    -0.595 C  
HETATM   13  C   UNL     1     -12.268  14.033  64.215  1.00  0.00    -0.453 C  
BRANCH  13  14
HETATM   14  C   UNL     1     -11.513  14.368  65.482  1.00  0.00    -0.340 C  
BRANCH  14  15
HETATM   15  C   UNL     1     -10.083  14.801  65.286  1.00  0.00    -0.388 C  
HETATM   16  C   UNL     1      -9.473  15.820  65.909  1.00  0.00    -0.377 C  
BRANCH  16  17
HETATM   17  C   UNL     1     -10.161  16.818  66.781  1.00  0.00    -0.304 C  
BRANCH  17  18
HETATM   18  C   UNL     1      -9.127  17.586  67.559  1.00  0.00    -0.234 C  
HETATM   19  C   UNL     1      -8.440  17.094  68.600  1.00  0.00    -0.258 C  
BRANCH  19  20
HETATM   20  C   UNL     1      -8.618  15.722  69.158  1.00  0.00    -0.256 C  
BRANCH  20  21
HETATM   21  C   UNL     1      -7.359  15.189  69.772  1.00  0.00    -0.141 C  
HETATM   22  C   UNL     1      -6.408  14.529  69.093  1.00  0.00    -0.100 C  
BRANCH  22  23
HETATM   23  C   UNL     1      -6.459  14.179  67.637  1.00  0.00    -0.153 C  
HETATM   24  C   UNL     1      -7.060  12.804  67.411  1.00  0.00    -0.134 C  
ENDBRANCH  22  23
ENDBRANCH  20  21
ENDBRANCH  19  20
ENDBRANCH  17  18
ENDBRANCH  16  17
ENDBRANCH  14  15
ENDBRANCH  13  14
ENDBRANCH  11  12
ENDBRANCH  10  11
ENDBRANCH   8   9
ENDBRANCH   7   8
ENDBRANCH   6   7
ENDBRANCH   4   6
ENDBRANCH   3   4
ENDBRANCH   2   3
TORSDOF 15
ENDMDL
MODEL      271
REMARK 921   NORMALIZED FREE ENERGY PREDICTED BY IDOCK:   -3.65 KCAL/MOL
REMARK 922        TOTAL FREE ENERGY PREDICTED BY IDOCK:   -9.41 KCAL/MOL
REMARK 923 INTER-LIGAND FREE ENERGY PREDICTED BY IDOCK:   -7.94 KCAL/MOL
REMARK 924 INTRA-LIGAND FREE ENERGY PREDICTED BY IDOCK:   -1.47 KCAL/MOL
REMARK 927      BINDING AFFINITY PREDICTED BY RF-SCORE:    0.00 PKD
ROOT
HETATM    1  C   UNL     1      -9.031  10.683  64.330  1.00  0.00    -0.212 C  
HETATM    2  C   UNL     1     -10.483  10.888  63.938  1.00  0.00    -0.289 C  
ENDROOT
BRANCH   2   3
HETATM    3  O   UNL     1     -10.624  12.245  63.500  1.00  0.00    -0.436 OA 
BRANCH   3   4
HETATM    4  C   UNL     1     -11.822  12.813  63.814  1.00  0.00    -0.499 C  
HETATM    5  O   UNL     1     -12.918  12.365  63.520  1.00  0.00    -0.750 OA 
BRANCH   4   6
HETATM    6  C   UNL     1     -11.572  14.023  64.671  1.00  0.00    -0.400 C  
BRANCH   6   7
HETATM    7  C   UNL     1     -12.445  13.975  65.928  1.00  0.00    -0.513 C  
BRANCH   7   8
HETATM    8  C   UNL     1     -11.806  13.149  67.034  1.00  0.00    -0.435 C  
BRANCH   8   9
HETATM    9  C   UNL     1     -11.799  13.874  68.358  1.00  0.00    -0.409 C  
HETATM   10  C   UNL     1     -11.870  13.289  69.565  1.00  0.00    -0.388 C  
BRANCH  10  11
HETATM   11  C   UNL     1     -12.127  11.833  69.776  1.00  0.00    -0.338 C  
BRANCH  11  12
HETATM   12  C   UNL     1     -11.074  10.915  69.236  1.00  0.00    -0.305 C  
HETATM   13  C   UNL     1     -10.591   9.858  69.915  1.00  0.00    -0.312 C  
BRANCH  13  14
HETATM   14  C   UNL     1     -10.982   9.369  71.291  1.00  0.00    -0.440 C  
BRANCH  14  15
HETATM   15  C   UNL     1     -11.840   8.130  71.316  1.00  0.00    -0.317 C  
HETATM   16  C   UNL     1     -11.738   7.114  72.187  1.00  0.00    -0.322 C  
BRANCH  16  17
HETATM   17  C   UNL     1     -10.634   6.953  73.179  1.00  0.00    -0.330 C  
BRANCH  17  18
HETATM   18  C   UNL     1     -10.675   5.555  73.735  1.00  0.00    -0.300 C  
HETATM   19  C   UNL     1     -10.289   4.459  73.065  1.00  0.00    -0.241 C  
BRANCH  19  20
HETATM   20  C   UNL     1      -9.787   4.461  71.660  1.00  0.00    -0.255 C  
BRANCH  20  21
HETATM   21  C   UNL     1      -8.290   4.476  71.591  1.00  0.00    -0.105 C  
HETATM   22  C   UNL     1      -7.554   5.581  71.396  1.00  0.00    -0.103 C  
BRANCH  22  23
HETATM   23  C   UNL     1      -8.093   6.962  71.178  1.00  0.00    -0.110 C  
HETATM   24  C   UNL     1      -8.104   7.333  69.706  1.00  0.00    -0.128 C  
ENDBRANCH  22  23
ENDBRANCH  20  21
ENDBRANCH  19  20
ENDBRANCH  17  18
ENDBRANCH  16  17
ENDBRANCH  14  15
ENDBRANCH  13  14
ENDBRANCH  11  12
ENDBRANCH  10  11
ENDBRANCH   8   9
ENDBRANCH   7   8
ENDBRANCH   6   7
ENDBRANCH   4   6
ENDBRANCH   3   4
ENDBRANCH   2   3
TORSDOF 15
ENDMDL
MODEL      272
REMARK 921   NORMALIZED FREE ENERGY PREDICTED BY IDOCK:   -3.64 KCAL/MOL
REMARK 922        TOTAL FREE ENERGY PREDICTED BY IDOCK:   -9.39 KCAL/MOL
REMARK 923 INTER-LIGAND FREE ENERGY PREDICTED BY IDOCK:   -7.53 KCAL/MOL
REMARK 924 INTRA-LIGAND FREE ENERGY PREDICTED BY IDOCK:   -1.85 KCAL/MOL
REMARK 927      BINDING AFFINITY PREDICTED BY RF-SCORE:    0.00 PKD
ROOT
HETATM    1  C   UNL     1     -10.459  18.348  66.621  1.00  0.00    -0.415 C  
HETATM    2  C   UNL     1      -9.869  17.165  65.875  1.00  0.00    -0.155 C  
ENDROOT
BRANCH   2   3
HETATM    3  O   UNL     1     -10.842  16.113  65.896  1.00  0.00    -0.277 OA 
BRANCH   3   4
HETATM    4  C   UNL     1     -11.409  15.851  64.685  1.00  0.00    -0.322 C  
HETATM    5  O   UNL     1     -11.528  16.649  63.770  1.00  0.00    -1.015 OA 
BRANCH   4   6
HETATM    6  C   UNL     1     -11.767  14.391  64.627  1.00  0.00    -0.438 C  
BRANCH   6   7
HETATM    7  C   UNL     1     -11.345  13.688  65.921  1.00  0.00    -0.317 C  
BRANCH   7   8
HETATM    8  C   UNL     1     -11.353  12.174  65.776  1.00  0.00    -0.402 C  
BRANCH   8   9
HETATM    9  C   UNL     1     -11.637  11.476  67.084  1.00  0.00    -0.249 C  
HETATM   10  C   UNL     1     -10.956  10.426  67.568  1.00  0.00    -0.358 C  
BRANCH  10  11
HETATM   11  C   UNL     1      -9.907   9.684  66.805  1.00  0.00    -0.270 C  
BRANCH  11  12
HETATM   12  C   UNL     1      -8.593  10.391  66.677  1.00  0.00    -0.128 C  
HETATM   13  C   UNL     1      -7.884  10.837  67.730  1.00  0.00    -0.109 C  
BRANCH  13  14
HETATM   14  C   UNL     1      -8.217  10.725  69.201  1.00  0.00    -0.124 C  
BRANCH  14  15
HETATM   15  C   UNL     1      -7.477   9.645  69.949  1.00  0.00    -0.127 C  
HETATM   16  C   UNL     1      -7.983   8.465  70.339  1.00  0.00    -0.099 C  
BRANCH  16  17
HETATM   17  C   UNL     1      -9.425   8.088  70.253  1.00  0.00    -0.167 C  
BRANCH  17  18
HETATM   18  C   UNL     1      -9.715   7.020  71.274  1.00  0.00    -0.171 C  
HETATM   19  C   UNL     1     -10.919   6.464  71.471  1.00  0.00    -0.310 C  
BRANCH  19  20
HETATM   20  C   UNL     1     -12.156   6.841  70.727  1.00  0.00    -0.402 C  
BRANCH  20  21
HETATM   21  C   UNL     1     -13.251   7.304  71.640  1.00  0.00    -0.421 C  
HETATM   22  C   UNL     1     -13.348   8.549  72.133  1.00  0.00    -0.382 C  
BRANCH  22  23
HETATM   23  C   UNL     1     -12.373   9.661  71.893  1.00  0.00    -0.437 C  
HETATM   24  C   UNL     1     -12.846  10.593  70.792  1.00  0.00    -0.439 C  
ENDBRANCH  22  23
ENDBRANCH  20  21
ENDBRANCH  19  20
ENDBRANCH  17  18
ENDBRANCH  16  17
ENDBRANCH  14  15
ENDBRANCH  13  14
ENDBRANCH  11  12
ENDBRANCH  10  11
ENDBRANCH   8   9
ENDBRANCH   7   8
ENDBRANCH   6   7
ENDBRANCH   4   6
ENDBRANCH   3   4
ENDBRANCH   2   3
TORSDOF 15
ENDMDL
MODEL      273
REMARK 921   NORMALIZED FREE ENERGY PREDICTED BY IDOCK:   -3.64 KCAL/MOL
REMARK 922        TOTAL FREE ENERGY PREDICTED BY IDOCK:   -9.37 KCAL/MOL
REMARK 923 INTER-LIGAND FREE ENERGY PREDICTED BY IDOCK:   -7.21 KCAL/MOL
REMARK 924 INTRA-LIGAND FREE ENERGY PREDICTED BY IDOCK:   -2.16 KCAL/MOL
REMARK 927      BINDING AFFINITY PREDICTED BY RF-SCORE:    0.00 PKD
ROOT
HETATM    1  C   UNL     1      -9.974  19.510  68.810  1.00  0.00    -0.547 C  
HETATM    2  C   UNL     1     -10.640  18.561  67.830  1.00  0.00    -0.385 C  
ENDROOT
BRANCH   2   3
HETATM    3  O   UNL     1      -9.895  18.609  66.608  1.00  0.00    -0.317 OA 
BRANCH   3   4
HETATM    4  C   UNL     1      -9.949  17.464  65.873  1.00  0.00    -0.149 C  
HETATM    5  O   UNL     1     -10.799  17.195  65.039  1.00  0.00    -0.684 OA 
BRANCH   4   6
HETATM    6  C   UNL     1      -8.734  16.634  66.182  1.00  0.00    -0.322 C  
BRANCH   6   7
HETATM    7  C   UNL     1      -7.460  17.460  65.976  1.00  0.00    -0.255 C  
BRANCH   7   8
HETATM    8  C   UNL     1      -6.322  16.985  66.865  1.00  0.00    -0.242 C  
BRANCH   8   9
HETATM    9  C   UNL     1      -6.326  17.665  68.212  1.00  0.00    -0.183 C  
HETATM   10  C   UNL     1      -6.746  17.112  69.361  1.00  0.00    -0.199 C  
BRANCH  10  11
HETATM   11  C   UNL     1      -7.425  15.785  69.453  1.00  0.00    -0.216 C  
BRANCH  11  12
HETATM   12  C   UNL     1      -6.594  14.683  70.032  1.00  0.00    -0.161 C  
HETATM   13  C   UNL     1      -6.200  13.604  69.332  1.00  0.00    -0.109 C  
BRANCH  13  14
HETATM   14  C   UNL     1      -6.473  13.274  67.881  1.00  0.00    -0.147 C  
BRANCH  14  15
HETATM   15  C   UNL     1      -7.887  13.522  67.420  1.00  0.00    -0.157 C  
HETATM   16  C   UNL     1      -8.852  12.598  67.297  1.00  0.00    -0.196 C  
BRANCH  16  17
HETATM   17  C   UNL     1      -8.641  11.125  67.429  1.00  0.00    -0.137 C  
BRANCH  17  18
HETATM   18  C   UNL     1      -8.116  10.586  66.125  1.00  0.00    -0.145 C  
HETATM   19  C   UNL     1      -8.842  10.470  65.004  1.00  0.00    -0.207 C  
BRANCH  19  20
HETATM   20  C   UNL     1     -10.284  10.834  64.890  1.00  0.00    -0.388 C  
BRANCH  20  21
HETATM   21  C   UNL     1     -10.560  11.698  63.696  1.00  0.00    -0.493 C  
HETATM   22  C   UNL     1     -11.580  12.567  63.612  1.00  0.00    -0.580 C  
BRANCH  22  23
HETATM   23  C   UNL     1     -12.626  12.789  64.662  1.00  0.00    -0.491 C  
HETATM   24  C   UNL     1     -12.340  14.033  65.484  1.00  0.00    -0.503 C  
ENDBRANCH  22  23
ENDBRANCH  20  21
ENDBRANCH  19  20
ENDBRANCH  17  18
ENDBRANCH  16  17
ENDBRANCH  14  15
ENDBRANCH  13  14
ENDBRANCH  11  12
ENDBRANCH  10  11
ENDBRANCH   8   9
ENDBRANCH   7   8
ENDBRANCH   6   7
ENDBRANCH   4   6
ENDBRANCH   3   4
ENDBRANCH   2   3
TORSDOF 15
ENDMDL
MODEL      274
REMARK 921   NORMALIZED FREE ENERGY PREDICTED BY IDOCK:   -3.63 KCAL/MOL
REMARK 922        TOTAL FREE ENERGY PREDICTED BY IDOCK:   -9.37 KCAL/MOL
REMARK 923 INTER-LIGAND FREE ENERGY PREDICTED BY IDOCK:   -6.64 KCAL/MOL
REMARK 924 INTRA-LIGAND FREE ENERGY PREDICTED BY IDOCK:   -2.73 KCAL/MOL
REMARK 927      BINDING AFFINITY PREDICTED BY RF-SCORE:    0.00 PKD
ROOT
HETATM    1  C   UNL     1      -9.481   4.064  71.281  1.00  0.00    -0.233 C  
HETATM    2  C   UNL     1      -9.581   5.013  72.462  1.00  0.00    -0.146 C  
ENDROOT
BRANCH   2   3
HETATM    3  O   UNL     1     -10.970   5.283  72.681  1.00  0.00    -0.238 OA 
BRANCH   3   4
HETATM    4  C   UNL     1     -11.253   6.590  72.938  1.00  0.00    -0.180 C  
HETATM    5  O   UNL     1     -10.720   7.276  73.796  1.00  0.00    -0.353 OA 
BRANCH   4   6
HETATM    6  C   UNL     1     -12.250   7.077  71.923  1.00  0.00    -0.362 C  
BRANCH   6   7
HETATM    7  C   UNL     1     -11.791   8.408  71.322  1.00  0.00    -0.327 C  
BRANCH   7   8
HETATM    8  C   UNL     1     -10.654   8.224  70.329  1.00  0.00    -0.230 C  
BRANCH   8   9
HETATM    9  C   UNL     1      -9.454   9.074  70.670  1.00  0.00    -0.286 C  
HETATM   10  C   UNL     1      -8.845   9.930  69.833  1.00  0.00    -0.222 C  
BRANCH  10  11
HETATM   11  C   UNL     1      -9.168  10.053  68.380  1.00  0.00    -0.131 C  
BRANCH  11  12
HETATM   12  C   UNL     1      -9.439  11.447  67.903  1.00  0.00    -0.174 C  
HETATM   13  C   UNL     1     -10.631  12.057  68.033  1.00  0.00    -0.233 C  
BRANCH  13  14
HETATM   14  C   UNL     1     -11.897  11.520  68.663  1.00  0.00    -0.382 C  
BRANCH  14  15
HETATM   15  C   UNL     1     -12.018  11.735  70.149  1.00  0.00    -0.421 C  
HETATM   16  C   UNL     1     -12.383  12.875  70.756  1.00  0.00    -0.385 C  
BRANCH  16  17
HETATM   17  C   UNL     1     -12.562  14.186  70.065  1.00  0.00    -0.268 C  
BRANCH  17  18
HETATM   18  C   UNL     1     -12.055  15.285  70.960  1.00  0.00    -0.397 C  
HETATM   19  C   UNL     1     -10.876  15.906  70.808  1.00  0.00    -0.171 C  
BRANCH  19  20
HETATM   20  C   UNL     1      -9.881  15.580  69.745  1.00  0.00    -0.268 C  
BRANCH  20  21
HETATM   21  C   UNL     1      -9.716  16.698  68.759  1.00  0.00    -0.254 C  
HETATM   22  C   UNL     1     -10.184  16.671  67.501  1.00  0.00    -0.289 C  
BRANCH  22  23
HETATM   23  C   UNL     1     -10.906  15.524  66.863  1.00  0.00    -0.301 C  
HETATM   24  C   UNL     1     -10.203  15.051  65.603  1.00  0.00    -0.386 C  
ENDBRANCH  22  23
ENDBRANCH  20  21
ENDBRANCH  19  20
ENDBRANCH  17  18
ENDBRANCH  16  17
ENDBRANCH  14  15
ENDBRANCH  13  14
ENDBRANCH  11  12
ENDBRANCH  10  11
ENDBRANCH   8   9
ENDBRANCH   7   8
ENDBRANCH   6   7
ENDBRANCH   4   6
ENDBRANCH   3   4
ENDBRANCH   2   3
TORSDOF 15
ENDMDL
MODEL      275
REMARK 921   NORMALIZED FREE ENERGY PREDICTED BY IDOCK:   -3.63 KCAL/MOL
REMARK 922        TOTAL FREE ENERGY PREDICTED BY IDOCK:   -9.37 KCAL/MOL
REMARK 923 INTER-LIGAND FREE ENERGY PREDICTED BY IDOCK:   -7.62 KCAL/MOL
REMARK 924 INTRA-LIGAND FREE ENERGY PREDICTED BY IDOCK:   -1.75 KCAL/MOL
REMARK 927      BINDING AFFINITY PREDICTED BY RF-SCORE:    0.00 PKD
ROOT
HETATM    1  C   UNL     1     -14.267  15.431  72.139  1.00  0.00    -0.660 C  
HETATM    2  C   UNL     1     -13.087  14.489  72.298  1.00  0.00    -0.374 C  
ENDROOT
BRANCH   2   3
HETATM    3  O   UNL     1     -13.598  13.151  72.277  1.00  0.00    -0.542 OA 
BRANCH   3   4
HETATM    4  C   UNL     1     -12.948  12.316  71.419  1.00  0.00    -0.256 C  
HETATM    5  O   UNL     1     -13.121  11.111  71.333  1.00  0.00    -0.396 OA 
BRANCH   4   6
HETATM    6  C   UNL     1     -12.059  13.140  70.527  1.00  0.00    -0.385 C  
BRANCH   6   7
HETATM    7  C   UNL     1     -11.953  12.495  69.142  1.00  0.00    -0.287 C  
BRANCH   7   8
HETATM    8  C   UNL     1     -11.532  13.496  68.078  1.00  0.00    -0.342 C  
BRANCH   8   9
HETATM    9  C   UNL     1     -11.995  13.094  66.699  1.00  0.00    -0.451 C  
HETATM   10  C   UNL     1     -11.313  12.312  65.847  1.00  0.00    -0.406 C  
BRANCH  10  11
HETATM   11  C   UNL     1      -9.912  11.848  66.076  1.00  0.00    -0.258 C  
BRANCH  11  12
HETATM   12  C   UNL     1      -9.609  10.467  65.581  1.00  0.00    -0.281 C  
HETATM   13  C   UNL     1      -9.964   9.348  66.240  1.00  0.00    -0.353 C  
BRANCH  13  14
HETATM   14  C   UNL     1     -10.715   9.227  67.547  1.00  0.00    -0.272 C  
BRANCH  14  15
HETATM   15  C   UNL     1      -9.867   9.322  68.790  1.00  0.00    -0.174 C  
HETATM   16  C   UNL     1      -9.263   8.300  69.415  1.00  0.00    -0.155 C  
BRANCH  16  17
HETATM   17  C   UNL     1      -9.473   6.858  69.086  1.00  0.00    -0.142 C  
BRANCH  17  18
HETATM   18  C   UNL     1     -10.814   6.425  69.616  1.00  0.00    -0.380 C  
HETATM   19  C   UNL     1     -11.003   5.805  70.790  1.00  0.00    -0.312 C  
BRANCH  19  20
HETATM   20  C   UNL     1      -9.910   5.429  71.733  1.00  0.00    -0.223 C  
BRANCH  20  21
HETATM   21  C   UNL     1     -10.264   5.722  73.159  1.00  0.00    -0.212 C  
HETATM   22  C   UNL     1     -10.384   4.788  74.115  1.00  0.00    -0.306 C  
BRANCH  22  23
HETATM   23  C   UNL     1     -10.229   3.311  73.916  1.00  0.00    -0.211 C  
HETATM   24  C   UNL     1     -11.524   2.668  73.455  1.00  0.00    -0.238 C  
ENDBRANCH  22  23
ENDBRANCH  20  21
ENDBRANCH  19  20
ENDBRANCH  17  18
ENDBRANCH  16  17
ENDBRANCH  14  15
ENDBRANCH  13  14
ENDBRANCH  11  12
ENDBRANCH  10  11
ENDBRANCH   8   9
ENDBRANCH   7   8
ENDBRANCH   6   7
ENDBRANCH   4   6
ENDBRANCH   3   4
ENDBRANCH   2   3
TORSDOF 15
ENDMDL
MODEL      276
REMARK 921   NORMALIZED FREE ENERGY PREDICTED BY IDOCK:   -3.63 KCAL/MOL
REMARK 922        TOTAL FREE ENERGY PREDICTED BY IDOCK:   -9.37 KCAL/MOL
REMARK 923 INTER-LIGAND FREE ENERGY PREDICTED BY IDOCK:   -6.70 KCAL/MOL
REMARK 924 INTRA-LIGAND FREE ENERGY PREDICTED BY IDOCK:   -2.67 KCAL/MOL
REMARK 927      BINDING AFFINITY PREDICTED BY RF-SCORE:    0.00 PKD
ROOT
HETATM    1  C   UNL     1     -14.126   8.781  72.369  1.00  0.00    -0.485 C  
HETATM    2  C   UNL     1     -13.410   9.501  71.241  1.00  0.00    -0.314 C  
ENDROOT
BRANCH   2   3
HETATM    3  O   UNL     1     -12.197  10.043  71.776  1.00  0.00    -0.384 OA 
BRANCH   3   4
HETATM    4  C   UNL     1     -11.062   9.495  71.258  1.00  0.00    -0.379 C  
HETATM    5  O   UNL     1     -10.249   8.828  71.878  1.00  0.00    -0.301 OA 
BRANCH   4   6
HETATM    6  C   UNL     1     -11.032   9.758  69.777  1.00  0.00    -0.287 C  
BRANCH   6   7
HETATM    7  C   UNL     1     -10.485  11.160  69.497  1.00  0.00    -0.080 C  
BRANCH   7   8
HETATM    8  C   UNL     1      -9.604  11.192  68.257  1.00  0.00    -0.185 C  
BRANCH   8   9
HETATM    9  C   UNL     1      -8.354  12.011  68.464  1.00  0.00    -0.104 C  
HETATM   10  C   UNL     1      -8.201  13.298  68.114  1.00  0.00    -0.160 C  
BRANCH  10  11
HETATM   11  C   UNL     1      -9.198  14.073  67.317  1.00  0.00    -0.231 C  
BRANCH  11  12
HETATM   12  C   UNL     1     -10.273  14.741  68.118  1.00  0.00    -0.228 C  
HETATM   13  C   UNL     1     -11.586  14.507  67.938  1.00  0.00    -0.371 C  
BRANCH  13  14
HETATM   14  C   UNL     1     -12.247  13.564  66.958  1.00  0.00    -0.351 C  
BRANCH  14  15
HETATM   15  C   UNL     1     -12.710  14.195  65.669  1.00  0.00    -0.469 C  
HETATM   16  C   UNL     1     -12.163  14.012  64.458  1.00  0.00    -0.463 C  
BRANCH  16  17
HETATM   17  C   UNL     1     -10.884  13.284  64.204  1.00  0.00    -0.369 C  
BRANCH  17  18
HETATM   18  C   UNL     1     -11.197  11.878  63.769  1.00  0.00    -0.519 C  
HETATM   19  C   UNL     1     -10.479  10.798  64.113  1.00  0.00    -0.309 C  
BRANCH  19  20
HETATM   20  C   UNL     1      -9.248  10.836  64.956  1.00  0.00    -0.241 C  
BRANCH  20  21
HETATM   21  C   UNL     1      -8.250   9.793  64.552  1.00  0.00    -0.156 C  
HETATM   22  C   UNL     1      -7.862   8.775  65.336  1.00  0.00    -0.100 C  
BRANCH  22  23
HETATM   23  C   UNL     1      -8.319   8.532  66.742  1.00  0.00    -0.109 C  
HETATM   24  C   UNL     1      -7.437   7.521  67.451  1.00  0.00    -0.104 C  
ENDBRANCH  22  23
ENDBRANCH  20  21
ENDBRANCH  19  20
ENDBRANCH  17  18
ENDBRANCH  16  17
ENDBRANCH  14  15
ENDBRANCH  13  14
ENDBRANCH  11  12
ENDBRANCH  10  11
ENDBRANCH   8   9
ENDBRANCH   7   8
ENDBRANCH   6   7
ENDBRANCH   4   6
ENDBRANCH   3   4
ENDBRANCH   2   3
TORSDOF 15
ENDMDL
MODEL      277
REMARK 921   NORMALIZED FREE ENERGY PREDICTED BY IDOCK:   -3.63 KCAL/MOL
REMARK 922        TOTAL FREE ENERGY PREDICTED BY IDOCK:   -9.36 KCAL/MOL
REMARK 923 INTER-LIGAND FREE ENERGY PREDICTED BY IDOCK:   -7.19 KCAL/MOL
REMARK 924 INTRA-LIGAND FREE ENERGY PREDICTED BY IDOCK:   -2.17 KCAL/MOL
REMARK 927      BINDING AFFINITY PREDICTED BY RF-SCORE:    0.00 PKD
ROOT
HETATM    1  C   UNL     1     -14.405   7.239  71.529  1.00  0.00    -0.558 C  
HETATM    2  C   UNL     1     -12.887   7.238  71.508  1.00  0.00    -0.388 C  
ENDROOT
BRANCH   2   3
HETATM    3  O   UNL     1     -12.446   8.432  72.165  1.00  0.00    -0.335 OA 
BRANCH   3   4
HETATM    4  C   UNL     1     -11.171   8.801  71.859  1.00  0.00    -0.368 C  
HETATM    5  O   UNL     1     -10.197   8.654  72.580  1.00  0.00    -0.290 OA 
BRANCH   4   6
HETATM    6  C   UNL     1     -11.145   9.320  70.447  1.00  0.00    -0.300 C  
BRANCH   6   7
HETATM    7  C   UNL     1     -11.684  10.752  70.398  1.00  0.00    -0.445 C  
BRANCH   7   8
HETATM    8  C   UNL     1     -11.141  11.526  69.206  1.00  0.00    -0.305 C  
BRANCH   8   9
HETATM    9  C   UNL     1     -11.735  12.909  69.103  1.00  0.00    -0.376 C  
HETATM   10  C   UNL     1     -12.233  13.460  67.985  1.00  0.00    -0.136 C  
BRANCH  10  11
HETATM   11  C   UNL     1     -12.130  12.841  66.629  1.00  0.00    -0.316 C  
BRANCH  11  12
HETATM   12  C   UNL     1     -12.370  13.775  65.483  1.00  0.00    -0.507 C  
HETATM   13  C   UNL     1     -12.171  13.436  64.196  1.00  0.00    -0.457 C  
BRANCH  13  14
HETATM   14  C   UNL     1     -11.702  12.113  63.635  1.00  0.00    -0.588 C  
BRANCH  14  15
HETATM   15  C   UNL     1     -10.216  11.998  63.410  1.00  0.00    -0.457 C  
HETATM   16  C   UNL     1      -9.412  11.045  63.908  1.00  0.00    -0.280 C  
BRANCH  16  17
HETATM   17  C   UNL     1      -9.825  10.028  64.920  1.00  0.00    -0.352 C  
BRANCH  17  18
HETATM   18  C   UNL     1      -9.419  10.505  66.289  1.00  0.00    -0.217 C  
HETATM   19  C   UNL     1      -8.715   9.778  67.169  1.00  0.00    -0.137 C  
BRANCH  19  20
HETATM   20  C   UNL     1      -8.254   8.379  66.931  1.00  0.00    -0.103 C  
BRANCH  20  21
HETATM   21  C   UNL     1      -6.954   8.327  66.186  1.00  0.00    -0.062 C  
HETATM   22  C   UNL     1      -6.766   7.650  65.042  1.00  0.00    -0.047 C  
BRANCH  22  23
HETATM   23  C   UNL     1      -7.792   6.810  64.346  1.00  0.00    -0.113 C  
HETATM   24  C   UNL     1      -7.172   5.579  63.710  1.00  0.00    -0.050 C  
ENDBRANCH  22  23
ENDBRANCH  20  21
ENDBRANCH  19  20
ENDBRANCH  17  18
ENDBRANCH  16  17
ENDBRANCH  14  15
ENDBRANCH  13  14
ENDBRANCH  11  12
ENDBRANCH  10  11
ENDBRANCH   8   9
ENDBRANCH   7   8
ENDBRANCH   6   7
ENDBRANCH   4   6
ENDBRANCH   3   4
ENDBRANCH   2   3
TORSDOF 15
ENDMDL
MODEL      278
REMARK 921   NORMALIZED FREE ENERGY PREDICTED BY IDOCK:   -3.62 KCAL/MOL
REMARK 922        TOTAL FREE ENERGY PREDICTED BY IDOCK:   -9.34 KCAL/MOL
REMARK 923 INTER-LIGAND FREE ENERGY PREDICTED BY IDOCK:   -6.79 KCAL/MOL
REMARK 924 INTRA-LIGAND FREE ENERGY PREDICTED BY IDOCK:   -2.55 KCAL/MOL
REMARK 927      BINDING AFFINITY PREDICTED BY RF-SCORE:    0.00 PKD
ROOT
HETATM    1  C   UNL     1     -12.016  11.913  70.023  1.00  0.00    -0.409 C  
HETATM    2  C   UNL     1     -12.821  11.456  71.226  1.00  0.00    -0.379 C  
ENDROOT
BRANCH   2   3
HETATM    3  O   UNL     1     -13.401  10.188  70.900  1.00  0.00    -0.388 OA 
BRANCH   3   4
HETATM    4  C   UNL     1     -13.357   9.276  71.912  1.00  0.00    -0.429 C  
HETATM    5  O   UNL     1     -14.308   8.921  72.589  1.00  0.00    -0.613 OA 
BRANCH   4   6
HETATM    6  C   UNL     1     -11.968   8.703  71.984  1.00  0.00    -0.442 C  
BRANCH   6   7
HETATM    7  C   UNL     1     -11.744   7.706  70.843  1.00  0.00    -0.291 C  
BRANCH   7   8
HETATM    8  C   UNL     1     -10.829   8.268  69.766  1.00  0.00    -0.186 C  
BRANCH   8   9
HETATM    9  C   UNL     1      -9.550   7.477  69.632  1.00  0.00    -0.159 C  
HETATM   10  C   UNL     1      -8.415   7.716  70.307  1.00  0.00    -0.134 C  
BRANCH  10  11
HETATM   11  C   UNL     1      -8.195   8.907  71.182  1.00  0.00    -0.218 C  
BRANCH  11  12
HETATM   12  C   UNL     1      -6.957   9.697  70.884  1.00  0.00    -0.042 C  
HETATM   13  C   UNL     1      -6.896  10.654  69.940  1.00  0.00    -0.149 C  
BRANCH  13  14
HETATM   14  C   UNL     1      -7.996  11.139  69.023  1.00  0.00    -0.087 C  
BRANCH  14  15
HETATM   15  C   UNL     1      -7.545  12.018  67.884  1.00  0.00    -0.124 C  
HETATM   16  C   UNL     1      -8.092  13.190  67.526  1.00  0.00    -0.181 C  
BRANCH  16  17
HETATM   17  C   UNL     1      -9.361  13.743  68.086  1.00  0.00    -0.211 C  
BRANCH  17  18
HETATM   18  C   UNL     1      -9.416  15.221  67.809  1.00  0.00    -0.197 C  
HETATM   19  C   UNL     1      -9.943  15.768  66.703  1.00  0.00    -0.268 C  
BRANCH  19  20
HETATM   20  C   UNL     1     -10.530  14.990  65.573  1.00  0.00    -0.385 C  
BRANCH  20  21
HETATM   21  C   UNL     1     -11.850  14.375  65.931  1.00  0.00    -0.371 C  
HETATM   22  C   UNL     1     -12.165  13.087  65.719  1.00  0.00    -0.511 C  
BRANCH  22  23
HETATM   23  C   UNL     1     -11.284  12.069  65.063  1.00  0.00    -0.374 C  
HETATM   24  C   UNL     1     -10.745  11.064  66.065  1.00  0.00    -0.242 C  
ENDBRANCH  22  23
ENDBRANCH  20  21
ENDBRANCH  19  20
ENDBRANCH  17  18
ENDBRANCH  16  17
ENDBRANCH  14  15
ENDBRANCH  13  14
ENDBRANCH  11  12
ENDBRANCH  10  11
ENDBRANCH   8   9
ENDBRANCH   7   8
ENDBRANCH   6   7
ENDBRANCH   4   6
ENDBRANCH   3   4
ENDBRANCH   2   3
TORSDOF 15
ENDMDL
MODEL      279
REMARK 921   NORMALIZED FREE ENERGY PREDICTED BY IDOCK:   -3.62 KCAL/MOL
REMARK 922        TOTAL FREE ENERGY PREDICTED BY IDOCK:   -9.34 KCAL/MOL
REMARK 923 INTER-LIGAND FREE ENERGY PREDICTED BY IDOCK:   -6.34 KCAL/MOL
REMARK 924 INTRA-LIGAND FREE ENERGY PREDICTED BY IDOCK:   -3.00 KCAL/MOL
REMARK 927      BINDING AFFINITY PREDICTED BY RF-SCORE:    0.00 PKD
ROOT
HETATM    1  C   UNL     1     -12.590  13.494  65.172  1.00  0.00    -0.485 C  
HETATM    2  C   UNL     1     -11.205  12.925  65.420  1.00  0.00    -0.283 C  
ENDROOT
BRANCH   2   3
HETATM    3  O   UNL     1     -11.044  11.792  64.559  1.00  0.00    -0.309 OA 
BRANCH   3   4
HETATM    4  C   UNL     1     -10.266  10.800  65.078  1.00  0.00    -0.306 C  
HETATM    5  O   UNL     1      -9.703   9.930  64.434  1.00  0.00    -0.274 OA 
BRANCH   4   6
HETATM    6  C   UNL     1     -10.130  11.020  66.560  1.00  0.00    -0.270 C  
BRANCH   6   7
HETATM    7  C   UNL     1     -10.831   9.897  67.330  1.00  0.00    -0.268 C  
BRANCH   7   8
HETATM    8  C   UNL     1      -9.976   9.367  68.470  1.00  0.00    -0.190 C  
BRANCH   8   9
HETATM    9  C   UNL     1      -8.590   9.964  68.471  1.00  0.00    -0.117 C  
HETATM   10  C   UNL     1      -7.478   9.347  68.039  1.00  0.00    -0.080 C  
BRANCH  10  11
HETATM   11  C   UNL     1      -7.420   7.909  67.637  1.00  0.00    -0.097 C  
BRANCH  11  12
HETATM   12  C   UNL     1      -7.484   7.657  66.162  1.00  0.00    -0.083 C  
HETATM   13  C   UNL     1      -8.210   6.670  65.608  1.00  0.00    -0.137 C  
BRANCH  13  14
HETATM   14  C   UNL     1      -9.091   5.651  66.298  1.00  0.00    -0.153 C  
BRANCH  14  15
HETATM   15  C   UNL     1     -10.450   6.152  66.715  1.00  0.00    -0.316 C  
HETATM   16  C   UNL     1     -10.987   6.053  67.940  1.00  0.00    -0.334 C  
BRANCH  16  17
HETATM   17  C   UNL     1     -10.399   5.267  69.066  1.00  0.00    -0.246 C  
BRANCH  17  18
HETATM   18  C   UNL     1      -9.605   6.193  69.948  1.00  0.00    -0.183 C  
HETATM   19  C   UNL     1     -10.127   6.931  70.939  1.00  0.00    -0.207 C  
BRANCH  19  20
HETATM   20  C   UNL     1     -11.575   6.964  71.296  1.00  0.00    -0.352 C  
BRANCH  20  21
HETATM   21  C   UNL     1     -11.852   7.852  72.471  1.00  0.00    -0.390 C  
HETATM   22  C   UNL     1     -12.637   8.940  72.428  1.00  0.00    -0.423 C  
BRANCH  22  23
HETATM   23  C   UNL     1     -13.329   9.469  71.209  1.00  0.00    -0.385 C  
HETATM   24  C   UNL     1     -12.562  10.620  70.584  1.00  0.00    -0.454 C  
ENDBRANCH  22  23
ENDBRANCH  20  21
ENDBRANCH  19  20
ENDBRANCH  17  18
ENDBRANCH  16  17
ENDBRANCH  14  15
ENDBRANCH  13  14
ENDBRANCH  11  12
ENDBRANCH  10  11
ENDBRANCH   8   9
ENDBRANCH   7   8
ENDBRANCH   6   7
ENDBRANCH   4   6
ENDBRANCH   3   4
ENDBRANCH   2   3
TORSDOF 15
ENDMDL
MODEL      280
REMARK 921   NORMALIZED FREE ENERGY PREDICTED BY IDOCK:   -3.62 KCAL/MOL
REMARK 922        TOTAL FREE ENERGY PREDICTED BY IDOCK:   -9.34 KCAL/MOL
REMARK 923 INTER-LIGAND FREE ENERGY PREDICTED BY IDOCK:   -7.37 KCAL/MOL
REMARK 924 INTRA-LIGAND FREE ENERGY PREDICTED BY IDOCK:   -1.97 KCAL/MOL
REMARK 927      BINDING AFFINITY PREDICTED BY RF-SCORE:    0.00 PKD
ROOT
HETATM    1  C   UNL     1      -9.963  11.596  68.058  1.00  0.00    -0.194 C  
HETATM    2  C   UNL     1     -11.020  10.518  67.898  1.00  0.00    -0.295 C  
ENDROOT
BRANCH   2   3
HETATM    3  O   UNL     1     -10.599   9.384  68.665  1.00  0.00    -0.214 OA 
BRANCH   3   4
HETATM    4  C   UNL     1      -9.625   8.637  68.073  1.00  0.00    -0.149 C  
HETATM    5  O   UNL     1      -8.577   8.294  68.595  1.00  0.00    -0.131 OA 
BRANCH   4   6
HETATM    6  C   UNL     1     -10.103   8.217  66.710  1.00  0.00    -0.373 C  
BRANCH   6   7
HETATM    7  C   UNL     1      -8.910   7.930  65.793  1.00  0.00    -0.155 C  
BRANCH   7   8
HETATM    8  C   UNL     1      -8.299   9.206  65.235  1.00  0.00    -0.152 C  
BRANCH   8   9
HETATM    9  C   UNL     1      -8.706   9.456  63.803  1.00  0.00    -0.223 C  
HETATM   10  C   UNL     1      -9.605  10.367  63.398  1.00  0.00    -0.361 C  
BRANCH  10  11
HETATM   11  C   UNL     1     -10.462  11.167  64.324  1.00  0.00    -0.427 C  
BRANCH  11  12
HETATM   12  C   UNL     1     -11.645  11.828  63.687  1.00  0.00    -0.521 C  
HETATM   13  C   UNL     1     -11.909  13.143  63.795  1.00  0.00    -0.546 C  
BRANCH  13  14
HETATM   14  C   UNL     1     -11.117  14.202  64.529  1.00  0.00    -0.340 C  
BRANCH  14  15
HETATM   15  C   UNL     1     -11.612  15.614  64.353  1.00  0.00    -0.250 C  
HETATM   16  C   UNL     1     -11.102  16.710  64.937  1.00  0.00    -0.137 C  
BRANCH  16  17
HETATM   17  C   UNL     1     -10.060  16.696  66.006  1.00  0.00    -0.359 C  
BRANCH  17  18
HETATM   18  C   UNL     1     -10.594  17.406  67.221  1.00  0.00    -0.284 C  
HETATM   19  C   UNL     1     -10.484  18.724  67.440  1.00  0.00    -0.490 C  
BRANCH  19  20
HETATM   20  C   UNL     1      -9.792  19.678  66.525  1.00  0.00    -0.523 C  
BRANCH  20  21
HETATM   21  C   UNL     1      -8.566  20.276  67.147  1.00  0.00    -0.417 C  
HETATM   22  C   UNL     1      -7.311  19.997  66.763  1.00  0.00    -0.278 C  
BRANCH  22  23
HETATM   23  C   UNL     1      -6.922  19.025  65.691  1.00  0.00    -0.281 C  
HETATM   24  C   UNL     1      -6.411  17.721  66.276  1.00  0.00    -0.269 C  
ENDBRANCH  22  23
ENDBRANCH  20  21
ENDBRANCH  19  20
ENDBRANCH  17  18
ENDBRANCH  16  17
ENDBRANCH  14  15
ENDBRANCH  13  14
ENDBRANCH  11  12
ENDBRANCH  10  11
ENDBRANCH   8   9
ENDBRANCH   7   8
ENDBRANCH   6   7
ENDBRANCH   4   6
ENDBRANCH   3   4
ENDBRANCH   2   3
TORSDOF 15
ENDMDL
MODEL      281
REMARK 921   NORMALIZED FREE ENERGY PREDICTED BY IDOCK:   -3.61 KCAL/MOL
REMARK 922        TOTAL FREE ENERGY PREDICTED BY IDOCK:   -9.33 KCAL/MOL
REMARK 923 INTER-LIGAND FREE ENERGY PREDICTED BY IDOCK:   -6.50 KCAL/MOL
REMARK 924 INTRA-LIGAND FREE ENERGY PREDICTED BY IDOCK:   -2.83 KCAL/MOL
REMARK 927      BINDING AFFINITY PREDICTED BY RF-SCORE:    0.00 PKD
ROOT
HETATM    1  C   UNL     1     -12.745  11.071  71.181  1.00  0.00    -0.521 C  
HETATM    2  C   UNL     1     -11.616  10.061  71.080  1.00  0.00    -0.393 C  
ENDROOT
BRANCH   2   3
HETATM    3  O   UNL     1     -10.850  10.386  69.914  1.00  0.00    -0.268 OA 
BRANCH   3   4
HETATM    4  C   UNL     1     -10.290   9.309  69.294  1.00  0.00    -0.215 C  
HETATM    5  O   UNL     1      -9.634   8.437  69.841  1.00  0.00    -0.169 OA 
BRANCH   4   6
HETATM    6  C   UNL     1     -10.703   9.317  67.848  1.00  0.00    -0.248 C  
BRANCH   6   7
HETATM    7  C   UNL     1      -9.675  10.077  67.005  1.00  0.00    -0.227 C  
BRANCH   7   8
HETATM    8  C   UNL     1     -10.288  10.653  65.739  1.00  0.00    -0.287 C  
BRANCH   8   9
HETATM    9  C   UNL     1      -9.796  12.049  65.448  1.00  0.00    -0.243 C  
HETATM   10  C   UNL     1     -10.419  13.184  65.806  1.00  0.00    -0.291 C  
BRANCH  10  11
HETATM   11  C   UNL     1     -11.783  13.235  66.412  1.00  0.00    -0.418 C  
BRANCH  11  12
HETATM   12  C   UNL     1     -11.821  13.121  67.905  1.00  0.00    -0.390 C  
HETATM   13  C   UNL     1     -11.733  14.178  68.732  1.00  0.00    -0.380 C  
BRANCH  13  14
HETATM   14  C   UNL     1     -11.595  15.641  68.375  1.00  0.00    -0.358 C  
BRANCH  14  15
HETATM   15  C   UNL     1     -10.548  16.399  69.151  1.00  0.00    -0.308 C  
HETATM   16  C   UNL     1      -9.229  16.395  68.909  1.00  0.00    -0.259 C  
BRANCH  16  17
HETATM   17  C   UNL     1      -8.545  15.496  67.932  1.00  0.00    -0.156 C  
BRANCH  17  18
HETATM   18  C   UNL     1      -7.912  14.352  68.678  1.00  0.00    -0.145 C  
HETATM   19  C   UNL     1      -6.643  14.337  69.111  1.00  0.00    -0.114 C  
BRANCH  19  20
HETATM   20  C   UNL     1      -5.663  15.441  68.893  1.00  0.00    -0.098 C  
BRANCH  20  21
HETATM   21  C   UNL     1      -5.627  16.404  70.041  1.00  0.00    -0.191 C  
HETATM   22  C   UNL     1      -5.876  17.718  69.933  1.00  0.00    -0.240 C  
BRANCH  22  23
HETATM   23  C   UNL     1      -6.188  18.445  68.660  1.00  0.00    -0.210 C  
HETATM   24  C   UNL     1      -6.857  19.781  68.928  1.00  0.00    -0.373 C  
ENDBRANCH  22  23
ENDBRANCH  20  21
ENDBRANCH  19  20
ENDBRANCH  17  18
ENDBRANCH  16  17
ENDBRANCH  14  15
ENDBRANCH  13  14
ENDBRANCH  11  12
ENDBRANCH  10  11
ENDBRANCH   8   9
ENDBRANCH   7   8
ENDBRANCH   6   7
ENDBRANCH   4   6
ENDBRANCH   3   4
ENDBRANCH   2   3
TORSDOF 15
ENDMDL
MODEL      282
REMARK 921   NORMALIZED FREE ENERGY PREDICTED BY IDOCK:   -3.61 KCAL/MOL
REMARK 922        TOTAL FREE ENERGY PREDICTED BY IDOCK:   -9.33 KCAL/MOL
REMARK 923 INTER-LIGAND FREE ENERGY PREDICTED BY IDOCK:   -7.06 KCAL/MOL
REMARK 924 INTRA-LIGAND FREE ENERGY PREDICTED BY IDOCK:   -2.27 KCAL/MOL
REMARK 927      BINDING AFFINITY PREDICTED BY RF-SCORE:    0.00 PKD
ROOT
HETATM    1  C   UNL     1     -10.903  19.507  67.277  1.00  0.00    -0.557 C  
HETATM    2  C   UNL     1      -9.417  19.732  67.064  1.00  0.00    -0.363 C  
ENDROOT
BRANCH   2   3
HETATM    3  O   UNL     1      -9.000  18.878  65.992  1.00  0.00    -0.470 OA 
BRANCH   3   4
HETATM    4  C   UNL     1      -7.741  18.378  66.132  1.00  0.00    -0.218 C  
HETATM    5  O   UNL     1      -6.906  18.300  65.245  1.00  0.00    -0.505 OA 
BRANCH   4   6
HETATM    6  C   UNL     1      -7.515  18.037  67.579  1.00  0.00    -0.217 C  
BRANCH   6   7
HETATM    7  C   UNL     1      -7.596  16.522  67.788  1.00  0.00    -0.162 C  
BRANCH   7   8
HETATM    8  C   UNL     1      -8.772  16.130  68.669  1.00  0.00    -0.214 C  
BRANCH   8   9
HETATM    9  C   UNL     1     -10.048  15.967  67.880  1.00  0.00    -0.241 C  
HETATM   10  C   UNL     1     -10.418  14.858  67.221  1.00  0.00    -0.263 C  
BRANCH  10  11
HETATM   11  C   UNL     1      -9.542  13.662  67.035  1.00  0.00    -0.251 C  
BRANCH  11  12
HETATM   12  C   UNL     1      -9.426  12.766  68.230  1.00  0.00    -0.203 C  
HETATM   13  C   UNL     1     -10.042  11.574  68.326  1.00  0.00    -0.205 C  
BRANCH  13  14
HETATM   14  C   UNL     1     -10.931  10.892  67.311  1.00  0.00    -0.355 C  
BRANCH  14  15
HETATM   15  C   UNL     1     -10.211  10.075  66.268  1.00  0.00    -0.285 C  
HETATM   16  C   UNL     1      -9.952   8.760  66.334  1.00  0.00    -0.346 C  
BRANCH  16  17
HETATM   17  C   UNL     1     -10.180   7.908  67.538  1.00  0.00    -0.308 C  
BRANCH  17  18
HETATM   18  C   UNL     1      -8.851   7.436  68.064  1.00  0.00    -0.126 C  
HETATM   19  C   UNL     1      -8.592   7.180  69.355  1.00  0.00    -0.134 C  
BRANCH  19  20
HETATM   20  C   UNL     1      -9.576   7.351  70.464  1.00  0.00    -0.172 C  
BRANCH  20  21
HETATM   21  C   UNL     1      -9.462   8.693  71.123  1.00  0.00    -0.274 C  
HETATM   22  C   UNL     1     -10.491   9.534  71.308  1.00  0.00    -0.320 C  
BRANCH  22  23
HETATM   23  C   UNL     1     -11.901   9.299  70.859  1.00  0.00    -0.346 C  
HETATM   24  C   UNL     1     -12.905   9.754  71.902  1.00  0.00    -0.520 C  
ENDBRANCH  22  23
ENDBRANCH  20  21
ENDBRANCH  19  20
ENDBRANCH  17  18
ENDBRANCH  16  17
ENDBRANCH  14  15
ENDBRANCH  13  14
ENDBRANCH  11  12
ENDBRANCH  10  11
ENDBRANCH   8   9
ENDBRANCH   7   8
ENDBRANCH   6   7
ENDBRANCH   4   6
ENDBRANCH   3   4
ENDBRANCH   2   3
TORSDOF 15
ENDMDL
MODEL      283
REMARK 921   NORMALIZED FREE ENERGY PREDICTED BY IDOCK:   -3.60 KCAL/MOL
REMARK 922        TOTAL FREE ENERGY PREDICTED BY IDOCK:   -9.31 KCAL/MOL
REMARK 923 INTER-LIGAND FREE ENERGY PREDICTED BY IDOCK:   -7.05 KCAL/MOL
REMARK 924 INTRA-LIGAND FREE ENERGY PREDICTED BY IDOCK:   -2.26 KCAL/MOL
REMARK 927      BINDING AFFINITY PREDICTED BY RF-SCORE:    0.00 PKD
ROOT
HETATM    1  C   UNL     1     -10.282  11.430  63.324  1.00  0.00    -0.430 C  
HETATM    2  C   UNL     1     -11.600  12.162  63.505  1.00  0.00    -0.474 C  
ENDROOT
BRANCH   2   3
HETATM    3  O   UNL     1     -11.319  13.398  64.171  1.00  0.00    -0.378 OA 
BRANCH   3   4
HETATM    4  C   UNL     1     -11.989  13.567  65.345  1.00  0.00    -0.379 C  
HETATM    5  O   UNL     1     -13.167  13.868  65.452  1.00  0.00    -0.750 OA 
BRANCH   4   6
HETATM    6  C   UNL     1     -11.067  13.218  66.480  1.00  0.00    -0.313 C  
BRANCH   6   7
HETATM    7  C   UNL     1     -11.851  12.553  67.616  1.00  0.00    -0.381 C  
BRANCH   7   8
HETATM    8  C   UNL     1     -11.434  11.106  67.826  1.00  0.00    -0.349 C  
BRANCH   8   9
HETATM    9  C   UNL     1     -10.329  10.687  66.887  1.00  0.00    -0.288 C  
HETATM   10  C   UNL     1     -10.012   9.420  66.576  1.00  0.00    -0.339 C  
BRANCH  10  11
HETATM   11  C   UNL     1     -10.607   8.221  67.239  1.00  0.00    -0.335 C  
BRANCH  11  12
HETATM   12  C   UNL     1      -9.657   7.414  68.069  1.00  0.00    -0.152 C  
HETATM   13  C   UNL     1     -10.046   6.621  69.083  1.00  0.00    -0.185 C  
BRANCH  13  14
HETATM   14  C   UNL     1     -11.448   6.361  69.587  1.00  0.00    -0.446 C  
BRANCH  14  15
HETATM   15  C   UNL     1     -11.883   7.214  70.751  1.00  0.00    -0.367 C  
HETATM   16  C   UNL     1     -11.836   6.868  72.046  1.00  0.00    -0.345 C  
BRANCH  16  17
HETATM   17  C   UNL     1     -11.505   5.501  72.550  1.00  0.00    -0.303 C  
BRANCH  17  18
HETATM   18  C   UNL     1     -10.021   5.411  72.786  1.00  0.00    -0.197 C  
HETATM   19  C   UNL     1      -9.205   4.548  72.164  1.00  0.00    -0.165 C  
BRANCH  19  20
HETATM   20  C   UNL     1      -9.650   3.532  71.166  1.00  0.00    -0.240 C  
BRANCH  20  21
HETATM   21  C   UNL     1      -8.582   2.525  70.864  1.00  0.00    -0.104 C  
HETATM   22  C   UNL     1      -7.648   2.676  69.912  1.00  0.00    -0.043 C  
BRANCH  22  23
HETATM   23  C   UNL     1      -7.539   3.839  68.974  1.00  0.00    -0.053 C  
HETATM   24  C   UNL     1      -6.214   4.563  69.131  1.00  0.00    -0.031 C  
ENDBRANCH  22  23
ENDBRANCH  20  21
ENDBRANCH  19  20
ENDBRANCH  17  18
ENDBRANCH  16  17
ENDBRANCH  14  15
ENDBRANCH  13  14
ENDBRANCH  11  12
ENDBRANCH  10  11
ENDBRANCH   8   9
ENDBRANCH   7   8
ENDBRANCH   6   7
ENDBRANCH   4   6
ENDBRANCH   3   4
ENDBRANCH   2   3
TORSDOF 15
ENDMDL
MODEL      284
REMARK 921   NORMALIZED FREE ENERGY PREDICTED BY IDOCK:   -3.60 KCAL/MOL
REMARK 922        TOTAL FREE ENERGY PREDICTED BY IDOCK:   -9.31 KCAL/MOL
REMARK 923 INTER-LIGAND FREE ENERGY PREDICTED BY IDOCK:   -7.32 KCAL/MOL
REMARK 924 INTRA-LIGAND FREE ENERGY PREDICTED BY IDOCK:   -1.98 KCAL/MOL
REMARK 927      BINDING AFFINITY PREDICTED BY RF-SCORE:    0.00 PKD
ROOT
HETATM    1  C   UNL     1     -10.529  19.893  67.081  1.00  0.00    -0.566 C  
HETATM    2  C   UNL     1      -9.060  20.174  66.822  1.00  0.00    -0.340 C  
ENDROOT
BRANCH   2   3
HETATM    3  O   UNL     1      -8.672  19.413  65.672  1.00  0.00    -0.327 OA 
BRANCH   3   4
HETATM    4  C   UNL     1      -7.423  18.874  65.753  1.00  0.00    -0.132 C  
HETATM    5  O   UNL     1      -6.593  18.869  64.858  1.00  0.00    -0.500 OA 
BRANCH   4   6
HETATM    6  C   UNL     1      -7.201  18.382  67.157  1.00  0.00    -0.217 C  
BRANCH   6   7
HETATM    7  C   UNL     1      -7.269  16.853  67.201  1.00  0.00    -0.215 C  
BRANCH   7   8
HETATM    8  C   UNL     1      -8.406  16.357  68.081  1.00  0.00    -0.186 C  
BRANCH   8   9
HETATM    9  C   UNL     1      -9.760  16.630  67.473  1.00  0.00    -0.247 C  
HETATM   10  C   UNL     1     -10.464  15.766  66.724  1.00  0.00    -0.305 C  
BRANCH  10  11
HETATM   11  C   UNL     1      -9.938  14.453  66.243  1.00  0.00    -0.320 C  
BRANCH  11  12
HETATM   12  C   UNL     1     -10.410  13.258  67.012  1.00  0.00    -0.246 C  
HETATM   13  C   UNL     1     -11.362  12.418  66.568  1.00  0.00    -0.392 C  
BRANCH  13  14
HETATM   14  C   UNL     1     -12.125  12.469  65.264  1.00  0.00    -0.500 C  
BRANCH  14  15
HETATM   15  C   UNL     1     -11.294  12.272  64.022  1.00  0.00    -0.469 C  
HETATM   16  C   UNL     1     -10.440  11.262  63.795  1.00  0.00    -0.459 C  
BRANCH  16  17
HETATM   17  C   UNL     1     -10.031  10.248  64.812  1.00  0.00    -0.392 C  
BRANCH  17  18
HETATM   18  C   UNL     1      -8.602  10.501  65.211  1.00  0.00    -0.185 C  
HETATM   19  C   UNL     1      -8.051  10.091  66.363  1.00  0.00    -0.120 C  
BRANCH  19  20
HETATM   20  C   UNL     1      -8.780   9.348  67.431  1.00  0.00    -0.128 C  
BRANCH  20  21
HETATM   21  C   UNL     1      -8.536   9.925  68.793  1.00  0.00    -0.130 C  
HETATM   22  C   UNL     1      -9.502  10.180  69.690  1.00  0.00    -0.226 C  
BRANCH  22  23
HETATM   23  C   UNL     1     -10.970   9.974  69.473  1.00  0.00    -0.289 C  
HETATM   24  C   UNL     1     -11.750  10.089  70.770  1.00  0.00    -0.437 C  
ENDBRANCH  22  23
ENDBRANCH  20  21
ENDBRANCH  19  20
ENDBRANCH  17  18
ENDBRANCH  16  17
ENDBRANCH  14  15
ENDBRANCH  13  14
ENDBRANCH  11  12
ENDBRANCH  10  11
ENDBRANCH   8   9
ENDBRANCH   7   8
ENDBRANCH   6   7
ENDBRANCH   4   6
ENDBRANCH   3   4
ENDBRANCH   2   3
TORSDOF 15
ENDMDL
MODEL      285
REMARK 921   NORMALIZED FREE ENERGY PREDICTED BY IDOCK:   -3.58 KCAL/MOL
REMARK 922        TOTAL FREE ENERGY PREDICTED BY IDOCK:   -9.28 KCAL/MOL
REMARK 923 INTER-LIGAND FREE ENERGY PREDICTED BY IDOCK:   -7.30 KCAL/MOL
REMARK 924 INTRA-LIGAND FREE ENERGY PREDICTED BY IDOCK:   -1.98 KCAL/MOL
REMARK 927      BINDING AFFINITY PREDICTED BY RF-SCORE:    0.00 PKD
ROOT
HETATM    1  C   UNL     1      -8.945   5.455  65.653  1.00  0.00    -0.160 C  
HETATM    2  C   UNL     1      -8.153   6.668  65.199  1.00  0.00    -0.133 C  
ENDROOT
BRANCH   2   3
HETATM    3  O   UNL     1      -8.676   7.808  65.892  1.00  0.00    -0.150 OA 
BRANCH   3   4
HETATM    4  C   UNL     1      -8.997   8.856  65.083  1.00  0.00    -0.137 C  
HETATM    5  O   UNL     1      -8.586   9.028  63.947  1.00  0.00    -0.191 OA 
BRANCH   4   6
HETATM    6  C   UNL     1     -10.022   9.707  65.781  1.00  0.00    -0.342 C  
BRANCH   6   7
HETATM    7  C   UNL     1     -10.458  10.864  64.876  1.00  0.00    -0.352 C  
BRANCH   7   8
HETATM    8  C   UNL     1      -9.811  12.180  65.282  1.00  0.00    -0.216 C  
BRANCH   8   9
HETATM    9  C   UNL     1     -10.391  13.356  64.535  1.00  0.00    -0.394 C  
HETATM   10  C   UNL     1     -10.386  14.628  64.964  1.00  0.00    -0.432 C  
BRANCH  10  11
HETATM   11  C   UNL     1      -9.946  15.050  66.328  1.00  0.00    -0.300 C  
BRANCH  11  12
HETATM   12  C   UNL     1     -10.971  15.794  67.127  1.00  0.00    -0.244 C  
HETATM   13  C   UNL     1     -11.571  15.288  68.219  1.00  0.00    -0.357 C  
BRANCH  13  14
HETATM   14  C   UNL     1     -11.358  13.938  68.867  1.00  0.00    -0.319 C  
BRANCH  14  15
HETATM   15  C   UNL     1     -11.897  12.760  68.096  1.00  0.00    -0.372 C  
HETATM   16  C   UNL     1     -12.002  11.501  68.547  1.00  0.00    -0.293 C  
BRANCH  16  17
HETATM   17  C   UNL     1     -11.435  11.011  69.839  1.00  0.00    -0.400 C  
BRANCH  17  18
HETATM   18  C   UNL     1     -12.549  10.868  70.841  1.00  0.00    -0.494 C  
HETATM   19  C   UNL     1     -12.632   9.886  71.750  1.00  0.00    -0.506 C  
BRANCH  19  20
HETATM   20  C   UNL     1     -11.647   8.774  71.886  1.00  0.00    -0.432 C  
BRANCH  20  21
HETATM   21  C   UNL     1     -12.079   7.539  71.155  1.00  0.00    -0.335 C  
HETATM   22  C   UNL     1     -11.238   6.596  70.701  1.00  0.00    -0.370 C  
BRANCH  22  23
HETATM   23  C   UNL     1      -9.744   6.635  70.807  1.00  0.00    -0.190 C  
HETATM   24  C   UNL     1      -9.168   5.264  71.108  1.00  0.00    -0.179 C  
ENDBRANCH  22  23
ENDBRANCH  20  21
ENDBRANCH  19  20
ENDBRANCH  17  18
ENDBRANCH  16  17
ENDBRANCH  14  15
ENDBRANCH  13  14
ENDBRANCH  11  12
ENDBRANCH  10  11
ENDBRANCH   8   9
ENDBRANCH   7   8
ENDBRANCH   6   7
ENDBRANCH   4   6
ENDBRANCH   3   4
ENDBRANCH   2   3
TORSDOF 15
ENDMDL
MODEL      286
REMARK 921   NORMALIZED FREE ENERGY PREDICTED BY IDOCK:   -3.58 KCAL/MOL
REMARK 922        TOTAL FREE ENERGY PREDICTED BY IDOCK:   -9.27 KCAL/MOL
REMARK 923 INTER-LIGAND FREE ENERGY PREDICTED BY IDOCK:   -7.58 KCAL/MOL
REMARK 924 INTRA-LIGAND FREE ENERGY PREDICTED BY IDOCK:   -1.69 KCAL/MOL
REMARK 927      BINDING AFFINITY PREDICTED BY RF-SCORE:    0.00 PKD
ROOT
HETATM    1  C   UNL     1     -11.189  14.810  67.992  1.00  0.00    -0.311 C  
HETATM    2  C   UNL     1     -11.159  14.910  66.477  1.00  0.00    -0.341 C  
ENDROOT
BRANCH   2   3
HETATM    3  O   UNL     1     -12.021  13.889  65.960  1.00  0.00    -0.369 OA 
BRANCH   3   4
HETATM    4  C   UNL     1     -11.538  12.623  66.104  1.00  0.00    -0.393 C  
HETATM    5  O   UNL     1     -12.059  11.735  66.760  1.00  0.00    -0.547 OA 
BRANCH   4   6
HETATM    6  C   UNL     1     -10.319  12.472  65.237  1.00  0.00    -0.310 C  
BRANCH   6   7
HETATM    7  C   UNL     1     -10.672  11.721  63.949  1.00  0.00    -0.457 C  
BRANCH   7   8
HETATM    8  C   UNL     1      -9.484  11.620  63.004  1.00  0.00    -0.265 C  
BRANCH   8   9
HETATM    9  C   UNL     1      -9.269  10.212  62.505  1.00  0.00    -0.321 C  
HETATM   10  C   UNL     1      -8.796   9.191  63.237  1.00  0.00    -0.095 C  
BRANCH  10  11
HETATM   11  C   UNL     1      -8.259   9.334  64.624  1.00  0.00    -0.148 C  
BRANCH  11  12
HETATM   12  C   UNL     1      -8.376   8.111  65.481  1.00  0.00    -0.160 C  
HETATM   13  C   UNL     1      -9.171   8.037  66.564  1.00  0.00    -0.236 C  
BRANCH  13  14
HETATM   14  C   UNL     1     -10.089   9.098  67.129  1.00  0.00    -0.301 C  
BRANCH  14  15
HETATM   15  C   UNL     1      -9.406  10.186  67.918  1.00  0.00    -0.151 C  
HETATM   16  C   UNL     1      -9.632  10.490  69.206  1.00  0.00    -0.199 C  
BRANCH  16  17
HETATM   17  C   UNL     1     -10.733   9.913  70.035  1.00  0.00    -0.338 C  
BRANCH  17  18
HETATM   18  C   UNL     1     -12.050  10.449  69.542  1.00  0.00    -0.125 C  
HETATM   19  C   UNL     1     -12.886  11.202  70.272  1.00  0.00    -0.129 C  
BRANCH  19  20
HETATM   20  C   UNL     1     -12.645  11.598  71.691  1.00  0.00    -0.278 C  
BRANCH  20  21
HETATM   21  C   UNL     1     -13.628  12.623  72.170  1.00  0.00    -0.510 C  
HETATM   22  C   UNL     1     -13.379  13.941  72.223  1.00  0.00    -0.599 C  
BRANCH  22  23
HETATM   23  C   UNL     1     -12.084  14.600  71.858  1.00  0.00    -0.375 C  
HETATM   24  C   UNL     1     -12.043  16.047  72.315  1.00  0.00    -0.617 C  
ENDBRANCH  22  23
ENDBRANCH  20  21
ENDBRANCH  19  20
ENDBRANCH  17  18
ENDBRANCH  16  17
ENDBRANCH  14  15
ENDBRANCH  13  14
ENDBRANCH  11  12
ENDBRANCH  10  11
ENDBRANCH   8   9
ENDBRANCH   7   8
ENDBRANCH   6   7
ENDBRANCH   4   6
ENDBRANCH   3   4
ENDBRANCH   2   3
TORSDOF 15
ENDMDL
MODEL      287
REMARK 921   NORMALIZED FREE ENERGY PREDICTED BY IDOCK:   -3.58 KCAL/MOL
REMARK 922        TOTAL FREE ENERGY PREDICTED BY IDOCK:   -9.26 KCAL/MOL
REMARK 923 INTER-LIGAND FREE ENERGY PREDICTED BY IDOCK:   -7.14 KCAL/MOL
REMARK 924 INTRA-LIGAND FREE ENERGY PREDICTED BY IDOCK:   -2.12 KCAL/MOL
REMARK 927      BINDING AFFINITY PREDICTED BY RF-SCORE:    0.00 PKD
ROOT
HETATM    1  C   UNL     1      -8.077   9.417  63.981  1.00  0.00    -0.150 C  
HETATM    2  C   UNL     1      -9.324   9.751  64.780  1.00  0.00    -0.265 C  
ENDROOT
BRANCH   2   3
HETATM    3  O   UNL     1      -9.635  11.128  64.538  1.00  0.00    -0.235 OA 
BRANCH   3   4
HETATM    4  C   UNL     1      -9.971  11.832  65.655  1.00  0.00    -0.240 C  
HETATM    5  O   UNL     1     -11.048  12.369  65.858  1.00  0.00    -0.290 OA 
BRANCH   4   6
HETATM    6  C   UNL     1      -8.836  11.746  66.638  1.00  0.00    -0.189 C  
BRANCH   6   7
HETATM    7  C   UNL     1      -9.375  11.683  68.070  1.00  0.00    -0.178 C  
BRANCH   7   8
HETATM    8  C   UNL     1     -10.047  10.351  68.369  1.00  0.00    -0.181 C  
BRANCH   8   9
HETATM    9  C   UNL     1     -10.473  10.236  69.812  1.00  0.00    -0.300 C  
HETATM   10  C   UNL     1     -11.450  10.952  70.393  1.00  0.00    -0.367 C  
BRANCH  10  11
HETATM   11  C   UNL     1     -12.160  12.089  69.735  1.00  0.00    -0.317 C  
BRANCH  11  12
HETATM   12  C   UNL     1     -12.088  13.394  70.467  1.00  0.00    -0.399 C  
HETATM   13  C   UNL     1     -11.914  14.580  69.855  1.00  0.00    -0.382 C  
BRANCH  13  14
HETATM   14  C   UNL     1     -11.772  14.861  68.376  1.00  0.00    -0.336 C  
BRANCH  14  15
HETATM   15  C   UNL     1     -10.378  15.200  67.915  1.00  0.00    -0.241 C  
HETATM   16  C   UNL     1      -9.888  16.433  67.716  1.00  0.00    -0.239 C  
BRANCH  16  17
HETATM   17  C   UNL     1     -10.701  17.686  67.749  1.00  0.00    -0.336 C  
BRANCH  17  18
HETATM   18  C   UNL     1     -10.519  18.423  66.449  1.00  0.00    -0.412 C  
HETATM   19  C   UNL     1      -9.828  19.564  66.313  1.00  0.00    -0.513 C  
BRANCH  19  20
HETATM   20  C   UNL     1      -9.161  20.287  67.435  1.00  0.00    -0.507 C  
BRANCH  20  21
HETATM   21  C   UNL     1      -7.749  20.667  67.106  1.00  0.00    -0.348 C  
HETATM   22  C   UNL     1      -6.706  19.825  67.166  1.00  0.00    -0.230 C  
BRANCH  22  23
HETATM   23  C   UNL     1      -6.765  18.393  67.604  1.00  0.00    -0.198 C  
HETATM   24  C   UNL     1      -6.545  17.442  66.442  1.00  0.00    -0.292 C  
ENDBRANCH  22  23
ENDBRANCH  20  21
ENDBRANCH  19  20
ENDBRANCH  17  18
ENDBRANCH  16  17
ENDBRANCH  14  15
ENDBRANCH  13  14
ENDBRANCH  11  12
ENDBRANCH  10  11
ENDBRANCH   8   9
ENDBRANCH   7   8
ENDBRANCH   6   7
ENDBRANCH   4   6
ENDBRANCH   3   4
ENDBRANCH   2   3
TORSDOF 15
ENDMDL
MODEL      288
REMARK 921   NORMALIZED FREE ENERGY PREDICTED BY IDOCK:   -3.57 KCAL/MOL
REMARK 922        TOTAL FREE ENERGY PREDICTED BY IDOCK:   -9.26 KCAL/MOL
REMARK 923 INTER-LIGAND FREE ENERGY PREDICTED BY IDOCK:   -7.55 KCAL/MOL
REMARK 924 INTRA-LIGAND FREE ENERGY PREDICTED BY IDOCK:   -1.71 KCAL/MOL
REMARK 927      BINDING AFFINITY PREDICTED BY RF-SCORE:    0.00 PKD
ROOT
HETATM    1  C   UNL     1      -9.224   9.420  64.994  1.00  0.00    -0.280 C  
HETATM    2  C   UNL     1     -10.272   9.660  66.066  1.00  0.00    -0.185 C  
ENDROOT
BRANCH   2   3
HETATM    3  O   UNL     1     -10.704  11.021  65.950  1.00  0.00    -0.234 OA 
BRANCH   3   4
HETATM    4  C   UNL     1     -11.298  11.518  67.071  1.00  0.00    -0.269 C  
HETATM    5  O   UNL     1     -11.931  12.559  67.136  1.00  0.00    -0.484 OA 
BRANCH   4   6
HETATM    6  C   UNL     1     -11.132  10.522  68.186  1.00  0.00    -0.346 C  
BRANCH   6   7
HETATM    7  C   UNL     1     -11.222  11.224  69.544  1.00  0.00    -0.337 C  
BRANCH   7   8
HETATM    8  C   UNL     1     -12.648  11.265  70.071  1.00  0.00    -0.169 C  
BRANCH   8   9
HETATM    9  C   UNL     1     -12.700  11.485  71.563  1.00  0.00    -0.439 C  
HETATM   10  C   UNL     1     -13.227  12.558  72.173  1.00  0.00    -0.508 C  
BRANCH  10  11
HETATM   11  C   UNL     1     -13.703  13.779  71.456  1.00  0.00    -0.286 C  
BRANCH  11  12
HETATM   12  C   UNL     1     -12.974  15.043  71.797  1.00  0.00    -0.429 C  
HETATM   13  C   UNL     1     -12.272  15.759  70.900  1.00  0.00    -0.458 C  
BRANCH  13  14
HETATM   14  C   UNL     1     -12.074  15.485  69.426  1.00  0.00    -0.302 C  
BRANCH  14  15
HETATM   15  C   UNL     1     -10.649  15.565  68.941  1.00  0.00    -0.240 C  
HETATM   16  C   UNL     1     -10.061  16.638  68.390  1.00  0.00    -0.268 C  
BRANCH  16  17
HETATM   17  C   UNL     1     -10.773  17.891  67.999  1.00  0.00    -0.307 C  
BRANCH  17  18
HETATM   18  C   UNL     1     -10.074  18.504  66.815  1.00  0.00    -0.406 C  
HETATM   19  C   UNL     1      -8.973  19.266  66.894  1.00  0.00    -0.339 C  
BRANCH  19  20
HETATM   20  C   UNL     1      -8.294  19.641  68.168  1.00  0.00    -0.347 C  
BRANCH  20  21
HETATM   21  C   UNL     1      -6.816  19.817  67.994  1.00  0.00    -0.297 C  
HETATM   22  C   UNL     1      -5.918  18.825  68.106  1.00  0.00    -0.214 C  
BRANCH  22  23
HETATM   23  C   UNL     1      -6.229  17.403  68.459  1.00  0.00    -0.170 C  
HETATM   24  C   UNL     1      -5.891  17.097  69.906  1.00  0.00    -0.236 C  
ENDBRANCH  22  23
ENDBRANCH  20  21
ENDBRANCH  19  20
ENDBRANCH  17  18
ENDBRANCH  16  17
ENDBRANCH  14  15
ENDBRANCH  13  14
ENDBRANCH  11  12
ENDBRANCH  10  11
ENDBRANCH   8   9
ENDBRANCH   7   8
ENDBRANCH   6   7
ENDBRANCH   4   6
ENDBRANCH   3   4
ENDBRANCH   2   3
TORSDOF 15
ENDMDL
MODEL      289
REMARK 921   NORMALIZED FREE ENERGY PREDICTED BY IDOCK:   -3.57 KCAL/MOL
REMARK 922        TOTAL FREE ENERGY PREDICTED BY IDOCK:   -9.25 KCAL/MOL
REMARK 923 INTER-LIGAND FREE ENERGY PREDICTED BY IDOCK:   -6.84 KCAL/MOL
REMARK 924 INTRA-LIGAND FREE ENERGY PREDICTED BY IDOCK:   -2.41 KCAL/MOL
REMARK 927      BINDING AFFINITY PREDICTED BY RF-SCORE:    0.00 PKD
ROOT
HETATM    1  C   UNL     1      -9.793   2.639  72.045  1.00  0.00    -0.233 C  
HETATM    2  C   UNL     1     -10.587   3.194  73.213  1.00  0.00    -0.175 C  
ENDROOT
BRANCH   2   3
HETATM    3  O   UNL     1     -10.214   4.568  73.376  1.00  0.00    -0.151 OA 
BRANCH   3   4
HETATM    4  C   UNL     1     -11.165   5.457  72.975  1.00  0.00    -0.311 C  
HETATM    5  O   UNL     1     -12.350   5.208  72.822  1.00  0.00    -0.013 OA 
BRANCH   4   6
HETATM    6  C   UNL     1     -10.533   6.817  72.856  1.00  0.00    -0.260 C  
BRANCH   6   7
HETATM    7  C   UNL     1     -10.044   7.053  71.424  1.00  0.00    -0.197 C  
BRANCH   7   8
HETATM    8  C   UNL     1     -11.193   7.333  70.468  1.00  0.00    -0.305 C  
BRANCH   8   9
HETATM    9  C   UNL     1     -11.389   6.221  69.467  1.00  0.00    -0.475 C  
HETATM   10  C   UNL     1     -10.986   6.247  68.187  1.00  0.00    -0.412 C  
BRANCH  10  11
HETATM   11  C   UNL     1     -10.419   7.453  67.512  1.00  0.00    -0.338 C  
BRANCH  11  12
HETATM   12  C   UNL     1      -8.948   7.657  67.703  1.00  0.00    -0.127 C  
HETATM   13  C   UNL     1      -8.165   8.297  66.815  1.00  0.00    -0.103 C  
BRANCH  13  14
HETATM   14  C   UNL     1      -8.562   8.934  65.502  1.00  0.00    -0.191 C  
BRANCH  14  15
HETATM   15  C   UNL     1      -8.326  10.419  65.408  1.00  0.00    -0.166 C  
HETATM   16  C   UNL     1      -9.133  11.313  64.817  1.00  0.00    -0.032 C  
BRANCH  16  17
HETATM   17  C   UNL     1     -10.326  10.964  63.989  1.00  0.00    -0.417 C  
BRANCH  17  18
HETATM   18  C   UNL     1     -10.835  12.208  63.312  1.00  0.00    -0.381 C  
HETATM   19  C   UNL     1     -11.857  12.953  63.758  1.00  0.00    -0.571 C  
BRANCH  19  20
HETATM   20  C   UNL     1     -12.658  12.643  64.978  1.00  0.00    -0.504 C  
BRANCH  20  21
HETATM   21  C   UNL     1     -12.152  13.367  66.190  1.00  0.00    -0.481 C  
HETATM   22  C   UNL     1     -11.606  12.764  67.257  1.00  0.00    -0.420 C  
BRANCH  22  23
HETATM   23  C   UNL     1     -11.447  11.285  67.438  1.00  0.00    -0.300 C  
HETATM   24  C   UNL     1     -10.997  10.937  68.845  1.00  0.00    -0.278 C  
ENDBRANCH  22  23
ENDBRANCH  20  21
ENDBRANCH  19  20
ENDBRANCH  17  18
ENDBRANCH  16  17
ENDBRANCH  14  15
ENDBRANCH  13  14
ENDBRANCH  11  12
ENDBRANCH  10  11
ENDBRANCH   8   9
ENDBRANCH   7   8
ENDBRANCH   6   7
ENDBRANCH   4   6
ENDBRANCH   3   4
ENDBRANCH   2   3
TORSDOF 15
ENDMDL
MODEL      290
REMARK 921   NORMALIZED FREE ENERGY PREDICTED BY IDOCK:   -3.54 KCAL/MOL
REMARK 922        TOTAL FREE ENERGY PREDICTED BY IDOCK:   -9.20 KCAL/MOL
REMARK 923 INTER-LIGAND FREE ENERGY PREDICTED BY IDOCK:   -7.18 KCAL/MOL
REMARK 924 INTRA-LIGAND FREE ENERGY PREDICTED BY IDOCK:   -2.02 KCAL/MOL
REMARK 927      BINDING AFFINITY PREDICTED BY RF-SCORE:    0.00 PKD
ROOT
HETATM    1  C   UNL     1      -9.073   9.330  65.295  1.00  0.00    -0.271 C  
HETATM    2  C   UNL     1     -10.280   9.693  66.140  1.00  0.00    -0.205 C  
ENDROOT
BRANCH   2   3
HETATM    3  O   UNL     1     -10.475  11.107  66.029  1.00  0.00    -0.251 OA 
BRANCH   3   4
HETATM    4  C   UNL     1     -11.328  11.629  66.954  1.00  0.00    -0.295 C  
HETATM    5  O   UNL     1     -12.071  12.581  66.777  1.00  0.00    -0.546 OA 
BRANCH   4   6
HETATM    6  C   UNL     1     -11.278  10.775  68.191  1.00  0.00    -0.365 C  
BRANCH   6   7
HETATM    7  C   UNL     1     -11.771  11.568  69.405  1.00  0.00    -0.413 C  
BRANCH   7   8
HETATM    8  C   UNL     1     -12.954  10.894  70.085  1.00  0.00    -0.032 C  
BRANCH   8   9
HETATM    9  C   UNL     1     -12.796  10.839  71.585  1.00  0.00    -0.562 C  
HETATM   10  C   UNL     1     -13.172  11.802  72.442  1.00  0.00     0.140 C  
BRANCH  10  11
HETATM   11  C   UNL     1     -13.661  13.151  72.024  1.00  0.00    -0.486 C  
BRANCH  11  12
HETATM   12  C   UNL     1     -13.153  14.295  72.846  1.00  0.00    -0.589 C  
HETATM   13  C   UNL     1     -12.788  15.480  72.323  1.00  0.00    -0.493 C  
BRANCH  13  14
HETATM   14  C   UNL     1     -12.813  15.915  70.874  1.00  0.00    -0.169 C  
BRANCH  14  15
HETATM   15  C   UNL     1     -11.952  15.101  69.942  1.00  0.00    -0.372 C  
HETATM   16  C   UNL     1     -10.838  15.523  69.326  1.00  0.00    -0.252 C  
BRANCH  16  17
HETATM   17  C   UNL     1     -10.352  16.935  69.319  1.00  0.00    -0.298 C  
BRANCH  17  18
HETATM   18  C   UNL     1     -10.747  17.583  68.019  1.00  0.00    -0.342 C  
HETATM   19  C   UNL     1     -10.041  17.500  66.883  1.00  0.00    -0.324 C  
BRANCH  19  20
HETATM   20  C   UNL     1      -8.744  16.775  66.745  1.00  0.00    -0.260 C  
BRANCH  20  21
HETATM   21  C   UNL     1      -8.928  15.370  66.255  1.00  0.00    -0.341 C  
HETATM   22  C   UNL     1      -8.608  14.275  66.962  1.00  0.00    -0.213 C  
BRANCH  22  23
HETATM   23  C   UNL     1      -7.984  14.268  68.324  1.00  0.00    -0.140 C  
HETATM   24  C   UNL     1      -7.345  12.928  68.641  1.00  0.00    -0.099 C  
ENDBRANCH  22  23
ENDBRANCH  20  21
ENDBRANCH  19  20
ENDBRANCH  17  18
ENDBRANCH  16  17
ENDBRANCH  14  15
ENDBRANCH  13  14
ENDBRANCH  11  12
ENDBRANCH  10  11
ENDBRANCH   8   9
ENDBRANCH   7   8
ENDBRANCH   6   7
ENDBRANCH   4   6
ENDBRANCH   3   4
ENDBRANCH   2   3
TORSDOF 15
ENDMDL
MODEL      291
REMARK 921   NORMALIZED FREE ENERGY PREDICTED BY IDOCK:   -3.54 KCAL/MOL
REMARK 922        TOTAL FREE ENERGY PREDICTED BY IDOCK:   -9.20 KCAL/MOL
REMARK 923 INTER-LIGAND FREE ENERGY PREDICTED BY IDOCK:   -7.06 KCAL/MOL
REMARK 924 INTRA-LIGAND FREE ENERGY PREDICTED BY IDOCK:   -2.14 KCAL/MOL
REMARK 927      BINDING AFFINITY PREDICTED BY RF-SCORE:    0.00 PKD
ROOT
HETATM    1  C   UNL     1     -14.040   8.636  71.310  1.00  0.00    -0.244 C  
HETATM    2  C   UNL     1     -13.183   7.815  72.257  1.00  0.00     0.003 C  
ENDROOT
BRANCH   2   3
HETATM    3  O   UNL     1     -12.581   6.764  71.493  1.00  0.00    -0.361 OA 
BRANCH   3   4
HETATM    4  C   UNL     1     -11.289   6.495  71.831  1.00  0.00    -0.285 C  
HETATM    5  O   UNL     1     -10.689   5.464  71.576  1.00  0.00    -0.239 OA 
BRANCH   4   6
HETATM    6  C   UNL     1     -10.695   7.718  72.475  1.00  0.00    -0.372 C  
BRANCH   6   7
HETATM    7  C   UNL     1      -9.300   7.995  71.906  1.00  0.00    -0.225 C  
BRANCH   7   8
HETATM    8  C   UNL     1      -9.290   9.205  70.984  1.00  0.00    -0.333 C  
BRANCH   8   9
HETATM    9  C   UNL     1     -10.615   9.408  70.292  1.00  0.00    -0.297 C  
HETATM   10  C   UNL     1     -10.776   9.846  69.033  1.00  0.00    -0.244 C  
BRANCH  10  11
HETATM   11  C   UNL     1      -9.663  10.353  68.175  1.00  0.00    -0.165 C  
BRANCH  11  12
HETATM   12  C   UNL     1      -9.339  11.805  68.344  1.00  0.00    -0.185 C  
HETATM   13  C   UNL     1     -10.218  12.795  68.101  1.00  0.00    -0.241 C  
BRANCH  13  14
HETATM   14  C   UNL     1     -11.654  12.683  67.642  1.00  0.00    -0.414 C  
BRANCH  14  15
HETATM   15  C   UNL     1     -11.843  12.467  66.162  1.00  0.00    -0.459 C  
HETATM   16  C   UNL     1     -11.692  13.393  65.202  1.00  0.00    -0.345 C  
BRANCH  16  17
HETATM   17  C   UNL     1     -11.482  14.851  65.452  1.00  0.00    -0.320 C  
BRANCH  17  18
HETATM   18  C   UNL     1     -10.005  15.138  65.467  1.00  0.00    -0.384 C  
HETATM   19  C   UNL     1      -9.426  16.107  66.192  1.00  0.00    -0.362 C  
BRANCH  19  20
HETATM   20  C   UNL     1     -10.165  17.060  67.070  1.00  0.00    -0.303 C  
BRANCH  20  21
HETATM   21  C   UNL     1      -9.822  16.882  68.518  1.00  0.00    -0.267 C  
HETATM   22  C   UNL     1     -10.620  16.281  69.415  1.00  0.00    -0.301 C  
BRANCH  22  23
HETATM   23  C   UNL     1     -11.985  15.730  69.138  1.00  0.00    -0.312 C  
HETATM   24  C   UNL     1     -12.609  15.123  70.382  1.00  0.00    -0.405 C  
ENDBRANCH  22  23
ENDBRANCH  20  21
ENDBRANCH  19  20
ENDBRANCH  17  18
ENDBRANCH  16  17
ENDBRANCH  14  15
ENDBRANCH  13  14
ENDBRANCH  11  12
ENDBRANCH  10  11
ENDBRANCH   8   9
ENDBRANCH   7   8
ENDBRANCH   6   7
ENDBRANCH   4   6
ENDBRANCH   3   4
ENDBRANCH   2   3
TORSDOF 15
ENDMDL
MODEL      292
REMARK 921   NORMALIZED FREE ENERGY PREDICTED BY IDOCK:   -3.54 KCAL/MOL
REMARK 922        TOTAL FREE ENERGY PREDICTED BY IDOCK:   -9.19 KCAL/MOL
REMARK 923 INTER-LIGAND FREE ENERGY PREDICTED BY IDOCK:   -6.85 KCAL/MOL
REMARK 924 INTRA-LIGAND FREE ENERGY PREDICTED BY IDOCK:   -2.34 KCAL/MOL
REMARK 927      BINDING AFFINITY PREDICTED BY RF-SCORE:    0.00 PKD
ROOT
HETATM    1  C   UNL     1     -11.956  15.656  72.965  1.00  0.00    -0.590 C  
HETATM    2  C   UNL     1     -12.548  15.804  71.574  1.00  0.00    -0.455 C  
ENDROOT
BRANCH   2   3
HETATM    3  O   UNL     1     -13.255  14.594  71.276  1.00  0.00    -0.338 OA 
BRANCH   3   4
HETATM    4  C   UNL     1     -12.594  13.751  70.435  1.00  0.00    -0.256 C  
HETATM    5  O   UNL     1     -12.139  14.052  69.343  1.00  0.00    -0.324 OA 
BRANCH   4   6
HETATM    6  C   UNL     1     -12.426  12.422  71.118  1.00  0.00    -0.323 C  
BRANCH   6   7
HETATM    7  C   UNL     1     -12.561  11.282  70.104  1.00  0.00    -0.207 C  
BRANCH   7   8
HETATM    8  C   UNL     1     -11.208  10.796  69.609  1.00  0.00    -0.355 C  
BRANCH   8   9
HETATM    9  C   UNL     1     -10.600   9.763  70.526  1.00  0.00    -0.376 C  
HETATM   10  C   UNL     1      -9.349   9.285  70.437  1.00  0.00    -0.295 C  
BRANCH  10  11
HETATM   11  C   UNL     1      -8.414   9.590  69.312  1.00  0.00    -0.139 C  
BRANCH  11  12
HETATM   12  C   UNL     1      -7.411  10.666  69.591  1.00  0.00    -0.133 C  
HETATM   13  C   UNL     1      -6.792  11.372  68.627  1.00  0.00    -0.078 C  
BRANCH  13  14
HETATM   14  C   UNL     1      -6.961  11.262  67.128  1.00  0.00    -0.114 C  
BRANCH  14  15
HETATM   15  C   UNL     1      -6.417  10.001  66.508  1.00  0.00    -0.073 C  
HETATM   16  C   UNL     1      -6.920   9.365  65.439  1.00  0.00    -0.090 C  
BRANCH  16  17
HETATM   17  C   UNL     1      -8.217   9.702  64.781  1.00  0.00    -0.142 C  
BRANCH  17  18
HETATM   18  C   UNL     1      -9.348   9.288  65.685  1.00  0.00    -0.308 C  
HETATM   19  C   UNL     1     -10.330  10.104  66.095  1.00  0.00    -0.237 C  
BRANCH  19  20
HETATM   20  C   UNL     1     -10.433  11.549  65.738  1.00  0.00    -0.308 C  
BRANCH  20  21
HETATM   21  C   UNL     1     -11.629  12.204  66.360  1.00  0.00    -0.429 C  
HETATM   22  C   UNL     1     -12.384  13.133  65.751  1.00  0.00    -0.496 C  
BRANCH  22  23
HETATM   23  C   UNL     1     -12.141  13.695  64.384  1.00  0.00    -0.470 C  
HETATM   24  C   UNL     1     -11.847  15.183  64.433  1.00  0.00    -0.314 C  
ENDBRANCH  22  23
ENDBRANCH  20  21
ENDBRANCH  19  20
ENDBRANCH  17  18
ENDBRANCH  16  17
ENDBRANCH  14  15
ENDBRANCH  13  14
ENDBRANCH  11  12
ENDBRANCH  10  11
ENDBRANCH   8   9
ENDBRANCH   7   8
ENDBRANCH   6   7
ENDBRANCH   4   6
ENDBRANCH   3   4
ENDBRANCH   2   3
TORSDOF 15
ENDMDL
MODEL      293
REMARK 921   NORMALIZED FREE ENERGY PREDICTED BY IDOCK:   -3.54 KCAL/MOL
REMARK 922        TOTAL FREE ENERGY PREDICTED BY IDOCK:   -9.19 KCAL/MOL
REMARK 923 INTER-LIGAND FREE ENERGY PREDICTED BY IDOCK:   -6.75 KCAL/MOL
REMARK 924 INTRA-LIGAND FREE ENERGY PREDICTED BY IDOCK:   -2.44 KCAL/MOL
REMARK 927      BINDING AFFINITY PREDICTED BY RF-SCORE:    0.00 PKD
ROOT
HETATM    1  C   UNL     1      -7.138  18.988  68.858  1.00  0.00    -0.363 C  
HETATM    2  C   UNL     1      -8.449  18.392  68.379  1.00  0.00    -0.326 C  
ENDROOT
BRANCH   2   3
HETATM    3  O   UNL     1      -8.224  17.851  67.071  1.00  0.00    -0.214 OA 
BRANCH   3   4
HETATM    4  C   UNL     1      -7.993  16.509  67.053  1.00  0.00    -0.203 C  
HETATM    5  O   UNL     1      -7.040  15.960  66.525  1.00  0.00    -0.143 OA 
BRANCH   4   6
HETATM    6  C   UNL     1      -9.049  15.827  67.879  1.00  0.00    -0.186 C  
BRANCH   6   7
HETATM    7  C   UNL     1      -9.423  14.479  67.257  1.00  0.00    -0.218 C  
BRANCH   7   8
HETATM    8  C   UNL     1      -8.851  13.309  68.042  1.00  0.00    -0.190 C  
BRANCH   8   9
HETATM    9  C   UNL     1      -8.266  12.247  67.143  1.00  0.00    -0.179 C  
HETATM   10  C   UNL     1      -8.416  10.923  67.304  1.00  0.00    -0.125 C  
BRANCH  10  11
HETATM   11  C   UNL     1      -9.056  10.292  68.497  1.00  0.00    -0.138 C  
BRANCH  11  12
HETATM   12  C   UNL     1      -9.572   8.902  68.283  1.00  0.00    -0.159 C  
HETATM   13  C   UNL     1     -10.073   8.137  69.270  1.00  0.00    -0.202 C  
BRANCH  13  14
HETATM   14  C   UNL     1     -10.238   8.480  70.733  1.00  0.00    -0.237 C  
BRANCH  14  15
HETATM   15  C   UNL     1     -11.618   8.254  71.296  1.00  0.00    -0.318 C  
HETATM   16  C   UNL     1     -12.558   9.193  71.486  1.00  0.00    -0.413 C  
BRANCH  16  17
HETATM   17  C   UNL     1     -12.335  10.662  71.334  1.00  0.00    -0.455 C  
BRANCH  17  18
HETATM   18  C   UNL     1     -12.366  11.014  69.871  1.00  0.00    -0.356 C  
HETATM   19  C   UNL     1     -11.953  12.184  69.363  1.00  0.00    -0.329 C  
BRANCH  19  20
HETATM   20  C   UNL     1     -11.425  13.319  70.175  1.00  0.00    -0.038 C  
BRANCH  20  21
HETATM   21  C   UNL     1     -12.150  14.602  69.899  1.00  0.00    -0.385 C  
HETATM   22  C   UNL     1     -12.828  15.300  70.823  1.00  0.00    -0.494 C  
BRANCH  22  23
HETATM   23  C   UNL     1     -13.009  14.905  72.257  1.00  0.00    -0.423 C  
HETATM   24  C   UNL     1     -14.016  13.779  72.405  1.00  0.00    -0.651 C  
ENDBRANCH  22  23
ENDBRANCH  20  21
ENDBRANCH  19  20
ENDBRANCH  17  18
ENDBRANCH  16  17
ENDBRANCH  14  15
ENDBRANCH  13  14
ENDBRANCH  11  12
ENDBRANCH  10  11
ENDBRANCH   8   9
ENDBRANCH   7   8
ENDBRANCH   6   7
ENDBRANCH   4   6
ENDBRANCH   3   4
ENDBRANCH   2   3
TORSDOF 15
ENDMDL
MODEL      294
REMARK 921   NORMALIZED FREE ENERGY PREDICTED BY IDOCK:   -3.54 KCAL/MOL
REMARK 922        TOTAL FREE ENERGY PREDICTED BY IDOCK:   -9.19 KCAL/MOL
REMARK 923 INTER-LIGAND FREE ENERGY PREDICTED BY IDOCK:   -7.90 KCAL/MOL
REMARK 924 INTRA-LIGAND FREE ENERGY PREDICTED BY IDOCK:   -1.29 KCAL/MOL
REMARK 927      BINDING AFFINITY PREDICTED BY RF-SCORE:    0.00 PKD
ROOT
HETATM    1  C   UNL     1      -9.298  10.848  63.185  1.00  0.00    -0.336 C  
HETATM    2  C   UNL     1     -10.635  11.553  63.320  1.00  0.00    -0.338 C  
ENDROOT
BRANCH   2   3
HETATM    3  O   UNL     1     -10.887  11.736  64.719  1.00  0.00    -0.283 OA 
BRANCH   3   4
HETATM    4  C   UNL     1     -12.090  12.309  65.001  1.00  0.00    -0.327 C  
HETATM    5  O   UNL     1     -13.056  12.336  64.254  1.00  0.00    -0.746 OA 
BRANCH   4   6
HETATM    6  C   UNL     1     -12.066  12.806  66.420  1.00  0.00    -0.370 C  
BRANCH   6   7
HETATM    7  C   UNL     1     -12.127  14.337  66.448  1.00  0.00    -0.442 C  
BRANCH   7   8
HETATM    8  C   UNL     1     -10.786  14.954  66.812  1.00  0.00    -0.320 C  
BRANCH   8   9
HETATM    9  C   UNL     1      -9.984  14.074  67.739  1.00  0.00    -0.236 C  
HETATM   10  C   UNL     1      -9.948  14.183  69.077  1.00  0.00    -0.067 C  
BRANCH  10  11
HETATM   11  C   UNL     1     -10.578  15.299  69.843  1.00  0.00    -0.291 C  
BRANCH  11  12
HETATM   12  C   UNL     1     -12.045  15.145  70.104  1.00  0.00    -0.384 C  
HETATM   13  C   UNL     1     -12.639  13.957  70.321  1.00  0.00    -0.328 C  
BRANCH  13  14
HETATM   14  C   UNL     1     -12.006  12.585  70.366  1.00  0.00    -0.335 C  
BRANCH  14  15
HETATM   15  C   UNL     1     -12.723  11.572  71.221  1.00  0.00    -0.469 C  
HETATM   16  C   UNL     1     -12.338  10.305  71.437  1.00  0.00    -0.502 C  
BRANCH  16  17
HETATM   17  C   UNL     1     -11.219   9.622  70.720  1.00  0.00    -0.403 C  
BRANCH  17  18
HETATM   18  C   UNL     1     -11.295   8.143  70.987  1.00  0.00    -0.293 C  
HETATM   19  C   UNL     1     -10.746   7.201  70.206  1.00  0.00    -0.258 C  
BRANCH  19  20
HETATM   20  C   UNL     1     -10.002   7.478  68.943  1.00  0.00    -0.168 C  
BRANCH  20  21
HETATM   21  C   UNL     1     -10.893   7.442  67.738  1.00  0.00    -0.186 C  
HETATM   22  C   UNL     1     -10.932   6.430  66.858  1.00  0.00    -0.413 C  
BRANCH  22  23
HETATM   23  C   UNL     1     -10.078   5.200  66.903  1.00  0.00    -0.258 C  
HETATM   24  C   UNL     1      -8.907   5.296  65.942  1.00  0.00    -0.145 C  
ENDBRANCH  22  23
ENDBRANCH  20  21
ENDBRANCH  19  20
ENDBRANCH  17  18
ENDBRANCH  16  17
ENDBRANCH  14  15
ENDBRANCH  13  14
ENDBRANCH  11  12
ENDBRANCH  10  11
ENDBRANCH   8   9
ENDBRANCH   7   8
ENDBRANCH   6   7
ENDBRANCH   4   6
ENDBRANCH   3   4
ENDBRANCH   2   3
TORSDOF 15
ENDMDL
MODEL      295
REMARK 921   NORMALIZED FREE ENERGY PREDICTED BY IDOCK:   -3.53 KCAL/MOL
REMARK 922        TOTAL FREE ENERGY PREDICTED BY IDOCK:   -9.17 KCAL/MOL
REMARK 923 INTER-LIGAND FREE ENERGY PREDICTED BY IDOCK:   -6.62 KCAL/MOL
REMARK 924 INTRA-LIGAND FREE ENERGY PREDICTED BY IDOCK:   -2.55 KCAL/MOL
REMARK 927      BINDING AFFINITY PREDICTED BY RF-SCORE:    0.00 PKD
ROOT
HETATM    1  C   UNL     1     -12.564  15.686  70.349  1.00  0.00    -0.376 C  
HETATM    2  C   UNL     1     -11.742  15.808  69.079  1.00  0.00    -0.396 C  
ENDROOT
BRANCH   2   3
HETATM    3  O   UNL     1     -12.019  14.657  68.273  1.00  0.00    -0.310 OA 
BRANCH   3   4
HETATM    4  C   UNL     1     -11.080  13.674  68.360  1.00  0.00    -0.264 C  
HETATM    5  O   UNL     1      -9.909  13.835  68.664  1.00  0.00    -0.220 OA 
BRANCH   4   6
HETATM    6  C   UNL     1     -11.749  12.347  68.122  1.00  0.00    -0.408 C  
BRANCH   6   7
HETATM    7  C   UNL     1     -11.304  11.761  66.779  1.00  0.00    -0.385 C  
BRANCH   7   8
HETATM    8  C   UNL     1      -9.980  11.022  66.890  1.00  0.00    -0.231 C  
BRANCH   8   9
HETATM    9  C   UNL     1     -10.162   9.576  67.282  1.00  0.00    -0.295 C  
HETATM   10  C   UNL     1     -10.072   9.093  68.532  1.00  0.00    -0.212 C  
BRANCH  10  11
HETATM   11  C   UNL     1      -9.618   9.893  69.708  1.00  0.00    -0.261 C  
BRANCH  11  12
HETATM   12  C   UNL     1      -8.135   9.929  69.920  1.00  0.00    -0.200 C  
HETATM   13  C   UNL     1      -7.478   9.069  70.719  1.00  0.00    -0.121 C  
BRANCH  13  14
HETATM   14  C   UNL     1      -8.042   7.923  71.530  1.00  0.00    -0.117 C  
BRANCH  14  15
HETATM   15  C   UNL     1      -8.896   8.325  72.705  1.00  0.00    -0.310 C  
HETATM   16  C   UNL     1      -9.949   7.646  73.186  1.00  0.00    -0.363 C  
BRANCH  16  17
HETATM   17  C   UNL     1     -10.567   6.458  72.527  1.00  0.00    -0.240 C  
BRANCH  17  18
HETATM   18  C   UNL     1     -11.669   6.922  71.613  1.00  0.00    -0.343 C  
HETATM   19  C   UNL     1     -11.771   6.592  70.317  1.00  0.00    -0.432 C  
BRANCH  19  20
HETATM   20  C   UNL     1     -10.792   5.738  69.583  1.00  0.00    -0.418 C  
BRANCH  20  21
HETATM   21  C   UNL     1     -10.907   5.891  68.096  1.00  0.00    -0.323 C  
HETATM   22  C   UNL     1      -9.913   5.633  67.231  1.00  0.00    -0.182 C  
BRANCH  22  23
HETATM   23  C   UNL     1      -8.529   5.195  67.598  1.00  0.00    -0.105 C  
HETATM   24  C   UNL     1      -7.727   6.326  68.216  1.00  0.00    -0.104 C  
ENDBRANCH  22  23
ENDBRANCH  20  21
ENDBRANCH  19  20
ENDBRANCH  17  18
ENDBRANCH  16  17
ENDBRANCH  14  15
ENDBRANCH  13  14
ENDBRANCH  11  12
ENDBRANCH  10  11
ENDBRANCH   8   9
ENDBRANCH   7   8
ENDBRANCH   6   7
ENDBRANCH   4   6
ENDBRANCH   3   4
ENDBRANCH   2   3
TORSDOF 15
ENDMDL
MODEL      296
REMARK 921   NORMALIZED FREE ENERGY PREDICTED BY IDOCK:   -3.52 KCAL/MOL
REMARK 922        TOTAL FREE ENERGY PREDICTED BY IDOCK:   -9.17 KCAL/MOL
REMARK 923 INTER-LIGAND FREE ENERGY PREDICTED BY IDOCK:   -7.73 KCAL/MOL
REMARK 924 INTRA-LIGAND FREE ENERGY PREDICTED BY IDOCK:   -1.44 KCAL/MOL
REMARK 927      BINDING AFFINITY PREDICTED BY RF-SCORE:    0.00 PKD
ROOT
HETATM    1  C   UNL     1      -9.694   3.860  63.691  1.00  0.00    -0.162 C  
HETATM    2  C   UNL     1     -10.353   4.117  65.034  1.00  0.00    -0.192 C  
ENDROOT
BRANCH   2   3
HETATM    3  O   UNL     1      -9.658   5.205  65.654  1.00  0.00    -0.153 OA 
BRANCH   3   4
HETATM    4  C   UNL     1     -10.270   5.699  66.767  1.00  0.00    -0.230 C  
HETATM    5  O   UNL     1     -11.103   6.591  66.781  1.00  0.00    -0.362 OA 
BRANCH   4   6
HETATM    6  C   UNL     1      -9.829   4.894  67.958  1.00  0.00    -0.197 C  
BRANCH   6   7
HETATM    7  C   UNL     1     -10.390   5.502  69.247  1.00  0.00    -0.335 C  
BRANCH   7   8
HETATM    8  C   UNL     1      -9.359   5.516  70.366  1.00  0.00    -0.198 C  
BRANCH   8   9
HETATM    9  C   UNL     1      -9.637   4.465  71.413  1.00  0.00    -0.234 C  
HETATM   10  C   UNL     1     -10.512   4.586  72.424  1.00  0.00    -0.235 C  
BRANCH  10  11
HETATM   11  C   UNL     1     -11.233   5.851  72.759  1.00  0.00    -0.317 C  
BRANCH  11  12
HETATM   12  C   UNL     1     -10.440   6.845  73.551  1.00  0.00    -0.382 C  
HETATM   13  C   UNL     1     -10.114   8.067  73.092  1.00  0.00    -0.302 C  
BRANCH  13  14
HETATM   14  C   UNL     1     -10.458   8.693  71.759  1.00  0.00    -0.394 C  
BRANCH  14  15
HETATM   15  C   UNL     1     -11.811   9.353  71.687  1.00  0.00    -0.464 C  
HETATM   16  C   UNL     1     -12.186  10.294  70.808  1.00  0.00    -0.447 C  
BRANCH  16  17
HETATM   17  C   UNL     1     -11.266  10.982  69.854  1.00  0.00    -0.327 C  
BRANCH  17  18
HETATM   18  C   UNL     1     -11.415  10.358  68.492  1.00  0.00    -0.231 C  
HETATM   19  C   UNL     1     -11.098  10.966  67.340  1.00  0.00    -0.373 C  
BRANCH  19  20
HETATM   20  C   UNL     1     -10.576  12.360  67.235  1.00  0.00    -0.246 C  
BRANCH  20  21
HETATM   21  C   UNL     1     -11.662  13.356  66.961  1.00  0.00    -0.426 C  
HETATM   22  C   UNL     1     -12.451  13.333  65.876  1.00  0.00    -0.433 C  
BRANCH  22  23
HETATM   23  C   UNL     1     -12.358  12.351  64.749  1.00  0.00    -0.497 C  
HETATM   24  C   UNL     1     -12.079  13.040  63.426  1.00  0.00    -0.591 C  
ENDBRANCH  22  23
ENDBRANCH  20  21
ENDBRANCH  19  20
ENDBRANCH  17  18
ENDBRANCH  16  17
ENDBRANCH  14  15
ENDBRANCH  13  14
ENDBRANCH  11  12
ENDBRANCH  10  11
ENDBRANCH   8   9
ENDBRANCH   7   8
ENDBRANCH   6   7
ENDBRANCH   4   6
ENDBRANCH   3   4
ENDBRANCH   2   3
TORSDOF 15
ENDMDL
MODEL      297
REMARK 921   NORMALIZED FREE ENERGY PREDICTED BY IDOCK:   -3.52 KCAL/MOL
REMARK 922        TOTAL FREE ENERGY PREDICTED BY IDOCK:   -9.16 KCAL/MOL
REMARK 923 INTER-LIGAND FREE ENERGY PREDICTED BY IDOCK:   -6.83 KCAL/MOL
REMARK 924 INTRA-LIGAND FREE ENERGY PREDICTED BY IDOCK:   -2.33 KCAL/MOL
REMARK 927      BINDING AFFINITY PREDICTED BY RF-SCORE:    0.00 PKD
ROOT
HETATM    1  C   UNL     1     -10.253   4.886  66.821  1.00  0.00    -0.274 C  
HETATM    2  C   UNL     1     -10.262   6.069  67.772  1.00  0.00    -0.179 C  
ENDROOT
BRANCH   2   3
HETATM    3  O   UNL     1      -9.534   5.685  68.945  1.00  0.00    -0.120 OA 
BRANCH   3   4
HETATM    4  C   UNL     1     -10.316   5.245  69.970  1.00  0.00    -0.295 C  
HETATM    5  O   UNL     1     -10.099   4.260  70.656  1.00  0.00    -0.190 OA 
BRANCH   4   6
HETATM    6  C   UNL     1     -11.431   6.232  70.183  1.00  0.00    -0.452 C  
BRANCH   6   7
HETATM    7  C   UNL     1     -11.640   6.485  71.679  1.00  0.00    -0.357 C  
BRANCH   7   8
HETATM    8  C   UNL     1     -11.645   7.969  72.011  1.00  0.00    -0.369 C  
BRANCH   8   9
HETATM    9  C   UNL     1     -10.372   8.408  72.692  1.00  0.00    -0.314 C  
HETATM   10  C   UNL     1      -9.237   8.758  72.066  1.00  0.00    -0.294 C  
BRANCH  10  11
HETATM   11  C   UNL     1      -9.012   8.613  70.597  1.00  0.00    -0.199 C  
BRANCH  11  12
HETATM   12  C   UNL     1      -8.635   9.875  69.882  1.00  0.00    -0.216 C  
HETATM   13  C   UNL     1      -9.518  10.645  69.220  1.00  0.00    -0.152 C  
BRANCH  13  14
HETATM   14  C   UNL     1     -11.008  10.440  69.061  1.00  0.00    -0.282 C  
BRANCH  14  15
HETATM   15  C   UNL     1     -11.852  10.930  70.210  1.00  0.00    -0.450 C  
HETATM   16  C   UNL     1     -12.340  12.171  70.360  1.00  0.00    -0.315 C  
BRANCH  16  17
HETATM   17  C   UNL     1     -11.981  13.336  69.497  1.00  0.00    -0.366 C  
BRANCH  17  18
HETATM   18  C   UNL     1     -11.554  14.482  70.373  1.00  0.00    -0.308 C  
HETATM   19  C   UNL     1     -11.342  15.733  69.938  1.00  0.00    -0.349 C  
BRANCH  19  20
HETATM   20  C   UNL     1     -11.472  16.167  68.517  1.00  0.00    -0.324 C  
BRANCH  20  21
HETATM   21  C   UNL     1     -10.157  16.574  67.924  1.00  0.00    -0.256 C  
HETATM   22  C   UNL     1      -9.527  15.900  66.948  1.00  0.00    -0.242 C  
BRANCH  22  23
HETATM   23  C   UNL     1     -10.001  14.624  66.322  1.00  0.00    -0.306 C  
HETATM   24  C   UNL     1      -9.151  13.441  66.748  1.00  0.00    -0.221 C  
ENDBRANCH  22  23
ENDBRANCH  20  21
ENDBRANCH  19  20
ENDBRANCH  17  18
ENDBRANCH  16  17
ENDBRANCH  14  15
ENDBRANCH  13  14
ENDBRANCH  11  12
ENDBRANCH  10  11
ENDBRANCH   8   9
ENDBRANCH   7   8
ENDBRANCH   6   7
ENDBRANCH   4   6
ENDBRANCH   3   4
ENDBRANCH   2   3
TORSDOF 15
ENDMDL
MODEL      298
REMARK 921   NORMALIZED FREE ENERGY PREDICTED BY IDOCK:   -3.52 KCAL/MOL
REMARK 922        TOTAL FREE ENERGY PREDICTED BY IDOCK:   -9.15 KCAL/MOL
REMARK 923 INTER-LIGAND FREE ENERGY PREDICTED BY IDOCK:   -6.04 KCAL/MOL
REMARK 924 INTRA-LIGAND FREE ENERGY PREDICTED BY IDOCK:   -3.11 KCAL/MOL
REMARK 927      BINDING AFFINITY PREDICTED BY RF-SCORE:    0.00 PKD
ROOT
HETATM    1  C   UNL     1     -10.297  19.779  67.488  1.00  0.00    -0.578 C  
HETATM    2  C   UNL     1     -10.710  18.503  66.778  1.00  0.00    -0.257 C  
ENDROOT
BRANCH   2   3
HETATM    3  O   UNL     1      -9.514  17.822  66.382  1.00  0.00    -0.281 OA 
BRANCH   3   4
HETATM    4  C   UNL     1      -9.190  16.757  67.168  1.00  0.00    -0.224 C  
HETATM    5  O   UNL     1      -9.023  16.792  68.377  1.00  0.00    -0.217 OA 
BRANCH   4   6
HETATM    6  C   UNL     1      -9.176  15.517  66.317  1.00  0.00    -0.364 C  
BRANCH   6   7
HETATM    7  C   UNL     1     -10.590  14.943  66.191  1.00  0.00    -0.322 C  
BRANCH   7   8
HETATM    8  C   UNL     1     -10.719  14.000  65.004  1.00  0.00    -0.409 C  
BRANCH   8   9
HETATM    9  C   UNL     1     -11.571  12.796  65.321  1.00  0.00    -0.379 C  
HETATM   10  C   UNL     1     -11.186  11.516  65.193  1.00  0.00    -0.214 C  
BRANCH  10  11
HETATM   11  C   UNL     1      -9.901  11.087  64.564  1.00  0.00    -0.343 C  
BRANCH  11  12
HETATM   12  C   UNL     1      -9.263   9.879  65.177  1.00  0.00    -0.288 C  
HETATM   13  C   UNL     1      -8.368   9.941  66.180  1.00  0.00    -0.123 C  
BRANCH  13  14
HETATM   14  C   UNL     1      -7.837  11.166  66.890  1.00  0.00    -0.152 C  
BRANCH  14  15
HETATM   15  C   UNL     1      -6.461  11.018  67.487  1.00  0.00    -0.063 C  
HETATM   16  C   UNL     1      -6.180  10.655  68.748  1.00  0.00    -0.043 C  
BRANCH  16  17
HETATM   17  C   UNL     1      -7.194  10.505  69.835  1.00  0.00    -0.136 C  
BRANCH  17  18
HETATM   18  C   UNL     1      -7.527   9.046  69.996  1.00  0.00    -0.062 C  
HETATM   19  C   UNL     1      -8.755   8.571  70.256  1.00  0.00    -0.144 C  
BRANCH  19  20
HETATM   20  C   UNL     1      -9.965   9.421  70.450  1.00  0.00    -0.306 C  
BRANCH  20  21
HETATM   21  C   UNL     1     -10.876   9.394  69.260  1.00  0.00    -0.190 C  
HETATM   22  C   UNL     1     -11.179  10.469  68.515  1.00  0.00    -0.332 C  
BRANCH  22  23
HETATM   23  C   UNL     1     -10.699  11.866  68.764  1.00  0.00    -0.257 C  
HETATM   24  C   UNL     1     -11.829  12.776  69.211  1.00  0.00    -0.358 C  
ENDBRANCH  22  23
ENDBRANCH  20  21
ENDBRANCH  19  20
ENDBRANCH  17  18
ENDBRANCH  16  17
ENDBRANCH  14  15
ENDBRANCH  13  14
ENDBRANCH  11  12
ENDBRANCH  10  11
ENDBRANCH   8   9
ENDBRANCH   7   8
ENDBRANCH   6   7
ENDBRANCH   4   6
ENDBRANCH   3   4
ENDBRANCH   2   3
TORSDOF 15
ENDMDL
MODEL      299
REMARK 921   NORMALIZED FREE ENERGY PREDICTED BY IDOCK:   -3.51 KCAL/MOL
REMARK 922        TOTAL FREE ENERGY PREDICTED BY IDOCK:   -9.15 KCAL/MOL
REMARK 923 INTER-LIGAND FREE ENERGY PREDICTED BY IDOCK:   -6.98 KCAL/MOL
REMARK 924 INTRA-LIGAND FREE ENERGY PREDICTED BY IDOCK:   -2.16 KCAL/MOL
REMARK 927      BINDING AFFINITY PREDICTED BY RF-SCORE:    0.00 PKD
ROOT
HETATM    1  C   UNL     1     -12.371  12.211  63.594  1.00  0.00    -0.673 C  
HETATM    2  C   UNL     1     -10.873  11.995  63.486  1.00  0.00    -0.444 C  
ENDROOT
BRANCH   2   3
HETATM    3  O   UNL     1     -10.558  10.793  64.199  1.00  0.00    -0.347 OA 
BRANCH   3   4
HETATM    4  C   UNL     1      -9.376  10.838  64.876  1.00  0.00    -0.222 C  
HETATM    5  O   UNL     1      -8.301  10.444  64.453  1.00  0.00    -0.165 OA 
BRANCH   4   6
HETATM    6  C   UNL     1      -9.597  11.546  66.185  1.00  0.00    -0.248 C  
BRANCH   6   7
HETATM    7  C   UNL     1      -8.878  10.806  67.317  1.00  0.00    -0.133 C  
BRANCH   7   8
HETATM    8  C   UNL     1      -9.844  10.018  68.187  1.00  0.00    -0.162 C  
BRANCH   8   9
HETATM    9  C   UNL     1     -11.270  10.484  68.027  1.00  0.00    -0.361 C  
HETATM   10  C   UNL     1     -12.029  11.011  69.001  1.00  0.00    -0.364 C  
BRANCH  10  11
HETATM   11  C   UNL     1     -11.627  11.069  70.438  1.00  0.00    -0.389 C  
BRANCH  11  12
HETATM   12  C   UNL     1     -12.731  10.821  71.419  1.00  0.00    -0.544 C  
HETATM   13  C   UNL     1     -13.212   9.597  71.702  1.00  0.00    -0.499 C  
BRANCH  13  14
HETATM   14  C   UNL     1     -12.772   8.263  71.142  1.00  0.00    -0.118 C  
BRANCH  14  15
HETATM   15  C   UNL     1     -11.395   7.812  71.558  1.00  0.00    -0.289 C  
HETATM   16  C   UNL     1     -10.661   6.859  70.963  1.00  0.00    -0.258 C  
BRANCH  16  17
HETATM   17  C   UNL     1     -11.158   5.952  69.885  1.00  0.00    -0.417 C  
BRANCH  17  18
HETATM   18  C   UNL     1     -11.271   6.730  68.602  1.00  0.00    -0.166 C  
HETATM   19  C   UNL     1     -10.877   6.278  67.403  1.00  0.00    -0.448 C  
BRANCH  19  20
HETATM   20  C   UNL     1     -10.243   4.949  67.167  1.00  0.00    -0.211 C  
BRANCH  20  21
HETATM   21  C   UNL     1      -8.785   4.944  67.517  1.00  0.00    -0.103 C  
HETATM   22  C   UNL     1      -8.234   4.149  68.448  1.00  0.00    -0.088 C  
BRANCH  22  23
HETATM   23  C   UNL     1      -8.974   3.175  69.313  1.00  0.00    -0.178 C  
HETATM   24  C   UNL     1      -8.999   1.787  68.700  1.00  0.00    -0.157 C  
ENDBRANCH  22  23
ENDBRANCH  20  21
ENDBRANCH  19  20
ENDBRANCH  17  18
ENDBRANCH  16  17
ENDBRANCH  14  15
ENDBRANCH  13  14
ENDBRANCH  11  12
ENDBRANCH  10  11
ENDBRANCH   8   9
ENDBRANCH   7   8
ENDBRANCH   6   7
ENDBRANCH   4   6
ENDBRANCH   3   4
ENDBRANCH   2   3
TORSDOF 15
ENDMDL
MODEL      300
REMARK 921   NORMALIZED FREE ENERGY PREDICTED BY IDOCK:   -3.51 KCAL/MOL
REMARK 922        TOTAL FREE ENERGY PREDICTED BY IDOCK:   -9.14 KCAL/MOL
REMARK 923 INTER-LIGAND FREE ENERGY PREDICTED BY IDOCK:   -7.43 KCAL/MOL
REMARK 924 INTRA-LIGAND FREE ENERGY PREDICTED BY IDOCK:   -1.71 KCAL/MOL
REMARK 927      BINDING AFFINITY PREDICTED BY RF-SCORE:    0.00 PKD
ROOT
HETATM    1  C   UNL     1     -12.733  16.003  73.652  1.00  0.00    -0.715 C  
HETATM    2  C   UNL     1     -12.694  14.494  73.495  1.00  0.00    -0.204 C  
ENDROOT
BRANCH   2   3
HETATM    3  O   UNL     1     -13.511  14.157  72.367  1.00  0.00    -0.430 OA 
BRANCH   3   4
HETATM    4  C   UNL     1     -13.244  14.883  71.246  1.00  0.00    -0.408 C  
HETATM    5  O   UNL     1     -13.931  15.791  70.808  1.00  0.00    -0.302 OA 
BRANCH   4   6
HETATM    6  C   UNL     1     -11.912  14.449  70.697  1.00  0.00    -0.393 C  
BRANCH   6   7
HETATM    7  C   UNL     1     -12.037  14.101  69.211  1.00  0.00    -0.364 C  
BRANCH   7   8
HETATM    8  C   UNL     1     -11.260  12.843  68.853  1.00  0.00    -0.327 C  
BRANCH   8   9
HETATM    9  C   UNL     1     -12.154  11.633  68.734  1.00  0.00    -0.221 C  
HETATM   10  C   UNL     1     -12.628  10.912  69.762  1.00  0.00    -0.150 C  
BRANCH  10  11
HETATM   11  C   UNL     1     -12.210  11.105  71.183  1.00  0.00    -0.387 C  
BRANCH  11  12
HETATM   12  C   UNL     1     -12.979  10.304  72.188  1.00  0.00    -0.410 C  
HETATM   13  C   UNL     1     -12.638   9.058  72.563  1.00  0.00    -0.342 C  
BRANCH  13  14
HETATM   14  C   UNL     1     -11.463   8.227  72.098  1.00  0.00    -0.427 C  
BRANCH  14  15
HETATM   15  C   UNL     1     -10.502   7.807  73.182  1.00  0.00    -0.413 C  
HETATM   16  C   UNL     1     -10.244   6.547  73.564  1.00  0.00    -0.281 C  
BRANCH  16  17
HETATM   17  C   UNL     1     -11.000   5.345  73.100  1.00  0.00    -0.353 C  
BRANCH  17  18
HETATM   18  C   UNL     1     -10.027   4.335  72.553  1.00  0.00    -0.218 C  
HETATM   19  C   UNL     1      -9.453   4.411  71.344  1.00  0.00    -0.220 C  
BRANCH  19  20
HETATM   20  C   UNL     1      -9.714   5.493  70.351  1.00  0.00    -0.242 C  
BRANCH  20  21
HETATM   21  C   UNL     1      -8.448   6.098  69.823  1.00  0.00    -0.128 C  
HETATM   22  C   UNL     1      -8.342   7.359  69.375  1.00  0.00    -0.132 C  
BRANCH  22  23
HETATM   23  C   UNL     1      -9.461   8.351  69.287  1.00  0.00    -0.155 C  
HETATM   24  C   UNL     1     -10.470   7.965  68.220  1.00  0.00    -0.212 C  
ENDBRANCH  22  23
ENDBRANCH  20  21
ENDBRANCH  19  20
ENDBRANCH  17  18
ENDBRANCH  16  17
ENDBRANCH  14  15
ENDBRANCH  13  14
ENDBRANCH  11  12
ENDBRANCH  10  11
ENDBRANCH   8   9
ENDBRANCH   7   8
ENDBRANCH   6   7
ENDBRANCH   4   6
ENDBRANCH   3   4
ENDBRANCH   2   3
TORSDOF 15
ENDMDL
MODEL      301
REMARK 921   NORMALIZED FREE ENERGY PREDICTED BY IDOCK:   -3.51 KCAL/MOL
REMARK 922        TOTAL FREE ENERGY PREDICTED BY IDOCK:   -9.13 KCAL/MOL
REMARK 923 INTER-LIGAND FREE ENERGY PREDICTED BY IDOCK:   -7.08 KCAL/MOL
REMARK 924 INTRA-LIGAND FREE ENERGY PREDICTED BY IDOCK:   -2.05 KCAL/MOL
REMARK 927      BINDING AFFINITY PREDICTED BY RF-SCORE:    0.00 PKD
ROOT
HETATM    1  C   UNL     1      -8.164  10.036  63.868  1.00  0.00    -0.159 C  
HETATM    2  C   UNL     1      -9.554   9.943  64.469  1.00  0.00    -0.222 C  
ENDROOT
BRANCH   2   3
HETATM    3  O   UNL     1     -10.143  11.247  64.399  1.00  0.00    -0.257 OA 
BRANCH   3   4
HETATM    4  C   UNL     1     -10.529  11.753  65.604  1.00  0.00    -0.265 C  
HETATM    5  O   UNL     1     -11.572  11.492  66.181  1.00  0.00    -0.345 OA 
BRANCH   4   6
HETATM    6  C   UNL     1      -9.414  12.601  66.151  1.00  0.00    -0.177 C  
BRANCH   6   7
HETATM    7  C   UNL     1      -9.244  12.352  67.653  1.00  0.00    -0.185 C  
BRANCH   7   8
HETATM    8  C   UNL     1      -8.866  10.910  67.953  1.00  0.00    -0.134 C  
BRANCH   8   9
HETATM    9  C   UNL     1      -7.899  10.800  69.106  1.00  0.00    -0.142 C  
HETATM   10  C   UNL     1      -7.960   9.885  70.087  1.00  0.00    -0.181 C  
BRANCH  10  11
HETATM   11  C   UNL     1      -9.094   8.931  70.273  1.00  0.00    -0.201 C  
BRANCH  11  12
HETATM   12  C   UNL     1      -9.929   9.162  71.495  1.00  0.00    -0.358 C  
HETATM   13  C   UNL     1     -11.214   9.557  71.452  1.00  0.00    -0.452 C  
BRANCH  13  14
HETATM   14  C   UNL     1     -12.072   9.831  70.237  1.00  0.00    -0.104 C  
BRANCH  14  15
HETATM   15  C   UNL     1     -12.158  11.277  69.821  1.00  0.00    -0.394 C  
HETATM   16  C   UNL     1     -12.592  12.294  70.582  1.00  0.00    -0.241 C  
BRANCH  16  17
HETATM   17  C   UNL     1     -13.234  12.140  71.922  1.00  0.00    -0.474 C  
BRANCH  17  18
HETATM   18  C   UNL     1     -13.926  13.426  72.285  1.00  0.00    -0.605 C  
HETATM   19  C   UNL     1     -13.297  14.586  72.522  1.00  0.00    -0.565 C  
BRANCH  19  20
HETATM   20  C   UNL     1     -11.816  14.768  72.487  1.00  0.00    -0.237 C  
BRANCH  20  21
HETATM   21  C   UNL     1     -11.418  16.080  71.882  1.00  0.00    -0.409 C  
HETATM   22  C   UNL     1     -11.295  16.297  70.563  1.00  0.00    -0.318 C  
BRANCH  22  23
HETATM   23  C   UNL     1     -11.491  15.272  69.487  1.00  0.00    -0.318 C  
HETATM   24  C   UNL     1     -11.087  15.805  68.125  1.00  0.00    -0.341 C  
ENDBRANCH  22  23
ENDBRANCH  20  21
ENDBRANCH  19  20
ENDBRANCH  17  18
ENDBRANCH  16  17
ENDBRANCH  14  15
ENDBRANCH  13  14
ENDBRANCH  11  12
ENDBRANCH  10  11
ENDBRANCH   8   9
ENDBRANCH   7   8
ENDBRANCH   6   7
ENDBRANCH   4   6
ENDBRANCH   3   4
ENDBRANCH   2   3
TORSDOF 15
ENDMDL
MODEL      302
REMARK 921   NORMALIZED FREE ENERGY PREDICTED BY IDOCK:   -3.49 KCAL/MOL
REMARK 922        TOTAL FREE ENERGY PREDICTED BY IDOCK:   -9.09 KCAL/MOL
REMARK 923 INTER-LIGAND FREE ENERGY PREDICTED BY IDOCK:   -7.32 KCAL/MOL
REMARK 924 INTRA-LIGAND FREE ENERGY PREDICTED BY IDOCK:   -1.77 KCAL/MOL
REMARK 927      BINDING AFFINITY PREDICTED BY RF-SCORE:    0.00 PKD
ROOT
HETATM    1  C   UNL     1      -9.512   9.464  66.093  1.00  0.00    -0.287 C  
HETATM    2  C   UNL     1      -9.482  10.644  65.139  1.00  0.00    -0.227 C  
ENDROOT
BRANCH   2   3
HETATM    3  O   UNL     1     -10.837  10.956  64.796  1.00  0.00    -0.245 OA 
BRANCH   3   4
HETATM    4  C   UNL     1     -11.082  12.286  64.635  1.00  0.00    -0.313 C  
HETATM    5  O   UNL     1     -10.503  13.025  63.855  1.00  0.00    -0.392 OA 
BRANCH   4   6
HETATM    6  C   UNL     1     -12.252  12.669  65.499  1.00  0.00    -0.501 C  
BRANCH   6   7
HETATM    7  C   UNL     1     -11.883  13.849  66.402  1.00  0.00    -0.436 C  
BRANCH   7   8
HETATM    8  C   UNL     1     -11.901  13.468  67.875  1.00  0.00    -0.397 C  
BRANCH   8   9
HETATM    9  C   UNL     1     -11.363  12.078  68.113  1.00  0.00    -0.349 C  
HETATM   10  C   UNL     1     -11.562  11.347  69.221  1.00  0.00    -0.384 C  
BRANCH  10  11
HETATM   11  C   UNL     1     -12.219  11.865  70.459  1.00  0.00    -0.426 C  
BRANCH  11  12
HETATM   12  C   UNL     1     -13.146  10.903  71.138  1.00  0.00    -0.351 C  
HETATM   13  C   UNL     1     -12.745   9.731  71.663  1.00  0.00    -0.517 C  
BRANCH  13  14
HETATM   14  C   UNL     1     -11.350   9.148  71.703  1.00  0.00    -0.446 C  
BRANCH  14  15
HETATM   15  C   UNL     1     -10.875   8.526  70.415  1.00  0.00    -0.251 C  
HETATM   16  C   UNL     1     -10.839   7.214  70.137  1.00  0.00    -0.279 C  
BRANCH  16  17
HETATM   17  C   UNL     1     -11.100   6.127  71.128  1.00  0.00    -0.360 C  
BRANCH  17  18
HETATM   18  C   UNL     1     -10.328   4.900  70.726  1.00  0.00    -0.228 C  
HETATM   19  C   UNL     1      -9.455   4.258  71.517  1.00  0.00    -0.220 C  
BRANCH  19  20
HETATM   20  C   UNL     1      -9.102   4.681  72.903  1.00  0.00    -0.131 C  
BRANCH  20  21
HETATM   21  C   UNL     1      -7.667   5.099  73.022  1.00  0.00    -0.097 C  
HETATM   22  C   UNL     1      -7.244   6.371  72.973  1.00  0.00    -0.082 C  
BRANCH  22  23
HETATM   23  C   UNL     1      -8.113   7.572  72.753  1.00  0.00    -0.134 C  
HETATM   24  C   UNL     1      -8.721   8.070  74.051  1.00  0.00    -0.265 C  
ENDBRANCH  22  23
ENDBRANCH  20  21
ENDBRANCH  19  20
ENDBRANCH  17  18
ENDBRANCH  16  17
ENDBRANCH  14  15
ENDBRANCH  13  14
ENDBRANCH  11  12
ENDBRANCH  10  11
ENDBRANCH   8   9
ENDBRANCH   7   8
ENDBRANCH   6   7
ENDBRANCH   4   6
ENDBRANCH   3   4
ENDBRANCH   2   3
TORSDOF 15
ENDMDL
MODEL      303
REMARK 921   NORMALIZED FREE ENERGY PREDICTED BY IDOCK:   -3.47 KCAL/MOL
REMARK 922        TOTAL FREE ENERGY PREDICTED BY IDOCK:   -9.07 KCAL/MOL
REMARK 923 INTER-LIGAND FREE ENERGY PREDICTED BY IDOCK:   -7.38 KCAL/MOL
REMARK 924 INTRA-LIGAND FREE ENERGY PREDICTED BY IDOCK:   -1.69 KCAL/MOL
REMARK 927      BINDING AFFINITY PREDICTED BY RF-SCORE:    0.00 PKD
ROOT
HETATM    1  C   UNL     1     -10.564  19.930  67.574  1.00  0.00    -0.492 C  
HETATM    2  C   UNL     1      -9.095  20.281  67.429  1.00  0.00    -0.365 C  
ENDROOT
BRANCH   2   3
HETATM    3  O   UNL     1      -8.739  20.089  66.055  1.00  0.00    -0.342 OA 
BRANCH   3   4
HETATM    4  C   UNL     1      -7.473  19.624  65.863  1.00  0.00    -0.316 C  
HETATM    5  O   UNL     1      -6.657  20.088  65.082  1.00  0.00    -0.273 OA 
BRANCH   4   6
HETATM    6  C   UNL     1      -7.212  18.516  66.846  1.00  0.00    -0.226 C  
BRANCH   6   7
HETATM    7  C   UNL     1      -7.541  17.159  66.217  1.00  0.00    -0.352 C  
BRANCH   7   8
HETATM    8  C   UNL     1      -8.817  16.559  66.788  1.00  0.00    -0.255 C  
BRANCH   8   9
HETATM    9  C   UNL     1     -10.026  16.875  65.942  1.00  0.00    -0.274 C  
HETATM   10  C   UNL     1     -10.779  15.971  65.295  1.00  0.00    -0.417 C  
BRANCH  10  11
HETATM   11  C   UNL     1     -10.438  14.521  65.185  1.00  0.00    -0.439 C  
BRANCH  11  12
HETATM   12  C   UNL     1     -11.114  13.630  66.181  1.00  0.00    -0.299 C  
HETATM   13  C   UNL     1     -12.038  12.710  65.846  1.00  0.00    -0.459 C  
BRANCH  13  14
HETATM   14  C   UNL     1     -12.569  12.370  64.472  1.00  0.00    -0.477 C  
BRANCH  14  15
HETATM   15  C   UNL     1     -11.538  12.329  63.374  1.00  0.00    -0.530 C  
HETATM   16  C   UNL     1     -10.501  11.481  63.294  1.00  0.00    -0.421 C  
BRANCH  16  17
HETATM   17  C   UNL     1     -10.087  10.540  64.378  1.00  0.00    -0.395 C  
BRANCH  17  18
HETATM   18  C   UNL     1      -8.923   9.717  63.895  1.00  0.00    -0.254 C  
HETATM   19  C   UNL     1      -7.913   9.299  64.672  1.00  0.00    -0.125 C  
BRANCH  19  20
HETATM   20  C   UNL     1      -7.780   9.612  66.125  1.00  0.00    -0.102 C  
BRANCH  20  21
HETATM   21  C   UNL     1      -6.607  10.501  66.410  1.00  0.00    -0.106 C  
HETATM   22  C   UNL     1      -6.699  11.716  66.974  1.00  0.00    -0.145 C  
BRANCH  22  23
HETATM   23  C   UNL     1      -7.971  12.399  67.371  1.00  0.00    -0.178 C  
HETATM   24  C   UNL     1      -7.721  13.513  68.371  1.00  0.00    -0.135 C  
ENDBRANCH  22  23
ENDBRANCH  20  21
ENDBRANCH  19  20
ENDBRANCH  17  18
ENDBRANCH  16  17
ENDBRANCH  14  15
ENDBRANCH  13  14
ENDBRANCH  11  12
ENDBRANCH  10  11
ENDBRANCH   8   9
ENDBRANCH   7   8
ENDBRANCH   6   7
ENDBRANCH   4   6
ENDBRANCH   3   4
ENDBRANCH   2   3
TORSDOF 15
ENDMDL
MODEL      304
REMARK 921   NORMALIZED FREE ENERGY PREDICTED BY IDOCK:   -3.46 KCAL/MOL
REMARK 922        TOTAL FREE ENERGY PREDICTED BY IDOCK:   -9.05 KCAL/MOL
REMARK 923 INTER-LIGAND FREE ENERGY PREDICTED BY IDOCK:   -6.65 KCAL/MOL
REMARK 924 INTRA-LIGAND FREE ENERGY PREDICTED BY IDOCK:   -2.40 KCAL/MOL
REMARK 927      BINDING AFFINITY PREDICTED BY RF-SCORE:    0.00 PKD
ROOT
HETATM    1  C   UNL     1      -6.957   5.358  71.736  1.00  0.00    -0.071 C  
HETATM    2  C   UNL     1      -7.144   4.680  70.391  1.00  0.00    -0.048 C  
ENDROOT
BRANCH   2   3
HETATM    3  O   UNL     1      -8.179   5.384  69.693  1.00  0.00    -0.097 OA 
BRANCH   3   4
HETATM    4  C   UNL     1      -7.725   6.274  68.768  1.00  0.00    -0.100 C  
HETATM    5  O   UNL     1      -6.740   6.124  68.062  1.00  0.00    -0.059 OA 
BRANCH   4   6
HETATM    6  C   UNL     1      -8.695   7.421  68.686  1.00  0.00    -0.128 C  
BRANCH   6   7
HETATM    7  C   UNL     1      -8.369   8.470  69.754  1.00  0.00    -0.124 C  
BRANCH   7   8
HETATM    8  C   UNL     1      -9.500   9.471  69.934  1.00  0.00    -0.247 C  
BRANCH   8   9
HETATM    9  C   UNL     1     -10.551   9.346  68.858  1.00  0.00    -0.231 C  
HETATM   10  C   UNL     1     -11.053  10.362  68.139  1.00  0.00    -0.344 C  
BRANCH  10  11
HETATM   11  C   UNL     1     -10.758  11.802  68.406  1.00  0.00    -0.249 C  
BRANCH  11  12
HETATM   12  C   UNL     1     -11.591  12.434  69.479  1.00  0.00    -0.353 C  
HETATM   13  C   UNL     1     -12.117  13.669  69.380  1.00  0.00    -0.364 C  
BRANCH  13  14
HETATM   14  C   UNL     1     -12.011  14.645  68.230  1.00  0.00    -0.282 C  
BRANCH  14  15
HETATM   15  C   UNL     1     -10.786  15.523  68.241  1.00  0.00    -0.271 C  
HETATM   16  C   UNL     1      -9.899  15.656  67.242  1.00  0.00    -0.225 C  
BRANCH  16  17
HETATM   17  C   UNL     1      -9.878  14.816  66.007  1.00  0.00    -0.350 C  
BRANCH  17  18
HETATM   18  C   UNL     1     -10.861  15.378  65.015  1.00  0.00    -0.462 C  
HETATM   19  C   UNL     1     -11.920  14.711  64.534  1.00  0.00    -0.473 C  
BRANCH  19  20
HETATM   20  C   UNL     1     -12.266  13.304  64.891  1.00  0.00    -0.466 C  
BRANCH  20  21
HETATM   21  C   UNL     1     -12.346  12.415  63.686  1.00  0.00    -0.647 C  
HETATM   22  C   UNL     1     -11.343  11.635  63.254  1.00  0.00    -0.288 C  
BRANCH  22  23
HETATM   23  C   UNL     1      -9.978  11.550  63.866  1.00  0.00    -0.360 C  
HETATM   24  C   UNL     1      -9.861  10.371  64.815  1.00  0.00    -0.406 C  
ENDBRANCH  22  23
ENDBRANCH  20  21
ENDBRANCH  19  20
ENDBRANCH  17  18
ENDBRANCH  16  17
ENDBRANCH  14  15
ENDBRANCH  13  14
ENDBRANCH  11  12
ENDBRANCH  10  11
ENDBRANCH   8   9
ENDBRANCH   7   8
ENDBRANCH   6   7
ENDBRANCH   4   6
ENDBRANCH   3   4
ENDBRANCH   2   3
TORSDOF 15
ENDMDL
MODEL      305
REMARK 921   NORMALIZED FREE ENERGY PREDICTED BY IDOCK:   -3.42 KCAL/MOL
REMARK 922        TOTAL FREE ENERGY PREDICTED BY IDOCK:   -8.98 KCAL/MOL
REMARK 923 INTER-LIGAND FREE ENERGY PREDICTED BY IDOCK:   -7.43 KCAL/MOL
REMARK 924 INTRA-LIGAND FREE ENERGY PREDICTED BY IDOCK:   -1.55 KCAL/MOL
REMARK 927      BINDING AFFINITY PREDICTED BY RF-SCORE:    0.00 PKD
ROOT
HETATM    1  C   UNL     1     -10.844  16.213  69.696  1.00  0.00    -0.338 C  
HETATM    2  C   UNL     1     -10.738  16.600  68.232  1.00  0.00    -0.351 C  
ENDROOT
BRANCH   2   3
HETATM    3  O   UNL     1      -9.398  16.323  67.809  1.00  0.00    -0.213 OA 
BRANCH   3   4
HETATM    4  C   UNL     1      -9.195  16.459  66.468  1.00  0.00    -0.277 C  
HETATM    5  O   UNL     1      -8.412  17.235  65.945  1.00  0.00    -0.533 OA 
BRANCH   4   6
HETATM    6  C   UNL     1     -10.015  15.424  65.749  1.00  0.00    -0.393 C  
BRANCH   6   7
HETATM    7  C   UNL     1     -10.950  16.095  64.738  1.00  0.00    -0.330 C  
BRANCH   7   8
HETATM    8  C   UNL     1     -12.144  15.219  64.395  1.00  0.00    -0.263 C  
BRANCH   8   9
HETATM    9  C   UNL     1     -12.471  14.241  65.497  1.00  0.00    -0.434 C  
HETATM   10  C   UNL     1     -12.433  12.904  65.386  1.00  0.00    -0.511 C  
BRANCH  10  11
HETATM   11  C   UNL     1     -12.213  12.176  64.100  1.00  0.00    -0.509 C  
BRANCH  11  12
HETATM   12  C   UNL     1     -10.785  12.072  63.663  1.00  0.00    -0.506 C  
HETATM   13  C   UNL     1      -9.872  11.304  64.285  1.00  0.00    -0.319 C  
BRANCH  13  14
HETATM   14  C   UNL     1     -10.062  10.409  65.489  1.00  0.00    -0.352 C  
BRANCH  14  15
HETATM   15  C   UNL     1      -9.100   9.254  65.592  1.00  0.00    -0.268 C  
HETATM   16  C   UNL     1      -9.286   8.130  66.302  1.00  0.00    -0.245 C  
BRANCH  16  17
HETATM   17  C   UNL     1     -10.409   7.905  67.259  1.00  0.00    -0.377 C  
BRANCH  17  18
HETATM   18  C   UNL     1     -11.028   6.561  66.984  1.00  0.00    -0.466 C  
HETATM   19  C   UNL     1     -10.706   5.430  67.629  1.00  0.00    -0.125 C  
BRANCH  19  20
HETATM   20  C   UNL     1      -9.668   5.332  68.696  1.00  0.00    -0.199 C  
BRANCH  20  21
HETATM   21  C   UNL     1      -9.112   3.946  68.823  1.00  0.00    -0.195 C  
HETATM   22  C   UNL     1      -8.010   3.514  68.190  1.00  0.00    -0.071 C  
BRANCH  22  23
HETATM   23  C   UNL     1      -7.183   4.315  67.232  1.00  0.00    -0.068 C  
HETATM   24  C   UNL     1      -7.710   4.210  65.812  1.00  0.00    -0.090 C  
ENDBRANCH  22  23
ENDBRANCH  20  21
ENDBRANCH  19  20
ENDBRANCH  17  18
ENDBRANCH  16  17
ENDBRANCH  14  15
ENDBRANCH  13  14
ENDBRANCH  11  12
ENDBRANCH  10  11
ENDBRANCH   8   9
ENDBRANCH   7   8
ENDBRANCH   6   7
ENDBRANCH   4   6
ENDBRANCH   3   4
ENDBRANCH   2   3
TORSDOF 15
ENDMDL
MODEL      306
REMARK 921   NORMALIZED FREE ENERGY PREDICTED BY IDOCK:   -3.42 KCAL/MOL
REMARK 922        TOTAL FREE ENERGY PREDICTED BY IDOCK:   -8.98 KCAL/MOL
REMARK 923 INTER-LIGAND FREE ENERGY PREDICTED BY IDOCK:   -6.85 KCAL/MOL
REMARK 924 INTRA-LIGAND FREE ENERGY PREDICTED BY IDOCK:   -2.12 KCAL/MOL
REMARK 927      BINDING AFFINITY PREDICTED BY RF-SCORE:    0.00 PKD
ROOT
HETATM    1  C   UNL     1     -11.562  12.516  67.174  1.00  0.00    -0.437 C  
HETATM    2  C   UNL     1     -11.207  12.115  65.754  1.00  0.00    -0.339 C  
ENDROOT
BRANCH   2   3
HETATM    3  O   UNL     1     -10.472  10.887  65.824  1.00  0.00    -0.248 OA 
BRANCH   3   4
HETATM    4  C   UNL     1      -9.164  11.037  66.175  1.00  0.00    -0.190 C  
HETATM    5  O   UNL     1      -8.757  11.641  67.155  1.00  0.00    -0.153 OA 
BRANCH   4   6
HETATM    6  C   UNL     1      -8.314  10.247  65.218  1.00  0.00    -0.165 C  
BRANCH   6   7
HETATM    7  C   UNL     1      -8.687   8.763  65.275  1.00  0.00    -0.216 C  
BRANCH   7   8
HETATM    8  C   UNL     1      -8.703   8.233  66.701  1.00  0.00    -0.150 C  
BRANCH   8   9
HETATM    9  C   UNL     1      -7.331   7.815  67.171  1.00  0.00    -0.091 C  
HETATM   10  C   UNL     1      -6.722   8.258  68.282  1.00  0.00    -0.065 C  
BRANCH  10  11
HETATM   11  C   UNL     1      -7.248   9.360  69.143  1.00  0.00    -0.066 C  
BRANCH  11  12
HETATM   12  C   UNL     1      -7.706   8.939  70.505  1.00  0.00    -0.106 C  
HETATM   13  C   UNL     1      -8.985   8.644  70.800  1.00  0.00    -0.209 C  
BRANCH  13  14
HETATM   14  C   UNL     1     -10.186   8.651  69.880  1.00  0.00    -0.206 C  
BRANCH  14  15
HETATM   15  C   UNL     1     -10.798   7.301  69.608  1.00  0.00    -0.238 C  
HETATM   16  C   UNL     1     -11.728   6.689  70.357  1.00  0.00    -0.446 C  
BRANCH  16  17
HETATM   17  C   UNL     1     -12.191   7.165  71.694  1.00  0.00    -0.385 C  
BRANCH  17  18
HETATM   18  C   UNL     1     -13.555   7.784  71.549  1.00  0.00    -0.391 C  
HETATM   19  C   UNL     1     -13.832   9.076  71.780  1.00  0.00    -0.453 C  
BRANCH  19  20
HETATM   20  C   UNL     1     -12.834  10.084  72.242  1.00  0.00    -0.306 C  
BRANCH  20  21
HETATM   21  C   UNL     1     -12.496  11.080  71.174  1.00  0.00    -0.502 C  
HETATM   22  C   UNL     1     -12.851  12.374  71.207  1.00  0.00    -0.337 C  
BRANCH  22  23
HETATM   23  C   UNL     1     -13.668  13.027  72.279  1.00  0.00    -0.608 C  
HETATM   24  C   UNL     1     -13.716  14.534  72.108  1.00  0.00    -0.547 C  
ENDBRANCH  22  23
ENDBRANCH  20  21
ENDBRANCH  19  20
ENDBRANCH  17  18
ENDBRANCH  16  17
ENDBRANCH  14  15
ENDBRANCH  13  14
ENDBRANCH  11  12
ENDBRANCH  10  11
ENDBRANCH   8   9
ENDBRANCH   7   8
ENDBRANCH   6   7
ENDBRANCH   4   6
ENDBRANCH   3   4
ENDBRANCH   2   3
TORSDOF 15
ENDMDL
MODEL      307
REMARK 921   NORMALIZED FREE ENERGY PREDICTED BY IDOCK:   -3.42 KCAL/MOL
REMARK 922        TOTAL FREE ENERGY PREDICTED BY IDOCK:   -8.98 KCAL/MOL
REMARK 923 INTER-LIGAND FREE ENERGY PREDICTED BY IDOCK:   -6.53 KCAL/MOL
REMARK 924 INTRA-LIGAND FREE ENERGY PREDICTED BY IDOCK:   -2.45 KCAL/MOL
REMARK 927      BINDING AFFINITY PREDICTED BY RF-SCORE:    0.00 PKD
ROOT
HETATM    1  C   UNL     1     -12.656  12.528  64.635  1.00  0.00    -0.507 C  
HETATM    2  C   UNL     1     -12.355  13.898  65.216  1.00  0.00    -0.464 C  
ENDROOT
BRANCH   2   3
HETATM    3  O   UNL     1     -12.526  13.811  66.636  1.00  0.00    -0.386 OA 
BRANCH   3   4
HETATM    4  C   UNL     1     -11.516  14.374  67.357  1.00  0.00    -0.358 C  
HETATM    5  O   UNL     1     -10.541  14.941  66.890  1.00  0.00    -0.289 OA 
BRANCH   4   6
HETATM    6  C   UNL     1     -11.853  14.273  68.819  1.00  0.00    -0.377 C  
BRANCH   6   7
HETATM    7  C   UNL     1     -12.028  12.807  69.225  1.00  0.00    -0.300 C  
BRANCH   7   8
HETATM    8  C   UNL     1     -10.811  11.967  68.866  1.00  0.00    -0.252 C  
BRANCH   8   9
HETATM    9  C   UNL     1     -11.154  10.832  67.933  1.00  0.00    -0.369 C  
HETATM   10  C   UNL     1     -10.487  10.521  66.810  1.00  0.00    -0.302 C  
BRANCH  10  11
HETATM   11  C   UNL     1      -9.392  11.354  66.228  1.00  0.00    -0.228 C  
BRANCH  11  12
HETATM   12  C   UNL     1      -8.170  10.596  65.807  1.00  0.00    -0.161 C  
HETATM   13  C   UNL     1      -7.266  10.105  66.673  1.00  0.00    -0.105 C  
BRANCH  13  14
HETATM   14  C   UNL     1      -7.273  10.184  68.183  1.00  0.00    -0.081 C  
BRANCH  14  15
HETATM   15  C   UNL     1      -7.296   8.857  68.897  1.00  0.00    -0.075 C  
HETATM   16  C   UNL     1      -8.075   8.533  69.941  1.00  0.00    -0.118 C  
BRANCH  16  17
HETATM   17  C   UNL     1      -8.934   9.497  70.691  1.00  0.00    -0.226 C  
BRANCH  17  18
HETATM   18  C   UNL     1     -10.298   8.892  70.884  1.00  0.00    -0.303 C  
HETATM   19  C   UNL     1     -10.639   8.098  71.909  1.00  0.00    -0.324 C  
BRANCH  19  20
HETATM   20  C   UNL     1      -9.709   7.676  72.997  1.00  0.00    -0.301 C  
BRANCH  20  21
HETATM   21  C   UNL     1     -10.386   6.820  74.025  1.00  0.00    -0.377 C  
HETATM   22  C   UNL     1     -10.418   5.479  73.989  1.00  0.00    -0.308 C  
BRANCH  22  23
HETATM   23  C   UNL     1      -9.828   4.620  72.913  1.00  0.00    -0.180 C  
HETATM   24  C   UNL     1      -9.611   3.195  73.389  1.00  0.00    -0.140 C  
ENDBRANCH  22  23
ENDBRANCH  20  21
ENDBRANCH  19  20
ENDBRANCH  17  18
ENDBRANCH  16  17
ENDBRANCH  14  15
ENDBRANCH  13  14
ENDBRANCH  11  12
ENDBRANCH  10  11
ENDBRANCH   8   9
ENDBRANCH   7   8
ENDBRANCH   6   7
ENDBRANCH   4   6
ENDBRANCH   3   4
ENDBRANCH   2   3
TORSDOF 15
ENDMDL
MODEL      308
REMARK 921   NORMALIZED FREE ENERGY PREDICTED BY IDOCK:   -3.42 KCAL/MOL
REMARK 922        TOTAL FREE ENERGY PREDICTED BY IDOCK:   -8.98 KCAL/MOL
REMARK 923 INTER-LIGAND FREE ENERGY PREDICTED BY IDOCK:   -6.43 KCAL/MOL
REMARK 924 INTRA-LIGAND FREE ENERGY PREDICTED BY IDOCK:   -2.55 KCAL/MOL
REMARK 927      BINDING AFFINITY PREDICTED BY RF-SCORE:    0.00 PKD
ROOT
HETATM    1  C   UNL     1     -12.761  10.703  70.854  1.00  0.00    -0.498 C  
HETATM    2  C   UNL     1     -11.739   9.805  71.527  1.00  0.00    -0.375 C  
ENDROOT
BRANCH   2   3
HETATM    3  O   UNL     1     -12.223   8.459  71.436  1.00  0.00    -0.297 OA 
BRANCH   3   4
HETATM    4  C   UNL     1     -11.406   7.616  70.744  1.00  0.00    -0.281 C  
HETATM    5  O   UNL     1     -11.732   6.536  70.278  1.00  0.00    -0.404 OA 
BRANCH   4   6
HETATM    6  C   UNL     1     -10.071   8.283  70.559  1.00  0.00    -0.210 C  
BRANCH   6   7
HETATM    7  C   UNL     1      -9.535   8.017  69.149  1.00  0.00    -0.155 C  
BRANCH   7   8
HETATM    8  C   UNL     1      -8.699   9.176  68.629  1.00  0.00    -0.129 C  
BRANCH   8   9
HETATM    9  C   UNL     1      -9.467  10.475  68.615  1.00  0.00    -0.172 C  
HETATM   10  C   UNL     1     -10.257  10.900  67.616  1.00  0.00    -0.214 C  
BRANCH  10  11
HETATM   11  C   UNL     1     -10.370  10.220  66.291  1.00  0.00    -0.256 C  
BRANCH  11  12
HETATM   12  C   UNL     1     -10.017  11.068  65.108  1.00  0.00    -0.333 C  
HETATM   13  C   UNL     1     -10.845  11.990  64.582  1.00  0.00    -0.357 C  
BRANCH  13  14
HETATM   14  C   UNL     1     -12.234  12.375  65.040  1.00  0.00    -0.465 C  
BRANCH  14  15
HETATM   15  C   UNL     1     -12.481  13.856  65.172  1.00  0.00    -0.479 C  
HETATM   16  C   UNL     1     -11.858  14.689  66.019  1.00  0.00    -0.280 C  
BRANCH  16  17
HETATM   17  C   UNL     1     -10.931  14.259  67.108  1.00  0.00    -0.305 C  
BRANCH  17  18
HETATM   18  C   UNL     1     -11.089  15.186  68.283  1.00  0.00    -0.295 C  
HETATM   19  C   UNL     1     -10.186  16.105  68.652  1.00  0.00    -0.244 C  
BRANCH  19  20
HETATM   20  C   UNL     1      -8.878  16.327  67.969  1.00  0.00    -0.182 C  
BRANCH  20  21
HETATM   21  C   UNL     1      -7.712  16.085  68.879  1.00  0.00    -0.196 C  
HETATM   22  C   UNL     1      -7.185  14.876  69.126  1.00  0.00    -0.153 C  
BRANCH  22  23
HETATM   23  C   UNL     1      -7.687  13.576  68.577  1.00  0.00    -0.125 C  
HETATM   24  C   UNL     1      -6.998  13.214  67.274  1.00  0.00    -0.021 C  
ENDBRANCH  22  23
ENDBRANCH  20  21
ENDBRANCH  19  20
ENDBRANCH  17  18
ENDBRANCH  16  17
ENDBRANCH  14  15
ENDBRANCH  13  14
ENDBRANCH  11  12
ENDBRANCH  10  11
ENDBRANCH   8   9
ENDBRANCH   7   8
ENDBRANCH   6   7
ENDBRANCH   4   6
ENDBRANCH   3   4
ENDBRANCH   2   3
TORSDOF 15
ENDMDL
MODEL      309
REMARK 921   NORMALIZED FREE ENERGY PREDICTED BY IDOCK:   -3.42 KCAL/MOL
REMARK 922        TOTAL FREE ENERGY PREDICTED BY IDOCK:   -8.96 KCAL/MOL
REMARK 923 INTER-LIGAND FREE ENERGY PREDICTED BY IDOCK:   -6.36 KCAL/MOL
REMARK 924 INTRA-LIGAND FREE ENERGY PREDICTED BY IDOCK:   -2.60 KCAL/MOL
REMARK 927      BINDING AFFINITY PREDICTED BY RF-SCORE:    0.00 PKD
ROOT
HETATM    1  C   UNL     1     -10.174  15.779  69.594  1.00  0.00    -0.289 C  
HETATM    2  C   UNL     1     -10.850  16.085  68.270  1.00  0.00    -0.319 C  
ENDROOT
BRANCH   2   3
HETATM    3  O   UNL     1      -9.834  16.515  67.356  1.00  0.00    -0.244 OA 
BRANCH   3   4
HETATM    4  C   UNL     1     -10.302  16.876  66.129  1.00  0.00    -0.320 C  
HETATM    5  O   UNL     1     -10.426  18.022  65.726  1.00  0.00    -0.573 OA 
BRANCH   4   6
HETATM    6  C   UNL     1     -10.540  15.632  65.318  1.00  0.00    -0.448 C  
BRANCH   6   7
HETATM    7  C   UNL     1     -11.877  15.727  64.577  1.00  0.00    -0.126 C  
BRANCH   7   8
HETATM    8  C   UNL     1     -12.519  14.363  64.380  1.00  0.00    -0.339 C  
BRANCH   8   9
HETATM    9  C   UNL     1     -12.109  13.378  65.448  1.00  0.00    -0.457 C  
HETATM   10  C   UNL     1     -11.522  12.192  65.228  1.00  0.00    -0.388 C  
BRANCH  10  11
HETATM   11  C   UNL     1     -11.326  11.593  63.873  1.00  0.00    -0.457 C  
BRANCH  11  12
HETATM   12  C   UNL     1      -9.991  11.855  63.247  1.00  0.00    -0.409 C  
HETATM   13  C   UNL     1      -8.969  10.981  63.286  1.00  0.00    -0.173 C  
BRANCH  13  14
HETATM   14  C   UNL     1      -8.931   9.607  63.919  1.00  0.00    -0.254 C  
BRANCH  14  15
HETATM   15  C   UNL     1      -7.988   8.626  63.272  1.00  0.00    -0.163 C  
HETATM   16  C   UNL     1      -7.361   7.610  63.885  1.00  0.00    -0.092 C  
BRANCH  16  17
HETATM   17  C   UNL     1      -7.352   7.384  65.362  1.00  0.00    -0.072 C  
BRANCH  17  18
HETATM   18  C   UNL     1      -8.382   6.340  65.703  1.00  0.00    -0.147 C  
HETATM   19  C   UNL     1      -9.209   6.406  66.756  1.00  0.00    -0.154 C  
BRANCH  19  20
HETATM   20  C   UNL     1      -9.214   7.510  67.760  1.00  0.00    -0.139 C  
BRANCH  20  21
HETATM   21  C   UNL     1     -10.130   8.630  67.367  1.00  0.00    -0.292 C  
HETATM   22  C   UNL     1      -9.722   9.883  67.107  1.00  0.00    -0.224 C  
BRANCH  22  23
HETATM   23  C   UNL     1      -8.312  10.379  67.202  1.00  0.00    -0.126 C  
HETATM   24  C   UNL     1      -8.223  11.870  66.930  1.00  0.00    -0.157 C  
ENDBRANCH  22  23
ENDBRANCH  20  21
ENDBRANCH  19  20
ENDBRANCH  17  18
ENDBRANCH  16  17
ENDBRANCH  14  15
ENDBRANCH  13  14
ENDBRANCH  11  12
ENDBRANCH  10  11
ENDBRANCH   8   9
ENDBRANCH   7   8
ENDBRANCH   6   7
ENDBRANCH   4   6
ENDBRANCH   3   4
ENDBRANCH   2   3
TORSDOF 15
ENDMDL
MODEL      310
REMARK 921   NORMALIZED FREE ENERGY PREDICTED BY IDOCK:   -3.41 KCAL/MOL
REMARK 922        TOTAL FREE ENERGY PREDICTED BY IDOCK:   -8.95 KCAL/MOL
REMARK 923 INTER-LIGAND FREE ENERGY PREDICTED BY IDOCK:   -7.02 KCAL/MOL
REMARK 924 INTRA-LIGAND FREE ENERGY PREDICTED BY IDOCK:   -1.93 KCAL/MOL
REMARK 927      BINDING AFFINITY PREDICTED BY RF-SCORE:    0.00 PKD
ROOT
HETATM    1  C   UNL     1      -8.287   4.685  71.033  1.00  0.00    -0.098 C  
HETATM    2  C   UNL     1      -8.469   5.154  72.466  1.00  0.00    -0.121 C  
ENDROOT
BRANCH   2   3
HETATM    3  O   UNL     1      -9.064   6.457  72.421  1.00  0.00    -0.139 OA 
BRANCH   3   4
HETATM    4  C   UNL     1     -10.025   6.666  73.364  1.00  0.00    -0.210 C  
HETATM    5  O   UNL     1      -9.971   6.298  74.526  1.00  0.00    -0.283 OA 
BRANCH   4   6
HETATM    6  C   UNL     1     -11.112   7.516  72.764  1.00  0.00    -0.416 C  
BRANCH   6   7
HETATM    7  C   UNL     1     -10.686   8.027  71.384  1.00  0.00    -0.270 C  
BRANCH   7   8
HETATM    8  C   UNL     1     -11.660   7.605  70.295  1.00  0.00    -0.079 C  
BRANCH   8   9
HETATM    9  C   UNL     1     -11.331   6.244  69.730  1.00  0.00    -0.506 C  
HETATM   10  C   UNL     1     -10.842   6.010  68.502  1.00  0.00    -0.363 C  
BRANCH  10  11
HETATM   11  C   UNL     1     -10.696   7.055  67.445  1.00  0.00    -0.383 C  
BRANCH  11  12
HETATM   12  C   UNL     1      -9.285   7.400  67.081  1.00  0.00    -0.159 C  
HETATM   13  C   UNL     1      -8.640   8.481  67.555  1.00  0.00    -0.128 C  
BRANCH  13  14
HETATM   14  C   UNL     1      -9.148   9.531  68.518  1.00  0.00    -0.131 C  
BRANCH  14  15
HETATM   15  C   UNL     1      -8.700  10.941  68.229  1.00  0.00    -0.140 C  
HETATM   16  C   UNL     1      -9.488  12.026  68.179  1.00  0.00    -0.200 C  
BRANCH  16  17
HETATM   17  C   UNL     1     -10.981  11.996  68.228  1.00  0.00    -0.275 C  
BRANCH  17  18
HETATM   18  C   UNL     1     -11.519  13.213  67.524  1.00  0.00    -0.371 C  
HETATM   19  C   UNL     1     -12.034  14.284  68.146  1.00  0.00    -0.343 C  
BRANCH  19  20
HETATM   20  C   UNL     1     -12.173  14.416  69.625  1.00  0.00    -0.353 C  
BRANCH  20  21
HETATM   21  C   UNL     1     -11.791  15.781  70.112  1.00  0.00    -0.369 C  
HETATM   22  C   UNL     1     -11.575  16.091  71.400  1.00  0.00    -0.520 C  
BRANCH  22  23
HETATM   23  C   UNL     1     -11.715  15.151  72.559  1.00  0.00    -0.475 C  
HETATM   24  C   UNL     1     -12.833  15.576  73.493  1.00  0.00    -0.687 C  
ENDBRANCH  22  23
ENDBRANCH  20  21
ENDBRANCH  19  20
ENDBRANCH  17  18
ENDBRANCH  16  17
ENDBRANCH  14  15
ENDBRANCH  13  14
ENDBRANCH  11  12
ENDBRANCH  10  11
ENDBRANCH   8   9
ENDBRANCH   7   8
ENDBRANCH   6   7
ENDBRANCH   4   6
ENDBRANCH   3   4
ENDBRANCH   2   3
TORSDOF 15
ENDMDL
MODEL      311
REMARK 921   NORMALIZED FREE ENERGY PREDICTED BY IDOCK:   -3.41 KCAL/MOL
REMARK 922        TOTAL FREE ENERGY PREDICTED BY IDOCK:   -8.95 KCAL/MOL
REMARK 923 INTER-LIGAND FREE ENERGY PREDICTED BY IDOCK:   -6.62 KCAL/MOL
REMARK 924 INTRA-LIGAND FREE ENERGY PREDICTED BY IDOCK:   -2.34 KCAL/MOL
REMARK 927      BINDING AFFINITY PREDICTED BY RF-SCORE:    0.00 PKD
ROOT
HETATM    1  C   UNL     1     -11.750   8.359  71.648  1.00  0.00    -0.354 C  
HETATM    2  C   UNL     1     -10.394   8.191  72.310  1.00  0.00    -0.292 C  
ENDROOT
BRANCH   2   3
HETATM    3  O   UNL     1      -9.548   7.493  71.388  1.00  0.00    -0.156 OA 
BRANCH   3   4
HETATM    4  C   UNL     1      -8.489   8.222  70.938  1.00  0.00    -0.132 C  
HETATM    5  O   UNL     1      -7.996   9.183  71.506  1.00  0.00    -0.335 OA 
BRANCH   4   6
HETATM    6  C   UNL     1      -7.964   7.584  69.681  1.00  0.00    -0.125 C  
BRANCH   6   7
HETATM    7  C   UNL     1      -6.469   7.876  69.520  1.00  0.00    -0.035 C  
BRANCH   7   8
HETATM    8  C   UNL     1      -6.053   7.931  68.059  1.00  0.00    -0.046 C  
BRANCH   8   9
HETATM    9  C   UNL     1      -6.186   9.317  67.477  1.00  0.00    -0.058 C  
HETATM   10  C   UNL     1      -7.003   9.662  66.469  1.00  0.00    -0.085 C  
BRANCH  10  11
HETATM   11  C   UNL     1      -7.792   8.685  65.659  1.00  0.00    -0.101 C  
BRANCH  11  12
HETATM   12  C   UNL     1      -9.168   8.394  66.176  1.00  0.00    -0.263 C  
HETATM   13  C   UNL     1     -10.177   9.283  66.140  1.00  0.00    -0.229 C  
BRANCH  13  14
HETATM   14  C   UNL     1     -10.168  10.692  65.593  1.00  0.00    -0.319 C  
BRANCH  14  15
HETATM   15  C   UNL     1      -9.903  10.808  64.114  1.00  0.00    -0.384 C  
HETATM   16  C   UNL     1     -10.649  11.485  63.227  1.00  0.00    -0.405 C  
BRANCH  16  17
HETATM   17  C   UNL     1     -11.977  12.099  63.526  1.00  0.00    -0.619 C  
BRANCH  17  18
HETATM   18  C   UNL     1     -11.790  13.570  63.785  1.00  0.00    -0.429 C  
HETATM   19  C   UNL     1     -12.056  14.176  64.951  1.00  0.00    -0.438 C  
BRANCH  19  20
HETATM   20  C   UNL     1     -12.601  13.487  66.156  1.00  0.00    -0.355 C  
BRANCH  20  21
HETATM   21  C   UNL     1     -12.019  14.023  67.430  1.00  0.00    -0.439 C  
HETATM   22  C   UNL     1     -11.697  13.266  68.490  1.00  0.00    -0.388 C  
BRANCH  22  23
HETATM   23  C   UNL     1     -11.898  11.785  68.599  1.00  0.00    -0.369 C  
HETATM   24  C   UNL     1     -10.684  11.097  69.197  1.00  0.00    -0.262 C  
ENDBRANCH  22  23
ENDBRANCH  20  21
ENDBRANCH  19  20
ENDBRANCH  17  18
ENDBRANCH  16  17
ENDBRANCH  14  15
ENDBRANCH  13  14
ENDBRANCH  11  12
ENDBRANCH  10  11
ENDBRANCH   8   9
ENDBRANCH   7   8
ENDBRANCH   6   7
ENDBRANCH   4   6
ENDBRANCH   3   4
ENDBRANCH   2   3
TORSDOF 15
ENDMDL
MODEL      312
REMARK 921   NORMALIZED FREE ENERGY PREDICTED BY IDOCK:   -3.39 KCAL/MOL
REMARK 922        TOTAL FREE ENERGY PREDICTED BY IDOCK:   -8.92 KCAL/MOL
REMARK 923 INTER-LIGAND FREE ENERGY PREDICTED BY IDOCK:   -6.65 KCAL/MOL
REMARK 924 INTRA-LIGAND FREE ENERGY PREDICTED BY IDOCK:   -2.26 KCAL/MOL
REMARK 927      BINDING AFFINITY PREDICTED BY RF-SCORE:    0.00 PKD
ROOT
HETATM    1  C   UNL     1      -7.555   6.098  73.435  1.00  0.00    -0.096 C  
HETATM    2  C   UNL     1      -8.933   5.654  73.891  1.00  0.00    -0.126 C  
ENDROOT
BRANCH   2   3
HETATM    3  O   UNL     1      -8.875   4.242  74.124  1.00  0.00    -0.096 OA 
BRANCH   3   4
HETATM    4  C   UNL     1      -8.686   3.496  72.999  1.00  0.00    -0.093 C  
HETATM    5  O   UNL     1      -7.727   2.774  72.779  1.00  0.00    -0.051 OA 
BRANCH   4   6
HETATM    6  C   UNL     1      -9.902   3.627  72.124  1.00  0.00    -0.240 C  
BRANCH   6   7
HETATM    7  C   UNL     1      -9.495   3.656  70.648  1.00  0.00    -0.242 C  
BRANCH   7   8
HETATM    8  C   UNL     1      -9.225   5.071  70.158  1.00  0.00    -0.186 C  
BRANCH   8   9
HETATM    9  C   UNL     1     -10.256   5.537  69.160  1.00  0.00    -0.309 C  
HETATM   10  C   UNL     1     -11.374   6.217  69.458  1.00  0.00    -0.475 C  
BRANCH  10  11
HETATM   11  C   UNL     1     -11.849   6.480  70.850  1.00  0.00    -0.391 C  
BRANCH  11  12
HETATM   12  C   UNL     1     -12.384   7.858  71.091  1.00  0.00    -0.248 C  
HETATM   13  C   UNL     1     -11.679   8.832  71.695  1.00  0.00    -0.402 C  
BRANCH  13  14
HETATM   14  C   UNL     1     -10.264   8.775  72.227  1.00  0.00    -0.310 C  
BRANCH  14  15
HETATM   15  C   UNL     1      -9.193   8.560  71.189  1.00  0.00    -0.248 C  
HETATM   16  C   UNL     1      -9.001   9.300  70.086  1.00  0.00    -0.239 C  
BRANCH  16  17
HETATM   17  C   UNL     1      -9.932  10.363  69.603  1.00  0.00    -0.209 C  
BRANCH  17  18
HETATM   18  C   UNL     1     -10.263  10.106  68.158  1.00  0.00    -0.200 C  
HETATM   19  C   UNL     1     -11.068  10.879  67.413  1.00  0.00    -0.373 C  
BRANCH  19  20
HETATM   20  C   UNL     1     -11.773  12.094  67.915  1.00  0.00    -0.403 C  
BRANCH  20  21
HETATM   21  C   UNL     1     -11.074  13.360  67.523  1.00  0.00    -0.294 C  
HETATM   22  C   UNL     1     -11.430  14.129  66.482  1.00  0.00    -0.368 C  
BRANCH  22  23
HETATM   23  C   UNL     1     -12.544  13.838  65.523  1.00  0.00    -0.551 C  
HETATM   24  C   UNL     1     -12.018  13.460  64.151  1.00  0.00    -0.505 C  
ENDBRANCH  22  23
ENDBRANCH  20  21
ENDBRANCH  19  20
ENDBRANCH  17  18
ENDBRANCH  16  17
ENDBRANCH  14  15
ENDBRANCH  13  14
ENDBRANCH  11  12
ENDBRANCH  10  11
ENDBRANCH   8   9
ENDBRANCH   7   8
ENDBRANCH   6   7
ENDBRANCH   4   6
ENDBRANCH   3   4
ENDBRANCH   2   3
TORSDOF 15
ENDMDL
MODEL      313
REMARK 921   NORMALIZED FREE ENERGY PREDICTED BY IDOCK:   -3.39 KCAL/MOL
REMARK 922        TOTAL FREE ENERGY PREDICTED BY IDOCK:   -8.92 KCAL/MOL
REMARK 923 INTER-LIGAND FREE ENERGY PREDICTED BY IDOCK:   -6.61 KCAL/MOL
REMARK 924 INTRA-LIGAND FREE ENERGY PREDICTED BY IDOCK:   -2.30 KCAL/MOL
REMARK 927      BINDING AFFINITY PREDICTED BY RF-SCORE:    0.00 PKD
ROOT
HETATM    1  C   UNL     1     -10.495   5.316  66.576  1.00  0.00    -0.354 C  
HETATM    2  C   UNL     1      -9.389   6.346  66.439  1.00  0.00    -0.147 C  
ENDROOT
BRANCH   2   3
HETATM    3  O   UNL     1      -9.912   7.603  66.886  1.00  0.00    -0.210 OA 
BRANCH   3   4
HETATM    4  C   UNL     1      -9.542   8.667  66.120  1.00  0.00    -0.235 C  
HETATM    5  O   UNL     1      -8.782   8.625  65.166  1.00  0.00    -0.184 OA 
BRANCH   4   6
HETATM    6  C   UNL     1     -10.306   9.879  66.578  1.00  0.00    -0.259 C  
BRANCH   6   7
HETATM    7  C   UNL     1      -9.485  11.149  66.336  1.00  0.00    -0.216 C  
BRANCH   7   8
HETATM    8  C   UNL     1      -8.612  11.501  67.530  1.00  0.00    -0.143 C  
BRANCH   8   9
HETATM    9  C   UNL     1      -7.674  12.646  67.236  1.00  0.00    -0.140 C  
HETATM   10  C   UNL     1      -7.831  13.909  67.666  1.00  0.00    -0.187 C  
BRANCH  10  11
HETATM   11  C   UNL     1      -9.049  14.408  68.372  1.00  0.00    -0.193 C  
BRANCH  11  12
HETATM   12  C   UNL     1     -10.076  15.053  67.492  1.00  0.00    -0.228 C  
HETATM   13  C   UNL     1     -11.356  14.645  67.423  1.00  0.00    -0.368 C  
BRANCH  13  14
HETATM   14  C   UNL     1     -12.024  13.518  68.179  1.00  0.00    -0.376 C  
BRANCH  14  15
HETATM   15  C   UNL     1     -12.180  13.739  69.662  1.00  0.00    -0.359 C  
HETATM   16  C   UNL     1     -12.269  12.784  70.599  1.00  0.00    -0.374 C  
BRANCH  16  17
HETATM   17  C   UNL     1     -12.407  11.324  70.315  1.00  0.00    -0.389 C  
BRANCH  17  18
HETATM   18  C   UNL     1     -11.043  10.743  70.056  1.00  0.00    -0.327 C  
HETATM   19  C   UNL     1     -10.700   9.471  70.303  1.00  0.00    -0.315 C  
BRANCH  19  20
HETATM   20  C   UNL     1     -11.612   8.449  70.895  1.00  0.00    -0.288 C  
BRANCH  20  21
HETATM   21  C   UNL     1     -11.388   7.084  70.317  1.00  0.00    -0.339 C  
HETATM   22  C   UNL     1     -11.210   5.973  71.049  1.00  0.00    -0.332 C  
BRANCH  22  23
HETATM   23  C   UNL     1     -11.164   5.912  72.545  1.00  0.00    -0.341 C  
HETATM   24  C   UNL     1     -10.978   4.491  73.043  1.00  0.00    -0.308 C  
ENDBRANCH  22  23
ENDBRANCH  20  21
ENDBRANCH  19  20
ENDBRANCH  17  18
ENDBRANCH  16  17
ENDBRANCH  14  15
ENDBRANCH  13  14
ENDBRANCH  11  12
ENDBRANCH  10  11
ENDBRANCH   8   9
ENDBRANCH   7   8
ENDBRANCH   6   7
ENDBRANCH   4   6
ENDBRANCH   3   4
ENDBRANCH   2   3
TORSDOF 15
ENDMDL
MODEL      314
REMARK 921   NORMALIZED FREE ENERGY PREDICTED BY IDOCK:   -3.39 KCAL/MOL
REMARK 922        TOTAL FREE ENERGY PREDICTED BY IDOCK:   -8.92 KCAL/MOL
REMARK 923 INTER-LIGAND FREE ENERGY PREDICTED BY IDOCK:   -6.63 KCAL/MOL
REMARK 924 INTRA-LIGAND FREE ENERGY PREDICTED BY IDOCK:   -2.28 KCAL/MOL
REMARK 927      BINDING AFFINITY PREDICTED BY RF-SCORE:    0.00 PKD
ROOT
HETATM    1  C   UNL     1      -9.230   4.220  63.753  1.00  0.00    -0.139 C  
HETATM    2  C   UNL     1      -8.788   5.112  64.899  1.00  0.00    -0.118 C  
ENDROOT
BRANCH   2   3
HETATM    3  O   UNL     1      -9.813   5.070  65.899  1.00  0.00    -0.169 OA 
BRANCH   3   4
HETATM    4  C   UNL     1      -9.500   4.318  66.991  1.00  0.00    -0.184 C  
HETATM    5  O   UNL     1      -9.547   3.100  67.050  1.00  0.00    -0.147 OA 
BRANCH   4   6
HETATM    6  C   UNL     1      -8.989   5.229  68.073  1.00  0.00    -0.113 C  
BRANCH   6   7
HETATM    7  C   UNL     1     -10.084   6.208  68.505  1.00  0.00    -0.193 C  
BRANCH   7   8
HETATM    8  C   UNL     1     -10.999   5.611  69.562  1.00  0.00    -0.266 C  
BRANCH   8   9
HETATM    9  C   UNL     1     -10.231   4.899  70.648  1.00  0.00    -0.282 C  
HETATM   10  C   UNL     1     -10.462   5.012  71.966  1.00  0.00    -0.269 C  
BRANCH  10  11
HETATM   11  C   UNL     1     -11.419   5.988  72.568  1.00  0.00    -0.336 C  
BRANCH  11  12
HETATM   12  C   UNL     1     -10.786   7.158  73.257  1.00  0.00    -0.403 C  
HETATM   13  C   UNL     1     -10.553   8.338  72.654  1.00  0.00    -0.378 C  
BRANCH  13  14
HETATM   14  C   UNL     1     -10.868   8.744  71.231  1.00  0.00    -0.347 C  
BRANCH  14  15
HETATM   15  C   UNL     1     -11.661  10.017  71.085  1.00  0.00    -0.472 C  
HETATM   16  C   UNL     1     -11.537  10.917  70.097  1.00  0.00    -0.425 C  
BRANCH  16  17
HETATM   17  C   UNL     1     -10.462  10.898  69.060  1.00  0.00    -0.244 C  
BRANCH  17  18
HETATM   18  C   UNL     1     -10.964  10.165  67.845  1.00  0.00    -0.335 C  
HETATM   19  C   UNL     1     -11.082  10.709  66.625  1.00  0.00    -0.053 C  
BRANCH  19  20
HETATM   20  C   UNL     1     -10.758  12.128  66.297  1.00  0.00    -0.296 C  
BRANCH  20  21
HETATM   21  C   UNL     1     -11.935  13.037  66.484  1.00  0.00    -0.457 C  
HETATM   22  C   UNL     1     -11.969  14.060  67.354  1.00  0.00    -0.439 C  
BRANCH  22  23
HETATM   23  C   UNL     1     -10.871  14.437  68.300  1.00  0.00    -0.250 C  
HETATM   24  C   UNL     1     -11.418  15.051  69.577  1.00  0.00    -0.317 C  
ENDBRANCH  22  23
ENDBRANCH  20  21
ENDBRANCH  19  20
ENDBRANCH  17  18
ENDBRANCH  16  17
ENDBRANCH  14  15
ENDBRANCH  13  14
ENDBRANCH  11  12
ENDBRANCH  10  11
ENDBRANCH   8   9
ENDBRANCH   7   8
ENDBRANCH   6   7
ENDBRANCH   4   6
ENDBRANCH   3   4
ENDBRANCH   2   3
TORSDOF 15
ENDMDL
MODEL      315
REMARK 921   NORMALIZED FREE ENERGY PREDICTED BY IDOCK:   -3.39 KCAL/MOL
REMARK 922        TOTAL FREE ENERGY PREDICTED BY IDOCK:   -8.91 KCAL/MOL
REMARK 923 INTER-LIGAND FREE ENERGY PREDICTED BY IDOCK:   -6.14 KCAL/MOL
REMARK 924 INTRA-LIGAND FREE ENERGY PREDICTED BY IDOCK:   -2.76 KCAL/MOL
REMARK 927      BINDING AFFINITY PREDICTED BY RF-SCORE:    0.00 PKD
ROOT
HETATM    1  C   UNL     1     -12.147  12.599  65.489  1.00  0.00    -0.515 C  
HETATM    2  C   UNL     1     -11.736  13.814  66.302  1.00  0.00    -0.376 C  
ENDROOT
BRANCH   2   3
HETATM    3  O   UNL     1     -12.290  13.662  67.614  1.00  0.00    -0.257 OA 
BRANCH   3   4
HETATM    4  C   UNL     1     -11.367  13.682  68.617  1.00  0.00    -0.286 C  
HETATM    5  O   UNL     1     -10.254  14.176  68.547  1.00  0.00    -0.237 OA 
BRANCH   4   6
HETATM    6  C   UNL     1     -11.987  13.089  69.852  1.00  0.00    -0.381 C  
BRANCH   6   7
HETATM    7  C   UNL     1     -12.262  11.596  69.645  1.00  0.00    -0.271 C  
BRANCH   7   8
HETATM    8  C   UNL     1     -10.983  10.806  69.418  1.00  0.00    -0.305 C  
BRANCH   8   9
HETATM    9  C   UNL     1     -10.822  10.380  67.979  1.00  0.00    -0.319 C  
HETATM   10  C   UNL     1      -9.671  10.399  67.287  1.00  0.00    -0.195 C  
BRANCH  10  11
HETATM   11  C   UNL     1      -8.400  10.997  67.792  1.00  0.00    -0.118 C  
BRANCH  11  12
HETATM   12  C   UNL     1      -7.152  10.489  67.138  1.00  0.00    -0.091 C  
HETATM   13  C   UNL     1      -6.554   9.333  67.478  1.00  0.00    -0.064 C  
BRANCH  13  14
HETATM   14  C   UNL     1      -6.978   8.329  68.526  1.00  0.00    -0.069 C  
BRANCH  14  15
HETATM   15  C   UNL     1      -7.044   6.897  68.058  1.00  0.00    -0.086 C  
HETATM   16  C   UNL     1      -7.722   5.902  68.650  1.00  0.00    -0.094 C  
BRANCH  16  17
HETATM   17  C   UNL     1      -8.390   6.003  69.982  1.00  0.00    -0.123 C  
BRANCH  17  18
HETATM   18  C   UNL     1      -9.686   5.239  69.940  1.00  0.00    -0.260 C  
HETATM   19  C   UNL     1     -10.900   5.805  69.877  1.00  0.00    -0.417 C  
BRANCH  19  20
HETATM   20  C   UNL     1     -11.146   7.277  69.865  1.00  0.00    -0.233 C  
BRANCH  20  21
HETATM   21  C   UNL     1     -12.151   7.693  70.897  1.00  0.00    -0.226 C  
HETATM   22  C   UNL     1     -11.838   8.064  72.149  1.00  0.00    -0.401 C  
BRANCH  22  23
HETATM   23  C   UNL     1     -10.459   8.087  72.734  1.00  0.00    -0.415 C  
HETATM   24  C   UNL     1     -10.274   6.998  73.776  1.00  0.00    -0.401 C  
ENDBRANCH  22  23
ENDBRANCH  20  21
ENDBRANCH  19  20
ENDBRANCH  17  18
ENDBRANCH  16  17
ENDBRANCH  14  15
ENDBRANCH  13  14
ENDBRANCH  11  12
ENDBRANCH  10  11
ENDBRANCH   8   9
ENDBRANCH   7   8
ENDBRANCH   6   7
ENDBRANCH   4   6
ENDBRANCH   3   4
ENDBRANCH   2   3
TORSDOF 15
ENDMDL
MODEL      316
REMARK 921   NORMALIZED FREE ENERGY PREDICTED BY IDOCK:   -3.38 KCAL/MOL
REMARK 922        TOTAL FREE ENERGY PREDICTED BY IDOCK:   -8.89 KCAL/MOL
REMARK 923 INTER-LIGAND FREE ENERGY PREDICTED BY IDOCK:   -7.07 KCAL/MOL
REMARK 924 INTRA-LIGAND FREE ENERGY PREDICTED BY IDOCK:   -1.82 KCAL/MOL
REMARK 927      BINDING AFFINITY PREDICTED BY RF-SCORE:    0.00 PKD
ROOT
HETATM    1  C   UNL     1      -8.191   9.537  66.245  1.00  0.00    -0.115 C  
HETATM    2  C   UNL     1      -7.325   9.727  65.013  1.00  0.00    -0.128 C  
ENDROOT
BRANCH   2   3
HETATM    3  O   UNL     1      -7.885  10.805  64.254  1.00  0.00     0.055 OA 
BRANCH   3   4
HETATM    4  C   UNL     1      -8.962  10.456  63.496  1.00  0.00    -0.233 C  
HETATM    5  O   UNL     1      -9.251   9.320  63.154  1.00  0.00    -0.075 OA 
BRANCH   4   6
HETATM    6  C   UNL     1      -9.790  11.685  63.239  1.00  0.00    -0.428 C  
BRANCH   6   7
HETATM    7  C   UNL     1     -11.144  11.571  63.945  1.00  0.00    -0.458 C  
BRANCH   7   8
HETATM    8  C   UNL     1     -11.060  11.971  65.409  1.00  0.00    -0.369 C  
BRANCH   8   9
HETATM    9  C   UNL     1     -12.164  12.919  65.808  1.00  0.00    -0.498 C  
HETATM   10  C   UNL     1     -11.996  14.207  66.150  1.00  0.00    -0.437 C  
BRANCH  10  11
HETATM   11  C   UNL     1     -10.664  14.856  66.342  1.00  0.00    -0.316 C  
BRANCH  11  12
HETATM   12  C   UNL     1     -10.387  16.019  65.441  1.00  0.00    -0.386 C  
HETATM   13  C   UNL     1     -10.318  17.292  65.871  1.00  0.00    -0.287 C  
BRANCH  13  14
HETATM   14  C   UNL     1     -10.480  17.816  67.281  1.00  0.00    -0.356 C  
BRANCH  14  15
HETATM   15  C   UNL     1     -10.798  19.286  67.389  1.00  0.00    -0.554 C  
HETATM   16  C   UNL     1      -9.905  20.284  67.478  1.00  0.00    -0.576 C  
BRANCH  16  17
HETATM   17  C   UNL     1      -8.435  20.095  67.665  1.00  0.00    -0.357 C  
BRANCH  17  18
HETATM   18  C   UNL     1      -8.201  19.228  68.873  1.00  0.00    -0.344 C  
HETATM   19  C   UNL     1      -7.204  18.339  68.988  1.00  0.00    -0.237 C  
BRANCH  19  20
HETATM   20  C   UNL     1      -6.194  18.059  67.926  1.00  0.00    -0.169 C  
BRANCH  20  21
HETATM   21  C   UNL     1      -6.797  17.381  66.732  1.00  0.00    -0.247 C  
HETATM   22  C   UNL     1      -6.551  17.731  65.460  1.00  0.00    -0.012 C  
BRANCH  22  23
HETATM   23  C   UNL     1      -5.677  18.865  65.020  1.00  0.00    -0.285 C  
HETATM   24  C   UNL     1      -6.493  20.087  64.639  1.00  0.00    -0.255 C  
ENDBRANCH  22  23
ENDBRANCH  20  21
ENDBRANCH  19  20
ENDBRANCH  17  18
ENDBRANCH  16  17
ENDBRANCH  14  15
ENDBRANCH  13  14
ENDBRANCH  11  12
ENDBRANCH  10  11
ENDBRANCH   8   9
ENDBRANCH   7   8
ENDBRANCH   6   7
ENDBRANCH   4   6
ENDBRANCH   3   4
ENDBRANCH   2   3
TORSDOF 15
ENDMDL
MODEL      317
REMARK 921   NORMALIZED FREE ENERGY PREDICTED BY IDOCK:   -3.37 KCAL/MOL
REMARK 922        TOTAL FREE ENERGY PREDICTED BY IDOCK:   -8.88 KCAL/MOL
REMARK 923 INTER-LIGAND FREE ENERGY PREDICTED BY IDOCK:   -6.53 KCAL/MOL
REMARK 924 INTRA-LIGAND FREE ENERGY PREDICTED BY IDOCK:   -2.35 KCAL/MOL
REMARK 927      BINDING AFFINITY PREDICTED BY RF-SCORE:    0.00 PKD
ROOT
HETATM    1  C   UNL     1     -10.202  11.706  63.085  1.00  0.00    -0.396 C  
HETATM    2  C   UNL     1     -11.425  12.267  63.787  1.00  0.00    -0.466 C  
ENDROOT
BRANCH   2   3
HETATM    3  O   UNL     1     -10.966  13.034  64.907  1.00  0.00    -0.287 OA 
BRANCH   3   4
HETATM    4  C   UNL     1     -11.213  12.460  66.118  1.00  0.00    -0.322 C  
HETATM    5  O   UNL     1     -12.311  12.347  66.638  1.00  0.00    -0.477 OA 
BRANCH   4   6
HETATM    6  C   UNL     1      -9.927  11.897  66.656  1.00  0.00    -0.220 C  
BRANCH   6   7
HETATM    7  C   UNL     1     -10.032  11.683  68.169  1.00  0.00    -0.198 C  
BRANCH   7   8
HETATM    8  C   UNL     1      -9.558  10.299  68.584  1.00  0.00    -0.169 C  
BRANCH   8   9
HETATM    9  C   UNL     1      -9.052   9.493  67.413  1.00  0.00    -0.144 C  
HETATM   10  C   UNL     1      -8.841   8.167  67.415  1.00  0.00    -0.131 C  
BRANCH  10  11
HETATM   11  C   UNL     1      -8.927   7.307  68.634  1.00  0.00    -0.128 C  
BRANCH  11  12
HETATM   12  C   UNL     1     -10.193   6.519  68.769  1.00  0.00    -0.194 C  
HETATM   13  C   UNL     1     -10.245   5.284  69.302  1.00  0.00    -0.301 C  
BRANCH  13  14
HETATM   14  C   UNL     1      -9.112   4.456  69.866  1.00  0.00    -0.173 C  
BRANCH  14  15
HETATM   15  C   UNL     1      -9.525   3.170  70.534  1.00  0.00    -0.236 C  
HETATM   16  C   UNL     1      -9.919   3.032  71.809  1.00  0.00    -0.192 C  
BRANCH  16  17
HETATM   17  C   UNL     1      -9.846   4.107  72.843  1.00  0.00    -0.186 C  
BRANCH  17  18
HETATM   18  C   UNL     1     -11.130   4.893  72.824  1.00  0.00    -0.283 C  
HETATM   19  C   UNL     1     -11.218   6.210  73.062  1.00  0.00    -0.206 C  
BRANCH  19  20
HETATM   20  C   UNL     1     -10.061   7.085  73.408  1.00  0.00    -0.320 C  
BRANCH  20  21
HETATM   21  C   UNL     1      -9.593   7.897  72.237  1.00  0.00    -0.255 C  
HETATM   22  C   UNL     1     -10.309   8.875  71.661  1.00  0.00    -0.416 C  
BRANCH  22  23
HETATM   23  C   UNL     1     -11.694   9.290  72.054  1.00  0.00    -0.336 C  
HETATM   24  C   UNL     1     -12.250  10.348  71.119  1.00  0.00    -0.498 C  
ENDBRANCH  22  23
ENDBRANCH  20  21
ENDBRANCH  19  20
ENDBRANCH  17  18
ENDBRANCH  16  17
ENDBRANCH  14  15
ENDBRANCH  13  14
ENDBRANCH  11  12
ENDBRANCH  10  11
ENDBRANCH   8   9
ENDBRANCH   7   8
ENDBRANCH   6   7
ENDBRANCH   4   6
ENDBRANCH   3   4
ENDBRANCH   2   3
TORSDOF 15
ENDMDL
MODEL      318
REMARK 921   NORMALIZED FREE ENERGY PREDICTED BY IDOCK:   -3.36 KCAL/MOL
REMARK 922        TOTAL FREE ENERGY PREDICTED BY IDOCK:   -8.86 KCAL/MOL
REMARK 923 INTER-LIGAND FREE ENERGY PREDICTED BY IDOCK:   -7.04 KCAL/MOL
REMARK 924 INTRA-LIGAND FREE ENERGY PREDICTED BY IDOCK:   -1.83 KCAL/MOL
REMARK 927      BINDING AFFINITY PREDICTED BY RF-SCORE:    0.00 PKD
ROOT
HETATM    1  C   UNL     1      -6.998   8.147  72.986  1.00  0.00    -0.126 C  
HETATM    2  C   UNL     1      -6.594   8.750  71.653  1.00  0.00    -0.075 C  
ENDROOT
BRANCH   2   3
HETATM    3  O   UNL     1      -6.988   7.832  70.626  1.00  0.00    -0.046 OA 
BRANCH   3   4
HETATM    4  C   UNL     1      -7.789   8.375  69.667  1.00  0.00    -0.100 C  
HETATM    5  O   UNL     1      -7.431   8.707  68.548  1.00  0.00    -0.090 OA 
BRANCH   4   6
HETATM    6  C   UNL     1      -9.203   8.399  70.177  1.00  0.00    -0.159 C  
BRANCH   6   7
HETATM    7  C   UNL     1      -9.750   9.830  70.161  1.00  0.00    -0.299 C  
BRANCH   7   8
HETATM    8  C   UNL     1     -11.253   9.863  69.928  1.00  0.00    -0.298 C  
BRANCH   8   9
HETATM    9  C   UNL     1     -11.825  11.251  70.083  1.00  0.00    -0.449 C  
HETATM   10  C   UNL     1     -11.621  12.274  69.238  1.00  0.00    -0.383 C  
BRANCH  10  11
HETATM   11  C   UNL     1     -10.662  12.237  68.093  1.00  0.00    -0.241 C  
BRANCH  11  12
HETATM   12  C   UNL     1     -11.277  11.962  66.755  1.00  0.00    -0.384 C  
HETATM   13  C   UNL     1     -11.837  12.913  65.986  1.00  0.00    -0.485 C  
BRANCH  13  14
HETATM   14  C   UNL     1     -11.960  14.394  66.265  1.00  0.00    -0.391 C  
BRANCH  14  15
HETATM   15  C   UNL     1     -11.079  15.283  65.426  1.00  0.00    -0.351 C  
HETATM   16  C   UNL     1      -9.817  15.642  65.710  1.00  0.00    -0.386 C  
BRANCH  16  17
HETATM   17  C   UNL     1      -9.124  15.362  67.003  1.00  0.00    -0.247 C  
BRANCH  17  18
HETATM   18  C   UNL     1      -9.954  15.911  68.132  1.00  0.00    -0.222 C  
HETATM   19  C   UNL     1      -9.702  17.063  68.770  1.00  0.00    -0.273 C  
BRANCH  19  20
HETATM   20  C   UNL     1      -8.547  17.959  68.471  1.00  0.00    -0.298 C  
BRANCH  20  21
HETATM   21  C   UNL     1      -8.894  19.408  68.634  1.00  0.00    -0.417 C  
HETATM   22  C   UNL     1      -9.305  20.204  67.634  1.00  0.00    -0.487 C  
BRANCH  22  23
HETATM   23  C   UNL     1      -9.446  19.799  66.198  1.00  0.00    -0.464 C  
HETATM   24  C   UNL     1     -10.826  19.239  65.906  1.00  0.00    -0.364 C  
ENDBRANCH  22  23
ENDBRANCH  20  21
ENDBRANCH  19  20
ENDBRANCH  17  18
ENDBRANCH  16  17
ENDBRANCH  14  15
ENDBRANCH  13  14
ENDBRANCH  11  12
ENDBRANCH  10  11
ENDBRANCH   8   9
ENDBRANCH   7   8
ENDBRANCH   6   7
ENDBRANCH   4   6
ENDBRANCH   3   4
ENDBRANCH   2   3
TORSDOF 15
ENDMDL
MODEL      319
REMARK 921   NORMALIZED FREE ENERGY PREDICTED BY IDOCK:   -3.34 KCAL/MOL
REMARK 922        TOTAL FREE ENERGY PREDICTED BY IDOCK:   -8.83 KCAL/MOL
REMARK 923 INTER-LIGAND FREE ENERGY PREDICTED BY IDOCK:   -7.26 KCAL/MOL
REMARK 924 INTRA-LIGAND FREE ENERGY PREDICTED BY IDOCK:   -1.57 KCAL/MOL
REMARK 927      BINDING AFFINITY PREDICTED BY RF-SCORE:    0.00 PKD
ROOT
HETATM    1  C   UNL     1     -11.916   6.560  70.499  1.00  0.00    -0.322 C  
HETATM    2  C   UNL     1     -11.859   6.684  72.011  1.00  0.00    -0.324 C  
ENDROOT
BRANCH   2   3
HETATM    3  O   UNL     1     -12.010   8.071  72.335  1.00  0.00    -0.345 OA 
BRANCH   3   4
HETATM    4  C   UNL     1     -13.053   8.683  71.708  1.00  0.00    -0.361 C  
HETATM    5  O   UNL     1     -14.198   8.263  71.661  1.00  0.00    -0.415 OA 
BRANCH   4   6
HETATM    6  C   UNL     1     -12.584  10.009  71.175  1.00  0.00    -0.480 C  
BRANCH   6   7
HETATM    7  C   UNL     1     -11.070   9.984  70.942  1.00  0.00    -0.385 C  
BRANCH   7   8
HETATM    8  C   UNL     1     -10.682  10.668  69.641  1.00  0.00    -0.290 C  
BRANCH   8   9
HETATM    9  C   UNL     1     -11.832  11.429  69.029  1.00  0.00    -0.415 C  
HETATM   10  C   UNL     1     -11.864  11.916  67.778  1.00  0.00    -0.289 C  
BRANCH  10  11
HETATM   11  C   UNL     1     -10.694  11.915  66.849  1.00  0.00    -0.285 C  
BRANCH  11  12
HETATM   12  C   UNL     1     -10.486  13.187  66.085  1.00  0.00    -0.287 C  
HETATM   13  C   UNL     1      -9.989  14.310  66.635  1.00  0.00    -0.279 C  
BRANCH  13  14
HETATM   14  C   UNL     1      -9.537  14.537  68.060  1.00  0.00    -0.217 C  
BRANCH  14  15
HETATM   15  C   UNL     1      -8.208  13.925  68.420  1.00  0.00    -0.153 C  
HETATM   16  C   UNL     1      -7.215  14.529  69.090  1.00  0.00    -0.138 C  
BRANCH  16  17
HETATM   17  C   UNL     1      -7.186  15.981  69.442  1.00  0.00    -0.213 C  
BRANCH  17  18
HETATM   18  C   UNL     1      -5.829  16.540  69.108  1.00  0.00    -0.149 C  
HETATM   19  C   UNL     1      -5.529  17.847  69.090  1.00  0.00    -0.192 C  
BRANCH  19  20
HETATM   20  C   UNL     1      -6.504  18.941  69.373  1.00  0.00    -0.296 C  
BRANCH  20  21
HETATM   21  C   UNL     1      -7.109  19.500  68.121  1.00  0.00    -0.319 C  
HETATM   22  C   UNL     1      -8.368  19.262  67.718  1.00  0.00    -0.335 C  
BRANCH  22  23
HETATM   23  C   UNL     1      -9.355  18.378  68.417  1.00  0.00    -0.347 C  
HETATM   24  C   UNL     1     -10.634  18.221  67.615  1.00  0.00    -0.427 C  
ENDBRANCH  22  23
ENDBRANCH  20  21
ENDBRANCH  19  20
ENDBRANCH  17  18
ENDBRANCH  16  17
ENDBRANCH  14  15
ENDBRANCH  13  14
ENDBRANCH  11  12
ENDBRANCH  10  11
ENDBRANCH   8   9
ENDBRANCH   7   8
ENDBRANCH   6   7
ENDBRANCH   4   6
ENDBRANCH   3   4
ENDBRANCH   2   3
TORSDOF 15
ENDMDL
MODEL      320
REMARK 921   NORMALIZED FREE ENERGY PREDICTED BY IDOCK:   -3.33 KCAL/MOL
REMARK 922        TOTAL FREE ENERGY PREDICTED BY IDOCK:   -8.81 KCAL/MOL
REMARK 923 INTER-LIGAND FREE ENERGY PREDICTED BY IDOCK:   -6.64 KCAL/MOL
REMARK 924 INTRA-LIGAND FREE ENERGY PREDICTED BY IDOCK:   -2.17 KCAL/MOL
REMARK 927      BINDING AFFINITY PREDICTED BY RF-SCORE:    0.00 PKD
ROOT
HETATM    1  C   UNL     1      -6.552  16.889  69.448  1.00  0.00    -0.228 C  
HETATM    2  C   UNL     1      -7.491  15.735  69.146  1.00  0.00    -0.207 C  
ENDROOT
BRANCH   2   3
HETATM    3  O   UNL     1      -8.645  16.278  68.493  1.00  0.00    -0.191 OA 
BRANCH   3   4
HETATM    4  C   UNL     1      -9.828  15.948  69.081  1.00  0.00    -0.247 C  
HETATM    5  O   UNL     1      -9.955  15.435  70.181  1.00  0.00    -0.258 OA 
BRANCH   4   6
HETATM    6  C   UNL     1     -10.952  16.416  68.197  1.00  0.00    -0.339 C  
BRANCH   6   7
HETATM    7  C   UNL     1     -11.042  15.541  66.943  1.00  0.00    -0.221 C  
BRANCH   7   8
HETATM    8  C   UNL     1     -12.020  14.390  67.120  1.00  0.00    -0.419 C  
BRANCH   8   9
HETATM    9  C   UNL     1     -12.295  13.668  65.823  1.00  0.00    -0.524 C  
HETATM   10  C   UNL     1     -11.937  12.404  65.546  1.00  0.00    -0.453 C  
BRANCH  10  11
HETATM   11  C   UNL     1     -11.068  11.568  66.426  1.00  0.00    -0.328 C  
BRANCH  11  12
HETATM   12  C   UNL     1      -9.613  11.565  66.068  1.00  0.00    -0.251 C  
HETATM   13  C   UNL     1      -8.730  10.676  66.558  1.00  0.00    -0.151 C  
BRANCH  13  14
HETATM   14  C   UNL     1      -8.982   9.532  67.516  1.00  0.00    -0.133 C  
BRANCH  14  15
HETATM   15  C   UNL     1      -8.642   8.162  66.987  1.00  0.00    -0.124 C  
HETATM   16  C   UNL     1      -9.494   7.135  66.849  1.00  0.00    -0.200 C  
BRANCH  16  17
HETATM   17  C   UNL     1     -10.895   7.117  67.366  1.00  0.00    -0.346 C  
BRANCH  17  18
HETATM   18  C   UNL     1     -10.998   6.099  68.470  1.00  0.00    -0.404 C  
HETATM   19  C   UNL     1     -11.235   6.396  69.757  1.00  0.00    -0.484 C  
BRANCH  19  20
HETATM   20  C   UNL     1     -11.405   7.780  70.287  1.00  0.00    -0.174 C  
BRANCH  20  21
HETATM   21  C   UNL     1     -10.895   7.918  71.690  1.00  0.00    -0.275 C  
HETATM   22  C   UNL     1      -9.683   8.398  72.010  1.00  0.00    -0.353 C  
BRANCH  22  23
HETATM   23  C   UNL     1      -8.632   8.834  71.035  1.00  0.00    -0.236 C  
HETATM   24  C   UNL     1      -7.787   7.666  70.562  1.00  0.00    -0.095 C  
ENDBRANCH  22  23
ENDBRANCH  20  21
ENDBRANCH  19  20
ENDBRANCH  17  18
ENDBRANCH  16  17
ENDBRANCH  14  15
ENDBRANCH  13  14
ENDBRANCH  11  12
ENDBRANCH  10  11
ENDBRANCH   8   9
ENDBRANCH   7   8
ENDBRANCH   6   7
ENDBRANCH   4   6
ENDBRANCH   3   4
ENDBRANCH   2   3
TORSDOF 15
ENDMDL
MODEL      321
REMARK 921   NORMALIZED FREE ENERGY PREDICTED BY IDOCK:   -3.33 KCAL/MOL
REMARK 922        TOTAL FREE ENERGY PREDICTED BY IDOCK:   -8.80 KCAL/MOL
REMARK 923 INTER-LIGAND FREE ENERGY PREDICTED BY IDOCK:   -7.35 KCAL/MOL
REMARK 924 INTRA-LIGAND FREE ENERGY PREDICTED BY IDOCK:   -1.45 KCAL/MOL
REMARK 927      BINDING AFFINITY PREDICTED BY RF-SCORE:    0.00 PKD
ROOT
HETATM    1  C   UNL     1     -11.423   2.585  73.609  1.00  0.00    -0.257 C  
HETATM    2  C   UNL     1     -10.951   4.018  73.775  1.00  0.00    -0.244 C  
ENDROOT
BRANCH   2   3
HETATM    3  O   UNL     1      -9.675   4.128  73.133  1.00  0.00    -0.122 OA 
BRANCH   3   4
HETATM    4  C   UNL     1      -9.544   5.224  72.333  1.00  0.00    -0.151 C  
HETATM    5  O   UNL     1      -8.767   5.330  71.398  1.00  0.00    -0.127 OA 
BRANCH   4   6
HETATM    6  C   UNL     1     -10.585   6.235  72.727  1.00  0.00    -0.252 C  
BRANCH   6   7
HETATM    7  C   UNL     1      -9.960   7.630  72.828  1.00  0.00    -0.298 C  
BRANCH   7   8
HETATM    8  C   UNL     1     -10.773   8.675  72.080  1.00  0.00    -0.427 C  
BRANCH   8   9
HETATM    9  C   UNL     1      -9.983   9.327  70.971  1.00  0.00    -0.364 C  
HETATM   10  C   UNL     1     -10.478  10.187  70.067  1.00  0.00    -0.325 C  
BRANCH  10  11
HETATM   11  C   UNL     1     -11.930  10.509  69.924  1.00  0.00    -0.339 C  
BRANCH  11  12
HETATM   12  C   UNL     1     -12.382  11.745  70.640  1.00  0.00    -0.421 C  
HETATM   13  C   UNL     1     -12.175  12.990  70.174  1.00  0.00    -0.342 C  
BRANCH  13  14
HETATM   14  C   UNL     1     -11.493  13.412  68.892  1.00  0.00    -0.347 C  
BRANCH  14  15
HETATM   15  C   UNL     1     -12.282  13.165  67.631  1.00  0.00    -0.150 C  
HETATM   16  C   UNL     1     -11.771  12.943  66.410  1.00  0.00    -0.454 C  
BRANCH  16  17
HETATM   17  C   UNL     1     -10.327  13.079  66.054  1.00  0.00    -0.293 C  
BRANCH  17  18
HETATM   18  C   UNL     1     -10.198  13.997  64.869  1.00  0.00    -0.377 C  
HETATM   19  C   UNL     1     -10.087  15.331  64.949  1.00  0.00    -0.114 C  
BRANCH  19  20
HETATM   20  C   UNL     1     -10.101  16.104  66.225  1.00  0.00    -0.337 C  
BRANCH  20  21
HETATM   21  C   UNL     1      -8.843  16.896  66.423  1.00  0.00    -0.322 C  
HETATM   22  C   UNL     1      -8.782  18.237  66.398  1.00  0.00    -0.260 C  
BRANCH  22  23
HETATM   23  C   UNL     1      -9.933  19.158  66.129  1.00  0.00    -0.441 C  
HETATM   24  C   UNL     1     -10.664  19.529  67.406  1.00  0.00    -0.589 C  
ENDBRANCH  22  23
ENDBRANCH  20  21
ENDBRANCH  19  20
ENDBRANCH  17  18
ENDBRANCH  16  17
ENDBRANCH  14  15
ENDBRANCH  13  14
ENDBRANCH  11  12
ENDBRANCH  10  11
ENDBRANCH   8   9
ENDBRANCH   7   8
ENDBRANCH   6   7
ENDBRANCH   4   6
ENDBRANCH   3   4
ENDBRANCH   2   3
TORSDOF 15
ENDMDL
MODEL      322
REMARK 921   NORMALIZED FREE ENERGY PREDICTED BY IDOCK:   -3.32 KCAL/MOL
REMARK 922        TOTAL FREE ENERGY PREDICTED BY IDOCK:   -8.78 KCAL/MOL
REMARK 923 INTER-LIGAND FREE ENERGY PREDICTED BY IDOCK:   -6.26 KCAL/MOL
REMARK 924 INTRA-LIGAND FREE ENERGY PREDICTED BY IDOCK:   -2.52 KCAL/MOL
REMARK 927      BINDING AFFINITY PREDICTED BY RF-SCORE:    0.00 PKD
ROOT
HETATM    1  C   UNL     1     -12.477  12.213  63.674  1.00  0.00    -0.658 C  
HETATM    2  C   UNL     1     -10.970  12.035  63.632  1.00  0.00    -0.448 C  
ENDROOT
BRANCH   2   3
HETATM    3  O   UNL     1     -10.636  10.978  64.539  1.00  0.00    -0.343 OA 
BRANCH   3   4
HETATM    4  C   UNL     1      -9.498  11.197  65.257  1.00  0.00    -0.226 C  
HETATM    5  O   UNL     1      -8.387  10.784  64.968  1.00  0.00    -0.147 OA 
BRANCH   4   6
HETATM    6  C   UNL     1      -9.821  12.115  66.403  1.00  0.00    -0.242 C  
BRANCH   6   7
HETATM    7  C   UNL     1      -9.002  11.731  67.640  1.00  0.00    -0.169 C  
BRANCH   7   8
HETATM    8  C   UNL     1      -9.725  10.713  68.508  1.00  0.00    -0.177 C  
BRANCH   8   9
HETATM    9  C   UNL     1     -11.211  10.689  68.246  1.00  0.00    -0.362 C  
HETATM   10  C   UNL     1     -12.156  11.146  69.083  1.00  0.00    -0.352 C  
BRANCH  10  11
HETATM   11  C   UNL     1     -11.887  11.605  70.479  1.00  0.00    -0.328 C  
BRANCH  11  12
HETATM   12  C   UNL     1     -12.888  11.159  71.500  1.00  0.00    -0.542 C  
HETATM   13  C   UNL     1     -12.943   9.906  71.987  1.00  0.00    -0.518 C  
BRANCH  13  14
HETATM   14  C   UNL     1     -12.056   8.728  71.650  1.00  0.00    -0.401 C  
BRANCH  14  15
HETATM   15  C   UNL     1     -10.601   8.894  72.007  1.00  0.00    -0.388 C  
HETATM   16  C   UNL     1      -9.588   8.126  71.576  1.00  0.00    -0.226 C  
BRANCH  16  17
HETATM   17  C   UNL     1      -9.752   6.858  70.804  1.00  0.00    -0.176 C  
BRANCH  17  18
HETATM   18  C   UNL     1      -9.812   7.182  69.335  1.00  0.00    -0.161 C  
HETATM   19  C   UNL     1      -8.757   7.151  68.507  1.00  0.00    -0.126 C  
BRANCH  19  20
HETATM   20  C   UNL     1      -7.364   6.818  68.925  1.00  0.00    -0.094 C  
BRANCH  20  21
HETATM   21  C   UNL     1      -6.715   7.936  69.683  1.00  0.00    -0.042 C  
HETATM   22  C   UNL     1      -6.100   8.982  69.109  1.00  0.00    -0.042 C  
BRANCH  22  23
HETATM   23  C   UNL     1      -5.922   9.188  67.635  1.00  0.00    -0.050 C  
HETATM   24  C   UNL     1      -5.418  10.585  67.321  1.00  0.00    -0.041 C  
ENDBRANCH  22  23
ENDBRANCH  20  21
ENDBRANCH  19  20
ENDBRANCH  17  18
ENDBRANCH  16  17
ENDBRANCH  14  15
ENDBRANCH  13  14
ENDBRANCH  11  12
ENDBRANCH  10  11
ENDBRANCH   8   9
ENDBRANCH   7   8
ENDBRANCH   6   7
ENDBRANCH   4   6
ENDBRANCH   3   4
ENDBRANCH   2   3
TORSDOF 15
ENDMDL
MODEL      323
REMARK 921   NORMALIZED FREE ENERGY PREDICTED BY IDOCK:   -3.31 KCAL/MOL
REMARK 922        TOTAL FREE ENERGY PREDICTED BY IDOCK:   -8.77 KCAL/MOL
REMARK 923 INTER-LIGAND FREE ENERGY PREDICTED BY IDOCK:   -6.15 KCAL/MOL
REMARK 924 INTRA-LIGAND FREE ENERGY PREDICTED BY IDOCK:   -2.62 KCAL/MOL
REMARK 927      BINDING AFFINITY PREDICTED BY RF-SCORE:    0.00 PKD
ROOT
HETATM    1  C   UNL     1     -10.871   8.276  70.964  1.00  0.00    -0.269 C  
HETATM    2  C   UNL     1      -9.529   8.321  71.671  1.00  0.00    -0.195 C  
ENDROOT
BRANCH   2   3
HETATM    3  O   UNL     1      -8.530   7.924  70.725  1.00  0.00    -0.119 OA 
BRANCH   3   4
HETATM    4  C   UNL     1      -7.573   8.865  70.492  1.00  0.00    -0.093 C  
HETATM    5  O   UNL     1      -7.268   9.770  71.252  1.00  0.00    -0.309 OA 
BRANCH   4   6
HETATM    6  C   UNL     1      -6.884   8.542  69.195  1.00  0.00    -0.058 C  
BRANCH   6   7
HETATM    7  C   UNL     1      -5.917   9.667  68.811  1.00  0.00    -0.042 C  
BRANCH   7   8
HETATM    8  C   UNL     1      -6.011  10.021  67.335  1.00  0.00    -0.054 C  
BRANCH   8   9
HETATM    9  C   UNL     1      -6.995  11.135  67.075  1.00  0.00    -0.123 C  
HETATM   10  C   UNL     1      -8.224  10.980  66.557  1.00  0.00    -0.161 C  
BRANCH  10  11
HETATM   11  C   UNL     1      -8.747   9.693  66.009  1.00  0.00    -0.155 C  
BRANCH  11  12
HETATM   12  C   UNL     1      -9.509   8.848  66.984  1.00  0.00    -0.215 C  
HETATM   13  C   UNL     1     -10.570   9.294  67.681  1.00  0.00    -0.324 C  
BRANCH  13  14
HETATM   14  C   UNL     1     -11.214  10.661  67.639  1.00  0.00    -0.361 C  
BRANCH  14  15
HETATM   15  C   UNL     1     -11.782  11.146  68.948  1.00  0.00    -0.406 C  
HETATM   16  C   UNL     1     -11.640  12.377  69.464  1.00  0.00    -0.353 C  
BRANCH  16  17
HETATM   17  C   UNL     1     -10.740  13.432  68.910  1.00  0.00    -0.219 C  
BRANCH  17  18
HETATM   18  C   UNL     1     -11.578  14.575  68.403  1.00  0.00    -0.356 C  
HETATM   19  C   UNL     1     -11.843  14.808  67.109  1.00  0.00    -0.307 C  
BRANCH  19  20
HETATM   20  C   UNL     1     -11.325  13.983  65.979  1.00  0.00    -0.328 C  
BRANCH  20  21
HETATM   21  C   UNL     1     -12.414  13.552  65.043  1.00  0.00    -0.462 C  
HETATM   22  C   UNL     1     -12.366  12.445  64.286  1.00  0.00    -0.544 C  
BRANCH  22  23
HETATM   23  C   UNL     1     -11.218  11.486  64.215  1.00  0.00    -0.358 C  
HETATM   24  C   UNL     1     -10.187  11.919  63.188  1.00  0.00    -0.334 C  
ENDBRANCH  22  23
ENDBRANCH  20  21
ENDBRANCH  19  20
ENDBRANCH  17  18
ENDBRANCH  16  17
ENDBRANCH  14  15
ENDBRANCH  13  14
ENDBRANCH  11  12
ENDBRANCH  10  11
ENDBRANCH   8   9
ENDBRANCH   7   8
ENDBRANCH   6   7
ENDBRANCH   4   6
ENDBRANCH   3   4
ENDBRANCH   2   3
TORSDOF 15
ENDMDL
MODEL      324
REMARK 921   NORMALIZED FREE ENERGY PREDICTED BY IDOCK:   -3.31 KCAL/MOL
REMARK 922        TOTAL FREE ENERGY PREDICTED BY IDOCK:   -8.77 KCAL/MOL
REMARK 923 INTER-LIGAND FREE ENERGY PREDICTED BY IDOCK:   -6.86 KCAL/MOL
REMARK 924 INTRA-LIGAND FREE ENERGY PREDICTED BY IDOCK:   -1.91 KCAL/MOL
REMARK 927      BINDING AFFINITY PREDICTED BY RF-SCORE:    0.00 PKD
ROOT
HETATM    1  C   UNL     1     -14.410  14.073  72.021  1.00  0.00    -0.548 C  
HETATM    2  C   UNL     1     -12.918  13.897  72.235  1.00  0.00    -0.358 C  
ENDROOT
BRANCH   2   3
HETATM    3  O   UNL     1     -12.275  14.086  70.969  1.00  0.00    -0.335 OA 
BRANCH   3   4
HETATM    4  C   UNL     1     -11.907  15.373  70.715  1.00  0.00    -0.353 C  
HETATM    5  O   UNL     1     -11.318  16.109  71.490  1.00  0.00    -0.358 OA 
BRANCH   4   6
HETATM    6  C   UNL     1     -12.251  15.699  69.288  1.00  0.00    -0.167 C  
BRANCH   6   7
HETATM    7  C   UNL     1     -11.888  14.527  68.372  1.00  0.00    -0.351 C  
BRANCH   7   8
HETATM    8  C   UNL     1     -10.681  14.836  67.500  1.00  0.00    -0.269 C  
BRANCH   8   9
HETATM    9  C   UNL     1     -11.052  15.008  66.048  1.00  0.00    -0.329 C  
HETATM   10  C   UNL     1     -11.583  14.057  65.264  1.00  0.00    -0.339 C  
BRANCH  10  11
HETATM   11  C   UNL     1     -11.741  12.628  65.670  1.00  0.00    -0.458 C  
BRANCH  11  12
HETATM   12  C   UNL     1     -10.460  11.877  65.867  1.00  0.00    -0.296 C  
HETATM   13  C   UNL     1     -10.305  10.903  66.783  1.00  0.00    -0.289 C  
BRANCH  13  14
HETATM   14  C   UNL     1     -11.324  10.360  67.759  1.00  0.00    -0.205 C  
BRANCH  14  15
HETATM   15  C   UNL     1     -11.078  10.704  69.206  1.00  0.00    -0.306 C  
HETATM   16  C   UNL     1     -10.405   9.954  70.093  1.00  0.00    -0.336 C  
BRANCH  16  17
HETATM   17  C   UNL     1      -9.934   8.559  69.843  1.00  0.00    -0.189 C  
BRANCH  17  18
HETATM   18  C   UNL     1     -11.109   7.622  69.925  1.00  0.00    -0.160 C  
HETATM   19  C   UNL     1     -11.061   6.316  69.626  1.00  0.00    -0.479 C  
BRANCH  19  20
HETATM   20  C   UNL     1      -9.842   5.604  69.143  1.00  0.00    -0.216 C  
BRANCH  20  21
HETATM   21  C   UNL     1     -10.099   4.825  67.888  1.00  0.00    -0.119 C  
HETATM   22  C   UNL     1     -10.061   5.350  66.652  1.00  0.00    -0.250 C  
BRANCH  22  23
HETATM   23  C   UNL     1      -9.801   6.788  66.322  1.00  0.00    -0.011 C  
HETATM   24  C   UNL     1      -8.330   7.044  66.051  1.00  0.00    -0.134 C  
ENDBRANCH  22  23
ENDBRANCH  20  21
ENDBRANCH  19  20
ENDBRANCH  17  18
ENDBRANCH  16  17
ENDBRANCH  14  15
ENDBRANCH  13  14
ENDBRANCH  11  12
ENDBRANCH  10  11
ENDBRANCH   8   9
ENDBRANCH   7   8
ENDBRANCH   6   7
ENDBRANCH   4   6
ENDBRANCH   3   4
ENDBRANCH   2   3
TORSDOF 15
ENDMDL
MODEL      325
REMARK 921   NORMALIZED FREE ENERGY PREDICTED BY IDOCK:   -3.30 KCAL/MOL
REMARK 922        TOTAL FREE ENERGY PREDICTED BY IDOCK:   -8.74 KCAL/MOL
REMARK 923 INTER-LIGAND FREE ENERGY PREDICTED BY IDOCK:   -6.48 KCAL/MOL
REMARK 924 INTRA-LIGAND FREE ENERGY PREDICTED BY IDOCK:   -2.26 KCAL/MOL
REMARK 927      BINDING AFFINITY PREDICTED BY RF-SCORE:    0.00 PKD
ROOT
HETATM    1  C   UNL     1     -13.460   9.176  72.158  1.00  0.00    -0.530 C  
HETATM    2  C   UNL     1     -12.358   8.168  72.425  1.00  0.00    -0.294 C  
ENDROOT
BRANCH   2   3
HETATM    3  O   UNL     1     -12.350   7.238  71.335  1.00  0.00    -0.331 OA 
BRANCH   3   4
HETATM    4  C   UNL     1     -11.109   6.955  70.849  1.00  0.00    -0.272 C  
HETATM    5  O   UNL     1     -10.057   7.136  71.441  1.00  0.00    -0.189 OA 
BRANCH   4   6
HETATM    6  C   UNL     1     -11.257   6.288  69.509  1.00  0.00    -0.500 C  
BRANCH   6   7
HETATM    7  C   UNL     1     -10.053   5.384  69.230  1.00  0.00    -0.301 C  
BRANCH   7   8
HETATM    8  C   UNL     1      -9.246   5.862  68.033  1.00  0.00    -0.112 C  
BRANCH   8   9
HETATM    9  C   UNL     1      -8.343   7.020  68.378  1.00  0.00    -0.124 C  
HETATM   10  C   UNL     1      -8.220   8.150  67.663  1.00  0.00    -0.127 C  
BRANCH  10  11
HETATM   11  C   UNL     1      -8.845   8.366  66.324  1.00  0.00    -0.190 C  
BRANCH  11  12
HETATM   12  C   UNL     1     -10.100   9.184  66.331  1.00  0.00    -0.345 C  
HETATM   13  C   UNL     1     -10.108  10.529  66.311  1.00  0.00    -0.290 C  
BRANCH  13  14
HETATM   14  C   UNL     1      -8.929  11.475  66.266  1.00  0.00    -0.199 C  
BRANCH  14  15
HETATM   15  C   UNL     1      -8.371  11.874  67.608  1.00  0.00    -0.152 C  
HETATM   16  C   UNL     1      -8.070  13.122  68.000  1.00  0.00    -0.157 C  
BRANCH  16  17
HETATM   17  C   UNL     1      -8.071  14.318  67.106  1.00  0.00    -0.154 C  
BRANCH  17  18
HETATM   18  C   UNL     1      -7.956  15.560  67.948  1.00  0.00    -0.146 C  
HETATM   19  C   UNL     1      -8.925  16.477  68.086  1.00  0.00    -0.207 C  
BRANCH  19  20
HETATM   20  C   UNL     1     -10.251  16.414  67.405  1.00  0.00    -0.281 C  
BRANCH  20  21
HETATM   21  C   UNL     1     -11.251  15.609  68.180  1.00  0.00    -0.345 C  
HETATM   22  C   UNL     1     -11.817  14.476  67.735  1.00  0.00    -0.390 C  
BRANCH  22  23
HETATM   23  C   UNL     1     -11.582  13.851  66.394  1.00  0.00    -0.382 C  
HETATM   24  C   UNL     1     -12.845  13.836  65.553  1.00  0.00    -0.464 C  
ENDBRANCH  22  23
ENDBRANCH  20  21
ENDBRANCH  19  20
ENDBRANCH  17  18
ENDBRANCH  16  17
ENDBRANCH  14  15
ENDBRANCH  13  14
ENDBRANCH  11  12
ENDBRANCH  10  11
ENDBRANCH   8   9
ENDBRANCH   7   8
ENDBRANCH   6   7
ENDBRANCH   4   6
ENDBRANCH   3   4
ENDBRANCH   2   3
TORSDOF 15
ENDMDL
MODEL      326
REMARK 921   NORMALIZED FREE ENERGY PREDICTED BY IDOCK:   -3.30 KCAL/MOL
REMARK 922        TOTAL FREE ENERGY PREDICTED BY IDOCK:   -8.74 KCAL/MOL
REMARK 923 INTER-LIGAND FREE ENERGY PREDICTED BY IDOCK:   -7.56 KCAL/MOL
REMARK 924 INTRA-LIGAND FREE ENERGY PREDICTED BY IDOCK:   -1.18 KCAL/MOL
REMARK 927      BINDING AFFINITY PREDICTED BY RF-SCORE:    0.00 PKD
ROOT
HETATM    1  C   UNL     1     -12.627  16.218  73.476  1.00  0.00    -0.622 C  
HETATM    2  C   UNL     1     -12.623  14.700  73.483  1.00  0.00    -0.332 C  
ENDROOT
BRANCH   2   3
HETATM    3  O   UNL     1     -13.616  14.262  72.549  1.00  0.00    -0.453 OA 
BRANCH   3   4
HETATM    4  C   UNL     1     -13.496  14.807  71.307  1.00  0.00    -0.411 C  
HETATM    5  O   UNL     1     -14.374  15.408  70.708  1.00  0.00    -0.276 OA 
BRANCH   4   6
HETATM    6  C   UNL     1     -12.076  14.639  70.841  1.00  0.00    -0.393 C  
BRANCH   6   7
HETATM    7  C   UNL     1     -12.046  14.110  69.404  1.00  0.00    -0.372 C  
BRANCH   7   8
HETATM    8  C   UNL     1     -10.941  13.087  69.196  1.00  0.00    -0.190 C  
BRANCH   8   9
HETATM    9  C   UNL     1     -11.476  11.749  68.750  1.00  0.00    -0.350 C  
HETATM   10  C   UNL     1     -12.059  10.840  69.547  1.00  0.00    -0.344 C  
BRANCH  10  11
HETATM   11  C   UNL     1     -12.124  10.950  71.036  1.00  0.00    -0.425 C  
BRANCH  11  12
HETATM   12  C   UNL     1     -13.197  10.135  71.689  1.00  0.00    -0.518 C  
HETATM   13  C   UNL     1     -13.019   8.867  72.102  1.00  0.00    -0.473 C  
BRANCH  13  14
HETATM   14  C   UNL     1     -11.768   8.021  72.022  1.00  0.00    -0.375 C  
BRANCH  14  15
HETATM   15  C   UNL     1     -11.926   6.703  71.308  1.00  0.00    -0.409 C  
HETATM   16  C   UNL     1     -11.489   6.417  70.071  1.00  0.00    -0.496 C  
BRANCH  16  17
HETATM   17  C   UNL     1     -10.924   7.417  69.117  1.00  0.00    -0.057 C  
BRANCH  17  18
HETATM   18  C   UNL     1     -11.095   6.906  67.712  1.00  0.00    -0.223 C  
HETATM   19  C   UNL     1     -10.387   5.900  67.177  1.00  0.00    -0.286 C  
BRANCH  19  20
HETATM   20  C   UNL     1      -9.305   5.157  67.888  1.00  0.00    -0.139 C  
BRANCH  20  21
HETATM   21  C   UNL     1      -9.742   3.789  68.316  1.00  0.00    -0.099 C  
HETATM   22  C   UNL     1      -8.930   2.722  68.378  1.00  0.00    -0.194 C  
BRANCH  22  23
HETATM   23  C   UNL     1      -7.481   2.704  67.998  1.00  0.00    -0.056 C  
HETATM   24  C   UNL     1      -7.292   2.414  66.521  1.00  0.00    -0.065 C  
ENDBRANCH  22  23
ENDBRANCH  20  21
ENDBRANCH  19  20
ENDBRANCH  17  18
ENDBRANCH  16  17
ENDBRANCH  14  15
ENDBRANCH  13  14
ENDBRANCH  11  12
ENDBRANCH  10  11
ENDBRANCH   8   9
ENDBRANCH   7   8
ENDBRANCH   6   7
ENDBRANCH   4   6
ENDBRANCH   3   4
ENDBRANCH   2   3
TORSDOF 15
ENDMDL
MODEL      327
REMARK 921   NORMALIZED FREE ENERGY PREDICTED BY IDOCK:   -3.29 KCAL/MOL
REMARK 922        TOTAL FREE ENERGY PREDICTED BY IDOCK:   -8.73 KCAL/MOL
REMARK 923 INTER-LIGAND FREE ENERGY PREDICTED BY IDOCK:   -7.06 KCAL/MOL
REMARK 924 INTRA-LIGAND FREE ENERGY PREDICTED BY IDOCK:   -1.67 KCAL/MOL
REMARK 927      BINDING AFFINITY PREDICTED BY RF-SCORE:    0.00 PKD
ROOT
HETATM    1  C   UNL     1      -8.729   4.445  63.484  1.00  0.00    -0.129 C  
HETATM    2  C   UNL     1      -8.148   5.201  64.665  1.00  0.00    -0.119 C  
ENDROOT
BRANCH   2   3
HETATM    3  O   UNL     1      -9.231   5.524  65.545  1.00  0.00    -0.138 OA 
BRANCH   3   4
HETATM    4  C   UNL     1      -9.287   4.756  66.669  1.00  0.00    -0.143 C  
HETATM    5  O   UNL     1      -9.573   3.570  66.703  1.00  0.00    -0.187 OA 
BRANCH   4   6
HETATM    6  C   UNL     1      -8.837   5.583  67.842  1.00  0.00    -0.105 C  
BRANCH   6   7
HETATM    7  C   UNL     1      -9.805   6.747  68.075  1.00  0.00    -0.148 C  
BRANCH   7   8
HETATM    8  C   UNL     1     -11.065   6.304  68.803  1.00  0.00    -0.424 C  
BRANCH   8   9
HETATM    9  C   UNL     1     -10.756   5.501  70.043  1.00  0.00    -0.356 C  
HETATM   10  C   UNL     1     -11.029   5.881  71.302  1.00  0.00    -0.325 C  
BRANCH  10  11
HETATM   11  C   UNL     1     -11.538   7.234  71.677  1.00  0.00    -0.306 C  
BRANCH  11  12
HETATM   12  C   UNL     1     -10.482   8.259  71.951  1.00  0.00    -0.342 C  
HETATM   13  C   UNL     1     -10.372   9.413  71.267  1.00  0.00    -0.363 C  
BRANCH  13  14
HETATM   14  C   UNL     1     -11.241   9.922  70.140  1.00  0.00    -0.347 C  
BRANCH  14  15
HETATM   15  C   UNL     1     -12.099  11.116  70.476  1.00  0.00    -0.474 C  
HETATM   16  C   UNL     1     -12.067  12.309  69.863  1.00  0.00    -0.319 C  
BRANCH  16  17
HETATM   17  C   UNL     1     -11.048  12.719  68.852  1.00  0.00    -0.310 C  
BRANCH  17  18
HETATM   18  C   UNL     1     -11.752  13.184  67.605  1.00  0.00    -0.414 C  
HETATM   19  C   UNL     1     -11.667  14.424  67.102  1.00  0.00    -0.424 C  
BRANCH  19  20
HETATM   20  C   UNL     1     -10.883  15.534  67.718  1.00  0.00    -0.309 C  
BRANCH  20  21
HETATM   21  C   UNL     1      -9.709  15.935  66.877  1.00  0.00    -0.241 C  
HETATM   22  C   UNL     1      -9.527  17.165  66.371  1.00  0.00    -0.290 C  
BRANCH  22  23
HETATM   23  C   UNL     1     -10.471  18.319  66.522  1.00  0.00    -0.378 C  
HETATM   24  C   UNL     1     -10.129  19.169  67.732  1.00  0.00    -0.469 C  
ENDBRANCH  22  23
ENDBRANCH  20  21
ENDBRANCH  19  20
ENDBRANCH  17  18
ENDBRANCH  16  17
ENDBRANCH  14  15
ENDBRANCH  13  14
ENDBRANCH  11  12
ENDBRANCH  10  11
ENDBRANCH   8   9
ENDBRANCH   7   8
ENDBRANCH   6   7
ENDBRANCH   4   6
ENDBRANCH   3   4
ENDBRANCH   2   3
TORSDOF 15
ENDMDL
MODEL      328
REMARK 921   NORMALIZED FREE ENERGY PREDICTED BY IDOCK:   -3.28 KCAL/MOL
REMARK 922        TOTAL FREE ENERGY PREDICTED BY IDOCK:   -8.71 KCAL/MOL
REMARK 923 INTER-LIGAND FREE ENERGY PREDICTED BY IDOCK:   -6.70 KCAL/MOL
REMARK 924 INTRA-LIGAND FREE ENERGY PREDICTED BY IDOCK:   -2.01 KCAL/MOL
REMARK 927      BINDING AFFINITY PREDICTED BY RF-SCORE:    0.00 PKD
ROOT
HETATM    1  C   UNL     1      -9.617   4.829  69.761  1.00  0.00    -0.249 C  
HETATM    2  C   UNL     1      -9.519   4.894  68.247  1.00  0.00    -0.138 C  
ENDROOT
BRANCH   2   3
HETATM    3  O   UNL     1      -8.830   6.104  67.911  1.00  0.00    -0.113 OA 
BRANCH   3   4
HETATM    4  C   UNL     1      -9.513   6.919  67.060  1.00  0.00    -0.151 C  
HETATM    5  O   UNL     1     -10.714   7.135  67.095  1.00  0.00    -0.307 OA 
BRANCH   4   6
HETATM    6  C   UNL     1      -8.529   7.589  66.141  1.00  0.00    -0.147 C  
BRANCH   6   7
HETATM    7  C   UNL     1      -8.198   8.996  66.650  1.00  0.00    -0.118 C  
BRANCH   7   8
HETATM    8  C   UNL     1      -8.769  10.078  65.747  1.00  0.00    -0.160 C  
BRANCH   8   9
HETATM    9  C   UNL     1     -10.182  10.452  66.125  1.00  0.00    -0.288 C  
HETATM   10  C   UNL     1     -11.002  11.227  65.398  1.00  0.00    -0.201 C  
BRANCH  10  11
HETATM   11  C   UNL     1     -10.582  11.971  64.172  1.00  0.00    -0.398 C  
BRANCH  11  12
HETATM   12  C   UNL     1     -11.701  12.574  63.379  1.00  0.00    -0.567 C  
HETATM   13  C   UNL     1     -12.316  13.722  63.718  1.00  0.00    -0.313 C  
BRANCH  13  14
HETATM   14  C   UNL     1     -12.034  14.626  64.897  1.00  0.00    -0.402 C  
BRANCH  14  15
HETATM   15  C   UNL     1     -10.786  15.464  64.782  1.00  0.00    -0.385 C  
HETATM   16  C   UNL     1     -10.192  16.138  65.779  1.00  0.00    -0.397 C  
BRANCH  16  17
HETATM   17  C   UNL     1     -10.767  16.317  67.145  1.00  0.00    -0.247 C  
BRANCH  17  18
HETATM   18  C   UNL     1      -9.790  15.792  68.162  1.00  0.00    -0.209 C  
HETATM   19  C   UNL     1     -10.104  14.939  69.148  1.00  0.00    -0.227 C  
BRANCH  19  20
HETATM   20  C   UNL     1     -11.474  14.405  69.398  1.00  0.00    -0.330 C  
BRANCH  20  21
HETATM   21  C   UNL     1     -11.790  13.222  68.534  1.00  0.00    -0.384 C  
HETATM   22  C   UNL     1     -11.851  11.956  68.979  1.00  0.00    -0.368 C  
BRANCH  22  23
HETATM   23  C   UNL     1     -11.577  11.510  70.382  1.00  0.00    -0.216 C  
HETATM   24  C   UNL     1     -10.980  10.115  70.421  1.00  0.00    -0.386 C  
ENDBRANCH  22  23
ENDBRANCH  20  21
ENDBRANCH  19  20
ENDBRANCH  17  18
ENDBRANCH  16  17
ENDBRANCH  14  15
ENDBRANCH  13  14
ENDBRANCH  11  12
ENDBRANCH  10  11
ENDBRANCH   8   9
ENDBRANCH   7   8
ENDBRANCH   6   7
ENDBRANCH   4   6
ENDBRANCH   3   4
ENDBRANCH   2   3
TORSDOF 15
ENDMDL
MODEL      329
REMARK 921   NORMALIZED FREE ENERGY PREDICTED BY IDOCK:   -3.28 KCAL/MOL
REMARK 922        TOTAL FREE ENERGY PREDICTED BY IDOCK:   -8.71 KCAL/MOL
REMARK 923 INTER-LIGAND FREE ENERGY PREDICTED BY IDOCK:   -6.86 KCAL/MOL
REMARK 924 INTRA-LIGAND FREE ENERGY PREDICTED BY IDOCK:   -1.85 KCAL/MOL
REMARK 927      BINDING AFFINITY PREDICTED BY RF-SCORE:    0.00 PKD
ROOT
HETATM    1  C   UNL     1      -8.098  20.512  67.258  1.00  0.00    -0.362 C  
HETATM    2  C   UNL     1      -9.299  19.668  66.870  1.00  0.00    -0.355 C  
ENDROOT
BRANCH   2   3
HETATM    3  O   UNL     1      -9.044  18.328  67.305  1.00  0.00    -0.252 OA 
BRANCH   3   4
HETATM    4  C   UNL     1      -8.781  17.452  66.295  1.00  0.00    -0.207 C  
HETATM    5  O   UNL     1      -7.713  17.339  65.714  1.00  0.00    -0.470 OA 
BRANCH   4   6
HETATM    6  C   UNL     1      -9.988  16.579  66.088  1.00  0.00    -0.363 C  
BRANCH   6   7
HETATM    7  C   UNL     1     -10.568  16.145  67.438  1.00  0.00    -0.311 C  
BRANCH   7   8
HETATM    8  C   UNL     1      -9.966  14.835  67.923  1.00  0.00    -0.213 C  
BRANCH   8   9
HETATM    9  C   UNL     1     -10.064  13.742  66.888  1.00  0.00    -0.260 C  
HETATM   10  C   UNL     1     -11.001  12.779  66.861  1.00  0.00    -0.291 C  
BRANCH  10  11
HETATM   11  C   UNL     1     -11.999  12.551  67.948  1.00  0.00    -0.283 C  
BRANCH  11  12
HETATM   12  C   UNL     1     -11.422  12.123  69.262  1.00  0.00    -0.363 C  
HETATM   13  C   UNL     1     -11.209  10.836  69.595  1.00  0.00    -0.355 C  
BRANCH  13  14
HETATM   14  C   UNL     1     -11.471   9.597  68.769  1.00  0.00     0.209 C  
BRANCH  14  15
HETATM   15  C   UNL     1     -10.442   9.300  67.708  1.00  0.00    -0.313 C  
HETATM   16  C   UNL     1     -10.345   8.167  66.995  1.00  0.00    -0.403 C  
BRANCH  16  17
HETATM   17  C   UNL     1     -11.139   6.929  67.256  1.00  0.00    -0.355 C  
BRANCH  17  18
HETATM   18  C   UNL     1     -10.235   5.884  67.852  1.00  0.00    -0.225 C  
HETATM   19  C   UNL     1     -10.267   5.495  69.135  1.00  0.00    -0.309 C  
BRANCH  19  20
HETATM   20  C   UNL     1     -11.184   6.060  70.167  1.00  0.00    -0.412 C  
BRANCH  20  21
HETATM   21  C   UNL     1     -10.463   6.922  71.159  1.00  0.00    -0.234 C  
HETATM   22  C   UNL     1      -9.889   6.463  72.282  1.00  0.00    -0.168 C  
BRANCH  22  23
HETATM   23  C   UNL     1      -9.904   5.041  72.752  1.00  0.00    -0.191 C  
HETATM   24  C   UNL     1     -11.011   4.796  73.761  1.00  0.00    -0.371 C  
ENDBRANCH  22  23
ENDBRANCH  20  21
ENDBRANCH  19  20
ENDBRANCH  17  18
ENDBRANCH  16  17
ENDBRANCH  14  15
ENDBRANCH  13  14
ENDBRANCH  11  12
ENDBRANCH  10  11
ENDBRANCH   8   9
ENDBRANCH   7   8
ENDBRANCH   6   7
ENDBRANCH   4   6
ENDBRANCH   3   4
ENDBRANCH   2   3
TORSDOF 15
ENDMDL
MODEL      330
REMARK 921   NORMALIZED FREE ENERGY PREDICTED BY IDOCK:   -3.27 KCAL/MOL
REMARK 922        TOTAL FREE ENERGY PREDICTED BY IDOCK:   -8.70 KCAL/MOL
REMARK 923 INTER-LIGAND FREE ENERGY PREDICTED BY IDOCK:   -6.46 KCAL/MOL
REMARK 924 INTRA-LIGAND FREE ENERGY PREDICTED BY IDOCK:   -2.24 KCAL/MOL
REMARK 927      BINDING AFFINITY PREDICTED BY RF-SCORE:    0.00 PKD
ROOT
HETATM    1  C   UNL     1     -12.095   8.201  72.594  1.00  0.00    -0.311 C  
HETATM    2  C   UNL     1     -11.886   8.624  71.151  1.00  0.00    -0.287 C  
ENDROOT
BRANCH   2   3
HETATM    3  O   UNL     1     -10.943   9.701  71.149  1.00  0.00    -0.336 OA 
BRANCH   3   4
HETATM    4  C   UNL     1      -9.692   9.349  70.740  1.00  0.00    -0.264 C  
HETATM    5  O   UNL     1      -8.876   8.731  71.404  1.00  0.00    -0.191 OA 
BRANCH   4   6
HETATM    6  C   UNL     1      -9.524   9.755  69.301  1.00  0.00    -0.201 C  
BRANCH   6   7
HETATM    7  C   UNL     1     -10.131  11.141  69.065  1.00  0.00    -0.173 C  
BRANCH   7   8
HETATM    8  C   UNL     1     -11.192  11.121  67.976  1.00  0.00    -0.359 C  
BRANCH   8   9
HETATM    9  C   UNL     1     -10.778  10.286  66.789  1.00  0.00    -0.216 C  
HETATM   10  C   UNL     1     -10.097  10.735  65.722  1.00  0.00    -0.320 C  
BRANCH  10  11
HETATM   11  C   UNL     1      -9.783  12.175  65.475  1.00  0.00    -0.197 C  
BRANCH  11  12
HETATM   12  C   UNL     1     -10.647  12.849  64.455  1.00  0.00    -0.418 C  
HETATM   13  C   UNL     1     -10.978  14.152  64.508  1.00  0.00    -0.340 C  
BRANCH  13  14
HETATM   14  C   UNL     1     -10.572  15.183  65.536  1.00  0.00    -0.383 C  
BRANCH  14  15
HETATM   15  C   UNL     1     -11.168  14.995  66.908  1.00  0.00    -0.323 C  
HETATM   16  C   UNL     1     -10.490  14.947  68.065  1.00  0.00    -0.246 C  
BRANCH  16  17
HETATM   17  C   UNL     1      -9.002  14.894  68.177  1.00  0.00    -0.176 C  
BRANCH  17  18
HETATM   18  C   UNL     1      -8.531  16.053  69.013  1.00  0.00    -0.244 C  
HETATM   19  C   UNL     1      -7.959  17.162  68.522  1.00  0.00    -0.259 C  
BRANCH  19  20
HETATM   20  C   UNL     1      -7.680  17.398  67.075  1.00  0.00    -0.235 C  
BRANCH  20  21
HETATM   21  C   UNL     1      -6.213  17.395  66.771  1.00  0.00    -0.227 C  
HETATM   22  C   UNL     1      -5.588  18.343  66.054  1.00  0.00    -0.208 C  
BRANCH  22  23
HETATM   23  C   UNL     1      -6.244  19.526  65.410  1.00  0.00    -0.271 C  
HETATM   24  C   UNL     1      -6.010  20.798  66.204  1.00  0.00    -0.269 C  
ENDBRANCH  22  23
ENDBRANCH  20  21
ENDBRANCH  19  20
ENDBRANCH  17  18
ENDBRANCH  16  17
ENDBRANCH  14  15
ENDBRANCH  13  14
ENDBRANCH  11  12
ENDBRANCH  10  11
ENDBRANCH   8   9
ENDBRANCH   7   8
ENDBRANCH   6   7
ENDBRANCH   4   6
ENDBRANCH   3   4
ENDBRANCH   2   3
TORSDOF 15
ENDMDL
MODEL      331
REMARK 921   NORMALIZED FREE ENERGY PREDICTED BY IDOCK:   -3.27 KCAL/MOL
REMARK 922        TOTAL FREE ENERGY PREDICTED BY IDOCK:   -8.69 KCAL/MOL
REMARK 923 INTER-LIGAND FREE ENERGY PREDICTED BY IDOCK:   -6.40 KCAL/MOL
REMARK 924 INTRA-LIGAND FREE ENERGY PREDICTED BY IDOCK:   -2.29 KCAL/MOL
REMARK 927      BINDING AFFINITY PREDICTED BY RF-SCORE:    0.00 PKD
ROOT
HETATM    1  C   UNL     1      -8.822   7.638  73.652  1.00  0.00    -0.295 C  
HETATM    2  C   UNL     1      -9.662   6.559  72.995  1.00  0.00    -0.155 C  
ENDROOT
BRANCH   2   3
HETATM    3  O   UNL     1     -11.038   6.913  73.175  1.00  0.00    -0.268 OA 
BRANCH   3   4
HETATM    4  C   UNL     1     -11.691   7.225  72.020  1.00  0.00    -0.292 C  
HETATM    5  O   UNL     1     -11.870   6.468  71.080  1.00  0.00    -0.349 OA 
BRANCH   4   6
HETATM    6  C   UNL     1     -12.246   8.618  72.142  1.00  0.00    -0.453 C  
BRANCH   6   7
HETATM    7  C   UNL     1     -11.616   9.534  71.089  1.00  0.00    -0.439 C  
BRANCH   7   8
HETATM    8  C   UNL     1     -12.632  10.489  70.482  1.00  0.00    -0.423 C  
BRANCH   8   9
HETATM    9  C   UNL     1     -12.848  11.714  71.337  1.00  0.00    -0.461 C  
HETATM   10  C   UNL     1     -12.392  12.946  71.059  1.00  0.00    -0.318 C  
BRANCH  10  11
HETATM   11  C   UNL     1     -11.461  13.260  69.934  1.00  0.00    -0.170 C  
BRANCH  11  12
HETATM   12  C   UNL     1     -12.079  13.986  68.779  1.00  0.00    -0.338 C  
HETATM   13  C   UNL     1     -11.775  13.729  67.494  1.00  0.00    -0.410 C  
BRANCH  13  14
HETATM   14  C   UNL     1     -10.809  12.704  66.943  1.00  0.00    -0.282 C  
BRANCH  14  15
HETATM   15  C   UNL     1     -11.337  11.295  66.870  1.00  0.00    -0.231 C  
HETATM   16  C   UNL     1     -10.829  10.226  67.503  1.00  0.00    -0.355 C  
BRANCH  16  17
HETATM   17  C   UNL     1      -9.539  10.217  68.255  1.00  0.00    -0.151 C  
BRANCH  17  18
HETATM   18  C   UNL     1      -8.418   9.900  67.301  1.00  0.00    -0.121 C  
HETATM   19  C   UNL     1      -8.002   8.661  67.003  1.00  0.00    -0.096 C  
BRANCH  19  20
HETATM   20  C   UNL     1      -8.571   7.414  67.592  1.00  0.00    -0.119 C  
BRANCH  20  21
HETATM   21  C   UNL     1      -9.113   6.486  66.546  1.00  0.00    -0.166 C  
HETATM   22  C   UNL     1      -9.698   5.308  66.811  1.00  0.00    -0.174 C  
BRANCH  22  23
HETATM   23  C   UNL     1      -9.873   4.706  68.172  1.00  0.00    -0.170 C  
HETATM   24  C   UNL     1      -8.908   3.558  68.406  1.00  0.00    -0.158 C  
ENDBRANCH  22  23
ENDBRANCH  20  21
ENDBRANCH  19  20
ENDBRANCH  17  18
ENDBRANCH  16  17
ENDBRANCH  14  15
ENDBRANCH  13  14
ENDBRANCH  11  12
ENDBRANCH  10  11
ENDBRANCH   8   9
ENDBRANCH   7   8
ENDBRANCH   6   7
ENDBRANCH   4   6
ENDBRANCH   3   4
ENDBRANCH   2   3
TORSDOF 15
ENDMDL
MODEL      332
REMARK 921   NORMALIZED FREE ENERGY PREDICTED BY IDOCK:   -3.26 KCAL/MOL
REMARK 922        TOTAL FREE ENERGY PREDICTED BY IDOCK:   -8.68 KCAL/MOL
REMARK 923 INTER-LIGAND FREE ENERGY PREDICTED BY IDOCK:   -6.11 KCAL/MOL
REMARK 924 INTRA-LIGAND FREE ENERGY PREDICTED BY IDOCK:   -2.57 KCAL/MOL
REMARK 927      BINDING AFFINITY PREDICTED BY RF-SCORE:    0.00 PKD
ROOT
HETATM    1  C   UNL     1     -10.178  10.790  63.586  1.00  0.00    -0.327 C  
HETATM    2  C   UNL     1     -11.355  11.744  63.495  1.00  0.00    -0.405 C  
ENDROOT
BRANCH   2   3
HETATM    3  O   UNL     1     -11.055  12.880  64.314  1.00  0.00    -0.337 OA 
BRANCH   3   4
HETATM    4  C   UNL     1     -11.870  13.020  65.397  1.00  0.00    -0.388 C  
HETATM    5  O   UNL     1     -13.081  13.172  65.359  1.00  0.00    -0.618 OA 
BRANCH   4   6
HETATM    6  C   UNL     1     -11.048  12.850  66.645  1.00  0.00    -0.316 C  
BRANCH   6   7
HETATM    7  C   UNL     1     -11.897  12.236  67.762  1.00  0.00    -0.341 C  
BRANCH   7   8
HETATM    8  C   UNL     1     -11.388  10.864  68.177  1.00  0.00    -0.383 C  
BRANCH   8   9
HETATM    9  C   UNL     1     -10.413  10.289  67.179  1.00  0.00    -0.311 C  
HETATM   10  C   UNL     1      -9.882   9.057  67.232  1.00  0.00    -0.252 C  
BRANCH  10  11
HETATM   11  C   UNL     1     -10.056   8.119  68.381  1.00  0.00    -0.226 C  
BRANCH  11  12
HETATM   12  C   UNL     1      -8.784   7.603  68.981  1.00  0.00    -0.136 C  
HETATM   13  C   UNL     1      -8.475   7.726  70.284  1.00  0.00    -0.133 C  
BRANCH  13  14
HETATM   14  C   UNL     1      -9.291   8.361  71.387  1.00  0.00    -0.247 C  
BRANCH  14  15
HETATM   15  C   UNL     1      -8.504   8.824  72.587  1.00  0.00     0.106 C  
HETATM   16  C   UNL     1      -8.252   8.106  73.692  1.00  0.00    -0.292 C  
BRANCH  16  17
HETATM   17  C   UNL     1      -8.862   6.778  74.001  1.00  0.00    -0.187 C  
BRANCH  17  18
HETATM   18  C   UNL     1      -7.815   5.709  73.839  1.00  0.00    -0.100 C  
HETATM   19  C   UNL     1      -8.057   4.473  73.378  1.00  0.00    -0.095 C  
BRANCH  19  20
HETATM   20  C   UNL     1      -9.404   3.967  72.981  1.00  0.00    -0.131 C  
BRANCH  20  21
HETATM   21  C   UNL     1      -9.767   4.356  71.580  1.00  0.00    -0.244 C  
HETATM   22  C   UNL     1     -10.798   5.154  71.260  1.00  0.00    -0.066 C  
BRANCH  22  23
HETATM   23  C   UNL     1     -11.772   5.752  72.229  1.00  0.00    -0.265 C  
HETATM   24  C   UNL     1     -12.439   6.991  71.660  1.00  0.00    -0.413 C  
ENDBRANCH  22  23
ENDBRANCH  20  21
ENDBRANCH  19  20
ENDBRANCH  17  18
ENDBRANCH  16  17
ENDBRANCH  14  15
ENDBRANCH  13  14
ENDBRANCH  11  12
ENDBRANCH  10  11
ENDBRANCH   8   9
ENDBRANCH   7   8
ENDBRANCH   6   7
ENDBRANCH   4   6
ENDBRANCH   3   4
ENDBRANCH   2   3
TORSDOF 15
ENDMDL
MODEL      333
REMARK 921   NORMALIZED FREE ENERGY PREDICTED BY IDOCK:   -3.25 KCAL/MOL
REMARK 922        TOTAL FREE ENERGY PREDICTED BY IDOCK:   -8.66 KCAL/MOL
REMARK 923 INTER-LIGAND FREE ENERGY PREDICTED BY IDOCK:   -7.16 KCAL/MOL
REMARK 924 INTRA-LIGAND FREE ENERGY PREDICTED BY IDOCK:   -1.50 KCAL/MOL
REMARK 927      BINDING AFFINITY PREDICTED BY RF-SCORE:    0.00 PKD
ROOT
HETATM    1  C   UNL     1     -14.402  14.254  71.909  1.00  0.00    -0.597 C  
HETATM    2  C   UNL     1     -12.969  13.796  72.112  1.00  0.00    -0.343 C  
ENDROOT
BRANCH   2   3
HETATM    3  O   UNL     1     -12.320  13.833  70.836  1.00  0.00    -0.349 OA 
BRANCH   3   4
HETATM    4  C   UNL     1     -11.781  15.044  70.517  1.00  0.00    -0.297 C  
HETATM    5  O   UNL     1     -11.168  15.771  71.282  1.00  0.00    -0.366 OA 
BRANCH   4   6
HETATM    6  C   UNL     1     -11.975  15.285  69.045  1.00  0.00    -0.304 C  
BRANCH   6   7
HETATM    7  C   UNL     1     -11.592  14.035  68.246  1.00  0.00    -0.364 C  
BRANCH   7   8
HETATM    8  C   UNL     1     -10.704  14.368  67.057  1.00  0.00    -0.285 C  
BRANCH   8   9
HETATM    9  C   UNL     1     -11.490  14.918  65.893  1.00  0.00    -0.276 C  
HETATM   10  C   UNL     1     -12.272  14.197  65.074  1.00  0.00    -0.450 C  
BRANCH  10  11
HETATM   11  C   UNL     1     -12.359  12.706  65.096  1.00  0.00    -0.547 C  
BRANCH  11  12
HETATM   12  C   UNL     1     -11.493  12.003  64.095  1.00  0.00    -0.460 C  
HETATM   13  C   UNL     1     -10.608  11.044  64.424  1.00  0.00    -0.395 C  
BRANCH  13  14
HETATM   14  C   UNL     1     -10.305  10.474  65.791  1.00  0.00    -0.270 C  
BRANCH  14  15
HETATM   15  C   UNL     1      -9.019   9.695  65.894  1.00  0.00    -0.203 C  
HETATM   16  C   UNL     1      -8.903   8.404  66.242  1.00  0.00    -0.190 C  
BRANCH  16  17
HETATM   17  C   UNL     1     -10.019   7.560  66.762  1.00  0.00    -0.307 C  
BRANCH  17  18
HETATM   18  C   UNL     1     -10.209   7.846  68.228  1.00  0.00    -0.240 C  
HETATM   19  C   UNL     1      -9.369   7.449  69.195  1.00  0.00    -0.146 C  
BRANCH  19  20
HETATM   20  C   UNL     1      -8.136   6.641  68.963  1.00  0.00    -0.116 C  
BRANCH  20  21
HETATM   21  C   UNL     1      -8.038   5.472  69.896  1.00  0.00    -0.097 C  
HETATM   22  C   UNL     1      -8.684   4.309  69.720  1.00  0.00    -0.114 C  
BRANCH  22  23
HETATM   23  C   UNL     1      -9.630   3.996  68.601  1.00  0.00    -0.190 C  
HETATM   24  C   UNL     1      -9.314   2.660  67.956  1.00  0.00    -0.255 C  
ENDBRANCH  22  23
ENDBRANCH  20  21
ENDBRANCH  19  20
ENDBRANCH  17  18
ENDBRANCH  16  17
ENDBRANCH  14  15
ENDBRANCH  13  14
ENDBRANCH  11  12
ENDBRANCH  10  11
ENDBRANCH   8   9
ENDBRANCH   7   8
ENDBRANCH   6   7
ENDBRANCH   4   6
ENDBRANCH   3   4
ENDBRANCH   2   3
TORSDOF 15
ENDMDL
MODEL      334
REMARK 921   NORMALIZED FREE ENERGY PREDICTED BY IDOCK:   -3.25 KCAL/MOL
REMARK 922        TOTAL FREE ENERGY PREDICTED BY IDOCK:   -8.65 KCAL/MOL
REMARK 923 INTER-LIGAND FREE ENERGY PREDICTED BY IDOCK:   -5.99 KCAL/MOL
REMARK 924 INTRA-LIGAND FREE ENERGY PREDICTED BY IDOCK:   -2.66 KCAL/MOL
REMARK 927      BINDING AFFINITY PREDICTED BY RF-SCORE:    0.00 PKD
ROOT
HETATM    1  C   UNL     1     -10.362   7.886  70.797  1.00  0.00    -0.211 C  
HETATM    2  C   UNL     1     -11.193   7.155  69.757  1.00  0.00    -0.173 C  
ENDROOT
BRANCH   2   3
HETATM    3  O   UNL     1     -10.305   6.728  68.718  1.00  0.00    -0.176 OA 
BRANCH   3   4
HETATM    4  C   UNL     1     -10.019   7.689  67.796  1.00  0.00    -0.174 C  
HETATM    5  O   UNL     1     -10.840   8.312  67.142  1.00  0.00    -0.244 OA 
BRANCH   4   6
HETATM    6  C   UNL     1      -8.534   7.929  67.794  1.00  0.00    -0.125 C  
BRANCH   6   7
HETATM    7  C   UNL     1      -7.824   6.859  66.959  1.00  0.00    -0.111 C  
BRANCH   7   8
HETATM    8  C   UNL     1      -8.629   6.469  65.729  1.00  0.00    -0.149 C  
BRANCH   8   9
HETATM    9  C   UNL     1      -7.815   6.556  64.461  1.00  0.00    -0.112 C  
HETATM   10  C   UNL     1      -7.569   7.682  63.771  1.00  0.00    -0.118 C  
BRANCH  10  11
HETATM   11  C   UNL     1      -8.200   9.002  64.070  1.00  0.00    -0.167 C  
BRANCH  11  12
HETATM   12  C   UNL     1      -8.561   9.822  62.870  1.00  0.00    -0.195 C  
HETATM   13  C   UNL     1      -9.562  10.721  62.859  1.00  0.00    -0.366 C  
BRANCH  13  14
HETATM   14  C   UNL     1     -10.493  11.103  63.987  1.00  0.00    -0.447 C  
BRANCH  14  15
HETATM   15  C   UNL     1     -11.638  12.004  63.601  1.00  0.00    -0.578 C  
HETATM   16  C   UNL     1     -11.867  13.239  64.074  1.00  0.00    -0.512 C  
BRANCH  16  17
HETATM   17  C   UNL     1     -11.121  13.868  65.204  1.00  0.00    -0.334 C  
BRANCH  17  18
HETATM   18  C   UNL     1     -12.049  14.024  66.378  1.00  0.00    -0.483 C  
HETATM   19  C   UNL     1     -12.198  13.117  67.355  1.00  0.00    -0.195 C  
BRANCH  19  20
HETATM   20  C   UNL     1     -11.484  11.807  67.408  1.00  0.00    -0.375 C  
BRANCH  20  21
HETATM   21  C   UNL     1     -10.451  11.766  68.493  1.00  0.00    -0.233 C  
HETATM   22  C   UNL     1      -9.136  11.944  68.292  1.00  0.00    -0.183 C  
BRANCH  22  23
HETATM   23  C   UNL     1      -8.479  12.170  66.964  1.00  0.00    -0.183 C  
HETATM   24  C   UNL     1      -7.311  11.225  66.748  1.00  0.00    -0.146 C  
ENDBRANCH  22  23
ENDBRANCH  20  21
ENDBRANCH  19  20
ENDBRANCH  17  18
ENDBRANCH  16  17
ENDBRANCH  14  15
ENDBRANCH  13  14
ENDBRANCH  11  12
ENDBRANCH  10  11
ENDBRANCH   8   9
ENDBRANCH   7   8
ENDBRANCH   6   7
ENDBRANCH   4   6
ENDBRANCH   3   4
ENDBRANCH   2   3
TORSDOF 15
ENDMDL
MODEL      335
REMARK 921   NORMALIZED FREE ENERGY PREDICTED BY IDOCK:   -3.24 KCAL/MOL
REMARK 922        TOTAL FREE ENERGY PREDICTED BY IDOCK:   -8.63 KCAL/MOL
REMARK 923 INTER-LIGAND FREE ENERGY PREDICTED BY IDOCK:   -6.79 KCAL/MOL
REMARK 924 INTRA-LIGAND FREE ENERGY PREDICTED BY IDOCK:   -1.84 KCAL/MOL
REMARK 927      BINDING AFFINITY PREDICTED BY RF-SCORE:    0.00 PKD
ROOT
HETATM    1  C   UNL     1      -9.815   4.235  69.909  1.00  0.00    -0.267 C  
HETATM    2  C   UNL     1      -9.259   4.175  68.498  1.00  0.00    -0.145 C  
ENDROOT
BRANCH   2   3
HETATM    3  O   UNL     1      -8.950   5.516  68.099  1.00  0.00    -0.109 OA 
BRANCH   3   4
HETATM    4  C   UNL     1      -9.758   6.009  67.120  1.00  0.00    -0.131 C  
HETATM    5  O   UNL     1     -10.974   5.909  67.087  1.00  0.00    -0.295 OA 
BRANCH   4   6
HETATM    6  C   UNL     1      -8.916   6.785  66.145  1.00  0.00    -0.157 C  
BRANCH   6   7
HETATM    7  C   UNL     1      -8.734   8.227  66.630  1.00  0.00    -0.150 C  
BRANCH   7   8
HETATM    8  C   UNL     1      -9.789   9.160  66.055  1.00  0.00    -0.342 C  
BRANCH   8   9
HETATM    9  C   UNL     1     -10.518   9.930  67.128  1.00  0.00    -0.305 C  
HETATM   10  C   UNL     1     -11.108  11.125  66.962  1.00  0.00    -0.339 C  
BRANCH  10  11
HETATM   11  C   UNL     1     -10.994  11.950  65.723  1.00  0.00    -0.359 C  
BRANCH  11  12
HETATM   12  C   UNL     1     -12.186  12.803  65.413  1.00  0.00    -0.532 C  
HETATM   13  C   UNL     1     -12.362  14.041  65.910  1.00  0.00    -0.515 C  
BRANCH  13  14
HETATM   14  C   UNL     1     -11.450  14.822  66.830  1.00  0.00    -0.354 C  
BRANCH  14  15
HETATM   15  C   UNL     1     -11.883  14.876  68.273  1.00  0.00    -0.308 C  
HETATM   16  C   UNL     1     -11.324  15.620  69.239  1.00  0.00    -0.348 C  
BRANCH  16  17
HETATM   17  C   UNL     1     -10.056  16.396  69.089  1.00  0.00    -0.278 C  
BRANCH  17  18
HETATM   18  C   UNL     1     -10.384  17.781  68.599  1.00  0.00    -0.351 C  
HETATM   19  C   UNL     1      -9.916  18.315  67.461  1.00  0.00    -0.345 C  
BRANCH  19  20
HETATM   20  C   UNL     1      -8.980  17.625  66.526  1.00  0.00    -0.283 C  
BRANCH  20  21
HETATM   21  C   UNL     1      -7.674  18.348  66.393  1.00  0.00    -0.291 C  
HETATM   22  C   UNL     1      -6.535  17.970  66.995  1.00  0.00    -0.198 C  
BRANCH  22  23
HETATM   23  C   UNL     1      -6.384  16.803  67.922  1.00  0.00    -0.151 C  
HETATM   24  C   UNL     1      -6.501  17.223  69.376  1.00  0.00    -0.235 C  
ENDBRANCH  22  23
ENDBRANCH  20  21
ENDBRANCH  19  20
ENDBRANCH  17  18
ENDBRANCH  16  17
ENDBRANCH  14  15
ENDBRANCH  13  14
ENDBRANCH  11  12
ENDBRANCH  10  11
ENDBRANCH   8   9
ENDBRANCH   7   8
ENDBRANCH   6   7
ENDBRANCH   4   6
ENDBRANCH   3   4
ENDBRANCH   2   3
TORSDOF 15
ENDMDL
MODEL      336
REMARK 921   NORMALIZED FREE ENERGY PREDICTED BY IDOCK:   -3.23 KCAL/MOL
REMARK 922        TOTAL FREE ENERGY PREDICTED BY IDOCK:   -8.60 KCAL/MOL
REMARK 923 INTER-LIGAND FREE ENERGY PREDICTED BY IDOCK:   -6.60 KCAL/MOL
REMARK 924 INTRA-LIGAND FREE ENERGY PREDICTED BY IDOCK:   -2.00 KCAL/MOL
REMARK 927      BINDING AFFINITY PREDICTED BY RF-SCORE:    0.00 PKD
ROOT
HETATM    1  C   UNL     1     -12.976  14.906  73.439  1.00  0.00    -0.597 C  
HETATM    2  C   UNL     1     -13.010  15.706  72.149  1.00  0.00    -0.449 C  
ENDROOT
BRANCH   2   3
HETATM    3  O   UNL     1     -11.664  16.093  71.846  1.00  0.00    -0.475 OA 
BRANCH   3   4
HETATM    4  C   UNL     1     -11.304  15.894  70.547  1.00  0.00    -0.390 C  
HETATM    5  O   UNL     1     -10.683  16.685  69.855  1.00  0.00    -0.309 OA 
BRANCH   4   6
HETATM    6  C   UNL     1     -11.704  14.502  70.143  1.00  0.00    -0.357 C  
BRANCH   6   7
HETATM    7  C   UNL     1     -11.895  14.423  68.626  1.00  0.00    -0.366 C  
BRANCH   7   8
HETATM    8  C   UNL     1     -11.382  13.110  68.054  1.00  0.00    -0.327 C  
BRANCH   8   9
HETATM    9  C   UNL     1     -12.074  12.739  66.765  1.00  0.00    -0.290 C  
HETATM   10  C   UNL     1     -11.519  12.787  65.543  1.00  0.00    -0.372 C  
BRANCH  10  11
HETATM   11  C   UNL     1     -10.175  13.371  65.256  1.00  0.00    -0.312 C  
BRANCH  11  12
HETATM   12  C   UNL     1     -10.181  14.807  64.833  1.00  0.00    -0.310 C  
HETATM   13  C   UNL     1      -9.821  15.821  65.641  1.00  0.00    -0.357 C  
BRANCH  13  14
HETATM   14  C   UNL     1      -9.341  15.754  67.074  1.00  0.00    -0.235 C  
BRANCH  14  15
HETATM   15  C   UNL     1      -7.865  15.503  67.248  1.00  0.00    -0.236 C  
HETATM   16  C   UNL     1      -7.274  14.303  67.351  1.00  0.00    -0.137 C  
BRANCH  16  17
HETATM   17  C   UNL     1      -8.001  13.006  67.488  1.00  0.00    -0.177 C  
BRANCH  17  18
HETATM   18  C   UNL     1      -7.022  11.874  67.322  1.00  0.00    -0.145 C  
HETATM   19  C   UNL     1      -7.328  10.673  66.810  1.00  0.00    -0.120 C  
BRANCH  19  20
HETATM   20  C   UNL     1      -8.690  10.272  66.353  1.00  0.00    -0.144 C  
BRANCH  20  21
HETATM   21  C   UNL     1      -8.774  10.138  64.863  1.00  0.00    -0.198 C  
HETATM   22  C   UNL     1      -8.190   9.156  64.158  1.00  0.00    -0.162 C  
BRANCH  22  23
HETATM   23  C   UNL     1      -7.335   8.065  64.726  1.00  0.00    -0.082 C  
HETATM   24  C   UNL     1      -6.234   7.657  63.764  1.00  0.00    -0.054 C  
ENDBRANCH  22  23
ENDBRANCH  20  21
ENDBRANCH  19  20
ENDBRANCH  17  18
ENDBRANCH  16  17
ENDBRANCH  14  15
ENDBRANCH  13  14
ENDBRANCH  11  12
ENDBRANCH  10  11
ENDBRANCH   8   9
ENDBRANCH   7   8
ENDBRANCH   6   7
ENDBRANCH   4   6
ENDBRANCH   3   4
ENDBRANCH   2   3
TORSDOF 15
ENDMDL
MODEL      337
REMARK 921   NORMALIZED FREE ENERGY PREDICTED BY IDOCK:   -3.22 KCAL/MOL
REMARK 922        TOTAL FREE ENERGY PREDICTED BY IDOCK:   -8.60 KCAL/MOL
REMARK 923 INTER-LIGAND FREE ENERGY PREDICTED BY IDOCK:   -6.77 KCAL/MOL
REMARK 924 INTRA-LIGAND FREE ENERGY PREDICTED BY IDOCK:   -1.83 KCAL/MOL
REMARK 927      BINDING AFFINITY PREDICTED BY RF-SCORE:    0.00 PKD
ROOT
HETATM    1  C   UNL     1      -8.110   8.154  73.076  1.00  0.00    -0.230 C  
HETATM    2  C   UNL     1      -9.100   7.428  73.970  1.00  0.00    -0.243 C  
ENDROOT
BRANCH   2   3
HETATM    3  O   UNL     1      -8.432   6.282  74.510  1.00  0.00    -0.123 OA 
BRANCH   3   4
HETATM    4  C   UNL     1      -8.303   5.245  73.636  1.00  0.00    -0.112 C  
HETATM    5  O   UNL     1      -7.251   4.724  73.303  1.00  0.00    -0.077 OA 
BRANCH   4   6
HETATM    6  C   UNL     1      -9.676   4.781  73.233  1.00  0.00    -0.156 C  
BRANCH   6   7
HETATM    7  C   UNL     1      -9.670   4.308  71.776  1.00  0.00    -0.237 C  
BRANCH   7   8
HETATM    8  C   UNL     1      -9.502   5.463  70.801  1.00  0.00    -0.215 C  
BRANCH   8   9
HETATM    9  C   UNL     1     -10.722   5.662  69.935  1.00  0.00    -0.399 C  
HETATM   10  C   UNL     1     -11.785   6.419  70.251  1.00  0.00    -0.389 C  
BRANCH  10  11
HETATM   11  C   UNL     1     -11.991   7.056  71.586  1.00  0.00    -0.365 C  
BRANCH  11  12
HETATM   12  C   UNL     1     -12.844   8.287  71.580  1.00  0.00    -0.312 C  
HETATM   13  C   UNL     1     -12.356   9.528  71.398  1.00  0.00    -0.451 C  
BRANCH  13  14
HETATM   14  C   UNL     1     -10.922   9.947  71.159  1.00  0.00    -0.298 C  
BRANCH  14  15
HETATM   15  C   UNL     1     -10.293   9.403  69.901  1.00  0.00    -0.252 C  
HETATM   16  C   UNL     1     -10.465   9.884  68.660  1.00  0.00    -0.231 C  
BRANCH  16  17
HETATM   17  C   UNL     1     -11.454  10.937  68.285  1.00  0.00    -0.376 C  
BRANCH  17  18
HETATM   18  C   UNL     1     -11.138  11.438  66.902  1.00  0.00    -0.356 C  
HETATM   19  C   UNL     1     -11.360  12.690  66.477  1.00  0.00    -0.377 C  
BRANCH  19  20
HETATM   20  C   UNL     1     -11.978  13.766  67.306  1.00  0.00    -0.436 C  
BRANCH  20  21
HETATM   21  C   UNL     1     -10.985  14.425  68.215  1.00  0.00    -0.259 C  
HETATM   22  C   UNL     1     -10.167  15.423  67.844  1.00  0.00    -0.239 C  
BRANCH  22  23
HETATM   23  C   UNL     1     -10.078  16.012  66.469  1.00  0.00    -0.297 C  
HETATM   24  C   UNL     1      -8.773  16.759  66.263  1.00  0.00    -0.342 C  
ENDBRANCH  22  23
ENDBRANCH  20  21
ENDBRANCH  19  20
ENDBRANCH  17  18
ENDBRANCH  16  17
ENDBRANCH  14  15
ENDBRANCH  13  14
ENDBRANCH  11  12
ENDBRANCH  10  11
ENDBRANCH   8   9
ENDBRANCH   7   8
ENDBRANCH   6   7
ENDBRANCH   4   6
ENDBRANCH   3   4
ENDBRANCH   2   3
TORSDOF 15
ENDMDL
MODEL      338
REMARK 921   NORMALIZED FREE ENERGY PREDICTED BY IDOCK:   -3.22 KCAL/MOL
REMARK 922        TOTAL FREE ENERGY PREDICTED BY IDOCK:   -8.59 KCAL/MOL
REMARK 923 INTER-LIGAND FREE ENERGY PREDICTED BY IDOCK:   -6.61 KCAL/MOL
REMARK 924 INTRA-LIGAND FREE ENERGY PREDICTED BY IDOCK:   -1.98 KCAL/MOL
REMARK 927      BINDING AFFINITY PREDICTED BY RF-SCORE:    0.00 PKD
ROOT
HETATM    1  C   UNL     1     -10.968  14.735  68.617  1.00  0.00    -0.262 C  
HETATM    2  C   UNL     1     -12.090  13.755  68.905  1.00  0.00    -0.313 C  
ENDROOT
BRANCH   2   3
HETATM    3  O   UNL     1     -11.573  12.756  69.792  1.00  0.00    -0.278 OA 
BRANCH   3   4
HETATM    4  C   UNL     1     -11.866  11.476  69.426  1.00  0.00    -0.350 C  
HETATM    5  O   UNL     1     -12.114  11.102  68.291  1.00  0.00    -0.620 OA 
BRANCH   4   6
HETATM    6  C   UNL     1     -11.729  10.587  70.631  1.00  0.00    -0.453 C  
BRANCH   6   7
HETATM    7  C   UNL     1     -13.018  10.610  71.458  1.00  0.00    -0.566 C  
BRANCH   7   8
HETATM    8  C   UNL     1     -13.166   9.365  72.319  1.00  0.00    -0.528 C  
BRANCH   8   9
HETATM    9  C   UNL     1     -13.816   8.226  71.572  1.00  0.00    -0.382 C  
HETATM   10  C   UNL     1     -13.330   6.978  71.483  1.00  0.00    -0.370 C  
BRANCH  10  11
HETATM   11  C   UNL     1     -11.984   6.565  71.982  1.00  0.00    -0.372 C  
BRANCH  11  12
HETATM   12  C   UNL     1     -11.967   5.319  72.813  1.00  0.00    -0.062 C  
HETATM   13  C   UNL     1     -10.852   4.815  73.372  1.00  0.00    -0.361 C  
BRANCH  13  14
HETATM   14  C   UNL     1      -9.442   5.359  73.310  1.00  0.00    -0.146 C  
BRANCH  14  15
HETATM   15  C   UNL     1      -9.022   6.197  74.491  1.00  0.00    -0.146 C  
HETATM   16  C   UNL     1      -8.427   7.398  74.437  1.00  0.00    -0.249 C  
BRANCH  16  17
HETATM   17  C   UNL     1      -7.915   8.038  73.189  1.00  0.00    -0.218 C  
BRANCH  17  18
HETATM   18  C   UNL     1      -9.081   8.560  72.392  1.00  0.00    -0.308 C  
HETATM   19  C   UNL     1      -9.306   8.275  71.101  1.00  0.00    -0.205 C  
BRANCH  19  20
HETATM   20  C   UNL     1      -8.422   7.420  70.257  1.00  0.00    -0.136 C  
BRANCH  20  21
HETATM   21  C   UNL     1      -8.368   7.887  68.834  1.00  0.00    -0.127 C  
HETATM   22  C   UNL     1      -7.306   8.487  68.275  1.00  0.00    -0.094 C  
BRANCH  22  23
HETATM   23  C   UNL     1      -6.025   8.825  68.976  1.00  0.00    -0.043 C  
HETATM   24  C   UNL     1      -5.197   7.585  69.259  1.00  0.00    -0.015 C  
ENDBRANCH  22  23
ENDBRANCH  20  21
ENDBRANCH  19  20
ENDBRANCH  17  18
ENDBRANCH  16  17
ENDBRANCH  14  15
ENDBRANCH  13  14
ENDBRANCH  11  12
ENDBRANCH  10  11
ENDBRANCH   8   9
ENDBRANCH   7   8
ENDBRANCH   6   7
ENDBRANCH   4   6
ENDBRANCH   3   4
ENDBRANCH   2   3
TORSDOF 15
ENDMDL
MODEL      339
REMARK 921   NORMALIZED FREE ENERGY PREDICTED BY IDOCK:   -3.20 KCAL/MOL
REMARK 922        TOTAL FREE ENERGY PREDICTED BY IDOCK:   -8.56 KCAL/MOL
REMARK 923 INTER-LIGAND FREE ENERGY PREDICTED BY IDOCK:   -6.21 KCAL/MOL
REMARK 924 INTRA-LIGAND FREE ENERGY PREDICTED BY IDOCK:   -2.36 KCAL/MOL
REMARK 927      BINDING AFFINITY PREDICTED BY RF-SCORE:    0.00 PKD
ROOT
HETATM    1  C   UNL     1     -10.043  10.840  63.751  1.00  0.00    -0.391 C  
HETATM    2  C   UNL     1     -11.083  11.943  63.679  1.00  0.00    -0.440 C  
ENDROOT
BRANCH   2   3
HETATM    3  O   UNL     1     -10.630  13.018  64.511  1.00  0.00    -0.348 OA 
BRANCH   3   4
HETATM    4  C   UNL     1     -11.489  13.349  65.516  1.00  0.00    -0.305 C  
HETATM    5  O   UNL     1     -12.614  13.799  65.368  1.00  0.00    -0.469 OA 
BRANCH   4   6
HETATM    6  C   UNL     1     -10.863  12.969  66.829  1.00  0.00    -0.285 C  
BRANCH   6   7
HETATM    7  C   UNL     1     -11.947  12.682  67.872  1.00  0.00    -0.307 C  
BRANCH   7   8
HETATM    8  C   UNL     1     -11.743  11.337  68.553  1.00  0.00    -0.378 C  
BRANCH   8   9
HETATM    9  C   UNL     1     -10.889  10.404  67.730  1.00  0.00    -0.351 C  
HETATM   10  C   UNL     1     -10.279   9.300  68.191  1.00  0.00    -0.246 C  
BRANCH  10  11
HETATM   11  C   UNL     1     -10.223   8.914  69.632  1.00  0.00    -0.209 C  
BRANCH  11  12
HETATM   12  C   UNL     1     -10.817   7.578  69.957  1.00  0.00    -0.260 C  
HETATM   13  C   UNL     1     -10.081   6.479  70.206  1.00  0.00    -0.208 C  
BRANCH  13  14
HETATM   14  C   UNL     1      -8.575   6.343  70.228  1.00  0.00    -0.135 C  
BRANCH  14  15
HETATM   15  C   UNL     1      -8.057   4.928  70.268  1.00  0.00    -0.077 C  
HETATM   16  C   UNL     1      -8.189   4.066  71.288  1.00  0.00    -0.076 C  
BRANCH  16  17
HETATM   17  C   UNL     1      -8.722   4.420  72.637  1.00  0.00    -0.113 C  
BRANCH  17  18
HETATM   18  C   UNL     1     -10.202   4.150  72.666  1.00  0.00    -0.231 C  
HETATM   19  C   UNL     1     -11.092   4.869  73.365  1.00  0.00    -0.415 C  
BRANCH  19  20
HETATM   20  C   UNL     1     -10.743   6.027  74.239  1.00  0.00     0.079 C  
BRANCH  20  21
HETATM   21  C   UNL     1     -10.771   7.329  73.496  1.00  0.00    -0.367 C  
HETATM   22  C   UNL     1      -9.688   8.081  73.249  1.00  0.00    -0.308 C  
BRANCH  22  23
HETATM   23  C   UNL     1      -8.292   7.777  73.702  1.00  0.00    -0.258 C  
HETATM   24  C   UNL     1      -7.256   8.411  72.791  1.00  0.00    -0.109 C  
ENDBRANCH  22  23
ENDBRANCH  20  21
ENDBRANCH  19  20
ENDBRANCH  17  18
ENDBRANCH  16  17
ENDBRANCH  14  15
ENDBRANCH  13  14
ENDBRANCH  11  12
ENDBRANCH  10  11
ENDBRANCH   8   9
ENDBRANCH   7   8
ENDBRANCH   6   7
ENDBRANCH   4   6
ENDBRANCH   3   4
ENDBRANCH   2   3
TORSDOF 15
ENDMDL
MODEL      340
REMARK 921   NORMALIZED FREE ENERGY PREDICTED BY IDOCK:   -3.20 KCAL/MOL
REMARK 922        TOTAL FREE ENERGY PREDICTED BY IDOCK:   -8.56 KCAL/MOL
REMARK 923 INTER-LIGAND FREE ENERGY PREDICTED BY IDOCK:   -5.90 KCAL/MOL
REMARK 924 INTRA-LIGAND FREE ENERGY PREDICTED BY IDOCK:   -2.66 KCAL/MOL
REMARK 927      BINDING AFFINITY PREDICTED BY RF-SCORE:    0.00 PKD
ROOT
HETATM    1  C   UNL     1     -10.875  11.534  63.294  1.00  0.00    -0.342 C  
HETATM    2  C   UNL     1     -11.994  12.553  63.409  1.00  0.00    -0.514 C  
ENDROOT
BRANCH   2   3
HETATM    3  O   UNL     1     -11.526  13.614  64.250  1.00  0.00    -0.380 OA 
BRANCH   3   4
HETATM    4  C   UNL     1     -12.218  13.752  65.416  1.00  0.00    -0.440 C  
HETATM    5  O   UNL     1     -13.415  13.968  65.509  1.00  0.00    -0.677 OA 
BRANCH   4   6
HETATM    6  C   UNL     1     -11.283  13.489  66.564  1.00  0.00    -0.322 C  
BRANCH   6   7
HETATM    7  C   UNL     1     -11.977  12.634  67.629  1.00  0.00    -0.309 C  
BRANCH   7   8
HETATM    8  C   UNL     1     -11.132  11.437  68.038  1.00  0.00    -0.317 C  
BRANCH   8   9
HETATM    9  C   UNL     1      -9.994  11.185  67.080  1.00  0.00    -0.223 C  
HETATM   10  C   UNL     1      -9.250  10.069  67.034  1.00  0.00    -0.167 C  
BRANCH  10  11
HETATM   11  C   UNL     1      -9.334   8.964  68.035  1.00  0.00    -0.153 C  
BRANCH  11  12
HETATM   12  C   UNL     1      -8.138   8.817  68.924  1.00  0.00    -0.114 C  
HETATM   13  C   UNL     1      -7.225   7.839  68.784  1.00  0.00    -0.081 C  
BRANCH  13  14
HETATM   14  C   UNL     1      -7.184   6.733  67.754  1.00  0.00    -0.091 C  
BRANCH  14  15
HETATM   15  C   UNL     1      -6.342   7.016  66.536  1.00  0.00    -0.050 C  
HETATM   16  C   UNL     1      -6.169   6.199  65.486  1.00  0.00    -0.037 C  
BRANCH  16  17
HETATM   17  C   UNL     1      -6.643   4.784  65.424  1.00  0.00    -0.040 C  
BRANCH  17  18
HETATM   18  C   UNL     1      -7.724   4.674  64.382  1.00  0.00    -0.078 C  
HETATM   19  C   UNL     1      -9.023   4.479  64.653  1.00  0.00    -0.152 C  
BRANCH  19  20
HETATM   20  C   UNL     1      -9.584   4.315  66.026  1.00  0.00    -0.195 C  
BRANCH  20  21
HETATM   21  C   UNL     1     -10.597   5.369  66.356  1.00  0.00    -0.322 C  
HETATM   22  C   UNL     1     -10.884   5.778  67.602  1.00  0.00    -0.264 C  
BRANCH  22  23
HETATM   23  C   UNL     1     -10.280   5.232  68.860  1.00  0.00    -0.248 C  
HETATM   24  C   UNL     1     -10.752   5.994  70.085  1.00  0.00    -0.379 C  
ENDBRANCH  22  23
ENDBRANCH  20  21
ENDBRANCH  19  20
ENDBRANCH  17  18
ENDBRANCH  16  17
ENDBRANCH  14  15
ENDBRANCH  13  14
ENDBRANCH  11  12
ENDBRANCH  10  11
ENDBRANCH   8   9
ENDBRANCH   7   8
ENDBRANCH   6   7
ENDBRANCH   4   6
ENDBRANCH   3   4
ENDBRANCH   2   3
TORSDOF 15
ENDMDL
MODEL      341
REMARK 921   NORMALIZED FREE ENERGY PREDICTED BY IDOCK:   -3.20 KCAL/MOL
REMARK 922        TOTAL FREE ENERGY PREDICTED BY IDOCK:   -8.55 KCAL/MOL
REMARK 923 INTER-LIGAND FREE ENERGY PREDICTED BY IDOCK:   -5.81 KCAL/MOL
REMARK 924 INTRA-LIGAND FREE ENERGY PREDICTED BY IDOCK:   -2.74 KCAL/MOL
REMARK 927      BINDING AFFINITY PREDICTED BY RF-SCORE:    0.00 PKD
ROOT
HETATM    1  C   UNL     1      -6.177  19.079  69.347  1.00  0.00    -0.292 C  
HETATM    2  C   UNL     1      -7.428  18.609  68.628  1.00  0.00    -0.307 C  
ENDROOT
BRANCH   2   3
HETATM    3  O   UNL     1      -7.053  18.267  67.288  1.00  0.00    -0.196 OA 
BRANCH   3   4
HETATM    4  C   UNL     1      -6.564  17.003  67.149  1.00  0.00    -0.182 C  
HETATM    5  O   UNL     1      -5.548  16.698  66.546  1.00  0.00    -0.341 OA 
BRANCH   4   6
HETATM    6  C   UNL     1      -7.425  16.063  67.947  1.00  0.00    -0.142 C  
BRANCH   6   7
HETATM    7  C   UNL     1      -7.562  14.721  67.221  1.00  0.00    -0.195 C  
BRANCH   7   8
HETATM    8  C   UNL     1      -7.034  13.564  68.054  1.00  0.00    -0.133 C  
BRANCH   8   9
HETATM    9  C   UNL     1      -6.438  12.470  67.202  1.00  0.00    -0.053 C  
HETATM   10  C   UNL     1      -6.662  11.156  67.357  1.00  0.00    -0.084 C  
BRANCH  10  11
HETATM   11  C   UNL     1      -7.416  10.563  68.502  1.00  0.00    -0.091 C  
BRANCH  11  12
HETATM   12  C   UNL     1      -7.993   9.205  68.251  1.00  0.00    -0.103 C  
HETATM   13  C   UNL     1      -8.644   8.490  69.186  1.00  0.00    -0.133 C  
BRANCH  13  14
HETATM   14  C   UNL     1      -8.940   8.869  70.620  1.00  0.00    -0.237 C  
BRANCH  14  15
HETATM   15  C   UNL     1     -10.400   8.891  70.993  1.00  0.00    -0.321 C  
HETATM   16  C   UNL     1     -11.333   9.713  70.487  1.00  0.00    -0.360 C  
BRANCH  16  17
HETATM   17  C   UNL     1     -11.048  10.873  69.592  1.00  0.00    -0.328 C  
BRANCH  17  18
HETATM   18  C   UNL     1     -11.343  10.479  68.169  1.00  0.00    -0.324 C  
HETATM   19  C   UNL     1     -11.108  11.256  67.102  1.00  0.00    -0.364 C  
BRANCH  19  20
HETATM   20  C   UNL     1     -10.543  12.635  67.168  1.00  0.00    -0.252 C  
BRANCH  20  21
HETATM   21  C   UNL     1     -11.605  13.690  67.075  1.00  0.00    -0.389 C  
HETATM   22  C   UNL     1     -11.859  14.593  68.035  1.00  0.00    -0.343 C  
BRANCH  22  23
HETATM   23  C   UNL     1     -11.165  14.677  69.360  1.00  0.00    -0.307 C  
HETATM   24  C   UNL     1     -10.859  16.113  69.743  1.00  0.00    -0.333 C  
ENDBRANCH  22  23
ENDBRANCH  20  21
ENDBRANCH  19  20
ENDBRANCH  17  18
ENDBRANCH  16  17
ENDBRANCH  14  15
ENDBRANCH  13  14
ENDBRANCH  11  12
ENDBRANCH  10  11
ENDBRANCH   8   9
ENDBRANCH   7   8
ENDBRANCH   6   7
ENDBRANCH   4   6
ENDBRANCH   3   4
ENDBRANCH   2   3
TORSDOF 15
ENDMDL
MODEL      342
REMARK 921   NORMALIZED FREE ENERGY PREDICTED BY IDOCK:   -3.18 KCAL/MOL
REMARK 922        TOTAL FREE ENERGY PREDICTED BY IDOCK:   -8.52 KCAL/MOL
REMARK 923 INTER-LIGAND FREE ENERGY PREDICTED BY IDOCK:   -7.00 KCAL/MOL
REMARK 924 INTRA-LIGAND FREE ENERGY PREDICTED BY IDOCK:   -1.51 KCAL/MOL
REMARK 927      BINDING AFFINITY PREDICTED BY RF-SCORE:    0.00 PKD
ROOT
HETATM    1  C   UNL     1      -9.830   9.048  66.149  1.00  0.00    -0.349 C  
HETATM    2  C   UNL     1      -9.639  10.213  65.195  1.00  0.00    -0.292 C  
ENDROOT
BRANCH   2   3
HETATM    3  O   UNL     1     -10.937  10.615  64.741  1.00  0.00    -0.024 OA 
BRANCH   3   4
HETATM    4  C   UNL     1     -11.009  11.912  64.329  1.00  0.00    -0.353 C  
HETATM    5  O   UNL     1     -10.479  12.368  63.329  1.00  0.00    -0.395 OA 
BRANCH   4   6
HETATM    6  C   UNL     1     -11.933  12.660  65.250  1.00  0.00    -0.487 C  
BRANCH   6   7
HETATM    7  C   UNL     1     -11.129  13.555  66.198  1.00  0.00    -0.299 C  
BRANCH   7   8
HETATM    8  C   UNL     1     -11.361  13.193  67.657  1.00  0.00    -0.335 C  
BRANCH   8   9
HETATM    9  C   UNL     1     -11.722  11.739  67.836  1.00  0.00    -0.347 C  
HETATM   10  C   UNL     1     -12.027  11.152  69.004  1.00  0.00    -0.389 C  
BRANCH  10  11
HETATM   11  C   UNL     1     -11.899  11.818  70.335  1.00  0.00    -0.362 C  
BRANCH  11  12
HETATM   12  C   UNL     1     -12.879  11.362  71.372  1.00  0.00    -0.502 C  
HETATM   13  C   UNL     1     -12.947  10.097  71.824  1.00  0.00    -0.567 C  
BRANCH  13  14
HETATM   14  C   UNL     1     -12.096   8.911  71.427  1.00  0.00    -0.381 C  
BRANCH  14  15
HETATM   15  C   UNL     1     -11.998   7.815  72.457  1.00  0.00    -0.304 C  
HETATM   16  C   UNL     1     -10.906   7.491  73.165  1.00  0.00    -0.448 C  
BRANCH  16  17
HETATM   17  C   UNL     1      -9.541   8.049  72.927  1.00  0.00    -0.348 C  
BRANCH  17  18
HETATM   18  C   UNL     1      -8.743   7.956  74.200  1.00  0.00    -0.263 C  
HETATM   19  C   UNL     1      -7.467   7.550  74.269  1.00  0.00    -0.155 C  
BRANCH  19  20
HETATM   20  C   UNL     1      -6.658   7.105  73.097  1.00  0.00    -0.065 C  
BRANCH  20  21
HETATM   21  C   UNL     1      -6.542   5.612  73.020  1.00  0.00    -0.072 C  
HETATM   22  C   UNL     1      -7.214   4.847  72.146  1.00  0.00    -0.080 C  
BRANCH  22  23
HETATM   23  C   UNL     1      -8.209   5.339  71.140  1.00  0.00    -0.118 C  
HETATM   24  C   UNL     1      -7.833   4.924  69.729  1.00  0.00    -0.066 C  
ENDBRANCH  22  23
ENDBRANCH  20  21
ENDBRANCH  19  20
ENDBRANCH  17  18
ENDBRANCH  16  17
ENDBRANCH  14  15
ENDBRANCH  13  14
ENDBRANCH  11  12
ENDBRANCH  10  11
ENDBRANCH   8   9
ENDBRANCH   7   8
ENDBRANCH   6   7
ENDBRANCH   4   6
ENDBRANCH   3   4
ENDBRANCH   2   3
TORSDOF 15
ENDMDL
MODEL      343
REMARK 921   NORMALIZED FREE ENERGY PREDICTED BY IDOCK:   -3.17 KCAL/MOL
REMARK 922        TOTAL FREE ENERGY PREDICTED BY IDOCK:   -8.51 KCAL/MOL
REMARK 923 INTER-LIGAND FREE ENERGY PREDICTED BY IDOCK:   -7.23 KCAL/MOL
REMARK 924 INTRA-LIGAND FREE ENERGY PREDICTED BY IDOCK:   -1.28 KCAL/MOL
REMARK 927      BINDING AFFINITY PREDICTED BY RF-SCORE:    0.00 PKD
ROOT
HETATM    1  C   UNL     1     -11.222   2.901  73.578  1.00  0.00    -0.301 C  
HETATM    2  C   UNL     1     -11.013   4.395  73.415  1.00  0.00    -0.290 C  
ENDROOT
BRANCH   2   3
HETATM    3  O   UNL     1     -10.006   4.583  72.413  1.00  0.00    -0.158 OA 
BRANCH   3   4
HETATM    4  C   UNL     1     -10.449   5.207  71.285  1.00  0.00    -0.175 C  
HETATM    5  O   UNL     1     -10.182   4.877  70.141  1.00  0.00    -0.260 OA 
BRANCH   4   6
HETATM    6  C   UNL     1     -11.402   6.300  71.682  1.00  0.00    -0.347 C  
BRANCH   6   7
HETATM    7  C   UNL     1     -10.666   7.641  71.773  1.00  0.00    -0.252 C  
BRANCH   7   8
HETATM    8  C   UNL     1     -11.135   8.622  70.710  1.00  0.00    -0.295 C  
BRANCH   8   9
HETATM    9  C   UNL     1     -10.639   8.255  69.333  1.00  0.00    -0.203 C  
HETATM   10  C   UNL     1     -10.558   9.093  68.287  1.00  0.00    -0.223 C  
BRANCH  10  11
HETATM   11  C   UNL     1     -11.099  10.485  68.285  1.00  0.00    -0.340 C  
BRANCH  11  12
HETATM   12  C   UNL     1     -10.076  11.566  68.450  1.00  0.00    -0.207 C  
HETATM   13  C   UNL     1      -9.577  12.279  67.424  1.00  0.00    -0.179 C  
BRANCH  13  14
HETATM   14  C   UNL     1      -9.918  12.174  65.954  1.00  0.00    -0.267 C  
BRANCH  14  15
HETATM   15  C   UNL     1     -11.302  12.639  65.580  1.00  0.00    -0.356 C  
HETATM   16  C   UNL     1     -11.752  13.903  65.627  1.00  0.00    -0.362 C  
BRANCH  16  17
HETATM   17  C   UNL     1     -11.007  15.048  66.230  1.00  0.00    -0.338 C  
BRANCH  17  18
HETATM   18  C   UNL     1     -11.463  15.235  67.652  1.00  0.00    -0.287 C  
HETATM   19  C   UNL     1     -11.099  16.259  68.439  1.00  0.00    -0.362 C  
BRANCH  19  20
HETATM   20  C   UNL     1     -10.168  17.350  68.028  1.00  0.00    -0.345 C  
BRANCH  20  21
HETATM   21  C   UNL     1     -10.890  18.518  67.428  1.00  0.00    -0.342 C  
HETATM   22  C   UNL     1     -10.306  19.459  66.669  1.00  0.00    -0.555 C  
BRANCH  22  23
HETATM   23  C   UNL     1      -8.848  19.526  66.331  1.00  0.00    -0.400 C  
HETATM   24  C   UNL     1      -8.099  20.461  67.263  1.00  0.00    -0.384 C  
ENDBRANCH  22  23
ENDBRANCH  20  21
ENDBRANCH  19  20
ENDBRANCH  17  18
ENDBRANCH  16  17
ENDBRANCH  14  15
ENDBRANCH  13  14
ENDBRANCH  11  12
ENDBRANCH  10  11
ENDBRANCH   8   9
ENDBRANCH   7   8
ENDBRANCH   6   7
ENDBRANCH   4   6
ENDBRANCH   3   4
ENDBRANCH   2   3
TORSDOF 15
ENDMDL
MODEL      344
REMARK 921   NORMALIZED FREE ENERGY PREDICTED BY IDOCK:   -3.16 KCAL/MOL
REMARK 922        TOTAL FREE ENERGY PREDICTED BY IDOCK:   -8.49 KCAL/MOL
REMARK 923 INTER-LIGAND FREE ENERGY PREDICTED BY IDOCK:   -6.28 KCAL/MOL
REMARK 924 INTRA-LIGAND FREE ENERGY PREDICTED BY IDOCK:   -2.21 KCAL/MOL
REMARK 927      BINDING AFFINITY PREDICTED BY RF-SCORE:    0.00 PKD
ROOT
HETATM    1  C   UNL     1     -11.357   6.371  72.339  1.00  0.00    -0.324 C  
HETATM    2  C   UNL     1     -11.714   7.837  72.504  1.00  0.00    -0.339 C  
ENDROOT
BRANCH   2   3
HETATM    3  O   UNL     1     -12.404   8.250  71.319  1.00  0.00    -0.303 OA 
BRANCH   3   4
HETATM    4  C   UNL     1     -12.252   9.569  71.013  1.00  0.00    -0.304 C  
HETATM    5  O   UNL     1     -12.925  10.483  71.461  1.00  0.00    -0.396 OA 
BRANCH   4   6
HETATM    6  C   UNL     1     -11.054   9.720  70.116  1.00  0.00    -0.335 C  
BRANCH   6   7
HETATM    7  C   UNL     1     -10.990   8.564  69.113  1.00  0.00     0.054 C  
BRANCH   7   8
HETATM    8  C   UNL     1     -10.274   8.959  67.832  1.00  0.00    -0.274 C  
BRANCH   8   9
HETATM    9  C   UNL     1      -8.812   9.256  68.061  1.00  0.00    -0.128 C  
HETATM   10  C   UNL     1      -7.847   9.175  67.131  1.00  0.00    -0.102 C  
BRANCH  10  11
HETATM   11  C   UNL     1      -8.051   8.621  65.759  1.00  0.00    -0.114 C  
BRANCH  11  12
HETATM   12  C   UNL     1      -7.428   9.415  64.652  1.00  0.00    -0.108 C  
HETATM   13  C   UNL     1      -8.140  10.094  63.734  1.00  0.00    -0.160 C  
BRANCH  13  14
HETATM   14  C   UNL     1      -9.643  10.221  63.617  1.00  0.00    -0.334 C  
BRANCH  14  15
HETATM   15  C   UNL     1     -10.160  11.626  63.449  1.00  0.00    -0.468 C  
HETATM   16  C   UNL     1     -10.471  12.478  64.439  1.00  0.00    -0.384 C  
BRANCH  16  17
HETATM   17  C   UNL     1     -10.525  12.115  65.887  1.00  0.00    -0.288 C  
BRANCH  17  18
HETATM   18  C   UNL     1      -9.193  12.421  66.519  1.00  0.00    -0.215 C  
HETATM   19  C   UNL     1      -8.810  13.638  66.932  1.00  0.00    -0.201 C  
BRANCH  19  20
HETATM   20  C   UNL     1      -9.636  14.874  66.801  1.00  0.00    -0.265 C  
BRANCH  20  21
HETATM   21  C   UNL     1     -10.337  15.227  68.078  1.00  0.00    -0.244 C  
HETATM   22  C   UNL     1     -10.330  16.450  68.630  1.00  0.00    -0.273 C  
BRANCH  22  23
HETATM   23  C   UNL     1      -9.599  17.645  68.097  1.00  0.00    -0.297 C  
HETATM   24  C   UNL     1     -10.557  18.719  67.615  1.00  0.00    -0.481 C  
ENDBRANCH  22  23
ENDBRANCH  20  21
ENDBRANCH  19  20
ENDBRANCH  17  18
ENDBRANCH  16  17
ENDBRANCH  14  15
ENDBRANCH  13  14
ENDBRANCH  11  12
ENDBRANCH  10  11
ENDBRANCH   8   9
ENDBRANCH   7   8
ENDBRANCH   6   7
ENDBRANCH   4   6
ENDBRANCH   3   4
ENDBRANCH   2   3
TORSDOF 15
ENDMDL
MODEL      345
REMARK 921   NORMALIZED FREE ENERGY PREDICTED BY IDOCK:   -3.15 KCAL/MOL
REMARK 922        TOTAL FREE ENERGY PREDICTED BY IDOCK:   -8.46 KCAL/MOL
REMARK 923 INTER-LIGAND FREE ENERGY PREDICTED BY IDOCK:   -6.42 KCAL/MOL
REMARK 924 INTRA-LIGAND FREE ENERGY PREDICTED BY IDOCK:   -2.05 KCAL/MOL
REMARK 927      BINDING AFFINITY PREDICTED BY RF-SCORE:    0.00 PKD
ROOT
HETATM    1  C   UNL     1      -9.582   4.776  66.907  1.00  0.00    -0.185 C  
HETATM    2  C   UNL     1      -9.603   6.115  67.622  1.00  0.00    -0.111 C  
ENDROOT
BRANCH   2   3
HETATM    3  O   UNL     1      -9.249   5.880  68.990  1.00  0.00    -0.123 OA 
BRANCH   3   4
HETATM    4  C   UNL     1     -10.297   5.525  69.786  1.00  0.00    -0.296 C  
HETATM    5  O   UNL     1     -10.304   4.595  70.576  1.00  0.00    -0.185 OA 
BRANCH   4   6
HETATM    6  C   UNL     1     -11.400   6.532  69.607  1.00  0.00    -0.443 C  
BRANCH   6   7
HETATM    7  C   UNL     1     -11.476   7.459  70.824  1.00  0.00    -0.313 C  
BRANCH   7   8
HETATM    8  C   UNL     1     -11.035   8.875  70.491  1.00  0.00    -0.280 C  
BRANCH   8   9
HETATM    9  C   UNL     1      -9.551   9.071  70.675  1.00  0.00    -0.289 C  
HETATM   10  C   UNL     1      -8.733   9.685  69.804  1.00  0.00    -0.221 C  
BRANCH  10  11
HETATM   11  C   UNL     1      -9.146  10.130  68.440  1.00  0.00    -0.133 C  
BRANCH  11  12
HETATM   12  C   UNL     1      -8.796  11.546  68.098  1.00  0.00    -0.165 C  
HETATM   13  C   UNL     1      -9.068  12.111  66.908  1.00  0.00    -0.203 C  
BRANCH  13  14
HETATM   14  C   UNL     1      -9.760  11.496  65.712  1.00  0.00    -0.263 C  
BRANCH  14  15
HETATM   15  C   UNL     1     -11.266  11.507  65.763  1.00  0.00    -0.228 C  
HETATM   16  C   UNL     1     -12.063  12.509  65.364  1.00  0.00    -0.494 C  
BRANCH  16  17
HETATM   17  C   UNL     1     -11.587  13.866  64.961  1.00  0.00    -0.350 C  
BRANCH  17  18
HETATM   18  C   UNL     1     -11.654  14.783  66.153  1.00  0.00    -0.292 C  
HETATM   19  C   UNL     1     -10.658  15.589  66.549  1.00  0.00    -0.307 C  
BRANCH  19  20
HETATM   20  C   UNL     1      -9.326  15.676  65.882  1.00  0.00    -0.357 C  
BRANCH  20  21
HETATM   21  C   UNL     1      -8.196  15.690  66.868  1.00  0.00    -0.288 C  
HETATM   22  C   UNL     1      -7.268  16.657  66.939  1.00  0.00    -0.261 C  
BRANCH  22  23
HETATM   23  C   UNL     1      -7.177  17.848  66.034  1.00  0.00    -0.325 C  
HETATM   24  C   UNL     1      -8.203  18.907  66.395  1.00  0.00    -0.306 C  
ENDBRANCH  22  23
ENDBRANCH  20  21
ENDBRANCH  19  20
ENDBRANCH  17  18
ENDBRANCH  16  17
ENDBRANCH  14  15
ENDBRANCH  13  14
ENDBRANCH  11  12
ENDBRANCH  10  11
ENDBRANCH   8   9
ENDBRANCH   7   8
ENDBRANCH   6   7
ENDBRANCH   4   6
ENDBRANCH   3   4
ENDBRANCH   2   3
TORSDOF 15
ENDMDL
MODEL      346
REMARK 921   NORMALIZED FREE ENERGY PREDICTED BY IDOCK:   -3.15 KCAL/MOL
REMARK 922        TOTAL FREE ENERGY PREDICTED BY IDOCK:   -8.46 KCAL/MOL
REMARK 923 INTER-LIGAND FREE ENERGY PREDICTED BY IDOCK:   -6.75 KCAL/MOL
REMARK 924 INTRA-LIGAND FREE ENERGY PREDICTED BY IDOCK:   -1.71 KCAL/MOL
REMARK 927      BINDING AFFINITY PREDICTED BY RF-SCORE:    0.00 PKD
ROOT
HETATM    1  C   UNL     1      -9.205  17.613  67.860  1.00  0.00    -0.267 C  
HETATM    2  C   UNL     1      -9.243  16.445  66.891  1.00  0.00    -0.218 C  
ENDROOT
BRANCH   2   3
HETATM    3  O   UNL     1     -10.601  15.996  66.810  1.00  0.00    -0.315 OA 
BRANCH   3   4
HETATM    4  C   UNL     1     -10.860  14.867  67.528  1.00  0.00    -0.292 C  
HETATM    5  O   UNL     1     -10.455  14.635  68.656  1.00  0.00    -0.230 OA 
BRANCH   4   6
HETATM    6  C   UNL     1     -11.811  14.005  66.744  1.00  0.00    -0.450 C  
BRANCH   6   7
HETATM    7  C   UNL     1     -11.066  13.276  65.621  1.00  0.00    -0.299 C  
BRANCH   7   8
HETATM    8  C   UNL     1     -10.084  12.249  66.162  1.00  0.00    -0.265 C  
BRANCH   8   9
HETATM    9  C   UNL     1     -10.748  10.931  66.476  1.00  0.00    -0.270 C  
HETATM   10  C   UNL     1     -10.989  10.457  67.709  1.00  0.00    -0.369 C  
BRANCH  10  11
HETATM   11  C   UNL     1     -10.490  11.094  68.964  1.00  0.00    -0.233 C  
BRANCH  11  12
HETATM   12  C   UNL     1     -11.546  11.710  69.830  1.00  0.00    -0.389 C  
HETATM   13  C   UNL     1     -12.308  11.005  70.685  1.00  0.00    -0.480 C  
BRANCH  13  14
HETATM   14  C   UNL     1     -12.274   9.520  70.969  1.00  0.00    -0.385 C  
BRANCH  14  15
HETATM   15  C   UNL     1     -11.288   9.088  72.025  1.00  0.00    -0.395 C  
HETATM   16  C   UNL     1     -11.117   7.839  72.483  1.00  0.00    -0.403 C  
BRANCH  16  17
HETATM   17  C   UNL     1     -12.002   6.683  72.150  1.00  0.00    -0.320 C  
BRANCH  17  18
HETATM   18  C   UNL     1     -11.442   5.438  72.784  1.00  0.00    -0.333 C  
HETATM   19  C   UNL     1     -10.325   4.816  72.379  1.00  0.00    -0.261 C  
BRANCH  19  20
HETATM   20  C   UNL     1      -9.488   5.251  71.223  1.00  0.00    -0.197 C  
BRANCH  20  21
HETATM   21  C   UNL     1      -8.021   5.090  71.491  1.00  0.00    -0.112 C  
HETATM   22  C   UNL     1      -7.233   6.057  71.986  1.00  0.00    -0.092 C  
BRANCH  22  23
HETATM   23  C   UNL     1      -7.666   7.454  72.312  1.00  0.00    -0.098 C  
HETATM   24  C   UNL     1      -6.553   8.457  72.070  1.00  0.00    -0.075 C  
ENDBRANCH  22  23
ENDBRANCH  20  21
ENDBRANCH  19  20
ENDBRANCH  17  18
ENDBRANCH  16  17
ENDBRANCH  14  15
ENDBRANCH  13  14
ENDBRANCH  11  12
ENDBRANCH  10  11
ENDBRANCH   8   9
ENDBRANCH   7   8
ENDBRANCH   6   7
ENDBRANCH   4   6
ENDBRANCH   3   4
ENDBRANCH   2   3
TORSDOF 15
ENDMDL
MODEL      347
REMARK 921   NORMALIZED FREE ENERGY PREDICTED BY IDOCK:   -3.14 KCAL/MOL
REMARK 922        TOTAL FREE ENERGY PREDICTED BY IDOCK:   -8.45 KCAL/MOL
REMARK 923 INTER-LIGAND FREE ENERGY PREDICTED BY IDOCK:   -6.80 KCAL/MOL
REMARK 924 INTRA-LIGAND FREE ENERGY PREDICTED BY IDOCK:   -1.65 KCAL/MOL
REMARK 927      BINDING AFFINITY PREDICTED BY RF-SCORE:    0.00 PKD
ROOT
HETATM    1  C   UNL     1     -10.734  19.621  67.668  1.00  0.00    -0.500 C  
HETATM    2  C   UNL     1      -9.510  20.387  67.201  1.00  0.00    -0.429 C  
ENDROOT
BRANCH   2   3
HETATM    3  O   UNL     1      -9.065  19.784  65.980  1.00  0.00    -0.367 OA 
BRANCH   3   4
HETATM    4  C   UNL     1      -7.717  19.839  65.788  1.00  0.00    -0.258 C  
HETATM    5  O   UNL     1      -7.160  20.036  64.720  1.00  0.00    -0.285 OA 
BRANCH   4   6
HETATM    6  C   UNL     1      -7.035  19.722  67.124  1.00  0.00    -0.235 C  
BRANCH   6   7
HETATM    7  C   UNL     1      -6.385  18.343  67.270  1.00  0.00    -0.192 C  
BRANCH   7   8
HETATM    8  C   UNL     1      -6.777  17.663  68.573  1.00  0.00    -0.208 C  
BRANCH   8   9
HETATM    9  C   UNL     1      -8.196  17.148  68.544  1.00  0.00    -0.261 C  
HETATM   10  C   UNL     1      -8.568  15.919  68.153  1.00  0.00    -0.169 C  
BRANCH  10  11
HETATM   11  C   UNL     1      -7.645  14.921  67.533  1.00  0.00    -0.218 C  
BRANCH  11  12
HETATM   12  C   UNL     1      -6.832  14.118  68.500  1.00  0.00    -0.102 C  
HETATM   13  C   UNL     1      -6.628  12.794  68.378  1.00  0.00    -0.083 C  
BRANCH  13  14
HETATM   14  C   UNL     1      -7.128  11.863  67.296  1.00  0.00    -0.143 C  
BRANCH  14  15
HETATM   15  C   UNL     1      -7.802  10.607  67.787  1.00  0.00    -0.108 C  
HETATM   16  C   UNL     1      -9.104  10.471  68.081  1.00  0.00    -0.141 C  
BRANCH  16  17
HETATM   17  C   UNL     1     -10.084  11.597  68.141  1.00  0.00    -0.202 C  
BRANCH  17  18
HETATM   18  C   UNL     1     -11.479  11.036  68.090  1.00  0.00    -0.374 C  
HETATM   19  C   UNL     1     -12.226  10.758  69.169  1.00  0.00    -0.122 C  
BRANCH  19  20
HETATM   20  C   UNL     1     -11.774  10.940  70.579  1.00  0.00    -0.441 C  
BRANCH  20  21
HETATM   21  C   UNL     1     -12.911  10.876  71.554  1.00  0.00    -0.556 C  
HETATM   22  C   UNL     1     -13.325   9.753  72.160  1.00  0.00    -0.527 C  
BRANCH  22  23
HETATM   23  C   UNL     1     -12.758   8.383  71.940  1.00  0.00    -0.390 C  
HETATM   24  C   UNL     1     -13.834   7.388  71.546  1.00  0.00    -0.483 C  
ENDBRANCH  22  23
ENDBRANCH  20  21
ENDBRANCH  19  20
ENDBRANCH  17  18
ENDBRANCH  16  17
ENDBRANCH  14  15
ENDBRANCH  13  14
ENDBRANCH  11  12
ENDBRANCH  10  11
ENDBRANCH   8   9
ENDBRANCH   7   8
ENDBRANCH   6   7
ENDBRANCH   4   6
ENDBRANCH   3   4
ENDBRANCH   2   3
TORSDOF 15
ENDMDL
MODEL      348
REMARK 921   NORMALIZED FREE ENERGY PREDICTED BY IDOCK:   -3.13 KCAL/MOL
REMARK 922        TOTAL FREE ENERGY PREDICTED BY IDOCK:   -8.43 KCAL/MOL
REMARK 923 INTER-LIGAND FREE ENERGY PREDICTED BY IDOCK:   -6.50 KCAL/MOL
REMARK 924 INTRA-LIGAND FREE ENERGY PREDICTED BY IDOCK:   -1.93 KCAL/MOL
REMARK 927      BINDING AFFINITY PREDICTED BY RF-SCORE:    0.00 PKD
ROOT
HETATM    1  C   UNL     1     -12.025   7.995  72.700  1.00  0.00    -0.334 C  
HETATM    2  C   UNL     1     -10.538   7.908  72.994  1.00  0.00    -0.339 C  
ENDROOT
BRANCH   2   3
HETATM    3  O   UNL     1     -10.025   6.773  72.287  1.00  0.00    -0.161 OA 
BRANCH   3   4
HETATM    4  C   UNL     1      -8.756   6.933  71.817  1.00  0.00    -0.120 C  
HETATM    5  O   UNL     1      -7.799   6.231  72.102  1.00  0.00    -0.102 OA 
BRANCH   4   6
HETATM    6  C   UNL     1      -8.754   8.049  70.808  1.00  0.00    -0.139 C  
BRANCH   6   7
HETATM    7  C   UNL     1      -9.522   7.632  69.551  1.00  0.00    -0.152 C  
BRANCH   7   8
HETATM    8  C   UNL     1     -10.471   8.720  69.074  1.00  0.00    -0.220 C  
BRANCH   8   9
HETATM    9  C   UNL     1     -10.448   9.933  69.972  1.00  0.00    -0.331 C  
HETATM   10  C   UNL     1     -11.218  11.023  69.826  1.00  0.00    -0.339 C  
BRANCH  10  11
HETATM   11  C   UNL     1     -12.109  11.268  68.652  1.00  0.00    -0.211 C  
BRANCH  11  12
HETATM   12  C   UNL     1     -11.403  11.630  67.382  1.00  0.00    -0.367 C  
HETATM   13  C   UNL     1     -11.099  12.894  67.036  1.00  0.00    -0.309 C  
BRANCH  13  14
HETATM   14  C   UNL     1     -11.367  14.168  67.805  1.00  0.00    -0.330 C  
BRANCH  14  15
HETATM   15  C   UNL     1     -10.243  14.631  68.697  1.00  0.00    -0.244 C  
HETATM   16  C   UNL     1      -9.459  15.700  68.491  1.00  0.00    -0.200 C  
BRANCH  16  17
HETATM   17  C   UNL     1      -9.449  16.519  67.242  1.00  0.00    -0.237 C  
BRANCH  17  18
HETATM   18  C   UNL     1     -10.498  17.593  67.352  1.00  0.00    -0.356 C  
HETATM   19  C   UNL     1     -10.259  18.849  67.757  1.00  0.00    -0.458 C  
BRANCH  19  20
HETATM   20  C   UNL     1      -8.923  19.360  68.184  1.00  0.00    -0.375 C  
BRANCH  20  21
HETATM   21  C   UNL     1      -8.336  20.317  67.191  1.00  0.00    -0.394 C  
HETATM   22  C   UNL     1      -7.450  19.972  66.243  1.00  0.00    -0.323 C  
BRANCH  22  23
HETATM   23  C   UNL     1      -6.873  18.604  66.043  1.00  0.00    -0.296 C  
HETATM   24  C   UNL     1      -5.700  18.350  66.971  1.00  0.00    -0.161 C  
ENDBRANCH  22  23
ENDBRANCH  20  21
ENDBRANCH  19  20
ENDBRANCH  17  18
ENDBRANCH  16  17
ENDBRANCH  14  15
ENDBRANCH  13  14
ENDBRANCH  11  12
ENDBRANCH  10  11
ENDBRANCH   8   9
ENDBRANCH   7   8
ENDBRANCH   6   7
ENDBRANCH   4   6
ENDBRANCH   3   4
ENDBRANCH   2   3
TORSDOF 15
ENDMDL
MODEL      349
REMARK 921   NORMALIZED FREE ENERGY PREDICTED BY IDOCK:   -3.13 KCAL/MOL
REMARK 922        TOTAL FREE ENERGY PREDICTED BY IDOCK:   -8.42 KCAL/MOL
REMARK 923 INTER-LIGAND FREE ENERGY PREDICTED BY IDOCK:   -5.46 KCAL/MOL
REMARK 924 INTRA-LIGAND FREE ENERGY PREDICTED BY IDOCK:   -2.96 KCAL/MOL
REMARK 927      BINDING AFFINITY PREDICTED BY RF-SCORE:    0.00 PKD
ROOT
HETATM    1  C   UNL     1      -9.701   8.809  66.399  1.00  0.00    -0.335 C  
HETATM    2  C   UNL     1     -10.635   7.819  67.071  1.00  0.00    -0.326 C  
ENDROOT
BRANCH   2   3
HETATM    3  O   UNL     1      -9.825   6.805  67.677  1.00  0.00    -0.123 OA 
BRANCH   3   4
HETATM    4  C   UNL     1     -10.218   6.449  68.931  1.00  0.00    -0.184 C  
HETATM    5  O   UNL     1     -11.349   6.120  69.254  1.00  0.00    -0.416 OA 
BRANCH   4   6
HETATM    6  C   UNL     1      -9.011   6.426  69.827  1.00  0.00    -0.141 C  
BRANCH   6   7
HETATM    7  C   UNL     1      -7.741   6.702  69.016  1.00  0.00    -0.109 C  
BRANCH   7   8
HETATM    8  C   UNL     1      -6.964   7.891  69.558  1.00  0.00    -0.054 C  
BRANCH   8   9
HETATM    9  C   UNL     1      -7.872   8.984  70.067  1.00  0.00    -0.088 C  
HETATM   10  C   UNL     1      -8.027  10.192  69.501  1.00  0.00    -0.170 C  
BRANCH  10  11
HETATM   11  C   UNL     1      -7.199  10.697  68.365  1.00  0.00    -0.084 C  
BRANCH  11  12
HETATM   12  C   UNL     1      -5.945  11.414  68.761  1.00  0.00    -0.043 C  
HETATM   13  C   UNL     1      -5.882  12.742  68.963  1.00  0.00    -0.076 C  
BRANCH  13  14
HETATM   14  C   UNL     1      -6.994  13.762  68.860  1.00  0.00    -0.111 C  
BRANCH  14  15
HETATM   15  C   UNL     1      -7.531  13.991  67.470  1.00  0.00    -0.186 C  
HETATM   16  C   UNL     1      -8.808  14.250  67.148  1.00  0.00    -0.243 C  
BRANCH  16  17
HETATM   17  C   UNL     1      -9.956  14.179  68.101  1.00  0.00    -0.232 C  
BRANCH  17  18
HETATM   18  C   UNL     1     -10.213  12.739  68.454  1.00  0.00    -0.237 C  
HETATM   19  C   UNL     1     -11.054  11.933  67.791  1.00  0.00    -0.295 C  
BRANCH  19  20
HETATM   20  C   UNL     1     -11.880  12.352  66.621  1.00  0.00    -0.394 C  
BRANCH  20  21
HETATM   21  C   UNL     1     -11.174  12.127  65.318  1.00  0.00    -0.381 C  
HETATM   22  C   UNL     1     -11.227  12.970  64.275  1.00  0.00    -0.411 C  
BRANCH  22  23
HETATM   23  C   UNL     1     -12.020  14.240  64.218  1.00  0.00    -0.449 C  
HETATM   24  C   UNL     1     -11.208  15.430  64.696  1.00  0.00    -0.374 C  
ENDBRANCH  22  23
ENDBRANCH  20  21
ENDBRANCH  19  20
ENDBRANCH  17  18
ENDBRANCH  16  17
ENDBRANCH  14  15
ENDBRANCH  13  14
ENDBRANCH  11  12
ENDBRANCH  10  11
ENDBRANCH   8   9
ENDBRANCH   7   8
ENDBRANCH   6   7
ENDBRANCH   4   6
ENDBRANCH   3   4
ENDBRANCH   2   3
TORSDOF 15
ENDMDL
MODEL      350
REMARK 921   NORMALIZED FREE ENERGY PREDICTED BY IDOCK:   -3.12 KCAL/MOL
REMARK 922        TOTAL FREE ENERGY PREDICTED BY IDOCK:   -8.41 KCAL/MOL
REMARK 923 INTER-LIGAND FREE ENERGY PREDICTED BY IDOCK:   -7.43 KCAL/MOL
REMARK 924 INTRA-LIGAND FREE ENERGY PREDICTED BY IDOCK:   -0.97 KCAL/MOL
REMARK 927      BINDING AFFINITY PREDICTED BY RF-SCORE:    0.00 PKD
ROOT
HETATM    1  C   UNL     1     -14.261  15.271  72.241  1.00  0.00    -0.642 C  
HETATM    2  C   UNL     1     -12.980  14.463  72.332  1.00  0.00    -0.395 C  
ENDROOT
BRANCH   2   3
HETATM    3  O   UNL     1     -13.254  13.159  71.806  1.00  0.00    -0.410 OA 
BRANCH   3   4
HETATM    4  C   UNL     1     -12.419  12.774  70.801  1.00  0.00    -0.271 C  
HETATM    5  O   UNL     1     -11.923  11.666  70.676  1.00  0.00    -0.358 OA 
BRANCH   4   6
HETATM    6  C   UNL     1     -12.294  13.905  69.818  1.00  0.00    -0.330 C  
BRANCH   6   7
HETATM    7  C   UNL     1     -11.907  13.369  68.436  1.00  0.00    -0.401 C  
BRANCH   7   8
HETATM    8  C   UNL     1     -11.182  14.413  67.602  1.00  0.00    -0.328 C  
BRANCH   8   9
HETATM    9  C   UNL     1     -10.799  13.891  66.238  1.00  0.00    -0.290 C  
HETATM   10  C   UNL     1      -9.810  13.017  65.991  1.00  0.00    -0.259 C  
BRANCH  10  11
HETATM   11  C   UNL     1      -8.831  12.548  67.016  1.00  0.00    -0.212 C  
BRANCH  11  12
HETATM   12  C   UNL     1      -8.024  11.348  66.624  1.00  0.00    -0.148 C  
HETATM   13  C   UNL     1      -8.568  10.163  66.293  1.00  0.00    -0.138 C  
BRANCH  13  14
HETATM   14  C   UNL     1     -10.032   9.787  66.230  1.00  0.00    -0.331 C  
BRANCH  14  15
HETATM   15  C   UNL     1     -10.749   9.764  67.555  1.00  0.00    -0.327 C  
HETATM   16  C   UNL     1     -10.745   8.753  68.438  1.00  0.00    -0.112 C  
BRANCH  16  17
HETATM   17  C   UNL     1     -10.169   7.400  68.180  1.00  0.00    -0.223 C  
BRANCH  17  18
HETATM   18  C   UNL     1     -11.073   6.359  68.782  1.00  0.00    -0.404 C  
HETATM   19  C   UNL     1     -11.280   6.200  70.097  1.00  0.00    -0.452 C  
BRANCH  19  20
HETATM   20  C   UNL     1     -10.623   7.016  71.160  1.00  0.00    -0.237 C  
BRANCH  20  21
HETATM   21  C   UNL     1     -11.190   6.741  72.520  1.00  0.00    -0.305 C  
HETATM   22  C   UNL     1     -10.574   7.052  73.672  1.00  0.00    -0.383 C  
BRANCH  22  23
HETATM   23  C   UNL     1      -9.220   7.680  73.796  1.00  0.00    -0.333 C  
HETATM   24  C   UNL     1      -8.195   6.700  74.338  1.00  0.00    -0.146 C  
ENDBRANCH  22  23
ENDBRANCH  20  21
ENDBRANCH  19  20
ENDBRANCH  17  18
ENDBRANCH  16  17
ENDBRANCH  14  15
ENDBRANCH  13  14
ENDBRANCH  11  12
ENDBRANCH  10  11
ENDBRANCH   8   9
ENDBRANCH   7   8
ENDBRANCH   6   7
ENDBRANCH   4   6
ENDBRANCH   3   4
ENDBRANCH   2   3
TORSDOF 15
ENDMDL
MODEL      351
REMARK 921   NORMALIZED FREE ENERGY PREDICTED BY IDOCK:   -3.12 KCAL/MOL
REMARK 922        TOTAL FREE ENERGY PREDICTED BY IDOCK:   -8.41 KCAL/MOL
REMARK 923 INTER-LIGAND FREE ENERGY PREDICTED BY IDOCK:   -6.58 KCAL/MOL
REMARK 924 INTRA-LIGAND FREE ENERGY PREDICTED BY IDOCK:   -1.82 KCAL/MOL
REMARK 927      BINDING AFFINITY PREDICTED BY RF-SCORE:    0.00 PKD
ROOT
HETATM    1  C   UNL     1     -10.904  19.821  65.592  1.00  0.00    -0.337 C  
HETATM    2  C   UNL     1     -10.640  19.570  67.066  1.00  0.00    -0.492 C  
ENDROOT
BRANCH   2   3
HETATM    3  O   UNL     1      -9.589  20.455  67.472  1.00  0.00    -0.402 OA 
BRANCH   3   4
HETATM    4  C   UNL     1      -8.352  19.883  67.493  1.00  0.00    -0.324 C  
HETATM    5  O   UNL     1      -7.431  20.157  66.741  1.00  0.00    -0.260 OA 
BRANCH   4   6
HETATM    6  C   UNL     1      -8.279  18.937  68.660  1.00  0.00    -0.380 C  
BRANCH   6   7
HETATM    7  C   UNL     1      -7.820  17.552  68.194  1.00  0.00    -0.244 C  
BRANCH   7   8
HETATM    8  C   UNL     1      -8.982  16.580  68.063  1.00  0.00    -0.204 C  
BRANCH   8   9
HETATM    9  C   UNL     1      -8.865  15.417  69.017  1.00  0.00    -0.231 C  
HETATM   10  C   UNL     1      -8.559  14.156  68.672  1.00  0.00    -0.126 C  
BRANCH  10  11
HETATM   11  C   UNL     1      -8.443  13.679  67.261  1.00  0.00    -0.203 C  
BRANCH  11  12
HETATM   12  C   UNL     1      -8.577  12.199  67.076  1.00  0.00    -0.191 C  
HETATM   13  C   UNL     1      -9.745  11.587  66.809  1.00  0.00    -0.220 C  
BRANCH  13  14
HETATM   14  C   UNL     1     -11.111  12.209  66.630  1.00  0.00    -0.353 C  
BRANCH  14  15
HETATM   15  C   UNL     1     -11.678  12.884  67.852  1.00  0.00    -0.405 C  
HETATM   16  C   UNL     1     -11.988  12.287  69.013  1.00  0.00    -0.300 C  
BRANCH  16  17
HETATM   17  C   UNL     1     -11.992  10.810  69.235  1.00  0.00    -0.334 C  
BRANCH  17  18
HETATM   18  C   UNL     1     -10.778  10.432  70.042  1.00  0.00    -0.321 C  
HETATM   19  C   UNL     1     -10.031   9.341  69.823  1.00  0.00    -0.213 C  
BRANCH  19  20
HETATM   20  C   UNL     1     -10.306   8.325  68.765  1.00  0.00    -0.223 C  
BRANCH  20  21
HETATM   21  C   UNL     1     -11.253   7.261  69.232  1.00  0.00     0.026 C  
HETATM   22  C   UNL     1     -10.870   6.077  69.735  1.00  0.00    -0.433 C  
BRANCH  22  23
HETATM   23  C   UNL     1      -9.454   5.606  69.878  1.00  0.00    -0.197 C  
HETATM   24  C   UNL     1      -9.340   4.467  70.874  1.00  0.00    -0.218 C  
ENDBRANCH  22  23
ENDBRANCH  20  21
ENDBRANCH  19  20
ENDBRANCH  17  18
ENDBRANCH  16  17
ENDBRANCH  14  15
ENDBRANCH  13  14
ENDBRANCH  11  12
ENDBRANCH  10  11
ENDBRANCH   8   9
ENDBRANCH   7   8
ENDBRANCH   6   7
ENDBRANCH   4   6
ENDBRANCH   3   4
ENDBRANCH   2   3
TORSDOF 15
ENDMDL
MODEL      352
REMARK 921   NORMALIZED FREE ENERGY PREDICTED BY IDOCK:   -3.11 KCAL/MOL
REMARK 922        TOTAL FREE ENERGY PREDICTED BY IDOCK:   -8.38 KCAL/MOL
REMARK 923 INTER-LIGAND FREE ENERGY PREDICTED BY IDOCK:   -5.35 KCAL/MOL
REMARK 924 INTRA-LIGAND FREE ENERGY PREDICTED BY IDOCK:   -3.03 KCAL/MOL
REMARK 927      BINDING AFFINITY PREDICTED BY RF-SCORE:    0.00 PKD
ROOT
HETATM    1  C   UNL     1      -8.930   6.358  73.327  1.00  0.00    -0.134 C  
HETATM    2  C   UNL     1      -9.879   7.534  73.471  1.00  0.00    -0.317 C  
ENDROOT
BRANCH   2   3
HETATM    3  O   UNL     1     -11.202   7.056  73.200  1.00  0.00    -0.253 OA 
BRANCH   3   4
HETATM    4  C   UNL     1     -11.914   7.836  72.339  1.00  0.00    -0.289 C  
HETATM    5  O   UNL     1     -12.055   9.045  72.428  1.00  0.00    -0.324 OA 
BRANCH   4   6
HETATM    6  C   UNL     1     -12.407   6.978  71.206  1.00  0.00    -0.426 C  
BRANCH   6   7
HETATM    7  C   UNL     1     -11.226   6.461  70.378  1.00  0.00    -0.435 C  
BRANCH   7   8
HETATM    8  C   UNL     1     -10.691   7.519  69.425  1.00  0.00    -0.200 C  
BRANCH   8   9
HETATM    9  C   UNL     1      -9.333   8.028  69.839  1.00  0.00    -0.156 C  
HETATM   10  C   UNL     1      -8.159   7.606  69.340  1.00  0.00    -0.127 C  
BRANCH  10  11
HETATM   11  C   UNL     1      -8.013   6.449  68.407  1.00  0.00    -0.106 C  
BRANCH  11  12
HETATM   12  C   UNL     1      -6.604   6.009  68.154  1.00  0.00    -0.055 C  
HETATM   13  C   UNL     1      -5.924   6.309  67.032  1.00  0.00    -0.021 C  
BRANCH  13  14
HETATM   14  C   UNL     1      -6.384   7.121  65.843  1.00  0.00    -0.044 C  
BRANCH  14  15
HETATM   15  C   UNL     1      -6.296   8.616  66.011  1.00  0.00    -0.053 C  
HETATM   16  C   UNL     1      -7.270   9.500  65.745  1.00  0.00    -0.097 C  
BRANCH  16  17
HETATM   17  C   UNL     1      -8.558   9.168  65.065  1.00  0.00    -0.204 C  
BRANCH  17  18
HETATM   18  C   UNL     1      -9.577   8.785  66.104  1.00  0.00    -0.323 C  
HETATM   19  C   UNL     1     -10.452   9.636  66.659  1.00  0.00    -0.233 C  
BRANCH  19  20
HETATM   20  C   UNL     1     -10.528  11.094  66.348  1.00  0.00    -0.311 C  
BRANCH  20  21
HETATM   21  C   UNL     1      -9.771  11.926  67.339  1.00  0.00    -0.189 C  
HETATM   22  C   UNL     1     -10.310  12.454  68.449  1.00  0.00    -0.236 C  
BRANCH  22  23
HETATM   23  C   UNL     1     -11.745  12.340  68.862  1.00  0.00    -0.380 C  
HETATM   24  C   UNL     1     -11.935  11.291  69.943  1.00  0.00    -0.440 C  
ENDBRANCH  22  23
ENDBRANCH  20  21
ENDBRANCH  19  20
ENDBRANCH  17  18
ENDBRANCH  16  17
ENDBRANCH  14  15
ENDBRANCH  13  14
ENDBRANCH  11  12
ENDBRANCH  10  11
ENDBRANCH   8   9
ENDBRANCH   7   8
ENDBRANCH   6   7
ENDBRANCH   4   6
ENDBRANCH   3   4
ENDBRANCH   2   3
TORSDOF 15
ENDMDL
MODEL      353
REMARK 921   NORMALIZED FREE ENERGY PREDICTED BY IDOCK:   -3.11 KCAL/MOL
REMARK 922        TOTAL FREE ENERGY PREDICTED BY IDOCK:   -8.38 KCAL/MOL
REMARK 923 INTER-LIGAND FREE ENERGY PREDICTED BY IDOCK:   -5.99 KCAL/MOL
REMARK 924 INTRA-LIGAND FREE ENERGY PREDICTED BY IDOCK:   -2.39 KCAL/MOL
REMARK 927      BINDING AFFINITY PREDICTED BY RF-SCORE:    0.00 PKD
ROOT
HETATM    1  C   UNL     1      -8.562   5.158  64.524  1.00  0.00    -0.130 C  
HETATM    2  C   UNL     1      -8.694   6.055  65.741  1.00  0.00    -0.151 C  
ENDROOT
BRANCH   2   3
HETATM    3  O   UNL     1      -8.277   5.296  66.883  1.00  0.00    -0.108 OA 
BRANCH   3   4
HETATM    4  C   UNL     1      -9.258   4.524  67.430  1.00  0.00    -0.137 C  
HETATM    5  O   UNL     1      -9.148   3.348  67.736  1.00  0.00    -0.132 OA 
BRANCH   4   6
HETATM    6  C   UNL     1     -10.461   5.388  67.691  1.00  0.00    -0.217 C  
BRANCH   6   7
HETATM    7  C   UNL     1     -10.451   5.890  69.138  1.00  0.00    -0.338 C  
BRANCH   7   8
HETATM    8  C   UNL     1     -10.594   7.402  69.219  1.00  0.00    -0.220 C  
BRANCH   8   9
HETATM    9  C   UNL     1      -9.257   8.103  69.230  1.00  0.00    -0.151 C  
HETATM   10  C   UNL     1      -8.915   9.136  68.444  1.00  0.00    -0.133 C  
BRANCH  10  11
HETATM   11  C   UNL     1      -9.756   9.650  67.322  1.00  0.00    -0.213 C  
BRANCH  11  12
HETATM   12  C   UNL     1     -10.033  11.121  67.355  1.00  0.00    -0.204 C  
HETATM   13  C   UNL     1     -11.062  11.668  68.027  1.00  0.00    -0.299 C  
BRANCH  13  14
HETATM   14  C   UNL     1     -12.110  10.973  68.867  1.00  0.00    -0.239 C  
BRANCH  14  15
HETATM   15  C   UNL     1     -11.660  10.556  70.243  1.00  0.00    -0.417 C  
HETATM   16  C   UNL     1     -12.269  10.859  71.400  1.00  0.00    -0.332 C  
BRANCH  16  17
HETATM   17  C   UNL     1     -13.407  11.816  71.536  1.00  0.00    -0.134 C  
BRANCH  17  18
HETATM   18  C   UNL     1     -12.931  13.043  72.268  1.00  0.00    -0.330 C  
HETATM   19  C   UNL     1     -12.550  14.182  71.672  1.00  0.00    -0.420 C  
BRANCH  19  20
HETATM   20  C   UNL     1     -12.517  14.394  70.196  1.00  0.00    -0.395 C  
BRANCH  20  21
HETATM   21  C   UNL     1     -11.978  15.743  69.827  1.00  0.00    -0.337 C  
HETATM   22  C   UNL     1     -11.504  16.061  68.612  1.00  0.00    -0.377 C  
BRANCH  22  23
HETATM   23  C   UNL     1     -11.393  15.127  67.446  1.00  0.00    -0.309 C  
HETATM   24  C   UNL     1     -10.108  15.349  66.669  1.00  0.00    -0.273 C  
ENDBRANCH  22  23
ENDBRANCH  20  21
ENDBRANCH  19  20
ENDBRANCH  17  18
ENDBRANCH  16  17
ENDBRANCH  14  15
ENDBRANCH  13  14
ENDBRANCH  11  12
ENDBRANCH  10  11
ENDBRANCH   8   9
ENDBRANCH   7   8
ENDBRANCH   6   7
ENDBRANCH   4   6
ENDBRANCH   3   4
ENDBRANCH   2   3
TORSDOF 15
ENDMDL
MODEL      354
REMARK 921   NORMALIZED FREE ENERGY PREDICTED BY IDOCK:   -3.10 KCAL/MOL
REMARK 922        TOTAL FREE ENERGY PREDICTED BY IDOCK:   -8.37 KCAL/MOL
REMARK 923 INTER-LIGAND FREE ENERGY PREDICTED BY IDOCK:   -6.12 KCAL/MOL
REMARK 924 INTRA-LIGAND FREE ENERGY PREDICTED BY IDOCK:   -2.26 KCAL/MOL
REMARK 927      BINDING AFFINITY PREDICTED BY RF-SCORE:    0.00 PKD
ROOT
HETATM    1  C   UNL     1      -8.617   8.074  73.824  1.00  0.00    -0.328 C  
HETATM    2  C   UNL     1      -9.493   7.108  73.048  1.00  0.00    -0.158 C  
ENDROOT
BRANCH   2   3
HETATM    3  O   UNL     1     -10.857   7.455  73.312  1.00  0.00    -0.374 OA 
BRANCH   3   4
HETATM    4  C   UNL     1     -11.624   7.601  72.196  1.00  0.00    -0.308 C  
HETATM    5  O   UNL     1     -11.853   6.729  71.373  1.00  0.00    -0.301 OA 
BRANCH   4   6
HETATM    6  C   UNL     1     -12.225   8.980  72.202  1.00  0.00    -0.427 C  
BRANCH   6   7
HETATM    7  C   UNL     1     -11.421   9.915  71.294  1.00  0.00    -0.435 C  
BRANCH   7   8
HETATM    8  C   UNL     1     -12.249  11.096  70.814  1.00  0.00    -0.484 C  
BRANCH   8   9
HETATM    9  C   UNL     1     -12.985  11.775  71.942  1.00  0.00    -0.435 C  
HETATM   10  C   UNL     1     -13.004  13.098  72.174  1.00  0.00    -0.382 C  
BRANCH  10  11
HETATM   11  C   UNL     1     -12.163  14.089  71.436  1.00  0.00    -0.349 C  
BRANCH  11  12
HETATM   12  C   UNL     1     -12.899  15.284  70.913  1.00  0.00    -0.511 C  
HETATM   13  C   UNL     1     -12.694  15.805  69.690  1.00  0.00     0.290 C  
BRANCH  13  14
HETATM   14  C   UNL     1     -11.741  15.331  68.615  1.00  0.00    -0.367 C  
BRANCH  14  15
HETATM   15  C   UNL     1     -12.141  14.058  67.914  1.00  0.00    -0.314 C  
HETATM   16  C   UNL     1     -11.417  12.930  67.847  1.00  0.00    -0.362 C  
BRANCH  16  17
HETATM   17  C   UNL     1     -10.002  12.800  68.308  1.00  0.00    -0.230 C  
BRANCH  17  18
HETATM   18  C   UNL     1      -9.082  13.211  67.190  1.00  0.00    -0.230 C  
HETATM   19  C   UNL     1      -8.168  12.409  66.625  1.00  0.00     0.054 C  
BRANCH  19  20
HETATM   20  C   UNL     1      -7.909  10.999  67.039  1.00  0.00    -0.137 C  
BRANCH  20  21
HETATM   21  C   UNL     1      -6.921  10.909  68.162  1.00  0.00    -0.069 C  
HETATM   22  C   UNL     1      -6.669   9.789  68.859  1.00  0.00    -0.050 C  
BRANCH  22  23
HETATM   23  C   UNL     1      -7.351   8.469  68.665  1.00  0.00    -0.088 C  
HETATM   24  C   UNL     1      -8.271   8.138  69.826  1.00  0.00    -0.122 C  
ENDBRANCH  22  23
ENDBRANCH  20  21
ENDBRANCH  19  20
ENDBRANCH  17  18
ENDBRANCH  16  17
ENDBRANCH  14  15
ENDBRANCH  13  14
ENDBRANCH  11  12
ENDBRANCH  10  11
ENDBRANCH   8   9
ENDBRANCH   7   8
ENDBRANCH   6   7
ENDBRANCH   4   6
ENDBRANCH   3   4
ENDBRANCH   2   3
TORSDOF 15
ENDMDL
MODEL      355
REMARK 921   NORMALIZED FREE ENERGY PREDICTED BY IDOCK:   -3.10 KCAL/MOL
REMARK 922        TOTAL FREE ENERGY PREDICTED BY IDOCK:   -8.37 KCAL/MOL
REMARK 923 INTER-LIGAND FREE ENERGY PREDICTED BY IDOCK:   -6.21 KCAL/MOL
REMARK 924 INTRA-LIGAND FREE ENERGY PREDICTED BY IDOCK:   -2.16 KCAL/MOL
REMARK 927      BINDING AFFINITY PREDICTED BY RF-SCORE:    0.00 PKD
ROOT
HETATM    1  C   UNL     1      -9.622   8.420  72.084  1.00  0.00    -0.367 C  
HETATM    2  C   UNL     1      -8.387   8.117  72.913  1.00  0.00    -0.188 C  
ENDROOT
BRANCH   2   3
HETATM    3  O   UNL     1      -7.677   7.059  72.258  1.00  0.00    -0.090 OA 
BRANCH   3   4
HETATM    4  C   UNL     1      -7.207   7.382  71.021  1.00  0.00    -0.068 C  
HETATM    5  O   UNL     1      -6.496   8.339  70.759  1.00  0.00    -0.036 OA 
BRANCH   4   6
HETATM    6  C   UNL     1      -7.623   6.309  70.052  1.00  0.00    -0.096 C  
BRANCH   6   7
HETATM    7  C   UNL     1      -7.246   6.707  68.623  1.00  0.00    -0.085 C  
BRANCH   7   8
HETATM    8  C   UNL     1      -8.284   6.250  67.610  1.00  0.00    -0.117 C  
BRANCH   8   9
HETATM    9  C   UNL     1      -8.381   7.184  66.429  1.00  0.00    -0.125 C  
HETATM   10  C   UNL     1      -9.310   8.140  66.269  1.00  0.00    -0.259 C  
BRANCH  10  11
HETATM   11  C   UNL     1     -10.489   8.321  67.167  1.00  0.00    -0.386 C  
BRANCH  11  12
HETATM   12  C   UNL     1     -10.183   8.913  68.509  1.00  0.00    -0.223 C  
HETATM   13  C   UNL     1     -10.248  10.231  68.771  1.00  0.00    -0.205 C  
BRANCH  13  14
HETATM   14  C   UNL     1     -10.634  11.356  67.836  1.00  0.00    -0.224 C  
BRANCH  14  15
HETATM   15  C   UNL     1     -11.765  12.231  68.313  1.00  0.00    -0.392 C  
HETATM   16  C   UNL     1     -11.689  13.543  68.584  1.00  0.00    -0.389 C  
BRANCH  16  17
HETATM   17  C   UNL     1     -10.421  14.331  68.628  1.00  0.00    -0.249 C  
BRANCH  17  18
HETATM   18  C   UNL     1     -10.705  15.742  68.190  1.00  0.00    -0.285 C  
HETATM   19  C   UNL     1     -10.637  16.172  66.921  1.00  0.00    -0.283 C  
BRANCH  19  20
HETATM   20  C   UNL     1     -10.244  15.321  65.760  1.00  0.00    -0.372 C  
BRANCH  20  21
HETATM   21  C   UNL     1     -11.216  15.424  64.624  1.00  0.00    -0.374 C  
HETATM   22  C   UNL     1     -12.046  14.439  64.248  1.00  0.00    -0.461 C  
BRANCH  22  23
HETATM   23  C   UNL     1     -12.113  13.073  64.861  1.00  0.00    -0.459 C  
HETATM   24  C   UNL     1     -11.296  12.064  64.074  1.00  0.00    -0.478 C  
ENDBRANCH  22  23
ENDBRANCH  20  21
ENDBRANCH  19  20
ENDBRANCH  17  18
ENDBRANCH  16  17
ENDBRANCH  14  15
ENDBRANCH  13  14
ENDBRANCH  11  12
ENDBRANCH  10  11
ENDBRANCH   8   9
ENDBRANCH   7   8
ENDBRANCH   6   7
ENDBRANCH   4   6
ENDBRANCH   3   4
ENDBRANCH   2   3
TORSDOF 15
ENDMDL
MODEL      356
REMARK 921   NORMALIZED FREE ENERGY PREDICTED BY IDOCK:   -3.10 KCAL/MOL
REMARK 922        TOTAL FREE ENERGY PREDICTED BY IDOCK:   -8.37 KCAL/MOL
REMARK 923 INTER-LIGAND FREE ENERGY PREDICTED BY IDOCK:   -6.55 KCAL/MOL
REMARK 924 INTRA-LIGAND FREE ENERGY PREDICTED BY IDOCK:   -1.82 KCAL/MOL
REMARK 927      BINDING AFFINITY PREDICTED BY RF-SCORE:    0.00 PKD
ROOT
HETATM    1  C   UNL     1      -7.102   6.911  71.137  1.00  0.00    -0.075 C  
HETATM    2  C   UNL     1      -7.762   5.923  70.193  1.00  0.00    -0.095 C  
ENDROOT
BRANCH   2   3
HETATM    3  O   UNL     1      -8.980   6.518  69.728  1.00  0.00    -0.141 OA 
BRANCH   3   4
HETATM    4  C   UNL     1     -10.098   5.785  69.993  1.00  0.00    -0.216 C  
HETATM    5  O   UNL     1     -11.134   5.814  69.350  1.00  0.00    -0.346 OA 
BRANCH   4   6
HETATM    6  C   UNL     1      -9.806   4.860  71.142  1.00  0.00    -0.261 C  
BRANCH   6   7
HETATM    7  C   UNL     1     -10.700   5.200  72.339  1.00  0.00    -0.276 C  
BRANCH   7   8
HETATM    8  C   UNL     1     -10.389   6.573  72.912  1.00  0.00    -0.232 C  
BRANCH   8   9
HETATM    9  C   UNL     1     -11.597   7.477  72.919  1.00  0.00    -0.240 C  
HETATM   10  C   UNL     1     -11.751   8.575  72.161  1.00  0.00    -0.448 C  
BRANCH  10  11
HETATM   11  C   UNL     1     -10.676   9.160  71.305  1.00  0.00    -0.401 C  
BRANCH  11  12
HETATM   12  C   UNL     1     -11.084   9.482  69.901  1.00  0.00    -0.244 C  
HETATM   13  C   UNL     1     -11.532  10.692  69.518  1.00  0.00    -0.360 C  
BRANCH  13  14
HETATM   14  C   UNL     1     -11.707  11.938  70.357  1.00  0.00    -0.213 C  
BRANCH  14  15
HETATM   15  C   UNL     1     -12.491  13.048  69.707  1.00  0.00    -0.002 C  
HETATM   16  C   UNL     1     -11.997  13.995  68.895  1.00  0.00    -0.387 C  
BRANCH  16  17
HETATM   17  C   UNL     1     -10.543  14.218  68.635  1.00  0.00    -0.254 C  
BRANCH  17  18
HETATM   18  C   UNL     1     -10.339  15.636  68.172  1.00  0.00    -0.246 C  
HETATM   19  C   UNL     1     -10.721  16.107  66.976  1.00  0.00    -0.254 C  
BRANCH  19  20
HETATM   20  C   UNL     1     -11.381  15.288  65.917  1.00  0.00    -0.172 C  
BRANCH  20  21
HETATM   21  C   UNL     1     -10.388  14.590  65.036  1.00  0.00    -0.442 C  
HETATM   22  C   UNL     1     -10.463  13.296  64.691  1.00  0.00    -0.420 C  
BRANCH  22  23
HETATM   23  C   UNL     1     -11.512  12.329  65.151  1.00  0.00    -0.390 C  
HETATM   24  C   UNL     1     -12.694  12.290  64.200  1.00  0.00    -0.431 C  
ENDBRANCH  22  23
ENDBRANCH  20  21
ENDBRANCH  19  20
ENDBRANCH  17  18
ENDBRANCH  16  17
ENDBRANCH  14  15
ENDBRANCH  13  14
ENDBRANCH  11  12
ENDBRANCH  10  11
ENDBRANCH   8   9
ENDBRANCH   7   8
ENDBRANCH   6   7
ENDBRANCH   4   6
ENDBRANCH   3   4
ENDBRANCH   2   3
TORSDOF 15
ENDMDL
MODEL      357
REMARK 921   NORMALIZED FREE ENERGY PREDICTED BY IDOCK:   -3.09 KCAL/MOL
REMARK 922        TOTAL FREE ENERGY PREDICTED BY IDOCK:   -8.34 KCAL/MOL
REMARK 923 INTER-LIGAND FREE ENERGY PREDICTED BY IDOCK:   -6.25 KCAL/MOL
REMARK 924 INTRA-LIGAND FREE ENERGY PREDICTED BY IDOCK:   -2.10 KCAL/MOL
REMARK 927      BINDING AFFINITY PREDICTED BY RF-SCORE:    0.00 PKD
ROOT
HETATM    1  C   UNL     1     -10.409   8.110  68.252  1.00  0.00    -0.241 C  
HETATM    2  C   UNL     1      -9.121   8.012  67.455  1.00  0.00    -0.137 C  
ENDROOT
BRANCH   2   3
HETATM    3  O   UNL     1      -9.476   7.780  66.087  1.00  0.00    -0.157 OA 
BRANCH   3   4
HETATM    4  C   UNL     1      -8.906   8.648  65.205  1.00  0.00    -0.135 C  
HETATM    5  O   UNL     1      -7.911   8.426  64.534  1.00  0.00    -0.131 OA 
BRANCH   4   6
HETATM    6  C   UNL     1      -9.764   9.881  65.119  1.00  0.00    -0.376 C  
BRANCH   6   7
HETATM    7  C   UNL     1      -8.937  11.128  65.445  1.00  0.00    -0.154 C  
BRANCH   7   8
HETATM    8  C   UNL     1      -9.602  11.993  66.504  1.00  0.00    -0.234 C  
BRANCH   8   9
HETATM    9  C   UNL     1     -11.072  11.688  66.651  1.00  0.00    -0.364 C  
HETATM   10  C   UNL     1     -11.857  12.109  67.657  1.00  0.00    -0.316 C  
BRANCH  10  11
HETATM   11  C   UNL     1     -11.353  12.814  68.873  1.00  0.00    -0.344 C  
BRANCH  11  12
HETATM   12  C   UNL     1     -12.222  12.691  70.087  1.00  0.00    -0.310 C  
HETATM   13  C   UNL     1     -12.321  11.566  70.817  1.00  0.00    -0.472 C  
BRANCH  13  14
HETATM   14  C   UNL     1     -11.614  10.245  70.609  1.00  0.00    -0.435 C  
BRANCH  14  15
HETATM   15  C   UNL     1     -12.174   9.084  71.389  1.00  0.00    -0.387 C  
HETATM   16  C   UNL     1     -11.521   8.365  72.315  1.00  0.00    -0.454 C  
BRANCH  16  17
HETATM   17  C   UNL     1     -10.061   8.480  72.606  1.00  0.00    -0.253 C  
BRANCH  17  18
HETATM   18  C   UNL     1      -9.650   7.348  73.509  1.00  0.00    -0.317 C  
HETATM   19  C   UNL     1      -9.130   6.187  73.083  1.00  0.00    -0.129 C  
BRANCH  19  20
HETATM   20  C   UNL     1      -8.907   5.836  71.650  1.00  0.00    -0.138 C  
BRANCH  20  21
HETATM   21  C   UNL     1     -10.158   5.350  70.982  1.00  0.00    -0.281 C  
HETATM   22  C   UNL     1     -10.199   4.817  69.751  1.00  0.00    -0.218 C  
BRANCH  22  23
HETATM   23  C   UNL     1      -9.028   4.655  68.831  1.00  0.00    -0.145 C  
HETATM   24  C   UNL     1      -8.577   3.208  68.746  1.00  0.00    -0.117 C  
ENDBRANCH  22  23
ENDBRANCH  20  21
ENDBRANCH  19  20
ENDBRANCH  17  18
ENDBRANCH  16  17
ENDBRANCH  14  15
ENDBRANCH  13  14
ENDBRANCH  11  12
ENDBRANCH  10  11
ENDBRANCH   8   9
ENDBRANCH   7   8
ENDBRANCH   6   7
ENDBRANCH   4   6
ENDBRANCH   3   4
ENDBRANCH   2   3
TORSDOF 15
ENDMDL
MODEL      358
REMARK 921   NORMALIZED FREE ENERGY PREDICTED BY IDOCK:   -3.08 KCAL/MOL
REMARK 922        TOTAL FREE ENERGY PREDICTED BY IDOCK:   -8.34 KCAL/MOL
REMARK 923 INTER-LIGAND FREE ENERGY PREDICTED BY IDOCK:   -6.37 KCAL/MOL
REMARK 924 INTRA-LIGAND FREE ENERGY PREDICTED BY IDOCK:   -1.97 KCAL/MOL
REMARK 927      BINDING AFFINITY PREDICTED BY RF-SCORE:    0.00 PKD
ROOT
HETATM    1  C   UNL     1      -7.787   6.650  73.474  1.00  0.00    -0.095 C  
HETATM    2  C   UNL     1      -9.190   6.104  73.665  1.00  0.00    -0.128 C  
ENDROOT
BRANCH   2   3
HETATM    3  O   UNL     1      -9.071   4.811  74.269  1.00  0.00    -0.111 OA 
BRANCH   3   4
HETATM    4  C   UNL     1      -8.868   3.796  73.383  1.00  0.00    -0.092 C  
HETATM    5  O   UNL     1      -7.886   3.072  73.346  1.00  0.00    -0.061 OA 
BRANCH   4   6
HETATM    6  C   UNL     1     -10.097   3.648  72.529  1.00  0.00    -0.237 C  
BRANCH   6   7
HETATM    7  C   UNL     1      -9.714   3.623  71.046  1.00  0.00    -0.243 C  
BRANCH   7   8
HETATM    8  C   UNL     1      -9.425   5.016  70.507  1.00  0.00    -0.236 C  
BRANCH   8   9
HETATM    9  C   UNL     1     -10.489   5.491  69.549  1.00  0.00    -0.368 C  
HETATM   10  C   UNL     1     -11.497   6.323  69.857  1.00  0.00    -0.459 C  
BRANCH  10  11
HETATM   11  C   UNL     1     -11.811   6.781  71.244  1.00  0.00    -0.396 C  
BRANCH  11  12
HETATM   12  C   UNL     1     -12.466   8.125  71.338  1.00  0.00    -0.313 C  
HETATM   13  C   UNL     1     -11.788   9.269  71.542  1.00  0.00    -0.444 C  
BRANCH  13  14
HETATM   14  C   UNL     1     -10.296   9.461  71.701  1.00  0.00    -0.162 C  
BRANCH  14  15
HETATM   15  C   UNL     1      -9.468   9.096  70.496  1.00  0.00    -0.291 C  
HETATM   16  C   UNL     1      -9.556   9.652  69.278  1.00  0.00    -0.190 C  
BRANCH  16  17
HETATM   17  C   UNL     1     -10.620  10.612  68.856  1.00  0.00    -0.241 C  
BRANCH  17  18
HETATM   18  C   UNL     1     -10.402  10.983  67.414  1.00  0.00    -0.242 C  
HETATM   19  C   UNL     1     -11.017  11.998  66.790  1.00  0.00    -0.329 C  
BRANCH  19  20
HETATM   20  C   UNL     1     -12.029  12.892  67.425  1.00  0.00    -0.360 C  
BRANCH  20  21
HETATM   21  C   UNL     1     -11.415  14.145  67.974  1.00  0.00    -0.342 C  
HETATM   22  C   UNL     1     -11.356  14.448  69.281  1.00  0.00    -0.319 C  
BRANCH  22  23
HETATM   23  C   UNL     1     -11.921  13.621  70.395  1.00  0.00    -0.372 C  
HETATM   24  C   UNL     1     -12.109  14.437  71.660  1.00  0.00    -0.339 C  
ENDBRANCH  22  23
ENDBRANCH  20  21
ENDBRANCH  19  20
ENDBRANCH  17  18
ENDBRANCH  16  17
ENDBRANCH  14  15
ENDBRANCH  13  14
ENDBRANCH  11  12
ENDBRANCH  10  11
ENDBRANCH   8   9
ENDBRANCH   7   8
ENDBRANCH   6   7
ENDBRANCH   4   6
ENDBRANCH   3   4
ENDBRANCH   2   3
TORSDOF 15
ENDMDL
MODEL      359
REMARK 921   NORMALIZED FREE ENERGY PREDICTED BY IDOCK:   -3.08 KCAL/MOL
REMARK 922        TOTAL FREE ENERGY PREDICTED BY IDOCK:   -8.34 KCAL/MOL
REMARK 923 INTER-LIGAND FREE ENERGY PREDICTED BY IDOCK:   -7.15 KCAL/MOL
REMARK 924 INTRA-LIGAND FREE ENERGY PREDICTED BY IDOCK:   -1.19 KCAL/MOL
REMARK 927      BINDING AFFINITY PREDICTED BY RF-SCORE:    0.00 PKD
ROOT
HETATM    1  C   UNL     1     -10.774   6.426  73.155  1.00  0.00    -0.294 C  
HETATM    2  C   UNL     1     -11.801   6.827  72.111  1.00  0.00    -0.290 C  
ENDROOT
BRANCH   2   3
HETATM    3  O   UNL     1     -11.260   6.500  70.826  1.00  0.00    -0.280 OA 
BRANCH   3   4
HETATM    4  C   UNL     1     -10.755   7.566  70.144  1.00  0.00    -0.239 C  
HETATM    5  O   UNL     1     -11.348   8.607  69.914  1.00  0.00    -0.119 OA 
BRANCH   4   6
HETATM    6  C   UNL     1      -9.314   7.288  69.815  1.00  0.00    -0.150 C  
BRANCH   6   7
HETATM    7  C   UNL     1      -9.210   6.148  68.798  1.00  0.00    -0.124 C  
BRANCH   7   8
HETATM    8  C   UNL     1      -9.923   6.479  67.496  1.00  0.00    -0.169 C  
BRANCH   8   9
HETATM    9  C   UNL     1      -8.960   6.686  66.353  1.00  0.00    -0.161 C  
HETATM   10  C   UNL     1      -8.820   7.823  65.652  1.00  0.00    -0.102 C  
BRANCH  10  11
HETATM   11  C   UNL     1      -9.714   9.011  65.795  1.00  0.00    -0.254 C  
BRANCH  11  12
HETATM   12  C   UNL     1      -9.535  10.072  64.753  1.00  0.00    -0.366 C  
HETATM   13  C   UNL     1     -10.337  11.147  64.643  1.00  0.00    -0.393 C  
BRANCH  13  14
HETATM   14  C   UNL     1     -11.525  11.523  65.499  1.00  0.00    -0.074 C  
BRANCH  14  15
HETATM   15  C   UNL     1     -12.339  12.687  64.995  1.00  0.00    -0.561 C  
HETATM   16  C   UNL     1     -12.410  13.904  65.556  1.00  0.00    -0.506 C  
BRANCH  16  17
HETATM   17  C   UNL     1     -11.829  14.264  66.884  1.00  0.00    -0.458 C  
BRANCH  17  18
HETATM   18  C   UNL     1     -10.328  14.264  66.779  1.00  0.00    -0.274 C  
HETATM   19  C   UNL     1      -9.582  15.357  66.560  1.00  0.00    -0.298 C  
BRANCH  19  20
HETATM   20  C   UNL     1     -10.132  16.730  66.362  1.00  0.00    -0.327 C  
BRANCH  20  21
HETATM   21  C   UNL     1     -10.362  17.443  67.661  1.00  0.00    -0.355 C  
HETATM   22  C   UNL     1     -10.507  18.772  67.777  1.00  0.00    -0.479 C  
BRANCH  22  23
HETATM   23  C   UNL     1     -10.425  19.761  66.655  1.00  0.00    -0.615 C  
HETATM   24  C   UNL     1      -9.217  20.669  66.794  1.00  0.00    -0.262 C  
ENDBRANCH  22  23
ENDBRANCH  20  21
ENDBRANCH  19  20
ENDBRANCH  17  18
ENDBRANCH  16  17
ENDBRANCH  14  15
ENDBRANCH  13  14
ENDBRANCH  11  12
ENDBRANCH  10  11
ENDBRANCH   8   9
ENDBRANCH   7   8
ENDBRANCH   6   7
ENDBRANCH   4   6
ENDBRANCH   3   4
ENDBRANCH   2   3
TORSDOF 15
ENDMDL
MODEL      360
REMARK 921   NORMALIZED FREE ENERGY PREDICTED BY IDOCK:   -3.08 KCAL/MOL
REMARK 922        TOTAL FREE ENERGY PREDICTED BY IDOCK:   -8.33 KCAL/MOL
REMARK 923 INTER-LIGAND FREE ENERGY PREDICTED BY IDOCK:   -5.23 KCAL/MOL
REMARK 924 INTRA-LIGAND FREE ENERGY PREDICTED BY IDOCK:   -3.10 KCAL/MOL
REMARK 927      BINDING AFFINITY PREDICTED BY RF-SCORE:    0.00 PKD
ROOT
HETATM    1  C   UNL     1     -12.464  13.147  65.227  1.00  0.00    -0.550 C  
HETATM    2  C   UNL     1     -11.343  12.200  65.618  1.00  0.00    -0.347 C  
ENDROOT
BRANCH   2   3
HETATM    3  O   UNL     1     -10.912  11.528  64.430  1.00  0.00    -0.332 OA 
BRANCH   3   4
HETATM    4  C   UNL     1      -9.966  10.570  64.641  1.00  0.00    -0.347 C  
HETATM    5  O   UNL     1      -9.203  10.128  63.797  1.00  0.00    -0.243 OA 
BRANCH   4   6
HETATM    6  C   UNL     1      -9.948  10.225  66.105  1.00  0.00    -0.300 C  
BRANCH   6   7
HETATM    7  C   UNL     1     -10.148   8.719  66.299  1.00  0.00    -0.254 C  
BRANCH   7   8
HETATM    8  C   UNL     1      -9.036   8.098  67.131  1.00  0.00    -0.163 C  
BRANCH   8   9
HETATM    9  C   UNL     1      -7.700   8.755  66.882  1.00  0.00    -0.094 C  
HETATM   10  C   UNL     1      -6.723   8.260  66.106  1.00  0.00    -0.054 C  
BRANCH  10  11
HETATM   11  C   UNL     1      -6.749   6.898  65.493  1.00  0.00    -0.051 C  
BRANCH  11  12
HETATM   12  C   UNL     1      -7.211   6.849  64.069  1.00  0.00    -0.069 C  
HETATM   13  C   UNL     1      -7.975   5.860  63.570  1.00  0.00    -0.113 C  
BRANCH  13  14
HETATM   14  C   UNL     1      -8.526   4.647  64.286  1.00  0.00    -0.131 C  
BRANCH  14  15
HETATM   15  C   UNL     1      -9.838   4.859  64.997  1.00  0.00     0.096 C  
HETATM   16  C   UNL     1     -10.096   4.570  66.282  1.00  0.00    -0.280 C  
BRANCH  16  17
HETATM   17  C   UNL     1      -9.175   3.821  67.187  1.00  0.00    -0.205 C  
BRANCH  17  18
HETATM   18  C   UNL     1      -8.324   4.804  67.944  1.00  0.00    -0.103 C  
HETATM   19  C   UNL     1      -8.615   5.280  69.164  1.00  0.00    -0.102 C  
BRANCH  19  20
HETATM   20  C   UNL     1      -9.840   4.926  69.938  1.00  0.00    -0.295 C  
BRANCH  20  21
HETATM   21  C   UNL     1     -11.028   5.744  69.529  1.00  0.00    -0.374 C  
HETATM   22  C   UNL     1     -11.288   6.979  69.984  1.00  0.00    -0.293 C  
BRANCH  22  23
HETATM   23  C   UNL     1     -10.473   7.727  70.995  1.00  0.00    -0.216 C  
HETATM   24  C   UNL     1     -11.311   8.741  71.752  1.00  0.00    -0.409 C  
ENDBRANCH  22  23
ENDBRANCH  20  21
ENDBRANCH  19  20
ENDBRANCH  17  18
ENDBRANCH  16  17
ENDBRANCH  14  15
ENDBRANCH  13  14
ENDBRANCH  11  12
ENDBRANCH  10  11
ENDBRANCH   8   9
ENDBRANCH   7   8
ENDBRANCH   6   7
ENDBRANCH   4   6
ENDBRANCH   3   4
ENDBRANCH   2   3
TORSDOF 15
ENDMDL
MODEL      361
REMARK 921   NORMALIZED FREE ENERGY PREDICTED BY IDOCK:   -3.07 KCAL/MOL
REMARK 922        TOTAL FREE ENERGY PREDICTED BY IDOCK:   -8.32 KCAL/MOL
REMARK 923 INTER-LIGAND FREE ENERGY PREDICTED BY IDOCK:   -6.71 KCAL/MOL
REMARK 924 INTRA-LIGAND FREE ENERGY PREDICTED BY IDOCK:   -1.62 KCAL/MOL
REMARK 927      BINDING AFFINITY PREDICTED BY RF-SCORE:    0.00 PKD
ROOT
HETATM    1  C   UNL     1      -6.656  18.108  65.851  1.00  0.00    -0.316 C  
HETATM    2  C   UNL     1      -7.964  18.370  66.575  1.00  0.00    -0.271 C  
ENDROOT
BRANCH   2   3
HETATM    3  O   UNL     1      -9.000  17.692  65.855  1.00  0.00    -0.519 OA 
BRANCH   3   4
HETATM    4  C   UNL     1     -10.066  17.325  66.620  1.00  0.00    -0.302 C  
HETATM    5  O   UNL     1     -10.733  18.076  67.314  1.00  0.00    -0.372 OA 
BRANCH   4   6
HETATM    6  C   UNL     1     -10.348  15.867  66.385  1.00  0.00    -0.313 C  
BRANCH   6   7
HETATM    7  C   UNL     1     -11.476  15.389  67.304  1.00  0.00    -0.166 C  
BRANCH   7   8
HETATM    8  C   UNL     1     -12.015  14.029  66.886  1.00  0.00    -0.479 C  
BRANCH   8   9
HETATM    9  C   UNL     1     -12.594  14.047  65.492  1.00  0.00    -0.543 C  
HETATM   10  C   UNL     1     -12.084  13.403  64.431  1.00  0.00    -0.468 C  
BRANCH  10  11
HETATM   11  C   UNL     1     -10.769  12.695  64.433  1.00  0.00    -0.384 C  
BRANCH  11  12
HETATM   12  C   UNL     1     -10.611  11.640  63.382  1.00  0.00    -0.472 C  
HETATM   13  C   UNL     1      -9.695  10.656  63.450  1.00  0.00    -0.387 C  
BRANCH  13  14
HETATM   14  C   UNL     1      -8.680  10.391  64.539  1.00  0.00    -0.205 C  
BRANCH  14  15
HETATM   15  C   UNL     1      -7.329   9.926  64.061  1.00  0.00    -0.132 C  
HETATM   16  C   UNL     1      -6.973   8.657  63.809  1.00  0.00    -0.087 C  
BRANCH  16  17
HETATM   17  C   UNL     1      -7.807   7.460  64.130  1.00  0.00    -0.120 C  
BRANCH  17  18
HETATM   18  C   UNL     1      -7.209   6.748  65.314  1.00  0.00    -0.073 C  
HETATM   19  C   UNL     1      -7.880   6.439  66.433  1.00  0.00    -0.104 C  
BRANCH  19  20
HETATM   20  C   UNL     1      -9.312   6.778  66.681  1.00  0.00    -0.197 C  
BRANCH  20  21
HETATM   21  C   UNL     1      -9.486   8.181  67.179  1.00  0.00    -0.207 C  
HETATM   22  C   UNL     1      -9.644   8.509  68.471  1.00  0.00    -0.158 C  
BRANCH  22  23
HETATM   23  C   UNL     1      -9.713   7.544  69.615  1.00  0.00    -0.167 C  
HETATM   24  C   UNL     1     -11.148   7.230  69.997  1.00  0.00    -0.262 C  
ENDBRANCH  22  23
ENDBRANCH  20  21
ENDBRANCH  19  20
ENDBRANCH  17  18
ENDBRANCH  16  17
ENDBRANCH  14  15
ENDBRANCH  13  14
ENDBRANCH  11  12
ENDBRANCH  10  11
ENDBRANCH   8   9
ENDBRANCH   7   8
ENDBRANCH   6   7
ENDBRANCH   4   6
ENDBRANCH   3   4
ENDBRANCH   2   3
TORSDOF 15
ENDMDL
MODEL      362
REMARK 921   NORMALIZED FREE ENERGY PREDICTED BY IDOCK:   -3.07 KCAL/MOL
REMARK 922        TOTAL FREE ENERGY PREDICTED BY IDOCK:   -8.32 KCAL/MOL
REMARK 923 INTER-LIGAND FREE ENERGY PREDICTED BY IDOCK:   -6.42 KCAL/MOL
REMARK 924 INTRA-LIGAND FREE ENERGY PREDICTED BY IDOCK:   -1.90 KCAL/MOL
REMARK 927      BINDING AFFINITY PREDICTED BY RF-SCORE:    0.00 PKD
ROOT
HETATM    1  C   UNL     1     -12.109  11.323  70.297  1.00  0.00    -0.459 C  
HETATM    2  C   UNL     1     -11.711   9.863  70.184  1.00  0.00    -0.174 C  
ENDROOT
BRANCH   2   3
HETATM    3  O   UNL     1     -10.303   9.819  69.922  1.00  0.00    -0.219 OA 
BRANCH   3   4
HETATM    4  C   UNL     1      -9.865   8.635  69.410  1.00  0.00    -0.184 C  
HETATM    5  O   UNL     1      -9.237   7.787  70.022  1.00  0.00    -0.153 OA 
BRANCH   4   6
HETATM    6  C   UNL     1     -10.375   8.501  68.001  1.00  0.00    -0.272 C  
BRANCH   6   7
HETATM    7  C   UNL     1      -9.531   9.350  67.047  1.00  0.00    -0.200 C  
BRANCH   7   8
HETATM    8  C   UNL     1     -10.392  10.192  66.118  1.00  0.00    -0.237 C  
BRANCH   8   9
HETATM    9  C   UNL     1      -9.566  11.083  65.223  1.00  0.00    -0.270 C  
HETATM   10  C   UNL     1     -10.051  11.867  64.247  1.00  0.00    -0.325 C  
BRANCH  10  11
HETATM   11  C   UNL     1     -11.474  11.857  63.793  1.00  0.00    -0.542 C  
BRANCH  11  12
HETATM   12  C   UNL     1     -12.467  12.352  64.799  1.00  0.00    -0.480 C  
HETATM   13  C   UNL     1     -12.772  13.652  64.964  1.00  0.00    -0.384 C  
BRANCH  13  14
HETATM   14  C   UNL     1     -12.229  14.846  64.211  1.00  0.00    -0.365 C  
BRANCH  14  15
HETATM   15  C   UNL     1     -10.934  15.407  64.741  1.00  0.00    -0.411 C  
HETATM   16  C   UNL     1     -10.526  15.384  66.019  1.00  0.00    -0.333 C  
BRANCH  16  17
HETATM   17  C   UNL     1     -11.370  14.953  67.173  1.00  0.00    -0.348 C  
BRANCH  17  18
HETATM   18  C   UNL     1     -10.926  13.588  67.623  1.00  0.00    -0.280 C  
HETATM   19  C   UNL     1      -9.836  13.351  68.369  1.00  0.00    -0.216 C  
BRANCH  19  20
HETATM   20  C   UNL     1      -8.890  14.404  68.840  1.00  0.00    -0.067 C  
BRANCH  20  21
HETATM   21  C   UNL     1      -7.743  14.601  67.895  1.00  0.00    -0.149 C  
HETATM   22  C   UNL     1      -6.833  13.658  67.604  1.00  0.00    -0.185 C  
BRANCH  22  23
HETATM   23  C   UNL     1      -6.783  12.282  68.195  1.00  0.00    -0.069 C  
HETATM   24  C   UNL     1      -6.360  11.247  67.168  1.00  0.00    -0.096 C  
ENDBRANCH  22  23
ENDBRANCH  20  21
ENDBRANCH  19  20
ENDBRANCH  17  18
ENDBRANCH  16  17
ENDBRANCH  14  15
ENDBRANCH  13  14
ENDBRANCH  11  12
ENDBRANCH  10  11
ENDBRANCH   8   9
ENDBRANCH   7   8
ENDBRANCH   6   7
ENDBRANCH   4   6
ENDBRANCH   3   4
ENDBRANCH   2   3
TORSDOF 15
ENDMDL
MODEL      363
REMARK 921   NORMALIZED FREE ENERGY PREDICTED BY IDOCK:   -3.07 KCAL/MOL
REMARK 922        TOTAL FREE ENERGY PREDICTED BY IDOCK:   -8.32 KCAL/MOL
REMARK 923 INTER-LIGAND FREE ENERGY PREDICTED BY IDOCK:   -6.52 KCAL/MOL
REMARK 924 INTRA-LIGAND FREE ENERGY PREDICTED BY IDOCK:   -1.80 KCAL/MOL
REMARK 927      BINDING AFFINITY PREDICTED BY RF-SCORE:    0.00 PKD
ROOT
HETATM    1  C   UNL     1      -7.444   2.268  71.416  1.00  0.00    -0.036 C  
HETATM    2  C   UNL     1      -7.558   3.770  71.227  1.00  0.00    -0.055 C  
ENDROOT
BRANCH   2   3
HETATM    3  O   UNL     1      -8.878   4.045  70.745  1.00  0.00    -0.078 OA 
BRANCH   3   4
HETATM    4  C   UNL     1      -9.619   4.841  71.565  1.00  0.00    -0.160 C  
HETATM    5  O   UNL     1     -10.572   4.477  72.235  1.00  0.00    -0.182 OA 
BRANCH   4   6
HETATM    6  C   UNL     1      -9.006   6.214  71.588  1.00  0.00    -0.142 C  
BRANCH   6   7
HETATM    7  C   UNL     1      -9.204   6.907  70.237  1.00  0.00    -0.156 C  
BRANCH   7   8
HETATM    8  C   UNL     1     -10.673   7.016  69.861  1.00  0.00    -0.265 C  
BRANCH   8   9
HETATM    9  C   UNL     1     -11.015   6.197  68.641  1.00  0.00    -0.415 C  
HETATM   10  C   UNL     1     -10.906   6.614  67.369  1.00  0.00    -0.434 C  
BRANCH  10  11
HETATM   11  C   UNL     1     -10.579   8.016  66.973  1.00  0.00    -0.364 C  
BRANCH  11  12
HETATM   12  C   UNL     1      -9.466   8.155  65.981  1.00  0.00    -0.158 C  
HETATM   13  C   UNL     1      -8.934   9.338  65.623  1.00  0.00    -0.243 C  
BRANCH  13  14
HETATM   14  C   UNL     1      -9.300  10.720  66.116  1.00  0.00    -0.209 C  
BRANCH  14  15
HETATM   15  C   UNL     1     -10.476  11.360  65.424  1.00  0.00    -0.336 C  
HETATM   16  C   UNL     1     -11.390  12.159  65.995  1.00  0.00    -0.410 C  
BRANCH  16  17
HETATM   17  C   UNL     1     -11.500  12.411  67.463  1.00  0.00    -0.410 C  
BRANCH  17  18
HETATM   18  C   UNL     1     -12.157  13.748  67.683  1.00  0.00    -0.333 C  
HETATM   19  C   UNL     1     -12.149  14.416  68.846  1.00  0.00    -0.288 C  
BRANCH  19  20
HETATM   20  C   UNL     1     -11.511  13.920  70.101  1.00  0.00    -0.166 C  
BRANCH  20  21
HETATM   21  C   UNL     1     -12.522  13.525  71.135  1.00  0.00    -0.424 C  
HETATM   22  C   UNL     1     -12.949  12.268  71.333  1.00  0.00    -0.354 C  
BRANCH  22  23
HETATM   23  C   UNL     1     -12.527  11.068  70.541  1.00  0.00    -0.432 C  
HETATM   24  C   UNL     1     -11.975   9.972  71.434  1.00  0.00    -0.470 C  
ENDBRANCH  22  23
ENDBRANCH  20  21
ENDBRANCH  19  20
ENDBRANCH  17  18
ENDBRANCH  16  17
ENDBRANCH  14  15
ENDBRANCH  13  14
ENDBRANCH  11  12
ENDBRANCH  10  11
ENDBRANCH   8   9
ENDBRANCH   7   8
ENDBRANCH   6   7
ENDBRANCH   4   6
ENDBRANCH   3   4
ENDBRANCH   2   3
TORSDOF 15
ENDMDL
MODEL      364
REMARK 921   NORMALIZED FREE ENERGY PREDICTED BY IDOCK:   -3.06 KCAL/MOL
REMARK 922        TOTAL FREE ENERGY PREDICTED BY IDOCK:   -8.30 KCAL/MOL
REMARK 923 INTER-LIGAND FREE ENERGY PREDICTED BY IDOCK:   -7.02 KCAL/MOL
REMARK 924 INTRA-LIGAND FREE ENERGY PREDICTED BY IDOCK:   -1.28 KCAL/MOL
REMARK 927      BINDING AFFINITY PREDICTED BY RF-SCORE:    0.00 PKD
ROOT
HETATM    1  C   UNL     1     -12.116   5.692  72.612  1.00  0.00    -0.041 C  
HETATM    2  C   UNL     1     -11.012   4.972  73.365  1.00  0.00    -0.327 C  
ENDROOT
BRANCH   2   3
HETATM    3  O   UNL     1     -10.423   4.025  72.467  1.00  0.00    -0.173 OA 
BRANCH   3   4
HETATM    4  C   UNL     1      -9.087   4.201  72.264  1.00  0.00    -0.116 C  
HETATM    5  O   UNL     1      -8.255   3.311  72.202  1.00  0.00    -0.065 OA 
BRANCH   4   6
HETATM    6  C   UNL     1      -8.825   5.663  72.024  1.00  0.00    -0.138 C  
BRANCH   6   7
HETATM    7  C   UNL     1      -8.710   5.944  70.523  1.00  0.00    -0.140 C  
BRANCH   7   8
HETATM    8  C   UNL     1      -9.973   6.579  69.963  1.00  0.00    -0.193 C  
BRANCH   8   9
HETATM    9  C   UNL     1      -9.750   8.006  69.524  1.00  0.00    -0.170 C  
HETATM   10  C   UNL     1     -10.052   9.097  70.245  1.00  0.00    -0.244 C  
BRANCH  10  11
HETATM   11  C   UNL     1     -10.807   9.067  71.534  1.00  0.00    -0.416 C  
BRANCH  11  12
HETATM   12  C   UNL     1     -12.295   8.965  71.399  1.00  0.00    -0.368 C  
HETATM   13  C   UNL     1     -13.107  10.034  71.305  1.00  0.00    -0.493 C  
BRANCH  13  14
HETATM   14  C   UNL     1     -12.732  11.499  71.300  1.00  0.00    -0.469 C  
BRANCH  14  15
HETATM   15  C   UNL     1     -12.016  11.978  70.062  1.00  0.00    -0.400 C  
HETATM   16  C   UNL     1     -11.944  13.246  69.631  1.00  0.00    -0.376 C  
BRANCH  16  17
HETATM   17  C   UNL     1     -12.715  14.386  70.211  1.00  0.00    -0.318 C  
BRANCH  17  18
HETATM   18  C   UNL     1     -11.771  15.283  70.966  1.00  0.00    -0.394 C  
HETATM   19  C   UNL     1     -10.986  16.211  70.397  1.00  0.00    -0.320 C  
BRANCH  19  20
HETATM   20  C   UNL     1     -10.914  16.472  68.930  1.00  0.00    -0.325 C  
BRANCH  20  21
HETATM   21  C   UNL     1      -9.551  16.923  68.499  1.00  0.00    -0.262 C  
HETATM   22  C   UNL     1      -9.313  17.685  67.420  1.00  0.00    -0.247 C  
BRANCH  22  23
HETATM   23  C   UNL     1     -10.347  18.174  66.452  1.00  0.00    -0.404 C  
HETATM   24  C   UNL     1     -10.312  19.685  66.311  1.00  0.00    -0.619 C  
ENDBRANCH  22  23
ENDBRANCH  20  21
ENDBRANCH  19  20
ENDBRANCH  17  18
ENDBRANCH  16  17
ENDBRANCH  14  15
ENDBRANCH  13  14
ENDBRANCH  11  12
ENDBRANCH  10  11
ENDBRANCH   8   9
ENDBRANCH   7   8
ENDBRANCH   6   7
ENDBRANCH   4   6
ENDBRANCH   3   4
ENDBRANCH   2   3
TORSDOF 15
ENDMDL
MODEL      365
REMARK 921   NORMALIZED FREE ENERGY PREDICTED BY IDOCK:   -3.06 KCAL/MOL
REMARK 922        TOTAL FREE ENERGY PREDICTED BY IDOCK:   -8.30 KCAL/MOL
REMARK 923 INTER-LIGAND FREE ENERGY PREDICTED BY IDOCK:   -7.26 KCAL/MOL
REMARK 924 INTRA-LIGAND FREE ENERGY PREDICTED BY IDOCK:   -1.04 KCAL/MOL
REMARK 927      BINDING AFFINITY PREDICTED BY RF-SCORE:    0.00 PKD
ROOT
HETATM    1  C   UNL     1     -12.275  16.556  74.393  1.00  0.00    -0.440 C  
HETATM    2  C   UNL     1     -12.278  15.163  73.790  1.00  0.00    -0.555 C  
ENDROOT
BRANCH   2   3
HETATM    3  O   UNL     1     -13.327  15.117  72.815  1.00  0.00    -0.418 OA 
BRANCH   3   4
HETATM    4  C   UNL     1     -13.515  13.890  72.253  1.00  0.00    -0.526 C  
HETATM    5  O   UNL     1     -14.397  13.101  72.551  1.00  0.00    -0.613 OA 
BRANCH   4   6
HETATM    6  C   UNL     1     -12.524  13.714  71.136  1.00  0.00    -0.442 C  
BRANCH   6   7
HETATM    7  C   UNL     1     -12.676  14.840  70.108  1.00  0.00    -0.264 C  
BRANCH   7   8
HETATM    8  C   UNL     1     -11.994  14.506  68.791  1.00  0.00    -0.315 C  
BRANCH   8   9
HETATM    9  C   UNL     1     -11.393  15.724  68.133  1.00  0.00    -0.337 C  
HETATM   10  C   UNL     1     -10.634  15.714  67.025  1.00  0.00    -0.311 C  
BRANCH  10  11
HETATM   11  C   UNL     1     -10.136  14.471  66.362  1.00  0.00    -0.293 C  
BRANCH  11  12
HETATM   12  C   UNL     1     -10.417  14.376  64.894  1.00  0.00    -0.448 C  
HETATM   13  C   UNL     1     -10.736  13.226  64.273  1.00  0.00    -0.408 C  
BRANCH  13  14
HETATM   14  C   UNL     1     -10.891  11.846  64.873  1.00  0.00    -0.356 C  
BRANCH  14  15
HETATM   15  C   UNL     1      -9.808  10.861  64.510  1.00  0.00    -0.356 C  
HETATM   16  C   UNL     1      -8.945  10.286  65.362  1.00  0.00    -0.205 C  
BRANCH  16  17
HETATM   17  C   UNL     1      -8.793  10.660  66.800  1.00  0.00    -0.146 C  
BRANCH  17  18
HETATM   18  C   UNL     1      -7.426  10.245  67.272  1.00  0.00    -0.094 C  
HETATM   19  C   UNL     1      -7.158   9.096  67.911  1.00  0.00    -0.079 C  
BRANCH  19  20
HETATM   20  C   UNL     1      -8.182   8.072  68.270  1.00  0.00    -0.123 C  
BRANCH  20  21
HETATM   21  C   UNL     1      -8.785   7.422  67.061  1.00  0.00    -0.123 C  
HETATM   22  C   UNL     1      -9.282   6.175  67.042  1.00  0.00    -0.127 C  
BRANCH  22  23
HETATM   23  C   UNL     1      -9.282   5.218  68.195  1.00  0.00    -0.129 C  
HETATM   24  C   UNL     1     -10.570   5.301  68.993  1.00  0.00    -0.150 C  
ENDBRANCH  22  23
ENDBRANCH  20  21
ENDBRANCH  19  20
ENDBRANCH  17  18
ENDBRANCH  16  17
ENDBRANCH  14  15
ENDBRANCH  13  14
ENDBRANCH  11  12
ENDBRANCH  10  11
ENDBRANCH   8   9
ENDBRANCH   7   8
ENDBRANCH   6   7
ENDBRANCH   4   6
ENDBRANCH   3   4
ENDBRANCH   2   3
TORSDOF 15
ENDMDL
MODEL      366
REMARK 921   NORMALIZED FREE ENERGY PREDICTED BY IDOCK:   -3.06 KCAL/MOL
REMARK 922        TOTAL FREE ENERGY PREDICTED BY IDOCK:   -8.29 KCAL/MOL
REMARK 923 INTER-LIGAND FREE ENERGY PREDICTED BY IDOCK:   -6.06 KCAL/MOL
REMARK 924 INTRA-LIGAND FREE ENERGY PREDICTED BY IDOCK:   -2.23 KCAL/MOL
REMARK 927      BINDING AFFINITY PREDICTED BY RF-SCORE:    0.00 PKD
ROOT
HETATM    1  C   UNL     1     -12.363  11.265  69.941  1.00  0.00    -0.301 C  
HETATM    2  C   UNL     1     -12.540  10.609  71.299  1.00  0.00    -0.427 C  
ENDROOT
BRANCH   2   3
HETATM    3  O   UNL     1     -13.545   9.598  71.162  1.00  0.00    -0.340 OA 
BRANCH   3   4
HETATM    4  C   UNL     1     -13.204   8.393  71.696  1.00  0.00    -0.339 C  
HETATM    5  O   UNL     1     -13.795   7.341  71.510  1.00  0.00    -0.393 OA 
BRANCH   4   6
HETATM    6  C   UNL     1     -11.922   8.553  72.466  1.00  0.00    -0.401 C  
BRANCH   6   7
HETATM    7  C   UNL     1     -10.966   7.397  72.153  1.00  0.00    -0.284 C  
BRANCH   7   8
HETATM    8  C   UNL     1     -10.701   7.264  70.661  1.00  0.00    -0.252 C  
BRANCH   8   9
HETATM    9  C   UNL     1     -10.658   5.824  70.214  1.00  0.00    -0.369 C  
HETATM   10  C   UNL     1      -9.562   5.173  69.793  1.00  0.00    -0.242 C  
BRANCH  10  11
HETATM   11  C   UNL     1      -8.240   5.827  69.553  1.00  0.00    -0.108 C  
BRANCH  11  12
HETATM   12  C   UNL     1      -7.240   4.989  68.816  1.00  0.00    -0.058 C  
HETATM   13  C   UNL     1      -7.570   3.905  68.091  1.00  0.00    -0.066 C  
BRANCH  13  14
HETATM   14  C   UNL     1      -8.943   3.318  67.851  1.00  0.00    -0.186 C  
BRANCH  14  15
HETATM   15  C   UNL     1      -9.406   3.327  66.417  1.00  0.00    -0.139 C  
HETATM   16  C   UNL     1      -9.882   4.388  65.746  1.00  0.00    -0.232 C  
BRANCH  16  17
HETATM   17  C   UNL     1     -10.203   5.710  66.363  1.00  0.00    -0.220 C  
BRANCH  17  18
HETATM   18  C   UNL     1      -9.157   6.710  65.950  1.00  0.00    -0.059 C  
HETATM   19  C   UNL     1      -9.103   7.977  66.386  1.00  0.00    -0.226 C  
BRANCH  19  20
HETATM   20  C   UNL     1     -10.087   8.590  67.325  1.00  0.00    -0.317 C  
BRANCH  20  21
HETATM   21  C   UNL     1      -9.592   9.880  67.906  1.00  0.00    -0.157 C  
HETATM   22  C   UNL     1      -9.810  11.087  67.360  1.00  0.00    -0.197 C  
BRANCH  22  23
HETATM   23  C   UNL     1     -10.539  11.346  66.077  1.00  0.00    -0.319 C  
HETATM   24  C   UNL     1     -11.720  12.277  66.281  1.00  0.00    -0.431 C  
ENDBRANCH  22  23
ENDBRANCH  20  21
ENDBRANCH  19  20
ENDBRANCH  17  18
ENDBRANCH  16  17
ENDBRANCH  14  15
ENDBRANCH  13  14
ENDBRANCH  11  12
ENDBRANCH  10  11
ENDBRANCH   8   9
ENDBRANCH   7   8
ENDBRANCH   6   7
ENDBRANCH   4   6
ENDBRANCH   3   4
ENDBRANCH   2   3
TORSDOF 15
ENDMDL
MODEL      367
REMARK 921   NORMALIZED FREE ENERGY PREDICTED BY IDOCK:   -3.05 KCAL/MOL
REMARK 922        TOTAL FREE ENERGY PREDICTED BY IDOCK:   -8.28 KCAL/MOL
REMARK 923 INTER-LIGAND FREE ENERGY PREDICTED BY IDOCK:   -7.00 KCAL/MOL
REMARK 924 INTRA-LIGAND FREE ENERGY PREDICTED BY IDOCK:   -1.28 KCAL/MOL
REMARK 927      BINDING AFFINITY PREDICTED BY RF-SCORE:    0.00 PKD
ROOT
HETATM    1  C   UNL     1     -13.780   9.372  71.489  1.00  0.00    -0.363 C  
HETATM    2  C   UNL     1     -13.056   8.496  72.496  1.00  0.00    -0.238 C  
ENDROOT
BRANCH   2   3
HETATM    3  O   UNL     1     -12.713   7.273  71.834  1.00  0.00    -0.316 OA 
BRANCH   3   4
HETATM    4  C   UNL     1     -11.466   6.808  72.128  1.00  0.00    -0.282 C  
HETATM    5  O   UNL     1     -11.096   5.651  72.018  1.00  0.00    -0.254 OA 
BRANCH   4   6
HETATM    6  C   UNL     1     -10.595   7.974  72.510  1.00  0.00    -0.397 C  
BRANCH   6   7
HETATM    7  C   UNL     1      -9.258   7.904  71.765  1.00  0.00    -0.194 C  
BRANCH   7   8
HETATM    8  C   UNL     1      -9.081   9.068  70.802  1.00  0.00    -0.297 C  
BRANCH   8   9
HETATM    9  C   UNL     1     -10.393   9.535  70.221  1.00  0.00    -0.321 C  
HETATM   10  C   UNL     1     -10.568  10.006  68.976  1.00  0.00    -0.235 C  
BRANCH  10  11
HETATM   11  C   UNL     1      -9.452  10.291  68.024  1.00  0.00    -0.156 C  
BRANCH  11  12
HETATM   12  C   UNL     1      -8.810  11.635  68.178  1.00  0.00    -0.164 C  
HETATM   13  C   UNL     1      -9.504  12.785  68.254  1.00  0.00    -0.203 C  
BRANCH  13  14
HETATM   14  C   UNL     1     -11.003  12.981  68.217  1.00  0.00    -0.285 C  
BRANCH  14  15
HETATM   15  C   UNL     1     -11.601  13.118  66.840  1.00  0.00    -0.417 C  
HETATM   16  C   UNL     1     -11.560  14.213  66.066  1.00  0.00    -0.364 C  
BRANCH  16  17
HETATM   17  C   UNL     1     -11.063  15.550  66.509  1.00  0.00    -0.182 C  
BRANCH  17  18
HETATM   18  C   UNL     1      -9.656  15.741  66.009  1.00  0.00    -0.388 C  
HETATM   19  C   UNL     1      -8.954  16.877  66.133  1.00  0.00    -0.271 C  
BRANCH  19  20
HETATM   20  C   UNL     1      -9.472  18.127  66.762  1.00  0.00    -0.294 C  
BRANCH  20  21
HETATM   21  C   UNL     1      -8.807  18.422  68.072  1.00  0.00    -0.302 C  
HETATM   22  C   UNL     1      -7.818  19.316  68.232  1.00  0.00    -0.354 C  
BRANCH  22  23
HETATM   23  C   UNL     1      -7.191  20.129  67.141  1.00  0.00    -0.296 C  
HETATM   24  C   UNL     1      -6.212  21.149  67.694  1.00  0.00    -0.426 C  
ENDBRANCH  22  23
ENDBRANCH  20  21
ENDBRANCH  19  20
ENDBRANCH  17  18
ENDBRANCH  16  17
ENDBRANCH  14  15
ENDBRANCH  13  14
ENDBRANCH  11  12
ENDBRANCH  10  11
ENDBRANCH   8   9
ENDBRANCH   7   8
ENDBRANCH   6   7
ENDBRANCH   4   6
ENDBRANCH   3   4
ENDBRANCH   2   3
TORSDOF 15
ENDMDL
MODEL      368
REMARK 921   NORMALIZED FREE ENERGY PREDICTED BY IDOCK:   -3.05 KCAL/MOL
REMARK 922        TOTAL FREE ENERGY PREDICTED BY IDOCK:   -8.28 KCAL/MOL
REMARK 923 INTER-LIGAND FREE ENERGY PREDICTED BY IDOCK:   -6.19 KCAL/MOL
REMARK 924 INTRA-LIGAND FREE ENERGY PREDICTED BY IDOCK:   -2.09 KCAL/MOL
REMARK 927      BINDING AFFINITY PREDICTED BY RF-SCORE:    0.00 PKD
ROOT
HETATM    1  C   UNL     1     -13.790  14.518  71.360  1.00  0.00    -0.441 C  
HETATM    2  C   UNL     1     -12.732  13.436  71.474  1.00  0.00    -0.293 C  
ENDROOT
BRANCH   2   3
HETATM    3  O   UNL     1     -13.410  12.180  71.596  1.00  0.00    -0.341 OA 
BRANCH   3   4
HETATM    4  C   UNL     1     -12.898  11.189  70.813  1.00  0.00    -0.234 C  
HETATM    5  O   UNL     1     -13.269  10.027  70.808  1.00  0.00    -0.348 OA 
BRANCH   4   6
HETATM    6  C   UNL     1     -11.877  11.787  69.885  1.00  0.00    -0.423 C  
BRANCH   6   7
HETATM    7  C   UNL     1     -10.855  10.726  69.465  1.00  0.00    -0.288 C  
BRANCH   7   8
HETATM    8  C   UNL     1     -10.771  10.583  67.953  1.00  0.00    -0.305 C  
BRANCH   8   9
HETATM    9  C   UNL     1     -10.522   9.157  67.527  1.00  0.00    -0.335 C  
HETATM   10  C   UNL     1      -9.422   8.715  66.898  1.00  0.00    -0.235 C  
BRANCH  10  11
HETATM   11  C   UNL     1      -8.339   9.603  66.380  1.00  0.00    -0.120 C  
BRANCH  11  12
HETATM   12  C   UNL     1      -6.953   9.239  66.816  1.00  0.00    -0.081 C  
HETATM   13  C   UNL     1      -6.208  10.003  67.636  1.00  0.00    -0.058 C  
BRANCH  13  14
HETATM   14  C   UNL     1      -6.573  11.321  68.281  1.00  0.00    -0.058 C  
BRANCH  14  15
HETATM   15  C   UNL     1      -6.349  12.541  67.426  1.00  0.00    -0.157 C  
HETATM   16  C   UNL     1      -7.204  13.564  67.268  1.00  0.00    -0.006 C  
BRANCH  16  17
HETATM   17  C   UNL     1      -8.608  13.584  67.776  1.00  0.00    -0.183 C  
BRANCH  17  18
HETATM   18  C   UNL     1      -9.548  13.762  66.614  1.00  0.00    -0.295 C  
HETATM   19  C   UNL     1      -9.945  14.949  66.132  1.00  0.00    -0.323 C  
BRANCH  19  20
HETATM   20  C   UNL     1      -9.535  16.269  66.695  1.00  0.00    -0.269 C  
BRANCH  20  21
HETATM   21  C   UNL     1     -10.444  17.379  66.260  1.00  0.00    -0.276 C  
HETATM   22  C   UNL     1     -10.376  18.636  66.725  1.00  0.00    -0.449 C  
BRANCH  22  23
HETATM   23  C   UNL     1      -9.425  19.130  67.771  1.00  0.00    -0.362 C  
HETATM   24  C   UNL     1     -10.022  19.031  69.163  1.00  0.00    -0.306 C  
ENDBRANCH  22  23
ENDBRANCH  20  21
ENDBRANCH  19  20
ENDBRANCH  17  18
ENDBRANCH  16  17
ENDBRANCH  14  15
ENDBRANCH  13  14
ENDBRANCH  11  12
ENDBRANCH  10  11
ENDBRANCH   8   9
ENDBRANCH   7   8
ENDBRANCH   6   7
ENDBRANCH   4   6
ENDBRANCH   3   4
ENDBRANCH   2   3
TORSDOF 15
ENDMDL
MODEL      369
REMARK 921   NORMALIZED FREE ENERGY PREDICTED BY IDOCK:   -3.05 KCAL/MOL
REMARK 922        TOTAL FREE ENERGY PREDICTED BY IDOCK:   -8.28 KCAL/MOL
REMARK 923 INTER-LIGAND FREE ENERGY PREDICTED BY IDOCK:   -5.79 KCAL/MOL
REMARK 924 INTRA-LIGAND FREE ENERGY PREDICTED BY IDOCK:   -2.49 KCAL/MOL
REMARK 927      BINDING AFFINITY PREDICTED BY RF-SCORE:    0.00 PKD
ROOT
HETATM    1  C   UNL     1      -7.938   4.630  71.350  1.00  0.00    -0.096 C  
HETATM    2  C   UNL     1      -8.247   5.181  72.730  1.00  0.00    -0.109 C  
ENDROOT
BRANCH   2   3
HETATM    3  O   UNL     1      -8.472   6.589  72.593  1.00  0.00    -0.121 OA 
BRANCH   3   4
HETATM    4  C   UNL     1      -9.473   7.076  73.379  1.00  0.00    -0.178 C  
HETATM    5  O   UNL     1      -9.880   6.561  74.408  1.00  0.00    -0.271 OA 
BRANCH   4   6
HETATM    6  C   UNL     1      -9.918   8.401  72.826  1.00  0.00    -0.285 C  
BRANCH   6   7
HETATM    7  C   UNL     1      -9.501   8.533  71.358  1.00  0.00    -0.279 C  
BRANCH   7   8
HETATM    8  C   UNL     1     -10.693   8.450  70.417  1.00  0.00    -0.244 C  
BRANCH   8   9
HETATM    9  C   UNL     1     -11.315   7.075  70.401  1.00  0.00    -0.354 C  
HETATM   10  C   UNL     1     -11.294   6.224  69.363  1.00  0.00    -0.448 C  
BRANCH  10  11
HETATM   11  C   UNL     1     -10.784   6.574  68.004  1.00  0.00    -0.351 C  
BRANCH  11  12
HETATM   12  C   UNL     1      -9.564   5.823  67.568  1.00  0.00    -0.118 C  
HETATM   13  C   UNL     1      -8.320   6.335  67.620  1.00  0.00    -0.117 C  
BRANCH  13  14
HETATM   14  C   UNL     1      -7.885   7.697  68.110  1.00  0.00    -0.121 C  
BRANCH  14  15
HETATM   15  C   UNL     1      -7.277   8.595  67.063  1.00  0.00    -0.076 C  
HETATM   16  C   UNL     1      -7.942   9.455  66.276  1.00  0.00    -0.111 C  
BRANCH  16  17
HETATM   17  C   UNL     1      -9.430   9.543  66.179  1.00  0.00    -0.281 C  
BRANCH  17  18
HETATM   18  C   UNL     1      -9.796  10.347  64.960  1.00  0.00    -0.384 C  
HETATM   19  C   UNL     1     -10.583  11.432  64.974  1.00  0.00    -0.359 C  
BRANCH  19  20
HETATM   20  C   UNL     1     -11.235  11.987  66.196  1.00  0.00    -0.394 C  
BRANCH  20  21
HETATM   21  C   UNL     1     -10.707  13.344  66.555  1.00  0.00    -0.287 C  
HETATM   22  C   UNL     1     -10.503  13.766  67.813  1.00  0.00    -0.240 C  
BRANCH  22  23
HETATM   23  C   UNL     1     -10.800  12.984  69.055  1.00  0.00    -0.197 C  
HETATM   24  C   UNL     1     -12.091  13.442  69.710  1.00  0.00    -0.374 C  
ENDBRANCH  22  23
ENDBRANCH  20  21
ENDBRANCH  19  20
ENDBRANCH  17  18
ENDBRANCH  16  17
ENDBRANCH  14  15
ENDBRANCH  13  14
ENDBRANCH  11  12
ENDBRANCH  10  11
ENDBRANCH   8   9
ENDBRANCH   7   8
ENDBRANCH   6   7
ENDBRANCH   4   6
ENDBRANCH   3   4
ENDBRANCH   2   3
TORSDOF 15
ENDMDL
MODEL      370
REMARK 921   NORMALIZED FREE ENERGY PREDICTED BY IDOCK:   -3.05 KCAL/MOL
REMARK 922        TOTAL FREE ENERGY PREDICTED BY IDOCK:   -8.27 KCAL/MOL
REMARK 923 INTER-LIGAND FREE ENERGY PREDICTED BY IDOCK:   -5.23 KCAL/MOL
REMARK 924 INTRA-LIGAND FREE ENERGY PREDICTED BY IDOCK:   -3.04 KCAL/MOL
REMARK 927      BINDING AFFINITY PREDICTED BY RF-SCORE:    0.00 PKD
ROOT
HETATM    1  C   UNL     1      -5.636  16.119  67.437  1.00  0.00    -0.136 C  
HETATM    2  C   UNL     1      -6.883  15.255  67.390  1.00  0.00    -0.154 C  
ENDROOT
BRANCH   2   3
HETATM    3  O   UNL     1      -7.929  16.039  66.805  1.00  0.00    -0.225 OA 
BRANCH   3   4
HETATM    4  C   UNL     1      -8.967  16.305  67.646  1.00  0.00    -0.192 C  
HETATM    5  O   UNL     1      -8.920  17.036  68.622  1.00  0.00    -0.257 OA 
BRANCH   4   6
HETATM    6  C   UNL     1     -10.203  15.634  67.113  1.00  0.00    -0.270 C  
BRANCH   6   7
HETATM    7  C   UNL     1     -10.097  14.115  67.280  1.00  0.00    -0.256 C  
BRANCH   7   8
HETATM    8  C   UNL     1     -10.893  13.615  68.475  1.00  0.00    -0.275 C  
BRANCH   8   9
HETATM    9  C   UNL     1     -11.791  12.455  68.121  1.00  0.00    -0.372 C  
HETATM   10  C   UNL     1     -11.696  11.216  68.628  1.00  0.00    -0.389 C  
BRANCH  10  11
HETATM   11  C   UNL     1     -10.581  10.753  69.508  1.00  0.00    -0.235 C  
BRANCH  11  12
HETATM   12  C   UNL     1     -10.032   9.399  69.181  1.00  0.00    -0.184 C  
HETATM   13  C   UNL     1      -8.853   8.945  69.644  1.00  0.00    -0.142 C  
BRANCH  13  14
HETATM   14  C   UNL     1      -7.870   9.644  70.557  1.00  0.00    -0.150 C  
BRANCH  14  15
HETATM   15  C   UNL     1      -6.478   9.806  70.003  1.00  0.00    -0.074 C  
HETATM   16  C   UNL     1      -6.074  10.757  69.146  1.00  0.00    -0.043 C  
BRANCH  16  17
HETATM   17  C   UNL     1      -6.982  11.719  68.453  1.00  0.00    -0.080 C  
BRANCH  17  18
HETATM   18  C   UNL     1      -6.643  11.744  66.987  1.00  0.00    -0.140 C  
HETATM   19  C   UNL     1      -7.454  11.308  66.012  1.00  0.00     0.117 C  
BRANCH  19  20
HETATM   20  C   UNL     1      -8.802  10.710  66.239  1.00  0.00    -0.172 C  
BRANCH  20  21
HETATM   21  C   UNL     1      -9.400  10.161  64.978  1.00  0.00    -0.299 C  
HETATM   22  C   UNL     1     -10.115  10.885  64.103  1.00  0.00    -0.416 C  
BRANCH  22  23
HETATM   23  C   UNL     1     -10.470  12.333  64.253  1.00  0.00    -0.375 C  
HETATM   24  C   UNL     1     -11.965  12.560  64.128  1.00  0.00    -0.508 C  
ENDBRANCH  22  23
ENDBRANCH  20  21
ENDBRANCH  19  20
ENDBRANCH  17  18
ENDBRANCH  16  17
ENDBRANCH  14  15
ENDBRANCH  13  14
ENDBRANCH  11  12
ENDBRANCH  10  11
ENDBRANCH   8   9
ENDBRANCH   7   8
ENDBRANCH   6   7
ENDBRANCH   4   6
ENDBRANCH   3   4
ENDBRANCH   2   3
TORSDOF 15
ENDMDL
MODEL      371
REMARK 921   NORMALIZED FREE ENERGY PREDICTED BY IDOCK:   -3.04 KCAL/MOL
REMARK 922        TOTAL FREE ENERGY PREDICTED BY IDOCK:   -8.26 KCAL/MOL
REMARK 923 INTER-LIGAND FREE ENERGY PREDICTED BY IDOCK:   -5.47 KCAL/MOL
REMARK 924 INTRA-LIGAND FREE ENERGY PREDICTED BY IDOCK:   -2.80 KCAL/MOL
REMARK 927      BINDING AFFINITY PREDICTED BY RF-SCORE:    0.00 PKD
ROOT
HETATM    1  C   UNL     1     -10.481  11.580  63.802  1.00  0.00    -0.459 C  
HETATM    2  C   UNL     1     -11.591  12.596  64.005  1.00  0.00    -0.418 C  
ENDROOT
BRANCH   2   3
HETATM    3  O   UNL     1     -11.045  13.689  64.752  1.00  0.00    -0.336 OA 
BRANCH   3   4
HETATM    4  C   UNL     1     -11.644  13.898  65.958  1.00  0.00    -0.349 C  
HETATM    5  O   UNL     1     -12.748  14.390  66.126  1.00  0.00    -0.334 OA 
BRANCH   4   6
HETATM    6  C   UNL     1     -10.766  13.327  67.038  1.00  0.00    -0.263 C  
BRANCH   6   7
HETATM    7  C   UNL     1     -11.616  12.860  68.223  1.00  0.00    -0.374 C  
BRANCH   7   8
HETATM    8  C   UNL     1     -11.430  11.378  68.509  1.00  0.00    -0.361 C  
BRANCH   8   9
HETATM    9  C   UNL     1     -10.961  10.615  67.295  1.00  0.00    -0.348 C  
HETATM   10  C   UNL     1     -10.541   9.340  67.292  1.00  0.00    -0.303 C  
BRANCH  10  11
HETATM   11  C   UNL     1     -10.322   8.528  68.527  1.00  0.00    -0.230 C  
BRANCH  11  12
HETATM   12  C   UNL     1     -11.238   7.353  68.687  1.00  0.00     0.243 C  
HETATM   13  C   UNL     1     -10.892   6.094  68.364  1.00  0.00    -0.382 C  
BRANCH  13  14
HETATM   14  C   UNL     1      -9.576   5.593  67.812  1.00  0.00    -0.128 C  
BRANCH  14  15
HETATM   15  C   UNL     1      -9.540   4.128  67.460  1.00  0.00    -0.219 C  
HETATM   16  C   UNL     1      -9.157   3.129  68.270  1.00  0.00    -0.215 C  
BRANCH  16  17
HETATM   17  C   UNL     1      -8.528   3.316  69.611  1.00  0.00    -0.099 C  
BRANCH  17  18
HETATM   18  C   UNL     1      -9.604   3.299  70.664  1.00  0.00    -0.223 C  
HETATM   19  C   UNL     1      -9.595   4.055  71.771  1.00  0.00    -0.223 C  
BRANCH  19  20
HETATM   20  C   UNL     1      -8.504   5.005  72.137  1.00  0.00    -0.125 C  
BRANCH  20  21
HETATM   21  C   UNL     1      -8.778   6.398  71.657  1.00  0.00    -0.133 C  
HETATM   22  C   UNL     1      -8.025   7.048  70.755  1.00  0.00    -0.101 C  
BRANCH  22  23
HETATM   23  C   UNL     1      -6.778   6.519  70.115  1.00  0.00    -0.049 C  
HETATM   24  C   UNL     1      -6.178   7.519  69.144  1.00  0.00    -0.035 C  
ENDBRANCH  22  23
ENDBRANCH  20  21
ENDBRANCH  19  20
ENDBRANCH  17  18
ENDBRANCH  16  17
ENDBRANCH  14  15
ENDBRANCH  13  14
ENDBRANCH  11  12
ENDBRANCH  10  11
ENDBRANCH   8   9
ENDBRANCH   7   8
ENDBRANCH   6   7
ENDBRANCH   4   6
ENDBRANCH   3   4
ENDBRANCH   2   3
TORSDOF 15
ENDMDL
MODEL      372
REMARK 921   NORMALIZED FREE ENERGY PREDICTED BY IDOCK:   -3.04 KCAL/MOL
REMARK 922        TOTAL FREE ENERGY PREDICTED BY IDOCK:   -8.25 KCAL/MOL
REMARK 923 INTER-LIGAND FREE ENERGY PREDICTED BY IDOCK:   -6.73 KCAL/MOL
REMARK 924 INTRA-LIGAND FREE ENERGY PREDICTED BY IDOCK:   -1.52 KCAL/MOL
REMARK 927      BINDING AFFINITY PREDICTED BY RF-SCORE:    0.00 PKD
ROOT
HETATM    1  C   UNL     1     -11.911  12.306  65.526  1.00  0.00    -0.387 C  
HETATM    2  C   UNL     1     -12.460  12.197  64.115  1.00  0.00    -0.396 C  
ENDROOT
BRANCH   2   3
HETATM    3  O   UNL     1     -11.515  11.447  63.341  1.00  0.00    -0.316 OA 
BRANCH   3   4
HETATM    4  C   UNL     1     -10.247  11.944  63.372  1.00  0.00    -0.449 C  
HETATM    5  O   UNL     1      -9.927  13.048  63.783  1.00  0.00    -0.278 OA 
BRANCH   4   6
HETATM    6  C   UNL     1      -9.298  10.871  62.914  1.00  0.00    -0.367 C  
BRANCH   6   7
HETATM    7  C   UNL     1      -9.454   9.618  63.781  1.00  0.00     0.080 C  
BRANCH   7   8
HETATM    8  C   UNL     1      -9.580   9.958  65.258  1.00  0.00    -0.361 C  
BRANCH   8   9
HETATM    9  C   UNL     1      -8.255   9.889  65.977  1.00  0.00    -0.119 C  
HETATM   10  C   UNL     1      -7.760  10.839  66.787  1.00  0.00    -0.136 C  
BRANCH  10  11
HETATM   11  C   UNL     1      -8.379  12.185  66.975  1.00  0.00    -0.173 C  
BRANCH  11  12
HETATM   12  C   UNL     1      -8.726  12.534  68.390  1.00  0.00    -0.122 C  
HETATM   13  C   UNL     1      -9.784  12.019  69.043  1.00  0.00     0.197 C  
BRANCH  13  14
HETATM   14  C   UNL     1     -10.801  11.019  68.542  1.00  0.00    -0.254 C  
BRANCH  14  15
HETATM   15  C   UNL     1     -10.470   9.573  68.809  1.00  0.00    -0.243 C  
HETATM   16  C   UNL     1     -10.658   8.919  69.965  1.00  0.00    -0.234 C  
BRANCH  16  17
HETATM   17  C   UNL     1     -11.069   9.563  71.249  1.00  0.00    -0.449 C  
BRANCH  17  18
HETATM   18  C   UNL     1     -12.571   9.633  71.304  1.00  0.00    -0.443 C  
HETATM   19  C   UNL     1     -13.275  10.767  71.431  1.00  0.00    -0.384 C  
BRANCH  19  20
HETATM   20  C   UNL     1     -12.671  12.125  71.563  1.00  0.00    -0.348 C  
BRANCH  20  21
HETATM   21  C   UNL     1     -13.695  13.215  71.455  1.00  0.00     0.194 C  
HETATM   22  C   UNL     1     -13.707  14.318  72.220  1.00  0.00    -0.592 C  
BRANCH  22  23
HETATM   23  C   UNL     1     -12.742  14.626  73.323  1.00  0.00    -0.552 C  
HETATM   24  C   UNL     1     -11.948  15.889  73.037  1.00  0.00    -0.596 C  
ENDBRANCH  22  23
ENDBRANCH  20  21
ENDBRANCH  19  20
ENDBRANCH  17  18
ENDBRANCH  16  17
ENDBRANCH  14  15
ENDBRANCH  13  14
ENDBRANCH  11  12
ENDBRANCH  10  11
ENDBRANCH   8   9
ENDBRANCH   7   8
ENDBRANCH   6   7
ENDBRANCH   4   6
ENDBRANCH   3   4
ENDBRANCH   2   3
TORSDOF 15
ENDMDL
MODEL      373
REMARK 921   NORMALIZED FREE ENERGY PREDICTED BY IDOCK:   -3.04 KCAL/MOL
REMARK 922        TOTAL FREE ENERGY PREDICTED BY IDOCK:   -8.25 KCAL/MOL
REMARK 923 INTER-LIGAND FREE ENERGY PREDICTED BY IDOCK:   -6.23 KCAL/MOL
REMARK 924 INTRA-LIGAND FREE ENERGY PREDICTED BY IDOCK:   -2.02 KCAL/MOL
REMARK 927      BINDING AFFINITY PREDICTED BY RF-SCORE:    0.00 PKD
ROOT
HETATM    1  C   UNL     1      -6.871   4.727  69.014  1.00  0.00    -0.051 C  
HETATM    2  C   UNL     1      -6.785   5.080  67.540  1.00  0.00    -0.055 C  
ENDROOT
BRANCH   2   3
HETATM    3  O   UNL     1      -7.641   6.206  67.315  1.00  0.00    -0.090 OA 
BRANCH   3   4
HETATM    4  C   UNL     1      -7.105   7.401  67.690  1.00  0.00    -0.085 C  
HETATM    5  O   UNL     1      -5.916   7.673  67.700  1.00  0.00    -0.037 OA 
BRANCH   4   6
HETATM    6  C   UNL     1      -8.226   8.360  67.987  1.00  0.00    -0.127 C  
BRANCH   6   7
HETATM    7  C   UNL     1      -7.982   9.064  69.325  1.00  0.00    -0.096 C  
BRANCH   7   8
HETATM    8  C   UNL     1      -9.204   9.840  69.792  1.00  0.00    -0.248 C  
BRANCH   8   9
HETATM    9  C   UNL     1     -10.387   9.651  68.874  1.00  0.00    -0.220 C  
HETATM   10  C   UNL     1     -11.002  10.626  68.187  1.00  0.00    -0.321 C  
BRANCH  10  11
HETATM   11  C   UNL     1     -10.705  12.081  68.350  1.00  0.00    -0.255 C  
BRANCH  11  12
HETATM   12  C   UNL     1     -11.891  12.990  68.244  1.00  0.00    -0.381 C  
HETATM   13  C   UNL     1     -12.143  13.758  67.168  1.00  0.00    -0.416 C  
BRANCH  13  14
HETATM   14  C   UNL     1     -11.348  13.870  65.887  1.00  0.00    -0.314 C  
BRANCH  14  15
HETATM   15  C   UNL     1     -11.109  15.275  65.397  1.00  0.00    -0.351 C  
HETATM   16  C   UNL     1     -10.003  16.006  65.600  1.00  0.00    -0.346 C  
BRANCH  16  17
HETATM   17  C   UNL     1      -8.880  15.616  66.504  1.00  0.00    -0.345 C  
BRANCH  17  18
HETATM   18  C   UNL     1      -9.302  15.831  67.933  1.00  0.00    -0.200 C  
HETATM   19  C   UNL     1      -8.834  16.806  68.725  1.00  0.00    -0.258 C  
BRANCH  19  20
HETATM   20  C   UNL     1      -7.806  17.806  68.316  1.00  0.00    -0.279 C  
BRANCH  20  21
HETATM   21  C   UNL     1      -8.259  19.216  68.550  1.00  0.00    -0.399 C  
HETATM   22  C   UNL     1      -8.828  19.992  67.615  1.00  0.00    -0.407 C  
BRANCH  22  23
HETATM   23  C   UNL     1      -9.067  19.605  66.187  1.00  0.00    -0.380 C  
HETATM   24  C   UNL     1     -10.544  19.642  65.836  1.00  0.00    -0.566 C  
ENDBRANCH  22  23
ENDBRANCH  20  21
ENDBRANCH  19  20
ENDBRANCH  17  18
ENDBRANCH  16  17
ENDBRANCH  14  15
ENDBRANCH  13  14
ENDBRANCH  11  12
ENDBRANCH  10  11
ENDBRANCH   8   9
ENDBRANCH   7   8
ENDBRANCH   6   7
ENDBRANCH   4   6
ENDBRANCH   3   4
ENDBRANCH   2   3
TORSDOF 15
ENDMDL
MODEL      374
REMARK 921   NORMALIZED FREE ENERGY PREDICTED BY IDOCK:   -3.03 KCAL/MOL
REMARK 922        TOTAL FREE ENERGY PREDICTED BY IDOCK:   -8.24 KCAL/MOL
REMARK 923 INTER-LIGAND FREE ENERGY PREDICTED BY IDOCK:   -6.57 KCAL/MOL
REMARK 924 INTRA-LIGAND FREE ENERGY PREDICTED BY IDOCK:   -1.67 KCAL/MOL
REMARK 927      BINDING AFFINITY PREDICTED BY RF-SCORE:    0.00 PKD
ROOT
HETATM    1  C   UNL     1     -10.052  18.688  67.679  1.00  0.00    -0.404 C  
HETATM    2  C   UNL     1      -8.741  19.303  67.224  1.00  0.00    -0.292 C  
ENDROOT
BRANCH   2   3
HETATM    3  O   UNL     1      -8.348  18.638  66.018  1.00  0.00    -0.475 OA 
BRANCH   3   4
HETATM    4  C   UNL     1      -7.002  18.482  65.877  1.00  0.00    -0.273 C  
HETATM    5  O   UNL     1      -6.371  18.659  64.848  1.00  0.00    -0.457 OA 
BRANCH   4   6
HETATM    6  C   UNL     1      -6.411  18.159  67.222  1.00  0.00    -0.192 C  
BRANCH   6   7
HETATM    7  C   UNL     1      -6.023  16.679  67.291  1.00  0.00    -0.194 C  
BRANCH   7   8
HETATM    8  C   UNL     1      -6.299  16.080  68.662  1.00  0.00    -0.116 C  
BRANCH   8   9
HETATM    9  C   UNL     1      -7.776  15.972  68.952  1.00  0.00    -0.196 C  
HETATM   10  C   UNL     1      -8.552  14.918  68.650  1.00  0.00    -0.168 C  
BRANCH  10  11
HETATM   11  C   UNL     1      -8.100  13.752  67.834  1.00  0.00    -0.166 C  
BRANCH  11  12
HETATM   12  C   UNL     1      -7.261  12.749  68.565  1.00  0.00    -0.114 C  
HETATM   13  C   UNL     1      -7.511  11.427  68.559  1.00  0.00    -0.113 C  
BRANCH  13  14
HETATM   14  C   UNL     1      -8.620  10.684  67.847  1.00  0.00    -0.124 C  
BRANCH  14  15
HETATM   15  C   UNL     1      -9.392   9.709  68.699  1.00  0.00    -0.143 C  
HETATM   16  C   UNL     1     -10.389  10.014  69.543  1.00  0.00    -0.256 C  
BRANCH  16  17
HETATM   17  C   UNL     1     -10.790  11.403  69.919  1.00  0.00     0.090 C  
BRANCH  17  18
HETATM   18  C   UNL     1     -12.157  11.366  70.547  1.00  0.00    -0.487 C  
HETATM   19  C   UNL     1     -12.821  12.446  70.987  1.00  0.00    -0.245 C  
BRANCH  19  20
HETATM   20  C   UNL     1     -12.289  13.839  70.945  1.00  0.00    -0.456 C  
BRANCH  20  21
HETATM   21  C   UNL     1     -13.366  14.864  71.138  1.00  0.00    -0.480 C  
HETATM   22  C   UNL     1     -13.773  15.316  72.335  1.00  0.00    -0.622 C  
BRANCH  22  23
HETATM   23  C   UNL     1     -13.259  14.853  73.664  1.00  0.00     0.011 C  
HETATM   24  C   UNL     1     -12.266  15.836  74.255  1.00  0.00    -0.695 C  
ENDBRANCH  22  23
ENDBRANCH  20  21
ENDBRANCH  19  20
ENDBRANCH  17  18
ENDBRANCH  16  17
ENDBRANCH  14  15
ENDBRANCH  13  14
ENDBRANCH  11  12
ENDBRANCH  10  11
ENDBRANCH   8   9
ENDBRANCH   7   8
ENDBRANCH   6   7
ENDBRANCH   4   6
ENDBRANCH   3   4
ENDBRANCH   2   3
TORSDOF 15
ENDMDL
MODEL      375
REMARK 921   NORMALIZED FREE ENERGY PREDICTED BY IDOCK:   -3.02 KCAL/MOL
REMARK 922        TOTAL FREE ENERGY PREDICTED BY IDOCK:   -8.21 KCAL/MOL
REMARK 923 INTER-LIGAND FREE ENERGY PREDICTED BY IDOCK:   -5.49 KCAL/MOL
REMARK 924 INTRA-LIGAND FREE ENERGY PREDICTED BY IDOCK:   -2.72 KCAL/MOL
REMARK 927      BINDING AFFINITY PREDICTED BY RF-SCORE:    0.00 PKD
ROOT
HETATM    1  C   UNL     1     -10.842  18.920  67.255  1.00  0.00    -0.448 C  
HETATM    2  C   UNL     1      -9.675  19.891  67.246  1.00  0.00    -0.387 C  
ENDROOT
BRANCH   2   3
HETATM    3  O   UNL     1      -8.927  19.656  66.047  1.00  0.00    -0.359 OA 
BRANCH   3   4
HETATM    4  C   UNL     1      -7.599  19.941  66.151  1.00  0.00    -0.324 C  
HETATM    5  O   UNL     1      -6.899  20.394  65.259  1.00  0.00    -0.290 OA 
BRANCH   4   6
HETATM    6  C   UNL     1      -7.165  19.707  67.572  1.00  0.00    -0.266 C  
BRANCH   6   7
HETATM    7  C   UNL     1      -6.484  18.341  67.701  1.00  0.00    -0.192 C  
BRANCH   7   8
HETATM    8  C   UNL     1      -7.211  17.431  68.678  1.00  0.00    -0.237 C  
BRANCH   8   9
HETATM    9  C   UNL     1      -8.165  16.491  67.983  1.00  0.00    -0.172 C  
HETATM   10  C   UNL     1      -7.943  15.186  67.756  1.00  0.00    -0.155 C  
BRANCH  10  11
HETATM   11  C   UNL     1      -6.642  14.500  68.017  1.00  0.00    -0.156 C  
BRANCH  11  12
HETATM   12  C   UNL     1      -6.437  14.041  69.428  1.00  0.00    -0.118 C  
HETATM   13  C   UNL     1      -5.869  12.865  69.751  1.00  0.00    -0.121 C  
BRANCH  13  14
HETATM   14  C   UNL     1      -5.325  11.799  68.825  1.00  0.00    -0.049 C  
BRANCH  14  15
HETATM   15  C   UNL     1      -5.985  10.449  68.939  1.00  0.00    -0.040 C  
HETATM   16  C   UNL     1      -7.045  10.025  68.235  1.00  0.00    -0.072 C  
BRANCH  16  17
HETATM   17  C   UNL     1      -7.869  10.888  67.336  1.00  0.00    -0.113 C  
BRANCH  17  18
HETATM   18  C   UNL     1      -8.995  11.492  68.132  1.00  0.00    -0.172 C  
HETATM   19  C   UNL     1     -10.029  12.158  67.599  1.00  0.00    -0.199 C  
BRANCH  19  20
HETATM   20  C   UNL     1     -10.204  12.423  66.141  1.00  0.00    -0.262 C  
BRANCH  20  21
HETATM   21  C   UNL     1     -11.648  12.495  65.745  1.00  0.00    -0.439 C  
HETATM   22  C   UNL     1     -12.343  13.637  65.628  1.00  0.00    -0.518 C  
BRANCH  22  23
HETATM   23  C   UNL     1     -11.817  15.012  65.908  1.00  0.00    -0.021 C  
HETATM   24  C   UNL     1     -11.216  15.646  64.667  1.00  0.00    -0.380 C  
ENDBRANCH  22  23
ENDBRANCH  20  21
ENDBRANCH  19  20
ENDBRANCH  17  18
ENDBRANCH  16  17
ENDBRANCH  14  15
ENDBRANCH  13  14
ENDBRANCH  11  12
ENDBRANCH  10  11
ENDBRANCH   8   9
ENDBRANCH   7   8
ENDBRANCH   6   7
ENDBRANCH   4   6
ENDBRANCH   3   4
ENDBRANCH   2   3
TORSDOF 15
ENDMDL
MODEL      376
REMARK 921   NORMALIZED FREE ENERGY PREDICTED BY IDOCK:   -3.00 KCAL/MOL
REMARK 922        TOTAL FREE ENERGY PREDICTED BY IDOCK:   -8.19 KCAL/MOL
REMARK 923 INTER-LIGAND FREE ENERGY PREDICTED BY IDOCK:   -6.27 KCAL/MOL
REMARK 924 INTRA-LIGAND FREE ENERGY PREDICTED BY IDOCK:   -1.92 KCAL/MOL
REMARK 927      BINDING AFFINITY PREDICTED BY RF-SCORE:    0.00 PKD
ROOT
HETATM    1  C   UNL     1      -8.582   3.207  73.175  1.00  0.00    -0.081 C  
HETATM    2  C   UNL     1      -8.778   4.712  73.211  1.00  0.00    -0.101 C  
ENDROOT
BRANCH   2   3
HETATM    3  O   UNL     1      -9.746   5.045  72.209  1.00  0.00    -0.151 OA 
BRANCH   3   4
HETATM    4  C   UNL     1     -10.880   5.622  72.696  1.00  0.00    -0.256 C  
HETATM    5  O   UNL     1     -11.781   5.038  73.275  1.00  0.00    -0.292 OA 
BRANCH   4   6
HETATM    6  C   UNL     1     -10.787   7.110  72.496  1.00  0.00    -0.299 C  
BRANCH   6   7
HETATM    7  C   UNL     1     -10.017   7.427  71.211  1.00  0.00    -0.194 C  
BRANCH   7   8
HETATM    8  C   UNL     1     -10.939   7.552  70.009  1.00  0.00    -0.252 C  
BRANCH   8   9
HETATM    9  C   UNL     1     -11.142   6.234  69.303  1.00  0.00    -0.461 C  
HETATM   10  C   UNL     1     -10.922   6.009  67.998  1.00  0.00    -0.340 C  
BRANCH  10  11
HETATM   11  C   UNL     1     -10.591   7.077  67.008  1.00  0.00    -0.412 C  
BRANCH  11  12
HETATM   12  C   UNL     1      -9.229   6.978  66.394  1.00  0.00    -0.186 C  
HETATM   13  C   UNL     1      -8.276   7.916  66.546  1.00  0.00    -0.113 C  
BRANCH  13  14
HETATM   14  C   UNL     1      -8.345   9.206  67.332  1.00  0.00    -0.115 C  
BRANCH  14  15
HETATM   15  C   UNL     1      -8.875  10.396  66.574  1.00  0.00    -0.150 C  
HETATM   16  C   UNL     1     -10.011  11.060  66.839  1.00  0.00    -0.231 C  
BRANCH  16  17
HETATM   17  C   UNL     1     -11.042  10.623  67.827  1.00  0.00    -0.385 C  
BRANCH  17  18
HETATM   18  C   UNL     1     -10.530  10.886  69.218  1.00  0.00    -0.230 C  
HETATM   19  C   UNL     1     -11.311  11.049  70.296  1.00  0.00    -0.291 C  
BRANCH  19  20
HETATM   20  C   UNL     1     -12.802  11.020  70.272  1.00  0.00    -0.178 C  
BRANCH  20  21
HETATM   21  C   UNL     1     -13.399  11.294  71.619  1.00  0.00    -0.300 C  
HETATM   22  C   UNL     1     -13.311  12.471  72.259  1.00  0.00    -0.475 C  
BRANCH  22  23
HETATM   23  C   UNL     1     -12.580  13.681  71.764  1.00  0.00    -0.294 C  
HETATM   24  C   UNL     1     -13.537  14.766  71.305  1.00  0.00    -0.480 C  
ENDBRANCH  22  23
ENDBRANCH  20  21
ENDBRANCH  19  20
ENDBRANCH  17  18
ENDBRANCH  16  17
ENDBRANCH  14  15
ENDBRANCH  13  14
ENDBRANCH  11  12
ENDBRANCH  10  11
ENDBRANCH   8   9
ENDBRANCH   7   8
ENDBRANCH   6   7
ENDBRANCH   4   6
ENDBRANCH   3   4
ENDBRANCH   2   3
TORSDOF 15
ENDMDL
MODEL      377
REMARK 921   NORMALIZED FREE ENERGY PREDICTED BY IDOCK:   -3.00 KCAL/MOL
REMARK 922        TOTAL FREE ENERGY PREDICTED BY IDOCK:   -8.18 KCAL/MOL
REMARK 923 INTER-LIGAND FREE ENERGY PREDICTED BY IDOCK:   -5.70 KCAL/MOL
REMARK 924 INTRA-LIGAND FREE ENERGY PREDICTED BY IDOCK:   -2.48 KCAL/MOL
REMARK 927      BINDING AFFINITY PREDICTED BY RF-SCORE:    0.00 PKD
ROOT
HETATM    1  C   UNL     1      -7.354   4.985  69.790  1.00  0.00    -0.056 C  
HETATM    2  C   UNL     1      -8.515   5.632  70.524  1.00  0.00    -0.121 C  
ENDROOT
BRANCH   2   3
HETATM    3  O   UNL     1      -9.512   5.960  69.550  1.00  0.00    -0.135 OA 
BRANCH   3   4
HETATM    4  C   UNL     1     -10.473   6.816  69.999  1.00  0.00    -0.210 C  
HETATM    5  O   UNL     1     -11.250   6.593  70.913  1.00  0.00    -0.267 OA 
BRANCH   4   6
HETATM    6  C   UNL     1     -10.347   8.116  69.253  1.00  0.00    -0.222 C  
BRANCH   6   7
HETATM    7  C   UNL     1      -9.419   9.073  70.005  1.00  0.00    -0.202 C  
BRANCH   7   8
HETATM    8  C   UNL     1      -8.060   9.197  69.333  1.00  0.00    -0.102 C  
BRANCH   8   9
HETATM    9  C   UNL     1      -7.119  10.089  70.105  1.00  0.00    -0.157 C  
HETATM   10  C   UNL     1      -6.546  11.208  69.632  1.00  0.00    -0.139 C  
BRANCH  10  11
HETATM   11  C   UNL     1      -6.629  11.654  68.209  1.00  0.00    -0.059 C  
BRANCH  11  12
HETATM   12  C   UNL     1      -7.343  12.953  67.990  1.00  0.00    -0.120 C  
HETATM   13  C   UNL     1      -8.491  13.060  67.296  1.00  0.00    -0.199 C  
BRANCH  13  14
HETATM   14  C   UNL     1      -9.290  11.964  66.627  1.00  0.00    -0.210 C  
BRANCH  14  15
HETATM   15  C   UNL     1     -10.366  11.340  67.478  1.00  0.00    -0.224 C  
HETATM   16  C   UNL     1     -11.613  11.806  67.644  1.00  0.00    -0.364 C  
BRANCH  16  17
HETATM   17  C   UNL     1     -12.099  13.129  67.151  1.00  0.00    -0.343 C  
BRANCH  17  18
HETATM   18  C   UNL     1     -12.027  14.128  68.274  1.00  0.00    -0.367 C  
HETATM   19  C   UNL     1     -11.405  15.314  68.197  1.00  0.00    -0.346 C  
BRANCH  19  20
HETATM   20  C   UNL     1     -10.670  15.806  66.996  1.00  0.00    -0.306 C  
BRANCH  20  21
HETATM   21  C   UNL     1      -9.400  16.517  67.358  1.00  0.00    -0.223 C  
HETATM   22  C   UNL     1      -9.297  17.846  67.517  1.00  0.00    -0.253 C  
BRANCH  22  23
HETATM   23  C   UNL     1     -10.405  18.836  67.325  1.00  0.00    -0.469 C  
HETATM   24  C   UNL     1     -10.172  19.707  66.104  1.00  0.00    -0.604 C  
ENDBRANCH  22  23
ENDBRANCH  20  21
ENDBRANCH  19  20
ENDBRANCH  17  18
ENDBRANCH  16  17
ENDBRANCH  14  15
ENDBRANCH  13  14
ENDBRANCH  11  12
ENDBRANCH  10  11
ENDBRANCH   8   9
ENDBRANCH   7   8
ENDBRANCH   6   7
ENDBRANCH   4   6
ENDBRANCH   3   4
ENDBRANCH   2   3
TORSDOF 15
ENDMDL
MODEL      378
REMARK 921   NORMALIZED FREE ENERGY PREDICTED BY IDOCK:   -3.00 KCAL/MOL
REMARK 922        TOTAL FREE ENERGY PREDICTED BY IDOCK:   -8.18 KCAL/MOL
REMARK 923 INTER-LIGAND FREE ENERGY PREDICTED BY IDOCK:   -4.96 KCAL/MOL
REMARK 924 INTRA-LIGAND FREE ENERGY PREDICTED BY IDOCK:   -3.22 KCAL/MOL
REMARK 927      BINDING AFFINITY PREDICTED BY RF-SCORE:    0.00 PKD
ROOT
HETATM    1  C   UNL     1      -8.626   6.677  73.306  1.00  0.00    -0.130 C  
HETATM    2  C   UNL     1      -9.181   8.079  73.136  1.00  0.00    -0.279 C  
ENDROOT
BRANCH   2   3
HETATM    3  O   UNL     1     -10.610   7.980  73.136  1.00  0.00    -0.334 OA 
BRANCH   3   4
HETATM    4  C   UNL     1     -11.208   8.504  72.029  1.00  0.00    -0.348 C  
HETATM    5  O   UNL     1     -10.838   9.499  71.427  1.00  0.00    -0.347 OA 
BRANCH   4   6
HETATM    6  C   UNL     1     -12.332   7.595  71.613  1.00  0.00    -0.354 C  
BRANCH   6   7
HETATM    7  C   UNL     1     -11.776   6.263  71.102  1.00  0.00    -0.292 C  
BRANCH   7   8
HETATM    8  C   UNL     1     -11.112   6.406  69.741  1.00  0.00    -0.459 C  
BRANCH   8   9
HETATM    9  C   UNL     1      -9.613   6.244  69.816  1.00  0.00    -0.169 C  
HETATM   10  C   UNL     1      -8.956   5.074  69.793  1.00  0.00    -0.141 C  
BRANCH  10  11
HETATM   11  C   UNL     1      -9.621   3.738  69.851  1.00  0.00    -0.255 C  
BRANCH  11  12
HETATM   12  C   UNL     1      -8.803   2.645  70.466  1.00  0.00    -0.144 C  
HETATM   13  C   UNL     1      -8.088   1.760  69.747  1.00  0.00    -0.056 C  
BRANCH  13  14
HETATM   14  C   UNL     1      -7.939   1.672  68.245  1.00  0.00    -0.062 C  
BRANCH  14  15
HETATM   15  C   UNL     1      -6.980   2.661  67.633  1.00  0.00    -0.048 C  
HETATM   16  C   UNL     1      -7.209   3.416  66.548  1.00  0.00    -0.063 C  
BRANCH  16  17
HETATM   17  C   UNL     1      -8.394   3.278  65.650  1.00  0.00    -0.099 C  
BRANCH  17  18
HETATM   18  C   UNL     1      -9.541   4.062  66.227  1.00  0.00    -0.211 C  
HETATM   19  C   UNL     1      -9.635   5.400  66.204  1.00  0.00    -0.169 C  
BRANCH  19  20
HETATM   20  C   UNL     1      -8.603   6.309  65.627  1.00  0.00    -0.143 C  
BRANCH  20  21
HETATM   21  C   UNL     1      -7.987   7.201  66.662  1.00  0.00    -0.111 C  
HETATM   22  C   UNL     1      -8.445   8.423  66.976  1.00  0.00    -0.122 C  
BRANCH  22  23
HETATM   23  C   UNL     1      -9.607   9.113  66.327  1.00  0.00    -0.321 C  
HETATM   24  C   UNL     1     -10.677   9.480  67.339  1.00  0.00    -0.297 C  
ENDBRANCH  22  23
ENDBRANCH  20  21
ENDBRANCH  19  20
ENDBRANCH  17  18
ENDBRANCH  16  17
ENDBRANCH  14  15
ENDBRANCH  13  14
ENDBRANCH  11  12
ENDBRANCH  10  11
ENDBRANCH   8   9
ENDBRANCH   7   8
ENDBRANCH   6   7
ENDBRANCH   4   6
ENDBRANCH   3   4
ENDBRANCH   2   3
TORSDOF 15
ENDMDL
MODEL      379
REMARK 921   NORMALIZED FREE ENERGY PREDICTED BY IDOCK:   -2.99 KCAL/MOL
REMARK 922        TOTAL FREE ENERGY PREDICTED BY IDOCK:   -8.16 KCAL/MOL
REMARK 923 INTER-LIGAND FREE ENERGY PREDICTED BY IDOCK:   -7.06 KCAL/MOL
REMARK 924 INTRA-LIGAND FREE ENERGY PREDICTED BY IDOCK:   -1.10 KCAL/MOL
REMARK 927      BINDING AFFINITY PREDICTED BY RF-SCORE:    0.00 PKD
ROOT
HETATM    1  C   UNL     1      -9.691   3.939  69.864  1.00  0.00    -0.235 C  
HETATM    2  C   UNL     1      -9.451   3.953  68.366  1.00  0.00    -0.147 C  
ENDROOT
BRANCH   2   3
HETATM    3  O   UNL     1      -8.964   5.255  68.019  1.00  0.00    -0.109 OA 
BRANCH   3   4
HETATM    4  C   UNL     1      -9.715   5.903  67.085  1.00  0.00    -0.132 C  
HETATM    5  O   UNL     1     -10.896   5.697  66.857  1.00  0.00    -0.286 OA 
BRANCH   4   6
HETATM    6  C   UNL     1      -8.877   6.984  66.459  1.00  0.00    -0.151 C  
BRANCH   6   7
HETATM    7  C   UNL     1      -9.079   8.310  67.200  1.00  0.00    -0.162 C  
BRANCH   7   8
HETATM    8  C   UNL     1     -10.275   9.084  66.668  1.00  0.00    -0.333 C  
BRANCH   8   9
HETATM    9  C   UNL     1     -10.845  10.033  67.693  1.00  0.00    -0.336 C  
HETATM   10  C   UNL     1     -11.307  11.267  67.438  1.00  0.00    -0.349 C  
BRANCH  10  11
HETATM   11  C   UNL     1     -11.180  11.953  66.117  1.00  0.00    -0.387 C  
BRANCH  11  12
HETATM   12  C   UNL     1     -12.254  12.950  65.811  1.00  0.00    -0.498 C  
HETATM   13  C   UNL     1     -12.173  14.253  66.138  1.00  0.00    -0.430 C  
BRANCH  13  14
HETATM   14  C   UNL     1     -11.043  14.977  66.835  1.00  0.00    -0.331 C  
BRANCH  14  15
HETATM   15  C   UNL     1      -9.663  14.439  66.556  1.00  0.00    -0.305 C  
HETATM   16  C   UNL     1      -8.560  15.170  66.334  1.00  0.00    -0.139 C  
BRANCH  16  17
HETATM   17  C   UNL     1      -8.544  16.652  66.149  1.00  0.00    -0.324 C  
BRANCH  17  18
HETATM   18  C   UNL     1      -7.123  17.141  66.229  1.00  0.00    -0.280 C  
HETATM   19  C   UNL     1      -6.558  17.657  67.330  1.00  0.00    -0.181 C  
BRANCH  19  20
HETATM   20  C   UNL     1      -7.262  17.847  68.631  1.00  0.00    -0.272 C  
BRANCH  20  21
HETATM   21  C   UNL     1      -7.733  19.258  68.823  1.00  0.00    -0.397 C  
HETATM   22  C   UNL     1      -9.011  19.650  68.705  1.00  0.00    -0.335 C  
BRANCH  22  23
HETATM   23  C   UNL     1     -10.163  18.770  68.327  1.00  0.00    -0.425 C  
HETATM   24  C   UNL     1     -10.813  19.222  67.032  1.00  0.00    -0.515 C  
ENDBRANCH  22  23
ENDBRANCH  20  21
ENDBRANCH  19  20
ENDBRANCH  17  18
ENDBRANCH  16  17
ENDBRANCH  14  15
ENDBRANCH  13  14
ENDBRANCH  11  12
ENDBRANCH  10  11
ENDBRANCH   8   9
ENDBRANCH   7   8
ENDBRANCH   6   7
ENDBRANCH   4   6
ENDBRANCH   3   4
ENDBRANCH   2   3
TORSDOF 15
ENDMDL
MODEL      380
REMARK 921   NORMALIZED FREE ENERGY PREDICTED BY IDOCK:   -2.99 KCAL/MOL
REMARK 922        TOTAL FREE ENERGY PREDICTED BY IDOCK:   -8.16 KCAL/MOL
REMARK 923 INTER-LIGAND FREE ENERGY PREDICTED BY IDOCK:   -6.97 KCAL/MOL
REMARK 924 INTRA-LIGAND FREE ENERGY PREDICTED BY IDOCK:   -1.19 KCAL/MOL
REMARK 927      BINDING AFFINITY PREDICTED BY RF-SCORE:    0.00 PKD
ROOT
HETATM    1  C   UNL     1     -12.131  11.401  70.470  1.00  0.00    -0.487 C  
HETATM    2  C   UNL     1     -11.628   9.978  70.307  1.00  0.00    -0.280 C  
ENDROOT
BRANCH   2   3
HETATM    3  O   UNL     1     -10.200  10.034  70.212  1.00  0.00    -0.268 OA 
BRANCH   3   4
HETATM    4  C   UNL     1      -9.625   8.894  69.734  1.00  0.00    -0.171 C  
HETATM    5  O   UNL     1      -9.132   8.009  70.414  1.00  0.00    -0.148 OA 
BRANCH   4   6
HETATM    6  C   UNL     1      -9.794   8.859  68.240  1.00  0.00    -0.187 C  
BRANCH   6   7
HETATM    7  C   UNL     1      -9.161  10.101  67.604  1.00  0.00    -0.151 C  
BRANCH   7   8
HETATM    8  C   UNL     1     -10.175  10.923  66.825  1.00  0.00    -0.277 C  
BRANCH   8   9
HETATM    9  C   UNL     1      -9.534  12.070  66.083  1.00  0.00    -0.241 C  
HETATM   10  C   UNL     1     -10.179  13.149  65.611  1.00  0.00    -0.294 C  
BRANCH  10  11
HETATM   11  C   UNL     1     -11.665  13.301  65.610  1.00  0.00    -0.389 C  
BRANCH  11  12
HETATM   12  C   UNL     1     -12.286  13.501  66.959  1.00  0.00    -0.351 C  
HETATM   13  C   UNL     1     -12.029  14.562  67.744  1.00  0.00    -0.345 C  
BRANCH  13  14
HETATM   14  C   UNL     1     -11.122  15.740  67.465  1.00  0.00    -0.258 C  
BRANCH  14  15
HETATM   15  C   UNL     1     -10.481  16.361  68.680  1.00  0.00    -0.293 C  
HETATM   16  C   UNL     1      -9.167  16.399  68.948  1.00  0.00    -0.259 C  
BRANCH  16  17
HETATM   17  C   UNL     1      -8.119  15.672  68.171  1.00  0.00    -0.136 C  
BRANCH  17  18
HETATM   18  C   UNL     1      -8.161  16.133  66.739  1.00  0.00    -0.304 C  
HETATM   19  C   UNL     1      -7.426  17.138  66.243  1.00  0.00    -0.344 C  
BRANCH  19  20
HETATM   20  C   UNL     1      -6.476  17.966  67.043  1.00  0.00    -0.194 C  
BRANCH  20  21
HETATM   21  C   UNL     1      -7.177  18.802  68.070  1.00  0.00    -0.262 C  
HETATM   22  C   UNL     1      -8.185  19.646  67.798  1.00  0.00    -0.337 C  
BRANCH  22  23
HETATM   23  C   UNL     1      -8.748  19.923  66.437  1.00  0.00    -0.397 C  
HETATM   24  C   UNL     1     -10.248  19.696  66.393  1.00  0.00    -0.592 C  
ENDBRANCH  22  23
ENDBRANCH  20  21
ENDBRANCH  19  20
ENDBRANCH  17  18
ENDBRANCH  16  17
ENDBRANCH  14  15
ENDBRANCH  13  14
ENDBRANCH  11  12
ENDBRANCH  10  11
ENDBRANCH   8   9
ENDBRANCH   7   8
ENDBRANCH   6   7
ENDBRANCH   4   6
ENDBRANCH   3   4
ENDBRANCH   2   3
TORSDOF 15
ENDMDL
MODEL      381
REMARK 921   NORMALIZED FREE ENERGY PREDICTED BY IDOCK:   -2.98 KCAL/MOL
REMARK 922        TOTAL FREE ENERGY PREDICTED BY IDOCK:   -8.15 KCAL/MOL
REMARK 923 INTER-LIGAND FREE ENERGY PREDICTED BY IDOCK:   -6.34 KCAL/MOL
REMARK 924 INTRA-LIGAND FREE ENERGY PREDICTED BY IDOCK:   -1.81 KCAL/MOL
REMARK 927      BINDING AFFINITY PREDICTED BY RF-SCORE:    0.00 PKD
ROOT
HETATM    1  C   UNL     1      -9.336   9.489  66.273  1.00  0.00    -0.242 C  
HETATM    2  C   UNL     1      -8.490   9.207  65.044  1.00  0.00    -0.171 C  
ENDROOT
BRANCH   2   3
HETATM    3  O   UNL     1      -8.281  10.453  64.369  1.00  0.00    -0.165 OA 
BRANCH   3   4
HETATM    4  C   UNL     1      -9.125  10.669  63.320  1.00  0.00    -0.257 C  
HETATM    5  O   UNL     1      -9.383   9.864  62.440  1.00  0.00    -0.292 OA 
BRANCH   4   6
HETATM    6  C   UNL     1      -9.763  12.021  63.487  1.00  0.00    -0.226 C  
BRANCH   6   7
HETATM    7  C   UNL     1     -11.130  11.883  64.163  1.00  0.00    -0.441 C  
BRANCH   7   8
HETATM    8  C   UNL     1     -11.079  12.263  65.635  1.00  0.00    -0.357 C  
BRANCH   8   9
HETATM    9  C   UNL     1     -12.056  13.362  65.976  1.00  0.00    -0.487 C  
HETATM   10  C   UNL     1     -11.728  14.634  66.256  1.00  0.00    -0.325 C  
BRANCH  10  11
HETATM   11  C   UNL     1     -10.326  15.119  66.427  1.00  0.00    -0.292 C  
BRANCH  11  12
HETATM   12  C   UNL     1     -10.032  16.450  65.806  1.00  0.00    -0.331 C  
HETATM   13  C   UNL     1      -9.854  17.577  66.518  1.00  0.00    -0.315 C  
BRANCH  13  14
HETATM   14  C   UNL     1      -9.892  17.757  68.019  1.00  0.00    -0.317 C  
BRANCH  14  15
HETATM   15  C   UNL     1      -9.581  19.147  68.511  1.00  0.00    -0.454 C  
HETATM   16  C   UNL     1      -8.416  19.796  68.363  1.00  0.00    -0.295 C  
BRANCH  16  17
HETATM   17  C   UNL     1      -7.161  19.180  67.839  1.00  0.00    -0.258 C  
BRANCH  17  18
HETATM   18  C   UNL     1      -6.416  18.537  68.978  1.00  0.00    -0.265 C  
HETATM   19  C   UNL     1      -6.253  17.215  69.130  1.00  0.00    -0.212 C  
BRANCH  19  20
HETATM   20  C   UNL     1      -6.809  16.184  68.205  1.00  0.00    -0.126 C  
BRANCH  20  21
HETATM   21  C   UNL     1      -5.832  15.080  67.932  1.00  0.00    -0.154 C  
HETATM   22  C   UNL     1      -5.649  14.018  68.732  1.00  0.00    -0.082 C  
BRANCH  22  23
HETATM   23  C   UNL     1      -6.347  13.776  70.036  1.00  0.00    -0.084 C  
HETATM   24  C   UNL     1      -5.399  13.227  71.086  1.00  0.00    -0.193 C  
ENDBRANCH  22  23
ENDBRANCH  20  21
ENDBRANCH  19  20
ENDBRANCH  17  18
ENDBRANCH  16  17
ENDBRANCH  14  15
ENDBRANCH  13  14
ENDBRANCH  11  12
ENDBRANCH  10  11
ENDBRANCH   8   9
ENDBRANCH   7   8
ENDBRANCH   6   7
ENDBRANCH   4   6
ENDBRANCH   3   4
ENDBRANCH   2   3
TORSDOF 15
ENDMDL
MODEL      382
REMARK 921   NORMALIZED FREE ENERGY PREDICTED BY IDOCK:   -2.98 KCAL/MOL
REMARK 922        TOTAL FREE ENERGY PREDICTED BY IDOCK:   -8.15 KCAL/MOL
REMARK 923 INTER-LIGAND FREE ENERGY PREDICTED BY IDOCK:   -6.24 KCAL/MOL
REMARK 924 INTRA-LIGAND FREE ENERGY PREDICTED BY IDOCK:   -1.91 KCAL/MOL
REMARK 927      BINDING AFFINITY PREDICTED BY RF-SCORE:    0.00 PKD
ROOT
HETATM    1  C   UNL     1      -8.522   2.775  72.856  1.00  0.00    -0.071 C  
HETATM    2  C   UNL     1      -8.509   4.293  72.830  1.00  0.00    -0.101 C  
ENDROOT
BRANCH   2   3
HETATM    3  O   UNL     1      -9.434   4.715  71.821  1.00  0.00    -0.139 OA 
BRANCH   3   4
HETATM    4  C   UNL     1     -10.362   5.614  72.254  1.00  0.00    -0.206 C  
HETATM    5  O   UNL     1     -11.369   5.343  72.890  1.00  0.00    -0.294 OA 
BRANCH   4   6
HETATM    6  C   UNL     1      -9.889   6.999  71.911  1.00  0.00    -0.173 C  
BRANCH   6   7
HETATM    7  C   UNL     1      -9.401   7.050  70.460  1.00  0.00    -0.159 C  
BRANCH   7   8
HETATM    8  C   UNL     1     -10.489   7.522  69.508  1.00  0.00    -0.227 C  
BRANCH   8   9
HETATM    9  C   UNL     1     -11.199   6.372  68.836  1.00  0.00    -0.385 C  
HETATM   10  C   UNL     1     -10.983   5.954  67.579  1.00  0.00    -0.249 C  
BRANCH  10  11
HETATM   11  C   UNL     1     -10.113   6.668  66.596  1.00  0.00    -0.202 C  
BRANCH  11  12
HETATM   12  C   UNL     1      -8.718   6.137  66.477  1.00  0.00    -0.133 C  
HETATM   13  C   UNL     1      -7.644   6.916  66.257  1.00  0.00    -0.088 C  
BRANCH  13  14
HETATM   14  C   UNL     1      -7.591   8.420  66.100  1.00  0.00    -0.089 C  
BRANCH  14  15
HETATM   15  C   UNL     1      -8.194   8.957  64.828  1.00  0.00    -0.164 C  
HETATM   16  C   UNL     1      -9.243   9.789  64.740  1.00  0.00    -0.319 C  
BRANCH  16  17
HETATM   17  C   UNL     1     -10.109  10.190  65.889  1.00  0.00    -0.325 C  
BRANCH  17  18
HETATM   18  C   UNL     1      -9.544  11.434  66.519  1.00  0.00    -0.220 C  
HETATM   19  C   UNL     1     -10.279  12.478  66.931  1.00  0.00    -0.237 C  
BRANCH  19  20
HETATM   20  C   UNL     1     -11.762  12.571  66.801  1.00  0.00    -0.453 C  
BRANCH  20  21
HETATM   21  C   UNL     1     -12.197  13.843  66.137  1.00  0.00    -0.498 C  
HETATM   22  C   UNL     1     -12.169  14.051  64.812  1.00  0.00    -0.454 C  
BRANCH  22  23
HETATM   23  C   UNL     1     -11.669  13.080  63.786  1.00  0.00    -0.547 C  
HETATM   24  C   UNL     1     -12.549  11.846  63.705  1.00  0.00    -0.509 C  
ENDBRANCH  22  23
ENDBRANCH  20  21
ENDBRANCH  19  20
ENDBRANCH  17  18
ENDBRANCH  16  17
ENDBRANCH  14  15
ENDBRANCH  13  14
ENDBRANCH  11  12
ENDBRANCH  10  11
ENDBRANCH   8   9
ENDBRANCH   7   8
ENDBRANCH   6   7
ENDBRANCH   4   6
ENDBRANCH   3   4
ENDBRANCH   2   3
TORSDOF 15
ENDMDL
MODEL      383
REMARK 921   NORMALIZED FREE ENERGY PREDICTED BY IDOCK:   -2.98 KCAL/MOL
REMARK 922        TOTAL FREE ENERGY PREDICTED BY IDOCK:   -8.14 KCAL/MOL
REMARK 923 INTER-LIGAND FREE ENERGY PREDICTED BY IDOCK:   -6.25 KCAL/MOL
REMARK 924 INTRA-LIGAND FREE ENERGY PREDICTED BY IDOCK:   -1.89 KCAL/MOL
REMARK 927      BINDING AFFINITY PREDICTED BY RF-SCORE:    0.00 PKD
ROOT
HETATM    1  C   UNL     1      -8.876   4.609  63.394  1.00  0.00    -0.126 C  
HETATM    2  C   UNL     1      -8.170   5.666  64.224  1.00  0.00    -0.117 C  
ENDROOT
BRANCH   2   3
HETATM    3  O   UNL     1      -9.076   6.083  65.252  1.00  0.00    -0.004 OA 
BRANCH   3   4
HETATM    4  C   UNL     1      -9.031   5.322  66.381  1.00  0.00    -0.128 C  
HETATM    5  O   UNL     1      -9.326   4.139  66.452  1.00  0.00    -0.147 OA 
BRANCH   4   6
HETATM    6  C   UNL     1      -8.458   6.150  67.498  1.00  0.00    -0.108 C  
BRANCH   6   7
HETATM    7  C   UNL     1      -9.394   7.317  67.828  1.00  0.00    -0.134 C  
BRANCH   7   8
HETATM    8  C   UNL     1     -10.769   6.839  68.267  1.00  0.00    -0.290 C  
BRANCH   8   9
HETATM    9  C   UNL     1     -10.698   5.874  69.425  1.00  0.00    -0.406 C  
HETATM   10  C   UNL     1     -11.331   6.022  70.599  1.00  0.00    -0.301 C  
BRANCH  10  11
HETATM   11  C   UNL     1     -12.082   7.250  70.998  1.00  0.00    -0.361 C  
BRANCH  11  12
HETATM   12  C   UNL     1     -11.302   8.238  71.810  1.00  0.00    -0.350 C  
HETATM   13  C   UNL     1     -10.990   9.474  71.377  1.00  0.00    -0.415 C  
BRANCH  13  14
HETATM   14  C   UNL     1     -11.343  10.123  70.057  1.00  0.00    -0.351 C  
BRANCH  14  15
HETATM   15  C   UNL     1     -11.941  11.503  70.157  1.00  0.00    -0.452 C  
HETATM   16  C   UNL     1     -11.856  12.470  69.231  1.00  0.00    -0.360 C  
BRANCH  16  17
HETATM   17  C   UNL     1     -10.998  12.405  68.010  1.00  0.00    -0.262 C  
BRANCH  17  18
HETATM   18  C   UNL     1     -11.881  12.397  66.791  1.00  0.00    -0.385 C  
HETATM   19  C   UNL     1     -11.480  12.026  65.566  1.00  0.00    -0.368 C  
BRANCH  19  20
HETATM   20  C   UNL     1     -10.094  11.592  65.225  1.00  0.00    -0.305 C  
BRANCH  20  21
HETATM   21  C   UNL     1     -10.068  10.607  64.095  1.00  0.00    -0.402 C  
HETATM   22  C   UNL     1      -9.120   9.671  63.931  1.00  0.00    -0.229 C  
BRANCH  22  23
HETATM   23  C   UNL     1      -7.923   9.477  64.811  1.00  0.00    -0.123 C  
HETATM   24  C   UNL     1      -6.669  10.062  64.188  1.00  0.00    -0.128 C  
ENDBRANCH  22  23
ENDBRANCH  20  21
ENDBRANCH  19  20
ENDBRANCH  17  18
ENDBRANCH  16  17
ENDBRANCH  14  15
ENDBRANCH  13  14
ENDBRANCH  11  12
ENDBRANCH  10  11
ENDBRANCH   8   9
ENDBRANCH   7   8
ENDBRANCH   6   7
ENDBRANCH   4   6
ENDBRANCH   3   4
ENDBRANCH   2   3
TORSDOF 15
ENDMDL
MODEL      384
REMARK 921   NORMALIZED FREE ENERGY PREDICTED BY IDOCK:   -2.97 KCAL/MOL
REMARK 922        TOTAL FREE ENERGY PREDICTED BY IDOCK:   -8.13 KCAL/MOL
REMARK 923 INTER-LIGAND FREE ENERGY PREDICTED BY IDOCK:   -6.19 KCAL/MOL
REMARK 924 INTRA-LIGAND FREE ENERGY PREDICTED BY IDOCK:   -1.94 KCAL/MOL
REMARK 927      BINDING AFFINITY PREDICTED BY RF-SCORE:    0.00 PKD
ROOT
HETATM    1  C   UNL     1      -7.461   8.951  65.993  1.00  0.00    -0.090 C  
HETATM    2  C   UNL     1      -7.984   7.750  66.760  1.00  0.00    -0.107 C  
ENDROOT
BRANCH   2   3
HETATM    3  O   UNL     1      -9.328   7.513  66.325  1.00  0.00    -0.172 OA 
BRANCH   3   4
HETATM    4  C   UNL     1      -9.942   6.467  66.947  1.00  0.00    -0.173 C  
HETATM    5  O   UNL     1     -10.521   5.550  66.387  1.00  0.00    -0.245 OA 
BRANCH   4   6
HETATM    6  C   UNL     1      -9.696   6.575  68.427  1.00  0.00    -0.132 C  
BRANCH   6   7
HETATM    7  C   UNL     1     -10.727   5.745  69.198  1.00  0.00    -0.370 C  
BRANCH   7   8
HETATM    8  C   UNL     1     -10.826   6.170  70.655  1.00  0.00    -0.355 C  
BRANCH   8   9
HETATM    9  C   UNL     1     -12.183   6.736  70.995  1.00  0.00    -0.405 C  
HETATM   10  C   UNL     1     -12.506   8.039  70.989  1.00  0.00    -0.125 C  
BRANCH  10  11
HETATM   11  C   UNL     1     -11.520   9.145  70.796  1.00  0.00    -0.337 C  
BRANCH  11  12
HETATM   12  C   UNL     1     -11.615   9.862  69.484  1.00  0.00    -0.056 C  
HETATM   13  C   UNL     1     -11.903  11.171  69.373  1.00  0.00    -0.415 C  
BRANCH  13  14
HETATM   14  C   UNL     1     -12.168  12.171  70.476  1.00  0.00    -0.392 C  
BRANCH  14  15
HETATM   15  C   UNL     1     -12.778  13.476  70.031  1.00  0.00    -0.005 C  
HETATM   16  C   UNL     1     -12.164  14.435  69.322  1.00  0.00    -0.274 C  
BRANCH  16  17
HETATM   17  C   UNL     1     -10.705  14.453  69.001  1.00  0.00    -0.261 C  
BRANCH  17  18
HETATM   18  C   UNL     1     -10.503  15.132  67.673  1.00  0.00    -0.253 C  
HETATM   19  C   UNL     1     -10.528  14.505  66.488  1.00  0.00    -0.285 C  
BRANCH  19  20
HETATM   20  C   UNL     1     -10.735  13.038  66.312  1.00  0.00    -0.290 C  
BRANCH  20  21
HETATM   21  C   UNL     1     -11.614  12.724  65.139  1.00  0.00    -0.373 C  
HETATM   22  C   UNL     1     -11.361  11.758  64.243  1.00  0.00    -0.400 C  
BRANCH  22  23
HETATM   23  C   UNL     1     -10.155  10.868  64.235  1.00  0.00    -0.413 C  
HETATM   24  C   UNL     1      -9.728  10.515  62.822  1.00  0.00    -0.265 C  
ENDBRANCH  22  23
ENDBRANCH  20  21
ENDBRANCH  19  20
ENDBRANCH  17  18
ENDBRANCH  16  17
ENDBRANCH  14  15
ENDBRANCH  13  14
ENDBRANCH  11  12
ENDBRANCH  10  11
ENDBRANCH   8   9
ENDBRANCH   7   8
ENDBRANCH   6   7
ENDBRANCH   4   6
ENDBRANCH   3   4
ENDBRANCH   2   3
TORSDOF 15
ENDMDL
MODEL      385
REMARK 921   NORMALIZED FREE ENERGY PREDICTED BY IDOCK:   -2.97 KCAL/MOL
REMARK 922        TOTAL FREE ENERGY PREDICTED BY IDOCK:   -8.12 KCAL/MOL
REMARK 923 INTER-LIGAND FREE ENERGY PREDICTED BY IDOCK:   -6.78 KCAL/MOL
REMARK 924 INTRA-LIGAND FREE ENERGY PREDICTED BY IDOCK:   -1.34 KCAL/MOL
REMARK 927      BINDING AFFINITY PREDICTED BY RF-SCORE:    0.00 PKD
ROOT
HETATM    1  C   UNL     1      -8.426   4.833  72.634  1.00  0.00    -0.115 C  
HETATM    2  C   UNL     1      -9.443   5.571  73.486  1.00  0.00    -0.138 C  
ENDROOT
BRANCH   2   3
HETATM    3  O   UNL     1     -10.686   5.566  72.774  1.00  0.00    -0.215 OA 
BRANCH   3   4
HETATM    4  C   UNL     1     -11.252   6.797  72.627  1.00  0.00    -0.255 C  
HETATM    5  O   UNL     1     -11.136   7.729  73.408  1.00  0.00    -0.316 OA 
BRANCH   4   6
HETATM    6  C   UNL     1     -11.951   6.850  71.297  1.00  0.00    -0.402 C  
BRANCH   6   7
HETATM    7  C   UNL     1     -11.100   7.615  70.279  1.00  0.00    -0.256 C  
BRANCH   7   8
HETATM    8  C   UNL     1     -11.505   9.077  70.179  1.00  0.00    -0.078 C  
BRANCH   8   9
HETATM    9  C   UNL     1     -10.312   9.995  70.068  1.00  0.00    -0.323 C  
HETATM   10  C   UNL     1     -10.162  10.966  69.153  1.00  0.00    -0.215 C  
BRANCH  10  11
HETATM   11  C   UNL     1     -11.087  11.182  68.001  1.00  0.00    -0.334 C  
BRANCH  11  12
HETATM   12  C   UNL     1     -10.510  11.957  66.856  1.00  0.00    -0.253 C  
HETATM   13  C   UNL     1     -10.940  13.180  66.496  1.00  0.00    -0.303 C  
BRANCH  13  14
HETATM   14  C   UNL     1     -12.029  14.017  67.129  1.00  0.00    -0.465 C  
BRANCH  14  15
HETATM   15  C   UNL     1     -11.640  14.726  68.401  1.00  0.00    -0.350 C  
HETATM   16  C   UNL     1     -10.978  15.890  68.487  1.00  0.00    -0.324 C  
BRANCH  16  17
HETATM   17  C   UNL     1     -10.353  16.600  67.331  1.00  0.00    -0.292 C  
BRANCH  17  18
HETATM   18  C   UNL     1     -10.906  17.998  67.257  1.00  0.00    -0.214 C  
HETATM   19  C   UNL     1     -10.339  19.070  67.830  1.00  0.00    -0.485 C  
BRANCH  19  20
HETATM   20  C   UNL     1      -9.091  19.030  68.648  1.00  0.00    -0.401 C  
BRANCH  20  21
HETATM   21  C   UNL     1      -7.946  19.721  67.971  1.00  0.00    -0.337 C  
HETATM   22  C   UNL     1      -6.685  19.261  67.963  1.00  0.00    -0.267 C  
BRANCH  22  23
HETATM   23  C   UNL     1      -6.204  18.020  68.650  1.00  0.00    -0.206 C  
HETATM   24  C   UNL     1      -5.587  18.332  70.002  1.00  0.00    -0.239 C  
ENDBRANCH  22  23
ENDBRANCH  20  21
ENDBRANCH  19  20
ENDBRANCH  17  18
ENDBRANCH  16  17
ENDBRANCH  14  15
ENDBRANCH  13  14
ENDBRANCH  11  12
ENDBRANCH  10  11
ENDBRANCH   8   9
ENDBRANCH   7   8
ENDBRANCH   6   7
ENDBRANCH   4   6
ENDBRANCH   3   4
ENDBRANCH   2   3
TORSDOF 15
ENDMDL
MODEL      386
REMARK 921   NORMALIZED FREE ENERGY PREDICTED BY IDOCK:   -2.97 KCAL/MOL
REMARK 922        TOTAL FREE ENERGY PREDICTED BY IDOCK:   -8.12 KCAL/MOL
REMARK 923 INTER-LIGAND FREE ENERGY PREDICTED BY IDOCK:   -6.01 KCAL/MOL
REMARK 924 INTRA-LIGAND FREE ENERGY PREDICTED BY IDOCK:   -2.11 KCAL/MOL
REMARK 927      BINDING AFFINITY PREDICTED BY RF-SCORE:    0.00 PKD
ROOT
HETATM    1  C   UNL     1     -10.179  10.874  63.921  1.00  0.00    -0.418 C  
HETATM    2  C   UNL     1     -11.418  11.624  64.374  1.00  0.00    -0.224 C  
ENDROOT
BRANCH   2   3
HETATM    3  O   UNL     1     -11.097  13.020  64.385  1.00  0.00    -0.333 OA 
BRANCH   3   4
HETATM    4  C   UNL     1     -11.357  13.646  65.567  1.00  0.00    -0.298 C  
HETATM    5  O   UNL     1     -12.456  14.021  65.944  1.00  0.00    -0.470 OA 
BRANCH   4   6
HETATM    6  C   UNL     1     -10.088  13.702  66.372  1.00  0.00    -0.295 C  
BRANCH   6   7
HETATM    7  C   UNL     1     -10.349  13.240  67.809  1.00  0.00    -0.233 C  
BRANCH   7   8
HETATM    8  C   UNL     1      -9.842  11.827  68.054  1.00  0.00    -0.184 C  
BRANCH   8   9
HETATM    9  C   UNL     1      -8.400  11.806  68.499  1.00  0.00    -0.131 C  
HETATM   10  C   UNL     1      -7.625  10.712  68.573  1.00  0.00    -0.097 C  
BRANCH  10  11
HETATM   11  C   UNL     1      -8.123   9.318  68.375  1.00  0.00    -0.106 C  
BRANCH  11  12
HETATM   12  C   UNL     1      -8.071   8.817  66.964  1.00  0.00    -0.099 C  
HETATM   13  C   UNL     1      -9.125   8.271  66.331  1.00  0.00    -0.226 C  
BRANCH  13  14
HETATM   14  C   UNL     1     -10.528   8.058  66.854  1.00  0.00    -0.387 C  
BRANCH  14  15
HETATM   15  C   UNL     1     -10.809   6.684  67.406  1.00  0.00    -0.434 C  
HETATM   16  C   UNL     1     -11.087   6.387  68.684  1.00  0.00    -0.393 C  
BRANCH  16  17
HETATM   17  C   UNL     1     -10.993   7.351  69.821  1.00  0.00    -0.215 C  
BRANCH  17  18
HETATM   18  C   UNL     1     -11.833   6.847  70.963  1.00  0.00    -0.411 C  
HETATM   19  C   UNL     1     -11.440   5.910  71.839  1.00  0.00    -0.287 C  
BRANCH  19  20
HETATM   20  C   UNL     1     -10.123   5.210  71.794  1.00  0.00    -0.260 C  
BRANCH  20  21
HETATM   21  C   UNL     1      -9.593   4.908  73.163  1.00  0.00    -0.154 C  
HETATM   22  C   UNL     1      -8.886   5.773  73.908  1.00  0.00    -0.126 C  
BRANCH  22  23
HETATM   23  C   UNL     1      -8.477   7.152  73.490  1.00  0.00    -0.154 C  
HETATM   24  C   UNL     1      -6.967   7.293  73.425  1.00  0.00    -0.071 C  
ENDBRANCH  22  23
ENDBRANCH  20  21
ENDBRANCH  19  20
ENDBRANCH  17  18
ENDBRANCH  16  17
ENDBRANCH  14  15
ENDBRANCH  13  14
ENDBRANCH  11  12
ENDBRANCH  10  11
ENDBRANCH   8   9
ENDBRANCH   7   8
ENDBRANCH   6   7
ENDBRANCH   4   6
ENDBRANCH   3   4
ENDBRANCH   2   3
TORSDOF 15
ENDMDL
MODEL      387
REMARK 921   NORMALIZED FREE ENERGY PREDICTED BY IDOCK:   -2.96 KCAL/MOL
REMARK 922        TOTAL FREE ENERGY PREDICTED BY IDOCK:   -8.11 KCAL/MOL
REMARK 923 INTER-LIGAND FREE ENERGY PREDICTED BY IDOCK:   -6.43 KCAL/MOL
REMARK 924 INTRA-LIGAND FREE ENERGY PREDICTED BY IDOCK:   -1.68 KCAL/MOL
REMARK 927      BINDING AFFINITY PREDICTED BY RF-SCORE:    0.00 PKD
ROOT
HETATM    1  C   UNL     1      -7.613   5.602  71.676  1.00  0.00    -0.099 C  
HETATM    2  C   UNL     1      -8.662   4.547  71.977  1.00  0.00    -0.117 C  
ENDROOT
BRANCH   2   3
HETATM    3  O   UNL     1      -9.932   5.074  71.575  1.00  0.00    -0.175 OA 
BRANCH   3   4
HETATM    4  C   UNL     1     -10.788   5.320  72.606  1.00  0.00    -0.253 C  
HETATM    5  O   UNL     1     -10.743   4.794  73.706  1.00  0.00    -0.244 OA 
BRANCH   4   6
HETATM    6  C   UNL     1     -11.729   6.420  72.199  1.00  0.00    -0.366 C  
BRANCH   6   7
HETATM    7  C   UNL     1     -11.160   7.191  71.003  1.00  0.00    -0.287 C  
BRANCH   7   8
HETATM    8  C   UNL     1     -10.335   8.392  71.440  1.00  0.00    -0.285 C  
BRANCH   8   9
HETATM    9  C   UNL     1     -10.925   9.696  70.961  1.00  0.00    -0.431 C  
HETATM   10  C   UNL     1     -10.821  10.185  69.715  1.00  0.00    -0.320 C  
BRANCH  10  11
HETATM   11  C   UNL     1      -9.966   9.585  68.648  1.00  0.00    -0.181 C  
BRANCH  11  12
HETATM   12  C   UNL     1     -10.623   9.441  67.310  1.00  0.00    -0.314 C  
HETATM   13  C   UNL     1     -10.115   9.955  66.175  1.00  0.00    -0.315 C  
BRANCH  13  14
HETATM   14  C   UNL     1      -8.834  10.737  65.989  1.00  0.00    -0.192 C  
BRANCH  14  15
HETATM   15  C   UNL     1      -8.421  11.585  67.164  1.00  0.00    -0.158 C  
HETATM   16  C   UNL     1      -8.961  12.761  67.521  1.00  0.00    -0.192 C  
BRANCH  16  17
HETATM   17  C   UNL     1      -9.955  13.521  66.705  1.00  0.00    -0.269 C  
BRANCH  17  18
HETATM   18  C   UNL     1     -11.335  12.998  67.000  1.00  0.00    -0.343 C  
HETATM   19  C   UNL     1     -12.033  13.279  68.110  1.00  0.00    -0.340 C  
BRANCH  19  20
HETATM   20  C   UNL     1     -11.534  14.130  69.229  1.00  0.00    -0.337 C  
BRANCH  20  21
HETATM   21  C   UNL     1     -11.906  15.572  69.057  1.00  0.00    -0.373 C  
HETATM   22  C   UNL     1     -11.020  16.567  68.901  1.00  0.00    -0.325 C  
BRANCH  22  23
HETATM   23  C   UNL     1      -9.529  16.419  68.914  1.00  0.00    -0.254 C  
HETATM   24  C   UNL     1      -8.853  17.478  68.062  1.00  0.00    -0.258 C  
ENDBRANCH  22  23
ENDBRANCH  20  21
ENDBRANCH  19  20
ENDBRANCH  17  18
ENDBRANCH  16  17
ENDBRANCH  14  15
ENDBRANCH  13  14
ENDBRANCH  11  12
ENDBRANCH  10  11
ENDBRANCH   8   9
ENDBRANCH   7   8
ENDBRANCH   6   7
ENDBRANCH   4   6
ENDBRANCH   3   4
ENDBRANCH   2   3
TORSDOF 15
ENDMDL
MODEL      388
REMARK 921   NORMALIZED FREE ENERGY PREDICTED BY IDOCK:   -2.96 KCAL/MOL
REMARK 922        TOTAL FREE ENERGY PREDICTED BY IDOCK:   -8.10 KCAL/MOL
REMARK 923 INTER-LIGAND FREE ENERGY PREDICTED BY IDOCK:   -6.69 KCAL/MOL
REMARK 924 INTRA-LIGAND FREE ENERGY PREDICTED BY IDOCK:   -1.41 KCAL/MOL
REMARK 927      BINDING AFFINITY PREDICTED BY RF-SCORE:    0.00 PKD
ROOT
HETATM    1  C   UNL     1      -6.310   5.671  73.843  1.00  0.00    -0.068 C  
HETATM    2  C   UNL     1      -7.774   5.321  74.036  1.00  0.00    -0.097 C  
ENDROOT
BRANCH   2   3
HETATM    3  O   UNL     1      -7.878   3.892  74.050  1.00  0.00    -0.080 OA 
BRANCH   3   4
HETATM    4  C   UNL     1      -8.065   3.332  72.822  1.00  0.00    -0.072 C  
HETATM    5  O   UNL     1      -7.239   2.676  72.208  1.00  0.00    -0.036 OA 
BRANCH   4   6
HETATM    6  C   UNL     1      -9.489   3.567  72.398  1.00  0.00    -0.183 C  
BRANCH   6   7
HETATM    7  C   UNL     1      -9.546   3.945  70.914  1.00  0.00    -0.258 C  
BRANCH   7   8
HETATM    8  C   UNL     1      -9.575   5.452  70.711  1.00  0.00    -0.228 C  
BRANCH   8   9
HETATM    9  C   UNL     1     -10.612   5.873  69.698  1.00  0.00    -0.383 C  
HETATM   10  C   UNL     1     -11.776   6.478  69.982  1.00  0.00    -0.388 C  
BRANCH  10  11
HETATM   11  C   UNL     1     -12.296   6.684  71.367  1.00  0.00    -0.348 C  
BRANCH  11  12
HETATM   12  C   UNL     1     -13.650   7.320  71.451  1.00  0.00    -0.399 C  
HETATM   13  C   UNL     1     -13.851   8.589  71.849  1.00  0.00    -0.473 C  
BRANCH  13  14
HETATM   14  C   UNL     1     -12.822   9.616  72.267  1.00  0.00    -0.407 C  
BRANCH  14  15
HETATM   15  C   UNL     1     -11.740   9.894  71.255  1.00  0.00    -0.472 C  
HETATM   16  C   UNL     1     -11.666  10.966  70.452  1.00  0.00    -0.444 C  
BRANCH  16  17
HETATM   17  C   UNL     1     -12.743  11.989  70.297  1.00  0.00     0.079 C  
BRANCH  17  18
HETATM   18  C   UNL     1     -12.162  13.355  70.546  1.00  0.00    -0.425 C  
HETATM   19  C   UNL     1     -11.730  14.183  69.584  1.00  0.00    -0.372 C  
BRANCH  19  20
HETATM   20  C   UNL     1     -11.736  13.863  68.127  1.00  0.00    -0.388 C  
BRANCH  20  21
HETATM   21  C   UNL     1     -10.356  13.845  67.543  1.00  0.00    -0.245 C  
HETATM   22  C   UNL     1     -10.091  13.698  66.235  1.00  0.00    -0.301 C  
BRANCH  22  23
HETATM   23  C   UNL     1     -11.109  13.488  65.157  1.00  0.00    -0.326 C  
HETATM   24  C   UNL     1     -11.092  12.061  64.639  1.00  0.00    -0.375 C  
ENDBRANCH  22  23
ENDBRANCH  20  21
ENDBRANCH  19  20
ENDBRANCH  17  18
ENDBRANCH  16  17
ENDBRANCH  14  15
ENDBRANCH  13  14
ENDBRANCH  11  12
ENDBRANCH  10  11
ENDBRANCH   8   9
ENDBRANCH   7   8
ENDBRANCH   6   7
ENDBRANCH   4   6
ENDBRANCH   3   4
ENDBRANCH   2   3
TORSDOF 15
ENDMDL
MODEL      389
REMARK 921   NORMALIZED FREE ENERGY PREDICTED BY IDOCK:   -2.95 KCAL/MOL
REMARK 922        TOTAL FREE ENERGY PREDICTED BY IDOCK:   -8.09 KCAL/MOL
REMARK 923 INTER-LIGAND FREE ENERGY PREDICTED BY IDOCK:   -5.91 KCAL/MOL
REMARK 924 INTRA-LIGAND FREE ENERGY PREDICTED BY IDOCK:   -2.18 KCAL/MOL
REMARK 927      BINDING AFFINITY PREDICTED BY RF-SCORE:    0.00 PKD
ROOT
HETATM    1  C   UNL     1     -10.775  19.716  67.047  1.00  0.00    -0.575 C  
HETATM    2  C   UNL     1      -9.624  19.649  68.034  1.00  0.00    -0.369 C  
ENDROOT
BRANCH   2   3
HETATM    3  O   UNL     1      -8.425  19.970  67.320  1.00  0.00    -0.310 OA 
BRANCH   3   4
HETATM    4  C   UNL     1      -7.846  18.909  66.691  1.00  0.00    -0.259 C  
HETATM    5  O   UNL     1      -7.770  18.756  65.483  1.00  0.00    -0.446 OA 
BRANCH   4   6
HETATM    6  C   UNL     1      -7.228  18.013  67.729  1.00  0.00    -0.211 C  
BRANCH   6   7
HETATM    7  C   UNL     1      -7.128  16.578  67.201  1.00  0.00    -0.228 C  
BRANCH   7   8
HETATM    8  C   UNL     1      -8.230  15.689  67.755  1.00  0.00    -0.155 C  
BRANCH   8   9
HETATM    9  C   UNL     1      -8.001  14.231  67.442  1.00  0.00    -0.211 C  
HETATM   10  C   UNL     1      -8.837  13.444  66.745  1.00  0.00    -0.145 C  
BRANCH  10  11
HETATM   11  C   UNL     1     -10.205  13.856  66.309  1.00  0.00    -0.299 C  
BRANCH  11  12
HETATM   12  C   UNL     1     -11.196  12.740  66.179  1.00  0.00    -0.336 C  
HETATM   13  C   UNL     1     -11.885  12.236  67.218  1.00  0.00    -0.330 C  
BRANCH  13  14
HETATM   14  C   UNL     1     -11.839  12.658  68.670  1.00  0.00    -0.342 C  
BRANCH  14  15
HETATM   15  C   UNL     1     -10.664  12.134  69.456  1.00  0.00     0.170 C  
HETATM   16  C   UNL     1     -10.446  10.853  69.793  1.00  0.00    -0.056 C  
BRANCH  16  17
HETATM   17  C   UNL     1     -11.427   9.744  69.598  1.00  0.00    -0.103 C  
BRANCH  17  18
HETATM   18  C   UNL     1     -11.103   8.629  70.556  1.00  0.00    -0.268 C  
HETATM   19  C   UNL     1     -11.046   7.332  70.220  1.00  0.00    -0.289 C  
BRANCH  19  20
HETATM   20  C   UNL     1     -11.321   6.800  68.854  1.00  0.00    -0.127 C  
BRANCH  20  21
HETATM   21  C   UNL     1     -10.063   6.541  68.080  1.00  0.00    -0.170 C  
HETATM   22  C   UNL     1      -9.589   7.347  67.117  1.00  0.00    -0.204 C  
BRANCH  22  23
HETATM   23  C   UNL     1     -10.246   8.602  66.628  1.00  0.00    -0.343 C  
HETATM   24  C   UNL     1      -9.325   9.400  65.722  1.00  0.00    -0.301 C  
ENDBRANCH  22  23
ENDBRANCH  20  21
ENDBRANCH  19  20
ENDBRANCH  17  18
ENDBRANCH  16  17
ENDBRANCH  14  15
ENDBRANCH  13  14
ENDBRANCH  11  12
ENDBRANCH  10  11
ENDBRANCH   8   9
ENDBRANCH   7   8
ENDBRANCH   6   7
ENDBRANCH   4   6
ENDBRANCH   3   4
ENDBRANCH   2   3
TORSDOF 15
ENDMDL
MODEL      390
REMARK 921   NORMALIZED FREE ENERGY PREDICTED BY IDOCK:   -2.95 KCAL/MOL
REMARK 922        TOTAL FREE ENERGY PREDICTED BY IDOCK:   -8.08 KCAL/MOL
REMARK 923 INTER-LIGAND FREE ENERGY PREDICTED BY IDOCK:   -5.63 KCAL/MOL
REMARK 924 INTRA-LIGAND FREE ENERGY PREDICTED BY IDOCK:   -2.45 KCAL/MOL
REMARK 927      BINDING AFFINITY PREDICTED BY RF-SCORE:    0.00 PKD
ROOT
HETATM    1  C   UNL     1     -12.338   7.993  71.583  1.00  0.00    -0.344 C  
HETATM    2  C   UNL     1     -12.170   9.483  71.344  1.00  0.00    -0.371 C  
ENDROOT
BRANCH   2   3
HETATM    3  O   UNL     1     -10.913   9.676  70.685  1.00  0.00    -0.268 OA 
BRANCH   3   4
HETATM    4  C   UNL     1     -10.939  10.606  69.690  1.00  0.00    -0.278 C  
HETATM    5  O   UNL     1     -11.393  11.735  69.786  1.00  0.00    -0.244 OA 
BRANCH   4   6
HETATM    6  C   UNL     1     -10.222  10.049  68.491  1.00  0.00    -0.196 C  
BRANCH   6   7
HETATM    7  C   UNL     1      -8.928  10.828  68.236  1.00  0.00    -0.143 C  
BRANCH   7   8
HETATM    8  C   UNL     1      -8.642  10.989  66.751  1.00  0.00    -0.152 C  
BRANCH   8   9
HETATM    9  C   UNL     1      -9.078   9.787  65.950  1.00  0.00    -0.209 C  
HETATM   10  C   UNL     1      -9.369   9.790  64.640  1.00  0.00    -0.318 C  
BRANCH  10  11
HETATM   11  C   UNL     1      -9.458  11.026  63.804  1.00  0.00    -0.286 C  
BRANCH  11  12
HETATM   12  C   UNL     1     -10.847  11.523  63.548  1.00  0.00    -0.473 C  
HETATM   13  C   UNL     1     -11.265  12.759  63.874  1.00  0.00    -0.491 C  
BRANCH  13  14
HETATM   14  C   UNL     1     -10.478  13.876  64.523  1.00  0.00    -0.334 C  
BRANCH  14  15
HETATM   15  C   UNL     1     -10.473  13.869  66.030  1.00  0.00    -0.299 C  
HETATM   16  C   UNL     1     -10.278  14.932  66.825  1.00  0.00    -0.259 C  
BRANCH  16  17
HETATM   17  C   UNL     1      -9.853  16.283  66.349  1.00  0.00    -0.310 C  
BRANCH  17  18
HETATM   18  C   UNL     1     -10.319  17.320  67.336  1.00  0.00    -0.338 C  
HETATM   19  C   UNL     1      -9.567  17.813  68.331  1.00  0.00    -0.323 C  
BRANCH  19  20
HETATM   20  C   UNL     1      -8.167  17.389  68.622  1.00  0.00    -0.264 C  
BRANCH  20  21
HETATM   21  C   UNL     1      -8.111  16.115  69.411  1.00  0.00    -0.097 C  
HETATM   22  C   UNL     1      -7.202  15.147  69.220  1.00  0.00    -0.182 C  
BRANCH  22  23
HETATM   23  C   UNL     1      -6.128  15.152  68.175  1.00  0.00    -0.142 C  
HETATM   24  C   UNL     1      -6.381  14.105  67.106  1.00  0.00     0.688 C  
ENDBRANCH  22  23
ENDBRANCH  20  21
ENDBRANCH  19  20
ENDBRANCH  17  18
ENDBRANCH  16  17
ENDBRANCH  14  15
ENDBRANCH  13  14
ENDBRANCH  11  12
ENDBRANCH  10  11
ENDBRANCH   8   9
ENDBRANCH   7   8
ENDBRANCH   6   7
ENDBRANCH   4   6
ENDBRANCH   3   4
ENDBRANCH   2   3
TORSDOF 15
ENDMDL
MODEL      391
REMARK 921   NORMALIZED FREE ENERGY PREDICTED BY IDOCK:   -2.94 KCAL/MOL
REMARK 922        TOTAL FREE ENERGY PREDICTED BY IDOCK:   -8.06 KCAL/MOL
REMARK 923 INTER-LIGAND FREE ENERGY PREDICTED BY IDOCK:   -6.02 KCAL/MOL
REMARK 924 INTRA-LIGAND FREE ENERGY PREDICTED BY IDOCK:   -2.05 KCAL/MOL
REMARK 927      BINDING AFFINITY PREDICTED BY RF-SCORE:    0.00 PKD
ROOT
HETATM    1  C   UNL     1      -8.406   7.535  70.904  1.00  0.00    -0.114 C  
HETATM    2  C   UNL     1      -7.355   8.630  70.860  1.00  0.00    -0.077 C  
ENDROOT
BRANCH   2   3
HETATM    3  O   UNL     1      -8.042   9.882  70.744  1.00  0.00    -0.212 OA 
BRANCH   3   4
HETATM    4  C   UNL     1      -9.054   9.883  69.832  1.00  0.00    -0.210 C  
HETATM    5  O   UNL     1     -10.241  10.009  70.090  1.00  0.00    -0.262 OA 
BRANCH   4   6
HETATM    6  C   UNL     1      -8.460   9.811  68.452  1.00  0.00    -0.114 C  
BRANCH   6   7
HETATM    7  C   UNL     1      -9.350  10.553  67.451  1.00  0.00    -0.158 C  
BRANCH   7   8
HETATM    8  C   UNL     1     -10.145   9.596  66.576  1.00  0.00    -0.314 C  
BRANCH   8   9
HETATM    9  C   UNL     1      -9.352   8.367  66.205  1.00  0.00    -0.267 C  
HETATM   10  C   UNL     1      -8.343   8.331  65.320  1.00  0.00    -0.175 C  
BRANCH  10  11
HETATM   11  C   UNL     1      -7.953   9.478  64.447  1.00  0.00    -0.135 C  
BRANCH  11  12
HETATM   12  C   UNL     1      -8.740   9.609  63.179  1.00  0.00    -0.236 C  
HETATM   13  C   UNL     1      -9.617  10.603  62.948  1.00  0.00    -0.358 C  
BRANCH  13  14
HETATM   14  C   UNL     1      -9.984  11.759  63.851  1.00  0.00    -0.356 C  
BRANCH  14  15
HETATM   15  C   UNL     1     -11.241  12.499  63.471  1.00  0.00    -0.525 C  
HETATM   16  C   UNL     1     -11.695  13.629  64.036  1.00  0.00    -0.405 C  
BRANCH  16  17
HETATM   17  C   UNL     1     -11.121  14.255  65.265  1.00  0.00    -0.335 C  
BRANCH  17  18
HETATM   18  C   UNL     1     -11.695  13.572  66.477  1.00  0.00    -0.408 C  
HETATM   19  C   UNL     1     -11.638  14.063  67.724  1.00  0.00    -0.378 C  
BRANCH  19  20
HETATM   20  C   UNL     1     -10.972  15.345  68.097  1.00  0.00    -0.297 C  
BRANCH  20  21
HETATM   21  C   UNL     1     -10.123  15.209  69.325  1.00  0.00    -0.246 C  
HETATM   22  C   UNL     1      -8.792  15.031  69.307  1.00  0.00    -0.157 C  
BRANCH  22  23
HETATM   23  C   UNL     1      -7.946  14.899  68.078  1.00  0.00    -0.132 C  
HETATM   24  C   UNL     1      -7.405  13.490  67.919  1.00  0.00    -0.149 C  
ENDBRANCH  22  23
ENDBRANCH  20  21
ENDBRANCH  19  20
ENDBRANCH  17  18
ENDBRANCH  16  17
ENDBRANCH  14  15
ENDBRANCH  13  14
ENDBRANCH  11  12
ENDBRANCH  10  11
ENDBRANCH   8   9
ENDBRANCH   7   8
ENDBRANCH   6   7
ENDBRANCH   4   6
ENDBRANCH   3   4
ENDBRANCH   2   3
TORSDOF 15
ENDMDL
MODEL      392
REMARK 921   NORMALIZED FREE ENERGY PREDICTED BY IDOCK:   -2.93 KCAL/MOL
REMARK 922        TOTAL FREE ENERGY PREDICTED BY IDOCK:   -8.05 KCAL/MOL
REMARK 923 INTER-LIGAND FREE ENERGY PREDICTED BY IDOCK:   -6.17 KCAL/MOL
REMARK 924 INTRA-LIGAND FREE ENERGY PREDICTED BY IDOCK:   -1.87 KCAL/MOL
REMARK 927      BINDING AFFINITY PREDICTED BY RF-SCORE:    0.00 PKD
ROOT
HETATM    1  C   UNL     1     -10.630  18.629  66.545  1.00  0.00    -0.409 C  
HETATM    2  C   UNL     1      -9.903  17.457  65.912  1.00  0.00    -0.103 C  
ENDROOT
BRANCH   2   3
HETATM    3  O   UNL     1     -10.771  16.320  65.986  1.00  0.00    -0.295 OA 
BRANCH   3   4
HETATM    4  C   UNL     1     -11.300  15.941  64.788  1.00  0.00    -0.309 C  
HETATM    5  O   UNL     1     -11.580  16.691  63.867  1.00  0.00    -1.204 OA 
BRANCH   4   6
HETATM    6  C   UNL     1     -11.383  14.439  64.752  1.00  0.00    -0.388 C  
BRANCH   6   7
HETATM    7  C   UNL     1     -10.492  13.831  65.840  1.00  0.00    -0.300 C  
BRANCH   7   8
HETATM    8  C   UNL     1     -10.637  12.319  65.917  1.00  0.00    -0.290 C  
BRANCH   8   9
HETATM    9  C   UNL     1     -11.636  11.893  66.964  1.00  0.00    -0.365 C  
HETATM   10  C   UNL     1     -11.382  11.062  67.988  1.00  0.00    -0.374 C  
BRANCH  10  11
HETATM   11  C   UNL     1     -10.105  10.304  68.154  1.00  0.00    -0.175 C  
BRANCH  11  12
HETATM   12  C   UNL     1      -9.047  11.006  68.949  1.00  0.00    -0.132 C  
HETATM   13  C   UNL     1      -7.729  10.841  68.738  1.00  0.00    -0.121 C  
BRANCH  13  14
HETATM   14  C   UNL     1      -7.044   9.974  67.705  1.00  0.00    -0.087 C  
BRANCH  14  15
HETATM   15  C   UNL     1      -6.928  10.580  66.330  1.00  0.00    -0.128 C  
HETATM   16  C   UNL     1      -7.640  10.230  65.248  1.00  0.00    -0.143 C  
BRANCH  16  17
HETATM   17  C   UNL     1      -8.553   9.050  65.177  1.00  0.00    -0.204 C  
BRANCH  17  18
HETATM   18  C   UNL     1      -7.992   8.054  64.197  1.00  0.00    -0.137 C  
HETATM   19  C   UNL     1      -8.011   6.724  64.370  1.00  0.00    -0.096 C  
BRANCH  19  20
HETATM   20  C   UNL     1      -8.567   6.037  65.572  1.00  0.00    -0.145 C  
BRANCH  20  21
HETATM   21  C   UNL     1      -8.117   6.676  66.851  1.00  0.00    -0.113 C  
HETATM   22  C   UNL     1      -8.578   6.340  68.067  1.00  0.00    -0.116 C  
BRANCH  22  23
HETATM   23  C   UNL     1      -9.633   5.314  68.347  1.00  0.00    -0.176 C  
HETATM   24  C   UNL     1     -10.511   5.717  69.518  1.00  0.00    -0.364 C  
ENDBRANCH  22  23
ENDBRANCH  20  21
ENDBRANCH  19  20
ENDBRANCH  17  18
ENDBRANCH  16  17
ENDBRANCH  14  15
ENDBRANCH  13  14
ENDBRANCH  11  12
ENDBRANCH  10  11
ENDBRANCH   8   9
ENDBRANCH   7   8
ENDBRANCH   6   7
ENDBRANCH   4   6
ENDBRANCH   3   4
ENDBRANCH   2   3
TORSDOF 15
ENDMDL
MODEL      393
REMARK 921   NORMALIZED FREE ENERGY PREDICTED BY IDOCK:   -2.93 KCAL/MOL
REMARK 922        TOTAL FREE ENERGY PREDICTED BY IDOCK:   -8.04 KCAL/MOL
REMARK 923 INTER-LIGAND FREE ENERGY PREDICTED BY IDOCK:   -6.09 KCAL/MOL
REMARK 924 INTRA-LIGAND FREE ENERGY PREDICTED BY IDOCK:   -1.95 KCAL/MOL
REMARK 927      BINDING AFFINITY PREDICTED BY RF-SCORE:    0.00 PKD
ROOT
HETATM    1  C   UNL     1     -10.640   8.038  67.327  1.00  0.00    -0.360 C  
HETATM    2  C   UNL     1     -10.515   6.904  68.329  1.00  0.00    -0.206 C  
ENDROOT
BRANCH   2   3
HETATM    3  O   UNL     1      -9.119   6.700  68.577  1.00  0.00    -0.130 OA 
BRANCH   3   4
HETATM    4  C   UNL     1      -8.745   6.905  69.871  1.00  0.00    -0.142 C  
HETATM    5  O   UNL     1      -8.868   6.101  70.781  1.00  0.00    -0.137 OA 
BRANCH   4   6
HETATM    6  C   UNL     1      -8.061   8.241  69.969  1.00  0.00    -0.116 C  
BRANCH   6   7
HETATM    7  C   UNL     1      -7.318   8.555  68.667  1.00  0.00    -0.088 C  
BRANCH   7   8
HETATM    8  C   UNL     1      -7.446  10.019  68.276  1.00  0.00    -0.079 C  
BRANCH   8   9
HETATM    9  C   UNL     1      -8.599  10.699  68.973  1.00  0.00    -0.150 C  
HETATM   10  C   UNL     1      -9.315  11.720  68.476  1.00  0.00    -0.158 C  
BRANCH  10  11
HETATM   11  C   UNL     1      -8.974  12.447  67.216  1.00  0.00    -0.190 C  
BRANCH  11  12
HETATM   12  C   UNL     1      -8.098  13.649  67.391  1.00  0.00    -0.184 C  
HETATM   13  C   UNL     1      -8.390  14.860  66.884  1.00  0.00    -0.212 C  
BRANCH  13  14
HETATM   14  C   UNL     1      -9.602  15.274  66.080  1.00  0.00    -0.353 C  
BRANCH  14  15
HETATM   15  C   UNL     1     -10.878  14.544  66.415  1.00  0.00    -0.318 C  
HETATM   16  C   UNL     1     -11.781  14.912  67.336  1.00  0.00    -0.311 C  
BRANCH  16  17
HETATM   17  C   UNL     1     -11.591  16.021  68.318  1.00  0.00    -0.232 C  
BRANCH  17  18
HETATM   18  C   UNL     1     -10.842  15.495  69.513  1.00  0.00    -0.267 C  
HETATM   19  C   UNL     1     -11.349  14.638  70.411  1.00  0.00    -0.232 C  
BRANCH  19  20
HETATM   20  C   UNL     1     -12.740  14.099  70.373  1.00  0.00    -0.341 C  
BRANCH  20  21
HETATM   21  C   UNL     1     -13.111  13.392  71.641  1.00  0.00    -0.463 C  
HETATM   22  C   UNL     1     -12.958  12.074  71.844  1.00  0.00    -0.428 C  
BRANCH  22  23
HETATM   23  C   UNL     1     -12.436  11.091  70.841  1.00  0.00    -0.509 C  
HETATM   24  C   UNL     1     -12.009   9.792  71.498  1.00  0.00    -0.488 C  
ENDBRANCH  22  23
ENDBRANCH  20  21
ENDBRANCH  19  20
ENDBRANCH  17  18
ENDBRANCH  16  17
ENDBRANCH  14  15
ENDBRANCH  13  14
ENDBRANCH  11  12
ENDBRANCH  10  11
ENDBRANCH   8   9
ENDBRANCH   7   8
ENDBRANCH   6   7
ENDBRANCH   4   6
ENDBRANCH   3   4
ENDBRANCH   2   3
TORSDOF 15
ENDMDL
MODEL      394
REMARK 921   NORMALIZED FREE ENERGY PREDICTED BY IDOCK:   -2.92 KCAL/MOL
REMARK 922        TOTAL FREE ENERGY PREDICTED BY IDOCK:   -8.03 KCAL/MOL
REMARK 923 INTER-LIGAND FREE ENERGY PREDICTED BY IDOCK:   -5.42 KCAL/MOL
REMARK 924 INTRA-LIGAND FREE ENERGY PREDICTED BY IDOCK:   -2.62 KCAL/MOL
REMARK 927      BINDING AFFINITY PREDICTED BY RF-SCORE:    0.00 PKD
ROOT
HETATM    1  C   UNL     1     -10.325  16.379  69.332  1.00  0.00    -0.290 C  
HETATM    2  C   UNL     1     -10.647  15.654  70.626  1.00  0.00    -0.112 C  
ENDROOT
BRANCH   2   3
HETATM    3  O   UNL     1     -11.476  14.533  70.298  1.00  0.00    -0.264 OA 
BRANCH   3   4
HETATM    4  C   UNL     1     -12.677  14.518  70.943  1.00  0.00    -0.344 C  
HETATM    5  O   UNL     1     -13.275  15.500  71.352  1.00  0.00    -0.467 OA 
BRANCH   4   6
HETATM    6  C   UNL     1     -13.191  13.105  70.971  1.00  0.00    -0.019 C  
BRANCH   6   7
HETATM    7  C   UNL     1     -12.039  12.116  70.764  1.00  0.00    -0.279 C  
BRANCH   7   8
HETATM    8  C   UNL     1     -11.944  11.646  69.321  1.00  0.00    -0.382 C  
BRANCH   8   9
HETATM    9  C   UNL     1     -10.514  11.493  68.863  1.00  0.00    -0.212 C  
HETATM   10  C   UNL     1     -10.081  10.614  67.945  1.00  0.00    -0.194 C  
BRANCH  10  11
HETATM   11  C   UNL     1     -10.930   9.538  67.351  1.00  0.00    -0.103 C  
BRANCH  11  12
HETATM   12  C   UNL     1     -10.228   8.632  66.387  1.00  0.00    -0.224 C  
HETATM   13  C   UNL     1     -10.199   7.293  66.514  1.00  0.00    -0.139 C  
BRANCH  13  14
HETATM   14  C   UNL     1     -10.838   6.437  67.584  1.00  0.00    -0.425 C  
BRANCH  14  15
HETATM   15  C   UNL     1     -10.122   5.146  67.891  1.00  0.00    -0.193 C  
HETATM   16  C   UNL     1      -9.699   4.745  69.100  1.00  0.00    -0.258 C  
BRANCH  16  17
HETATM   17  C   UNL     1      -9.709   5.593  70.329  1.00  0.00    -0.232 C  
BRANCH  17  18
HETATM   18  C   UNL     1      -8.345   6.200  70.517  1.00  0.00    -0.129 C  
HETATM   19  C   UNL     1      -8.101   7.518  70.574  1.00  0.00    -0.106 C  
BRANCH  19  20
HETATM   20  C   UNL     1      -9.143   8.577  70.432  1.00  0.00    -0.164 C  
BRANCH  20  21
HETATM   21  C   UNL     1      -9.526   9.177  71.751  1.00  0.00    -0.097 C  
HETATM   22  C   UNL     1     -10.677   8.920  72.392  1.00  0.00    -0.075 C  
BRANCH  22  23
HETATM   23  C   UNL     1     -11.778   8.036  71.889  1.00  0.00    -0.351 C  
HETATM   24  C   UNL     1     -12.995   8.839  71.469  1.00  0.00    -0.359 C  
ENDBRANCH  22  23
ENDBRANCH  20  21
ENDBRANCH  19  20
ENDBRANCH  17  18
ENDBRANCH  16  17
ENDBRANCH  14  15
ENDBRANCH  13  14
ENDBRANCH  11  12
ENDBRANCH  10  11
ENDBRANCH   8   9
ENDBRANCH   7   8
ENDBRANCH   6   7
ENDBRANCH   4   6
ENDBRANCH   3   4
ENDBRANCH   2   3
TORSDOF 15
ENDMDL
MODEL      395
REMARK 921   NORMALIZED FREE ENERGY PREDICTED BY IDOCK:   -2.92 KCAL/MOL
REMARK 922        TOTAL FREE ENERGY PREDICTED BY IDOCK:   -8.02 KCAL/MOL
REMARK 923 INTER-LIGAND FREE ENERGY PREDICTED BY IDOCK:   -5.83 KCAL/MOL
REMARK 924 INTRA-LIGAND FREE ENERGY PREDICTED BY IDOCK:   -2.19 KCAL/MOL
REMARK 927      BINDING AFFINITY PREDICTED BY RF-SCORE:    0.00 PKD
ROOT
HETATM    1  C   UNL     1      -6.368  17.632  69.227  1.00  0.00    -0.247 C  
HETATM    2  C   UNL     1      -7.260  16.425  69.000  1.00  0.00    -0.215 C  
ENDROOT
BRANCH   2   3
HETATM    3  O   UNL     1      -8.432  16.879  68.312  1.00  0.00    -0.213 OA 
BRANCH   3   4
HETATM    4  C   UNL     1      -9.604  16.535  68.916  1.00  0.00    -0.261 C  
HETATM    5  O   UNL     1      -9.727  16.184  70.079  1.00  0.00     0.005 OA 
BRANCH   4   6
HETATM    6  C   UNL     1     -10.731  16.759  67.945  1.00  0.00    -0.347 C  
BRANCH   6   7
HETATM    7  C   UNL     1     -10.741  15.658  66.880  1.00  0.00    -0.307 C  
BRANCH   7   8
HETATM    8  C   UNL     1     -11.620  14.484  67.281  1.00  0.00    -0.405 C  
BRANCH   8   9
HETATM    9  C   UNL     1     -12.174  13.749  66.085  1.00  0.00    -0.499 C  
HETATM   10  C   UNL     1     -11.842  12.501  65.717  1.00  0.00    -0.494 C  
BRANCH  10  11
HETATM   11  C   UNL     1     -10.747  11.705  66.349  1.00  0.00    -0.316 C  
BRANCH  11  12
HETATM   12  C   UNL     1     -10.173  10.619  65.492  1.00  0.00    -0.329 C  
HETATM   13  C   UNL     1      -9.569   9.524  65.987  1.00  0.00    -0.316 C  
BRANCH  13  14
HETATM   14  C   UNL     1      -9.351   9.146  67.435  1.00  0.00    -0.161 C  
BRANCH  14  15
HETATM   15  C   UNL     1     -10.478   8.377  68.077  1.00  0.00    -0.242 C  
HETATM   16  C   UNL     1     -11.026   8.631  69.275  1.00  0.00     0.008 C  
BRANCH  16  17
HETATM   17  C   UNL     1     -10.493   9.616  70.263  1.00  0.00    -0.338 C  
BRANCH  17  18
HETATM   18  C   UNL     1     -10.111   8.889  71.524  1.00  0.00    -0.394 C  
HETATM   19  C   UNL     1      -8.865   8.501  71.830  1.00  0.00    -0.284 C  
BRANCH  19  20
HETATM   20  C   UNL     1      -7.676   8.710  70.953  1.00  0.00    -0.104 C  
BRANCH  20  21
HETATM   21  C   UNL     1      -6.700   7.575  71.037  1.00  0.00    -0.043 C  
HETATM   22  C   UNL     1      -6.803   6.437  70.333  1.00  0.00    -0.058 C  
BRANCH  22  23
HETATM   23  C   UNL     1      -7.914   6.093  69.388  1.00  0.00    -0.104 C  
HETATM   24  C   UNL     1      -9.061   5.398  70.099  1.00  0.00    -0.165 C  
ENDBRANCH  22  23
ENDBRANCH  20  21
ENDBRANCH  19  20
ENDBRANCH  17  18
ENDBRANCH  16  17
ENDBRANCH  14  15
ENDBRANCH  13  14
ENDBRANCH  11  12
ENDBRANCH  10  11
ENDBRANCH   8   9
ENDBRANCH   7   8
ENDBRANCH   6   7
ENDBRANCH   4   6
ENDBRANCH   3   4
ENDBRANCH   2   3
TORSDOF 15
ENDMDL
MODEL      396
REMARK 921   NORMALIZED FREE ENERGY PREDICTED BY IDOCK:   -2.91 KCAL/MOL
REMARK 922        TOTAL FREE ENERGY PREDICTED BY IDOCK:   -8.02 KCAL/MOL
REMARK 923 INTER-LIGAND FREE ENERGY PREDICTED BY IDOCK:   -6.15 KCAL/MOL
REMARK 924 INTRA-LIGAND FREE ENERGY PREDICTED BY IDOCK:   -1.87 KCAL/MOL
REMARK 927      BINDING AFFINITY PREDICTED BY RF-SCORE:    0.00 PKD
ROOT
HETATM    1  C   UNL     1      -7.772   4.342  72.459  1.00  0.00    -0.084 C  
HETATM    2  C   UNL     1      -8.428   4.642  73.794  1.00  0.00    -0.104 C  
ENDROOT
BRANCH   2   3
HETATM    3  O   UNL     1      -9.844   4.528  73.614  1.00  0.00    -0.129 OA 
BRANCH   3   4
HETATM    4  C   UNL     1     -10.521   5.704  73.738  1.00  0.00    -0.270 C  
HETATM    5  O   UNL     1     -10.238   6.608  74.508  1.00  0.00    -0.356 OA 
BRANCH   4   6
HETATM    6  C   UNL     1     -11.608   5.746  72.699  1.00  0.00    -0.304 C  
BRANCH   6   7
HETATM    7  C   UNL     1     -11.171   6.603  71.507  1.00  0.00    -0.313 C  
BRANCH   7   8
HETATM    8  C   UNL     1     -11.486   8.076  71.718  1.00  0.00    -0.324 C  
BRANCH   8   9
HETATM    9  C   UNL     1     -10.339   8.969  71.313  1.00  0.00    -0.383 C  
HETATM   10  C   UNL     1     -10.426  10.016  70.477  1.00  0.00    -0.265 C  
BRANCH  10  11
HETATM   11  C   UNL     1     -11.649  10.360  69.692  1.00  0.00    -0.307 C  
BRANCH  11  12
HETATM   12  C   UNL     1     -11.450  11.387  68.619  1.00  0.00    -0.359 C  
HETATM   13  C   UNL     1     -11.786  12.682  68.760  1.00  0.00    -0.364 C  
BRANCH  13  14
HETATM   14  C   UNL     1     -12.394  13.369  69.962  1.00  0.00    -0.294 C  
BRANCH  14  15
HETATM   15  C   UNL     1     -11.468  14.288  70.717  1.00  0.00    -0.082 C  
HETATM   16  C   UNL     1     -11.184  15.560  70.399  1.00  0.00    -0.356 C  
BRANCH  16  17
HETATM   17  C   UNL     1     -11.605  16.235  69.134  1.00  0.00    -0.213 C  
BRANCH  17  18
HETATM   18  C   UNL     1     -10.818  17.508  68.972  1.00  0.00     0.155 C  
HETATM   19  C   UNL     1      -9.629  17.593  68.359  1.00  0.00    -0.310 C  
BRANCH  19  20
HETATM   20  C   UNL     1      -8.897  16.434  67.770  1.00  0.00    -0.189 C  
BRANCH  20  21
HETATM   21  C   UNL     1      -8.936  16.439  66.271  1.00  0.00    -0.368 C  
HETATM   22  C   UNL     1      -9.595  15.535  65.530  1.00  0.00    -0.257 C  
BRANCH  22  23
HETATM   23  C   UNL     1     -10.359  14.360  66.061  1.00  0.00    -0.319 C  
HETATM   24  C   UNL     1     -11.802  14.371  65.594  1.00  0.00    -0.355 C  
ENDBRANCH  22  23
ENDBRANCH  20  21
ENDBRANCH  19  20
ENDBRANCH  17  18
ENDBRANCH  16  17
ENDBRANCH  14  15
ENDBRANCH  13  14
ENDBRANCH  11  12
ENDBRANCH  10  11
ENDBRANCH   8   9
ENDBRANCH   7   8
ENDBRANCH   6   7
ENDBRANCH   4   6
ENDBRANCH   3   4
ENDBRANCH   2   3
TORSDOF 15
ENDMDL
MODEL      397
REMARK 921   NORMALIZED FREE ENERGY PREDICTED BY IDOCK:   -2.91 KCAL/MOL
REMARK 922        TOTAL FREE ENERGY PREDICTED BY IDOCK:   -8.01 KCAL/MOL
REMARK 923 INTER-LIGAND FREE ENERGY PREDICTED BY IDOCK:   -6.08 KCAL/MOL
REMARK 924 INTRA-LIGAND FREE ENERGY PREDICTED BY IDOCK:   -1.93 KCAL/MOL
REMARK 927      BINDING AFFINITY PREDICTED BY RF-SCORE:    0.00 PKD
ROOT
HETATM    1  C   UNL     1     -12.152  13.249  69.250  1.00  0.00    -0.291 C  
HETATM    2  C   UNL     1     -11.554  12.069  69.993  1.00  0.00    -0.195 C  
ENDROOT
BRANCH   2   3
HETATM    3  O   UNL     1     -12.416  10.944  69.782  1.00  0.00    -0.311 OA 
BRANCH   3   4
HETATM    4  C   UNL     1     -12.335   9.987  70.748  1.00  0.00    -0.303 C  
HETATM    5  O   UNL     1     -13.275   9.544  71.389  1.00  0.00    -0.360 OA 
BRANCH   4   6
HETATM    6  C   UNL     1     -10.916   9.493  70.819  1.00  0.00    -0.389 C  
BRANCH   6   7
HETATM    7  C   UNL     1     -10.792   8.131  70.128  1.00  0.00    -0.241 C  
BRANCH   7   8
HETATM    8  C   UNL     1     -10.779   8.260  68.613  1.00  0.00    -0.068 C  
BRANCH   8   9
HETATM    9  C   UNL     1     -10.454   6.953  67.931  1.00  0.00    -0.262 C  
HETATM   10  C   UNL     1      -9.238   6.586  67.494  1.00  0.00    -0.113 C  
BRANCH  10  11
HETATM   11  C   UNL     1      -8.048   7.488  67.475  1.00  0.00    -0.113 C  
BRANCH  11  12
HETATM   12  C   UNL     1      -7.642   7.979  66.119  1.00  0.00    -0.086 C  
HETATM   13  C   UNL     1      -7.925   9.213  65.662  1.00  0.00    -0.107 C  
BRANCH  13  14
HETATM   14  C   UNL     1      -8.660  10.330  66.367  1.00  0.00    -0.138 C  
BRANCH  14  15
HETATM   15  C   UNL     1     -10.125  10.449  66.034  1.00  0.00    -0.307 C  
HETATM   16  C   UNL     1     -10.841  11.584  66.007  1.00  0.00    -0.330 C  
BRANCH  16  17
HETATM   17  C   UNL     1     -10.346  12.912  66.479  1.00  0.00    -0.272 C  
BRANCH  17  18
HETATM   18  C   UNL     1     -11.060  13.999  65.721  1.00  0.00    -0.305 C  
HETATM   19  C   UNL     1     -10.955  15.308  65.991  1.00  0.00    -0.317 C  
BRANCH  19  20
HETATM   20  C   UNL     1     -10.136  15.880  67.099  1.00  0.00    -0.264 C  
BRANCH  20  21
HETATM   21  C   UNL     1      -8.895  16.555  66.599  1.00  0.00    -0.288 C  
HETATM   22  C   UNL     1      -8.624  17.859  66.767  1.00  0.00    -0.271 C  
BRANCH  22  23
HETATM   23  C   UNL     1      -9.519  18.857  67.436  1.00  0.00    -0.334 C  
HETATM   24  C   UNL     1      -8.865  19.460  68.666  1.00  0.00    -0.417 C  
ENDBRANCH  22  23
ENDBRANCH  20  21
ENDBRANCH  19  20
ENDBRANCH  17  18
ENDBRANCH  16  17
ENDBRANCH  14  15
ENDBRANCH  13  14
ENDBRANCH  11  12
ENDBRANCH  10  11
ENDBRANCH   8   9
ENDBRANCH   7   8
ENDBRANCH   6   7
ENDBRANCH   4   6
ENDBRANCH   3   4
ENDBRANCH   2   3
TORSDOF 15
ENDMDL
MODEL      398
REMARK 921   NORMALIZED FREE ENERGY PREDICTED BY IDOCK:   -2.90 KCAL/MOL
REMARK 922        TOTAL FREE ENERGY PREDICTED BY IDOCK:   -7.99 KCAL/MOL
REMARK 923 INTER-LIGAND FREE ENERGY PREDICTED BY IDOCK:   -6.05 KCAL/MOL
REMARK 924 INTRA-LIGAND FREE ENERGY PREDICTED BY IDOCK:   -1.95 KCAL/MOL
REMARK 927      BINDING AFFINITY PREDICTED BY RF-SCORE:    0.00 PKD
ROOT
HETATM    1  C   UNL     1      -6.188  19.429  69.001  1.00  0.00    -0.300 C  
HETATM    2  C   UNL     1      -7.402  19.724  68.139  1.00  0.00    -0.303 C  
ENDROOT
BRANCH   2   3
HETATM    3  O   UNL     1      -7.158  19.165  66.843  1.00  0.00    -0.203 OA 
BRANCH   3   4
HETATM    4  C   UNL     1      -7.099  17.804  66.822  1.00  0.00    -0.201 C  
HETATM    5  O   UNL     1      -6.223  17.140  66.291  1.00  0.00    -0.208 OA 
BRANCH   4   6
HETATM    6  C   UNL     1      -8.230  17.260  67.650  1.00  0.00    -0.198 C  
BRANCH   6   7
HETATM    7  C   UNL     1      -8.517  15.805  67.267  1.00  0.00    -0.212 C  
BRANCH   7   8
HETATM    8  C   UNL     1      -7.775  14.823  68.160  1.00  0.00    -0.122 C  
BRANCH   8   9
HETATM    9  C   UNL     1      -6.950  13.839  67.368  1.00  0.00    -0.066 C  
HETATM   10  C   UNL     1      -7.011  12.503  67.484  1.00  0.00    -0.149 C  
BRANCH  10  11
HETATM   11  C   UNL     1      -7.796  11.788  68.535  1.00  0.00    -0.144 C  
BRANCH  11  12
HETATM   12  C   UNL     1      -7.068  10.679  69.230  1.00  0.00    -0.107 C  
HETATM   13  C   UNL     1      -7.668   9.797  70.051  1.00  0.00    -0.179 C  
BRANCH  13  14
HETATM   14  C   UNL     1      -9.129   9.713  70.431  1.00  0.00    -0.245 C  
BRANCH  14  15
HETATM   15  C   UNL     1      -9.836   8.454  69.999  1.00  0.00    -0.182 C  
HETATM   16  C   UNL     1     -10.400   8.235  68.801  1.00  0.00    -0.223 C  
BRANCH  16  17
HETATM   17  C   UNL     1     -10.579   9.274  67.743  1.00  0.00    -0.307 C  
BRANCH  17  18
HETATM   18  C   UNL     1      -9.745   8.905  66.546  1.00  0.00    -0.322 C  
HETATM   19  C   UNL     1      -9.434   9.745  65.548  1.00  0.00    -0.324 C  
BRANCH  19  20
HETATM   20  C   UNL     1      -9.891  11.162  65.463  1.00  0.00    -0.281 C  
BRANCH  20  21
HETATM   21  C   UNL     1     -10.552  11.470  64.154  1.00  0.00    -0.420 C  
HETATM   22  C   UNL     1     -11.547  12.358  64.000  1.00  0.00    -0.488 C  
BRANCH  22  23
HETATM   23  C   UNL     1     -12.185  13.152  65.098  1.00  0.00    -0.497 C  
HETATM   24  C   UNL     1     -12.304  14.621  64.731  1.00  0.00    -0.362 C  
ENDBRANCH  22  23
ENDBRANCH  20  21
ENDBRANCH  19  20
ENDBRANCH  17  18
ENDBRANCH  16  17
ENDBRANCH  14  15
ENDBRANCH  13  14
ENDBRANCH  11  12
ENDBRANCH  10  11
ENDBRANCH   8   9
ENDBRANCH   7   8
ENDBRANCH   6   7
ENDBRANCH   4   6
ENDBRANCH   3   4
ENDBRANCH   2   3
TORSDOF 15
ENDMDL
MODEL      399
REMARK 921   NORMALIZED FREE ENERGY PREDICTED BY IDOCK:   -2.87 KCAL/MOL
REMARK 922        TOTAL FREE ENERGY PREDICTED BY IDOCK:   -7.95 KCAL/MOL
REMARK 923 INTER-LIGAND FREE ENERGY PREDICTED BY IDOCK:   -5.62 KCAL/MOL
REMARK 924 INTRA-LIGAND FREE ENERGY PREDICTED BY IDOCK:   -2.33 KCAL/MOL
REMARK 927      BINDING AFFINITY PREDICTED BY RF-SCORE:    0.00 PKD
ROOT
HETATM    1  C   UNL     1      -7.231  12.385  68.542  1.00  0.00    -0.103 C  
HETATM    2  C   UNL     1      -8.283  13.463  68.355  1.00  0.00    -0.139 C  
ENDROOT
BRANCH   2   3
HETATM    3  O   UNL     1      -8.381  13.732  66.952  1.00  0.00    -0.139 OA 
BRANCH   3   4
HETATM    4  C   UNL     1      -9.088  14.856  66.645  1.00  0.00    -0.280 C  
HETATM    5  O   UNL     1      -8.728  15.731  65.875  1.00  0.00    -0.260 OA 
BRANCH   4   6
HETATM    6  C   UNL     1     -10.425  14.786  67.330  1.00  0.00    -0.264 C  
BRANCH   6   7
HETATM    7  C   UNL     1     -11.348  13.809  66.595  1.00  0.00    -0.340 C  
BRANCH   7   8
HETATM    8  C   UNL     1     -11.667  14.278  65.184  1.00  0.00    -0.368 C  
BRANCH   8   9
HETATM    9  C   UNL     1     -12.378  13.219  64.377  1.00  0.00    -0.410 C  
HETATM   10  C   UNL     1     -11.779  12.244  63.674  1.00  0.00    -0.591 C  
BRANCH  10  11
HETATM   11  C   UNL     1     -10.304  12.155  63.456  1.00  0.00    -0.473 C  
BRANCH  11  12
HETATM   12  C   UNL     1      -9.769  10.766  63.284  1.00  0.00    -0.396 C  
HETATM   13  C   UNL     1      -9.269  10.034  64.296  1.00  0.00    -0.318 C  
BRANCH  13  14
HETATM   14  C   UNL     1      -9.149  10.408  65.757  1.00  0.00    -0.197 C  
BRANCH  14  15
HETATM   15  C   UNL     1     -10.454  10.662  66.466  1.00  0.00    -0.285 C  
HETATM   16  C   UNL     1     -11.025   9.865  67.382  1.00  0.00    -0.214 C  
BRANCH  16  17
HETATM   17  C   UNL     1     -10.549   8.492  67.729  1.00  0.00    -0.242 C  
BRANCH  17  18
HETATM   18  C   UNL     1      -9.795   8.548  69.030  1.00  0.00    -0.184 C  
HETATM   19  C   UNL     1      -8.465   8.681  69.132  1.00  0.00    -0.124 C  
BRANCH  19  20
HETATM   20  C   UNL     1      -7.533   8.765  67.970  1.00  0.00    -0.093 C  
BRANCH  20  21
HETATM   21  C   UNL     1      -7.132   7.413  67.463  1.00  0.00    -0.088 C  
HETATM   22  C   UNL     1      -6.086   7.189  66.652  1.00  0.00    -0.038 C  
BRANCH  22  23
HETATM   23  C   UNL     1      -5.178   8.240  66.090  1.00  0.00    -0.024 C  
HETATM   24  C   UNL     1      -5.441   8.477  64.614  1.00  0.00    -0.043 C  
ENDBRANCH  22  23
ENDBRANCH  20  21
ENDBRANCH  19  20
ENDBRANCH  17  18
ENDBRANCH  16  17
ENDBRANCH  14  15
ENDBRANCH  13  14
ENDBRANCH  11  12
ENDBRANCH  10  11
ENDBRANCH   8   9
ENDBRANCH   7   8
ENDBRANCH   6   7
ENDBRANCH   4   6
ENDBRANCH   3   4
ENDBRANCH   2   3
TORSDOF 15
ENDMDL
MODEL      400
REMARK 921   NORMALIZED FREE ENERGY PREDICTED BY IDOCK:   -2.87 KCAL/MOL
REMARK 922        TOTAL FREE ENERGY PREDICTED BY IDOCK:   -7.94 KCAL/MOL
REMARK 923 INTER-LIGAND FREE ENERGY PREDICTED BY IDOCK:   -5.85 KCAL/MOL
REMARK 924 INTRA-LIGAND FREE ENERGY PREDICTED BY IDOCK:   -2.09 KCAL/MOL
REMARK 927      BINDING AFFINITY PREDICTED BY RF-SCORE:    0.00 PKD
ROOT
HETATM    1  C   UNL     1     -10.910   2.822  73.561  1.00  0.00    -0.299 C  
HETATM    2  C   UNL     1     -10.472   4.243  73.866  1.00  0.00    -0.224 C  
ENDROOT
BRANCH   2   3
HETATM    3  O   UNL     1      -9.433   4.582  72.941  1.00  0.00    -0.129 OA 
BRANCH   3   4
HETATM    4  C   UNL     1      -9.756   5.587  72.080  1.00  0.00    -0.158 C  
HETATM    5  O   UNL     1      -9.165   5.853  71.046  1.00  0.00    -0.148 OA 
BRANCH   4   6
HETATM    6  C   UNL     1     -11.020   6.246  72.560  1.00  0.00    -0.286 C  
BRANCH   6   7
HETATM    7  C   UNL     1     -10.828   7.763  72.651  1.00  0.00    -0.413 C  
BRANCH   7   8
HETATM    8  C   UNL     1     -11.722   8.510  71.674  1.00  0.00    -0.369 C  
BRANCH   8   9
HETATM    9  C   UNL     1     -10.947   9.482  70.818  1.00  0.00    -0.389 C  
HETATM   10  C   UNL     1     -11.431  10.626  70.308  1.00  0.00    -0.422 C  
BRANCH  10  11
HETATM   11  C   UNL     1     -12.866  11.034  70.381  1.00  0.00    -0.221 C  
BRANCH  11  12
HETATM   12  C   UNL     1     -13.323  11.518  71.723  1.00  0.00    -0.356 C  
HETATM   13  C   UNL     1     -13.000  12.722  72.228  1.00  0.00    -0.289 C  
BRANCH  13  14
HETATM   14  C   UNL     1     -12.162  13.811  71.596  1.00  0.00    -0.091 C  
BRANCH  14  15
HETATM   15  C   UNL     1     -12.842  14.594  70.502  1.00  0.00    -0.371 C  
HETATM   16  C   UNL     1     -12.469  14.640  69.213  1.00  0.00    -0.054 C  
BRANCH  16  17
HETATM   17  C   UNL     1     -11.203  14.059  68.674  1.00  0.00    -0.294 C  
BRANCH  17  18
HETATM   18  C   UNL     1     -11.540  13.049  67.610  1.00  0.00    -0.403 C  
HETATM   19  C   UNL     1     -10.689  12.123  67.145  1.00  0.00    -0.267 C  
BRANCH  19  20
HETATM   20  C   UNL     1      -9.274  11.974  67.594  1.00  0.00    -0.182 C  
BRANCH  20  21
HETATM   21  C   UNL     1      -8.526  10.957  66.787  1.00  0.00    -0.139 C  
HETATM   22  C   UNL     1      -8.364   9.674  67.150  1.00  0.00    -0.121 C  
BRANCH  22  23
HETATM   23  C   UNL     1      -8.859   9.058  68.422  1.00  0.00    -0.134 C  
HETATM   24  C   UNL     1      -7.714   8.596  69.305  1.00  0.00    -0.096 C  
ENDBRANCH  22  23
ENDBRANCH  20  21
ENDBRANCH  19  20
ENDBRANCH  17  18
ENDBRANCH  16  17
ENDBRANCH  14  15
ENDBRANCH  13  14
ENDBRANCH  11  12
ENDBRANCH  10  11
ENDBRANCH   8   9
ENDBRANCH   7   8
ENDBRANCH   6   7
ENDBRANCH   4   6
ENDBRANCH   3   4
ENDBRANCH   2   3
TORSDOF 15
ENDMDL
MODEL      401
REMARK 921   NORMALIZED FREE ENERGY PREDICTED BY IDOCK:   -2.87 KCAL/MOL
REMARK 922        TOTAL FREE ENERGY PREDICTED BY IDOCK:   -7.94 KCAL/MOL
REMARK 923 INTER-LIGAND FREE ENERGY PREDICTED BY IDOCK:   -6.65 KCAL/MOL
REMARK 924 INTRA-LIGAND FREE ENERGY PREDICTED BY IDOCK:   -1.30 KCAL/MOL
REMARK 927      BINDING AFFINITY PREDICTED BY RF-SCORE:    0.00 PKD
ROOT
HETATM    1  C   UNL     1     -14.352   8.205  71.448  1.00  0.00    -0.472 C  
HETATM    2  C   UNL     1     -13.115   8.766  72.124  1.00  0.00    -0.406 C  
ENDROOT
BRANCH   2   3
HETATM    3  O   UNL     1     -11.987   8.430  71.307  1.00  0.00    -0.285 OA 
BRANCH   3   4
HETATM    4  C   UNL     1     -11.777   7.092  71.165  1.00  0.00    -0.325 C  
HETATM    5  O   UNL     1     -11.852   6.468  70.119  1.00  0.00    -0.416 OA 
BRANCH   4   6
HETATM    6  C   UNL     1     -11.334   6.531  72.489  1.00  0.00    -0.299 C  
BRANCH   6   7
HETATM    7  C   UNL     1     -10.107   7.290  73.004  1.00  0.00    -0.294 C  
BRANCH   7   8
HETATM    8  C   UNL     1      -8.837   6.462  72.895  1.00  0.00    -0.124 C  
BRANCH   8   9
HETATM    9  C   UNL     1      -8.548   6.041  71.475  1.00  0.00    -0.132 C  
HETATM   10  C   UNL     1      -7.759   6.703  70.613  1.00  0.00    -0.104 C  
BRANCH  10  11
HETATM   11  C   UNL     1      -7.170   8.049  70.881  1.00  0.00    -0.053 C  
BRANCH  11  12
HETATM   12  C   UNL     1      -8.120   9.199  70.742  1.00  0.00    -0.207 C  
HETATM   13  C   UNL     1      -8.651   9.585  69.568  1.00  0.00    -0.171 C  
BRANCH  13  14
HETATM   14  C   UNL     1      -8.439   8.980  68.198  1.00  0.00    -0.129 C  
BRANCH  14  15
HETATM   15  C   UNL     1      -9.672   8.403  67.551  1.00  0.00    -0.209 C  
HETATM   16  C   UNL     1     -10.430   9.001  66.619  1.00  0.00    -0.235 C  
BRANCH  16  17
HETATM   17  C   UNL     1     -10.283  10.423  66.188  1.00  0.00    -0.288 C  
BRANCH  17  18
HETATM   18  C   UNL     1     -11.121  11.297  67.083  1.00  0.00    -0.364 C  
HETATM   19  C   UNL     1     -11.753  12.410  66.683  1.00  0.00    -0.438 C  
BRANCH  19  20
HETATM   20  C   UNL     1     -11.697  12.962  65.298  1.00  0.00    -0.399 C  
BRANCH  20  21
HETATM   21  C   UNL     1     -10.354  13.542  64.971  1.00  0.00    -0.379 C  
HETATM   22  C   UNL     1      -9.885  14.694  65.477  1.00  0.00    -0.327 C  
BRANCH  22  23
HETATM   23  C   UNL     1     -10.626  15.604  66.409  1.00  0.00    -0.308 C  
HETATM   24  C   UNL     1      -9.806  16.831  66.764  1.00  0.00    -0.282 C  
ENDBRANCH  22  23
ENDBRANCH  20  21
ENDBRANCH  19  20
ENDBRANCH  17  18
ENDBRANCH  16  17
ENDBRANCH  14  15
ENDBRANCH  13  14
ENDBRANCH  11  12
ENDBRANCH  10  11
ENDBRANCH   8   9
ENDBRANCH   7   8
ENDBRANCH   6   7
ENDBRANCH   4   6
ENDBRANCH   3   4
ENDBRANCH   2   3
TORSDOF 15
ENDMDL
MODEL      402
REMARK 921   NORMALIZED FREE ENERGY PREDICTED BY IDOCK:   -2.86 KCAL/MOL
REMARK 922        TOTAL FREE ENERGY PREDICTED BY IDOCK:   -7.93 KCAL/MOL
REMARK 923 INTER-LIGAND FREE ENERGY PREDICTED BY IDOCK:   -6.25 KCAL/MOL
REMARK 924 INTRA-LIGAND FREE ENERGY PREDICTED BY IDOCK:   -1.68 KCAL/MOL
REMARK 927      BINDING AFFINITY PREDICTED BY RF-SCORE:    0.00 PKD
ROOT
HETATM    1  C   UNL     1     -10.607  19.492  66.450  1.00  0.00    -0.571 C  
HETATM    2  C   UNL     1      -9.797  18.226  66.236  1.00  0.00    -0.321 C  
ENDROOT
BRANCH   2   3
HETATM    3  O   UNL     1     -10.681  17.113  66.418  1.00  0.00    -0.214 OA 
BRANCH   3   4
HETATM    4  C   UNL     1     -10.831  16.332  65.312  1.00  0.00    -0.297 C  
HETATM    5  O   UNL     1     -11.168  16.724  64.206  1.00  0.00    -1.163 OA 
BRANCH   4   6
HETATM    6  C   UNL     1     -10.412  14.928  65.653  1.00  0.00    -0.366 C  
BRANCH   6   7
HETATM    7  C   UNL     1     -10.063  14.824  67.141  1.00  0.00    -0.240 C  
BRANCH   7   8
HETATM    8  C   UNL     1      -8.792  14.023  67.374  1.00  0.00    -0.210 C  
BRANCH   8   9
HETATM    9  C   UNL     1      -9.018  12.843  68.288  1.00  0.00    -0.175 C  
HETATM   10  C   UNL     1      -8.663  11.576  68.023  1.00  0.00    -0.151 C  
BRANCH  10  11
HETATM   11  C   UNL     1      -8.128  11.113  66.707  1.00  0.00    -0.155 C  
BRANCH  11  12
HETATM   12  C   UNL     1      -6.644  11.231  66.546  1.00  0.00    -0.108 C  
HETATM   13  C   UNL     1      -5.766  10.380  67.107  1.00  0.00    -0.045 C  
BRANCH  13  14
HETATM   14  C   UNL     1      -6.051   9.171  67.969  1.00  0.00    -0.050 C  
BRANCH  14  15
HETATM   15  C   UNL     1      -6.111   7.856  67.235  1.00  0.00    -0.053 C  
HETATM   16  C   UNL     1      -7.220   7.150  66.966  1.00  0.00    -0.091 C  
BRANCH  16  17
HETATM   17  C   UNL     1      -8.577   7.461  67.506  1.00  0.00    -0.122 C  
BRANCH  17  18
HETATM   18  C   UNL     1      -9.056   6.296  68.330  1.00  0.00    -0.113 C  
HETATM   19  C   UNL     1     -10.117   6.331  69.150  1.00  0.00    -0.204 C  
BRANCH  19  20
HETATM   20  C   UNL     1     -10.962   7.537  69.388  1.00  0.00    -0.099 C  
BRANCH  20  21
HETATM   21  C   UNL     1     -10.188   8.661  70.008  1.00  0.00    -0.201 C  
HETATM   22  C   UNL     1     -10.745   9.687  70.671  1.00  0.00    -0.388 C  
BRANCH  22  23
HETATM   23  C   UNL     1     -12.215   9.904  70.867  1.00  0.00    -0.420 C  
HETATM   24  C   UNL     1     -12.545  11.374  71.052  1.00  0.00    -0.487 C  
ENDBRANCH  22  23
ENDBRANCH  20  21
ENDBRANCH  19  20
ENDBRANCH  17  18
ENDBRANCH  16  17
ENDBRANCH  14  15
ENDBRANCH  13  14
ENDBRANCH  11  12
ENDBRANCH  10  11
ENDBRANCH   8   9
ENDBRANCH   7   8
ENDBRANCH   6   7
ENDBRANCH   4   6
ENDBRANCH   3   4
ENDBRANCH   2   3
TORSDOF 15
ENDMDL
MODEL      403
REMARK 921   NORMALIZED FREE ENERGY PREDICTED BY IDOCK:   -2.86 KCAL/MOL
REMARK 922        TOTAL FREE ENERGY PREDICTED BY IDOCK:   -7.92 KCAL/MOL
REMARK 923 INTER-LIGAND FREE ENERGY PREDICTED BY IDOCK:   -6.65 KCAL/MOL
REMARK 924 INTRA-LIGAND FREE ENERGY PREDICTED BY IDOCK:   -1.27 KCAL/MOL
REMARK 927      BINDING AFFINITY PREDICTED BY RF-SCORE:    0.00 PKD
ROOT
HETATM    1  C   UNL     1     -11.683   5.440  72.648  1.00  0.00    -0.214 C  
HETATM    2  C   UNL     1     -10.934   4.796  73.801  1.00  0.00    -0.300 C  
ENDROOT
BRANCH   2   3
HETATM    3  O   UNL     1      -9.817   4.089  73.249  1.00  0.00    -0.123 OA 
BRANCH   3   4
HETATM    4  C   UNL     1      -8.604   4.534  73.680  1.00  0.00    -0.103 C  
HETATM    5  O   UNL     1      -7.661   3.827  73.998  1.00  0.00    -0.075 OA 
BRANCH   4   6
HETATM    6  C   UNL     1      -8.585   6.036  73.599  1.00  0.00    -0.125 C  
BRANCH   6   7
HETATM    7  C   UNL     1      -7.959   6.489  72.277  1.00  0.00    -0.102 C  
BRANCH   7   8
HETATM    8  C   UNL     1      -9.001   6.667  71.184  1.00  0.00    -0.145 C  
BRANCH   8   9
HETATM    9  C   UNL     1      -8.795   7.940  70.399  1.00  0.00    -0.142 C  
HETATM   10  C   UNL     1      -9.455   9.092  70.601  1.00  0.00    -0.316 C  
BRANCH  10  11
HETATM   11  C   UNL     1     -10.611   9.243  71.534  1.00  0.00    -0.405 C  
BRANCH  11  12
HETATM   12  C   UNL     1     -11.959   9.250  70.882  1.00  0.00    -0.321 C  
HETATM   13  C   UNL     1     -12.525  10.353  70.359  1.00  0.00    -0.348 C  
BRANCH  13  14
HETATM   14  C   UNL     1     -11.964  11.757  70.297  1.00  0.00    -0.429 C  
BRANCH  14  15
HETATM   15  C   UNL     1     -10.799  11.944  69.360  1.00  0.00    -0.089 C  
HETATM   16  C   UNL     1     -10.697  12.878  68.401  1.00  0.00    -0.273 C  
BRANCH  16  17
HETATM   17  C   UNL     1     -11.805  13.786  67.978  1.00  0.00    -0.408 C  
BRANCH  17  18
HETATM   18  C   UNL     1     -11.299  15.204  67.967  1.00  0.00    -0.346 C  
HETATM   19  C   UNL     1     -10.713  15.793  66.914  1.00  0.00    -0.299 C  
BRANCH  19  20
HETATM   20  C   UNL     1     -10.452  15.122  65.608  1.00  0.00    -0.378 C  
BRANCH  20  21
HETATM   21  C   UNL     1     -11.633  15.192  64.686  1.00  0.00    -0.357 C  
HETATM   22  C   UNL     1     -12.190  14.127  64.090  1.00  0.00    -0.423 C  
BRANCH  22  23
HETATM   23  C   UNL     1     -11.711  12.712  64.206  1.00  0.00    -0.446 C  
HETATM   24  C   UNL     1     -12.658  11.741  63.523  1.00  0.00    -0.485 C  
ENDBRANCH  22  23
ENDBRANCH  20  21
ENDBRANCH  19  20
ENDBRANCH  17  18
ENDBRANCH  16  17
ENDBRANCH  14  15
ENDBRANCH  13  14
ENDBRANCH  11  12
ENDBRANCH  10  11
ENDBRANCH   8   9
ENDBRANCH   7   8
ENDBRANCH   6   7
ENDBRANCH   4   6
ENDBRANCH   3   4
ENDBRANCH   2   3
TORSDOF 15
ENDMDL
MODEL      404
REMARK 921   NORMALIZED FREE ENERGY PREDICTED BY IDOCK:   -2.85 KCAL/MOL
REMARK 922        TOTAL FREE ENERGY PREDICTED BY IDOCK:   -7.91 KCAL/MOL
REMARK 923 INTER-LIGAND FREE ENERGY PREDICTED BY IDOCK:   -6.52 KCAL/MOL
REMARK 924 INTRA-LIGAND FREE ENERGY PREDICTED BY IDOCK:   -1.39 KCAL/MOL
REMARK 927      BINDING AFFINITY PREDICTED BY RF-SCORE:    0.00 PKD
ROOT
HETATM    1  C   UNL     1      -6.711  18.398  65.586  1.00  0.00    -0.304 C  
HETATM    2  C   UNL     1      -8.060  18.567  66.259  1.00  0.00    -0.233 C  
ENDROOT
BRANCH   2   3
HETATM    3  O   UNL     1      -8.925  17.543  65.756  1.00  0.00    -0.512 OA 
BRANCH   3   4
HETATM    4  C   UNL     1      -9.992  17.266  66.558  1.00  0.00    -0.305 C  
HETATM    5  O   UNL     1     -10.610  18.082  67.222  1.00  0.00    -0.380 OA 
BRANCH   4   6
HETATM    6  C   UNL     1     -10.344  15.812  66.407  1.00  0.00    -0.306 C  
BRANCH   6   7
HETATM    7  C   UNL     1     -11.326  15.386  67.502  1.00  0.00    -0.269 C  
BRANCH   7   8
HETATM    8  C   UNL     1     -11.998  14.060  67.181  1.00  0.00    -0.465 C  
BRANCH   8   9
HETATM    9  C   UNL     1     -12.493  13.998  65.757  1.00  0.00    -0.523 C  
HETATM   10  C   UNL     1     -12.198  13.033  64.873  1.00  0.00    -0.490 C  
BRANCH  10  11
HETATM   11  C   UNL     1     -11.200  11.949  65.118  1.00  0.00    -0.346 C  
BRANCH  11  12
HETATM   12  C   UNL     1     -10.541  11.400  63.890  1.00  0.00    -0.452 C  
HETATM   13  C   UNL     1      -9.724  10.331  63.901  1.00  0.00    -0.325 C  
BRANCH  13  14
HETATM   14  C   UNL     1      -9.313   9.475  65.079  1.00  0.00    -0.294 C  
BRANCH  14  15
HETATM   15  C   UNL     1      -7.876   9.020  65.074  1.00  0.00    -0.113 C  
HETATM   16  C   UNL     1      -7.425   7.823  65.478  1.00  0.00    -0.076 C  
BRANCH  16  17
HETATM   17  C   UNL     1      -8.253   6.792  66.172  1.00  0.00    -0.124 C  
BRANCH  17  18
HETATM   18  C   UNL     1      -8.621   5.715  65.187  1.00  0.00    -0.130 C  
HETATM   19  C   UNL     1      -8.380   4.408  65.365  1.00  0.00    -0.111 C  
BRANCH  19  20
HETATM   20  C   UNL     1      -7.687   3.831  66.553  1.00  0.00    -0.088 C  
BRANCH  20  21
HETATM   21  C   UNL     1      -8.541   2.838  67.283  1.00  0.00    -0.119 C  
HETATM   22  C   UNL     1      -9.422   3.161  68.243  1.00  0.00    -0.215 C  
BRANCH  22  23
HETATM   23  C   UNL     1      -9.671   4.541  68.771  1.00  0.00    -0.213 C  
HETATM   24  C   UNL     1      -8.850   4.822  70.016  1.00  0.00    -0.122 C  
ENDBRANCH  22  23
ENDBRANCH  20  21
ENDBRANCH  19  20
ENDBRANCH  17  18
ENDBRANCH  16  17
ENDBRANCH  14  15
ENDBRANCH  13  14
ENDBRANCH  11  12
ENDBRANCH  10  11
ENDBRANCH   8   9
ENDBRANCH   7   8
ENDBRANCH   6   7
ENDBRANCH   4   6
ENDBRANCH   3   4
ENDBRANCH   2   3
TORSDOF 15
ENDMDL
MODEL      405
REMARK 921   NORMALIZED FREE ENERGY PREDICTED BY IDOCK:   -2.85 KCAL/MOL
REMARK 922        TOTAL FREE ENERGY PREDICTED BY IDOCK:   -7.90 KCAL/MOL
REMARK 923 INTER-LIGAND FREE ENERGY PREDICTED BY IDOCK:   -6.10 KCAL/MOL
REMARK 924 INTRA-LIGAND FREE ENERGY PREDICTED BY IDOCK:   -1.80 KCAL/MOL
REMARK 927      BINDING AFFINITY PREDICTED BY RF-SCORE:    0.00 PKD
ROOT
HETATM    1  C   UNL     1      -7.892  15.959  69.008  1.00  0.00    -0.216 C  
HETATM    2  C   UNL     1      -6.676  15.189  68.524  1.00  0.00    -0.108 C  
ENDROOT
BRANCH   2   3
HETATM    3  O   UNL     1      -7.122  14.258  67.531  1.00  0.00    -0.177 OA 
BRANCH   3   4
HETATM    4  C   UNL     1      -7.146  12.962  67.951  1.00  0.00    -0.127 C  
HETATM    5  O   UNL     1      -6.186  12.209  67.984  1.00  0.00    -0.055 OA 
BRANCH   4   6
HETATM    6  C   UNL     1      -8.525  12.646  68.463  1.00  0.00    -0.051 C  
BRANCH   6   7
HETATM    7  C   UNL     1      -9.535  12.653  67.312  1.00  0.00    -0.199 C  
BRANCH   7   8
HETATM    8  C   UNL     1     -10.552  13.775  67.451  1.00  0.00    -0.260 C  
BRANCH   8   9
HETATM    9  C   UNL     1     -11.954  13.319  67.130  1.00  0.00    -0.400 C  
HETATM   10  C   UNL     1     -12.498  13.284  65.903  1.00  0.00    -0.433 C  
BRANCH  10  11
HETATM   11  C   UNL     1     -11.845  13.844  64.681  1.00  0.00    -0.428 C  
BRANCH  11  12
HETATM   12  C   UNL     1     -11.982  13.008  63.446  1.00  0.00    -0.592 C  
HETATM   13  C   UNL     1     -11.396  11.807  63.294  1.00  0.00    -0.347 C  
BRANCH  13  14
HETATM   14  C   UNL     1     -10.526  11.056  64.277  1.00  0.00    -0.427 C  
BRANCH  14  15
HETATM   15  C   UNL     1      -9.106  10.819  63.830  1.00  0.00    -0.207 C  
HETATM   16  C   UNL     1      -8.165  10.146  64.510  1.00  0.00    -0.162 C  
BRANCH  16  17
HETATM   17  C   UNL     1      -8.313   9.664  65.916  1.00  0.00    -0.124 C  
BRANCH  17  18
HETATM   18  C   UNL     1      -9.336   8.561  65.951  1.00  0.00    -0.231 C  
HETATM   19  C   UNL     1      -9.834   8.022  67.074  1.00  0.00    -0.295 C  
BRANCH  19  20
HETATM   20  C   UNL     1      -9.429   8.420  68.454  1.00  0.00    -0.145 C  
BRANCH  20  21
HETATM   21  C   UNL     1     -10.592   8.464  69.398  1.00  0.00    -0.204 C  
HETATM   22  C   UNL     1     -11.125   7.384  69.992  1.00  0.00    -0.238 C  
BRANCH  22  23
HETATM   23  C   UNL     1     -10.683   5.968  69.785  1.00  0.00    -0.399 C  
HETATM   24  C   UNL     1     -10.459   5.252  71.105  1.00  0.00    -0.275 C  
ENDBRANCH  22  23
ENDBRANCH  20  21
ENDBRANCH  19  20
ENDBRANCH  17  18
ENDBRANCH  16  17
ENDBRANCH  14  15
ENDBRANCH  13  14
ENDBRANCH  11  12
ENDBRANCH  10  11
ENDBRANCH   8   9
ENDBRANCH   7   8
ENDBRANCH   6   7
ENDBRANCH   4   6
ENDBRANCH   3   4
ENDBRANCH   2   3
TORSDOF 15
ENDMDL
MODEL      406
REMARK 921   NORMALIZED FREE ENERGY PREDICTED BY IDOCK:   -2.84 KCAL/MOL
REMARK 922        TOTAL FREE ENERGY PREDICTED BY IDOCK:   -7.88 KCAL/MOL
REMARK 923 INTER-LIGAND FREE ENERGY PREDICTED BY IDOCK:   -6.00 KCAL/MOL
REMARK 924 INTRA-LIGAND FREE ENERGY PREDICTED BY IDOCK:   -1.88 KCAL/MOL
REMARK 927      BINDING AFFINITY PREDICTED BY RF-SCORE:    0.00 PKD
ROOT
HETATM    1  C   UNL     1     -12.214  13.298  68.623  1.00  0.00    -0.115 C  
HETATM    2  C   UNL     1     -11.314  12.492  69.542  1.00  0.00    -0.171 C  
ENDROOT
BRANCH   2   3
HETATM    3  O   UNL     1     -11.718  11.120  69.446  1.00  0.00    -0.273 OA 
BRANCH   3   4
HETATM    4  C   UNL     1     -10.744  10.226  69.774  1.00  0.00    -0.285 C  
HETATM    5  O   UNL     1     -10.918   9.174  70.368  1.00  0.00    -0.231 OA 
BRANCH   4   6
HETATM    6  C   UNL     1      -9.440  10.698  69.191  1.00  0.00    -0.185 C  
BRANCH   6   7
HETATM    7  C   UNL     1      -8.882   9.652  68.221  1.00  0.00    -0.120 C  
BRANCH   7   8
HETATM    8  C   UNL     1      -9.813   9.413  67.042  1.00  0.00    -0.258 C  
BRANCH   8   9
HETATM    9  C   UNL     1      -9.553   8.088  66.368  1.00  0.00    -0.267 C  
HETATM   10  C   UNL     1      -8.750   7.900  65.309  1.00  0.00    -0.032 C  
BRANCH  10  11
HETATM   11  C   UNL     1      -8.111   9.006  64.534  1.00  0.00    -0.143 C  
BRANCH  11  12
HETATM   12  C   UNL     1      -8.606   9.170  63.130  1.00  0.00    -0.186 C  
HETATM   13  C   UNL     1      -9.315  10.234  62.712  1.00  0.00    -0.340 C  
BRANCH  13  14
HETATM   14  C   UNL     1      -9.742  11.449  63.506  1.00  0.00    -0.362 C  
BRANCH  14  15
HETATM   15  C   UNL     1     -11.142  11.937  63.235  1.00  0.00    -0.390 C  
HETATM   16  C   UNL     1     -11.756  12.958  63.851  1.00  0.00    -0.526 C  
BRANCH  16  17
HETATM   17  C   UNL     1     -11.219  13.680  65.043  1.00  0.00    -0.329 C  
BRANCH  17  18
HETATM   18  C   UNL     1     -10.283  12.766  65.788  1.00  0.00    -0.302 C  
HETATM   19  C   UNL     1      -9.298  13.184  66.596  1.00  0.00    -0.242 C  
BRANCH  19  20
HETATM   20  C   UNL     1      -8.966  14.615  66.855  1.00  0.00    -0.275 C  
BRANCH  20  21
HETATM   21  C   UNL     1      -8.421  14.832  68.235  1.00  0.00    -0.151 C  
HETATM   22  C   UNL     1      -8.982  15.637  69.151  1.00  0.00    -0.257 C  
BRANCH  22  23
HETATM   23  C   UNL     1     -10.206  16.475  68.944  1.00  0.00    -0.268 C  
HETATM   24  C   UNL     1     -11.133  16.420  70.144  1.00  0.00    -0.285 C  
ENDBRANCH  22  23
ENDBRANCH  20  21
ENDBRANCH  19  20
ENDBRANCH  17  18
ENDBRANCH  16  17
ENDBRANCH  14  15
ENDBRANCH  13  14
ENDBRANCH  11  12
ENDBRANCH  10  11
ENDBRANCH   8   9
ENDBRANCH   7   8
ENDBRANCH   6   7
ENDBRANCH   4   6
ENDBRANCH   3   4
ENDBRANCH   2   3
TORSDOF 15
ENDMDL
MODEL      407
REMARK 921   NORMALIZED FREE ENERGY PREDICTED BY IDOCK:   -2.84 KCAL/MOL
REMARK 922        TOTAL FREE ENERGY PREDICTED BY IDOCK:   -7.87 KCAL/MOL
REMARK 923 INTER-LIGAND FREE ENERGY PREDICTED BY IDOCK:   -7.01 KCAL/MOL
REMARK 924 INTRA-LIGAND FREE ENERGY PREDICTED BY IDOCK:   -0.86 KCAL/MOL
REMARK 927      BINDING AFFINITY PREDICTED BY RF-SCORE:    0.00 PKD
ROOT
HETATM    1  C   UNL     1      -8.047   7.759  73.997  1.00  0.00    -0.254 C  
HETATM    2  C   UNL     1      -8.247   7.121  72.634  1.00  0.00    -0.107 C  
ENDROOT
BRANCH   2   3
HETATM    3  O   UNL     1      -9.272   6.130  72.768  1.00  0.00    -0.139 OA 
BRANCH   3   4
HETATM    4  C   UNL     1     -10.348   6.323  71.955  1.00  0.00    -0.204 C  
HETATM    5  O   UNL     1     -10.516   5.803  70.864  1.00  0.00    -0.226 OA 
BRANCH   4   6
HETATM    6  C   UNL     1     -11.340   7.199  72.670  1.00  0.00    -0.306 C  
BRANCH   6   7
HETATM    7  C   UNL     1     -11.303   8.620  72.100  1.00  0.00    -0.434 C  
BRANCH   7   8
HETATM    8  C   UNL     1     -12.646   9.038  71.522  1.00  0.00    -0.400 C  
BRANCH   8   9
HETATM    9  C   UNL     1     -12.846  10.533  71.561  1.00  0.00    -0.568 C  
HETATM   10  C   UNL     1     -12.274  11.415  70.726  1.00  0.00    -0.475 C  
BRANCH  10  11
HETATM   11  C   UNL     1     -11.222  11.062  69.726  1.00  0.00    -0.339 C  
BRANCH  11  12
HETATM   12  C   UNL     1     -11.624  11.227  68.293  1.00  0.00    -0.370 C  
HETATM   13  C   UNL     1     -11.909  12.417  67.734  1.00  0.00    -0.362 C  
BRANCH  13  14
HETATM   14  C   UNL     1     -11.880  13.786  68.375  1.00  0.00    -0.411 C  
BRANCH  14  15
HETATM   15  C   UNL     1     -11.549  14.926  67.445  1.00  0.00    -0.347 C  
HETATM   16  C   UNL     1     -10.360  15.155  66.868  1.00  0.00    -0.272 C  
BRANCH  16  17
HETATM   17  C   UNL     1      -9.102  14.416  67.188  1.00  0.00    -0.238 C  
BRANCH  17  18
HETATM   18  C   UNL     1      -8.630  14.821  68.558  1.00  0.00    -0.168 C  
HETATM   19  C   UNL     1      -8.071  16.005  68.850  1.00  0.00    -0.218 C  
BRANCH  19  20
HETATM   20  C   UNL     1      -7.810  17.084  67.853  1.00  0.00    -0.188 C  
BRANCH  20  21
HETATM   21  C   UNL     1      -6.346  17.349  67.672  1.00  0.00    -0.164 C  
HETATM   22  C   UNL     1      -5.669  18.318  68.308  1.00  0.00    -0.173 C  
BRANCH  22  23
HETATM   23  C   UNL     1      -6.257  19.312  69.262  1.00  0.00    -0.312 C  
HETATM   24  C   UNL     1      -6.081  20.736  68.768  1.00  0.00    -0.336 C  
ENDBRANCH  22  23
ENDBRANCH  20  21
ENDBRANCH  19  20
ENDBRANCH  17  18
ENDBRANCH  16  17
ENDBRANCH  14  15
ENDBRANCH  13  14
ENDBRANCH  11  12
ENDBRANCH  10  11
ENDBRANCH   8   9
ENDBRANCH   7   8
ENDBRANCH   6   7
ENDBRANCH   4   6
ENDBRANCH   3   4
ENDBRANCH   2   3
TORSDOF 15
ENDMDL
MODEL      408
REMARK 921   NORMALIZED FREE ENERGY PREDICTED BY IDOCK:   -2.83 KCAL/MOL
REMARK 922        TOTAL FREE ENERGY PREDICTED BY IDOCK:   -7.86 KCAL/MOL
REMARK 923 INTER-LIGAND FREE ENERGY PREDICTED BY IDOCK:   -6.58 KCAL/MOL
REMARK 924 INTRA-LIGAND FREE ENERGY PREDICTED BY IDOCK:   -1.28 KCAL/MOL
REMARK 927      BINDING AFFINITY PREDICTED BY RF-SCORE:    0.00 PKD
ROOT
HETATM    1  C   UNL     1      -7.701   4.984  72.897  1.00  0.00    -0.097 C  
HETATM    2  C   UNL     1      -8.581   5.948  73.672  1.00  0.00    -0.122 C  
ENDROOT
BRANCH   2   3
HETATM    3  O   UNL     1      -9.935   5.505  73.531  1.00  0.00    -0.163 OA 
BRANCH   3   4
HETATM    4  C   UNL     1     -10.791   6.457  73.064  1.00  0.00    -0.259 C  
HETATM    5  O   UNL     1     -10.812   7.625  73.416  1.00  0.00    -0.380 OA 
BRANCH   4   6
HETATM    6  C   UNL     1     -11.630   5.856  71.969  1.00  0.00    -0.289 C  
BRANCH   6   7
HETATM    7  C   UNL     1     -11.002   6.140  70.601  1.00  0.00    -0.376 C  
BRANCH   7   8
HETATM    8  C   UNL     1     -11.253   7.568  70.144  1.00  0.00    -0.213 C  
BRANCH   8   9
HETATM    9  C   UNL     1      -9.971   8.306  69.845  1.00  0.00    -0.190 C  
HETATM   10  C   UNL     1      -9.620   8.800  68.646  1.00  0.00    -0.159 C  
BRANCH  10  11
HETATM   11  C   UNL     1     -10.378   8.553  67.384  1.00  0.00    -0.356 C  
BRANCH  11  12
HETATM   12  C   UNL     1      -9.681   8.976  66.128  1.00  0.00    -0.354 C  
HETATM   13  C   UNL     1      -9.844  10.185  65.560  1.00  0.00    -0.365 C  
BRANCH  13  14
HETATM   14  C   UNL     1     -10.706  11.335  66.030  1.00  0.00    -0.301 C  
BRANCH  14  15
HETATM   15  C   UNL     1     -10.096  12.201  67.102  1.00  0.00    -0.220 C  
HETATM   16  C   UNL     1      -9.733  13.486  66.969  1.00  0.00    -0.251 C  
BRANCH  16  17
HETATM   17  C   UNL     1      -9.709  14.233  65.675  1.00  0.00    -0.238 C  
BRANCH  17  18
HETATM   18  C   UNL     1     -11.007  14.979  65.516  1.00  0.00    -0.364 C  
HETATM   19  C   UNL     1     -11.154  16.298  65.711  1.00  0.00     0.059 C  
BRANCH  19  20
HETATM   20  C   UNL     1     -10.059  17.216  66.142  1.00  0.00    -0.317 C  
BRANCH  20  21
HETATM   21  C   UNL     1     -10.442  18.659  66.009  1.00  0.00    -0.456 C  
HETATM   22  C   UNL     1      -9.745  19.677  66.538  1.00  0.00    -0.498 C  
BRANCH  22  23
HETATM   23  C   UNL     1      -8.508  19.547  67.373  1.00  0.00    -0.336 C  
HETATM   24  C   UNL     1      -8.841  19.333  68.839  1.00  0.00    -0.336 C  
ENDBRANCH  22  23
ENDBRANCH  20  21
ENDBRANCH  19  20
ENDBRANCH  17  18
ENDBRANCH  16  17
ENDBRANCH  14  15
ENDBRANCH  13  14
ENDBRANCH  11  12
ENDBRANCH  10  11
ENDBRANCH   8   9
ENDBRANCH   7   8
ENDBRANCH   6   7
ENDBRANCH   4   6
ENDBRANCH   3   4
ENDBRANCH   2   3
TORSDOF 15
ENDMDL
MODEL      409
REMARK 921   NORMALIZED FREE ENERGY PREDICTED BY IDOCK:   -2.82 KCAL/MOL
REMARK 922        TOTAL FREE ENERGY PREDICTED BY IDOCK:   -7.85 KCAL/MOL
REMARK 923 INTER-LIGAND FREE ENERGY PREDICTED BY IDOCK:   -5.55 KCAL/MOL
REMARK 924 INTRA-LIGAND FREE ENERGY PREDICTED BY IDOCK:   -2.30 KCAL/MOL
REMARK 927      BINDING AFFINITY PREDICTED BY RF-SCORE:    0.00 PKD
ROOT
HETATM    1  C   UNL     1     -10.065   3.987  64.712  1.00  0.00    -0.222 C  
HETATM    2  C   UNL     1      -8.733   4.697  64.546  1.00  0.00    -0.151 C  
ENDROOT
BRANCH   2   3
HETATM    3  O   UNL     1      -8.812   5.934  65.263  1.00  0.00    -0.124 OA 
BRANCH   3   4
HETATM    4  C   UNL     1      -7.843   6.834  64.935  1.00  0.00    -0.119 C  
HETATM    5  O   UNL     1      -6.726   6.557  64.529  1.00  0.00    -0.037 OA 
BRANCH   4   6
HETATM    6  C   UNL     1      -8.412   8.221  65.057  1.00  0.00    -0.141 C  
BRANCH   6   7
HETATM    7  C   UNL     1      -7.515   9.088  65.945  1.00  0.00    -0.094 C  
BRANCH   7   8
HETATM    8  C   UNL     1      -7.957   9.063  67.400  1.00  0.00    -0.100 C  
BRANCH   8   9
HETATM    9  C   UNL     1      -6.960   9.734  68.312  1.00  0.00    -0.073 C  
HETATM   10  C   UNL     1      -7.137  10.918  68.920  1.00  0.00    -0.090 C  
BRANCH  10  11
HETATM   11  C   UNL     1      -8.290  11.830  68.658  1.00  0.00    -0.079 C  
BRANCH  11  12
HETATM   12  C   UNL     1      -8.299  12.474  67.306  1.00  0.00    -0.185 C  
HETATM   13  C   UNL     1      -9.353  12.432  66.471  1.00  0.00    -0.233 C  
BRANCH  13  14
HETATM   14  C   UNL     1     -10.699  11.777  66.690  1.00  0.00    -0.300 C  
BRANCH  14  15
HETATM   15  C   UNL     1     -11.655  12.547  67.564  1.00  0.00    -0.424 C  
HETATM   16  C   UNL     1     -12.052  12.200  68.798  1.00  0.00    -0.166 C  
BRANCH  16  17
HETATM   17  C   UNL     1     -11.750  10.892  69.452  1.00  0.00    -0.397 C  
BRANCH  17  18
HETATM   18  C   UNL     1     -12.435  10.843  70.791  1.00  0.00    -0.489 C  
HETATM   19  C   UNL     1     -12.255   9.876  71.702  1.00  0.00    -0.482 C  
BRANCH  19  20
HETATM   20  C   UNL     1     -11.370   8.690  71.511  1.00  0.00    -0.358 C  
BRANCH  20  21
HETATM   21  C   UNL     1     -12.145   7.446  71.197  1.00  0.00    -0.357 C  
HETATM   22  C   UNL     1     -11.741   6.501  70.334  1.00  0.00    -0.439 C  
BRANCH  22  23
HETATM   23  C   UNL     1     -10.486   6.546  69.516  1.00  0.00    -0.265 C  
HETATM   24  C   UNL     1     -10.533   5.560  68.362  1.00  0.00    -0.227 C  
ENDBRANCH  22  23
ENDBRANCH  20  21
ENDBRANCH  19  20
ENDBRANCH  17  18
ENDBRANCH  16  17
ENDBRANCH  14  15
ENDBRANCH  13  14
ENDBRANCH  11  12
ENDBRANCH  10  11
ENDBRANCH   8   9
ENDBRANCH   7   8
ENDBRANCH   6   7
ENDBRANCH   4   6
ENDBRANCH   3   4
ENDBRANCH   2   3
TORSDOF 15
ENDMDL
MODEL      410
REMARK 921   NORMALIZED FREE ENERGY PREDICTED BY IDOCK:   -2.81 KCAL/MOL
REMARK 922        TOTAL FREE ENERGY PREDICTED BY IDOCK:   -7.83 KCAL/MOL
REMARK 923 INTER-LIGAND FREE ENERGY PREDICTED BY IDOCK:   -5.85 KCAL/MOL
REMARK 924 INTRA-LIGAND FREE ENERGY PREDICTED BY IDOCK:   -1.99 KCAL/MOL
REMARK 927      BINDING AFFINITY PREDICTED BY RF-SCORE:    0.00 PKD
ROOT
HETATM    1  C   UNL     1      -9.372   5.180  65.956  1.00  0.00    -0.165 C  
HETATM    2  C   UNL     1      -9.433   6.339  66.935  1.00  0.00    -0.138 C  
ENDROOT
BRANCH   2   3
HETATM    3  O   UNL     1      -8.956   5.861  68.199  1.00  0.00    -0.117 OA 
BRANCH   3   4
HETATM    4  C   UNL     1      -9.856   5.107  68.888  1.00  0.00    -0.172 C  
HETATM    5  O   UNL     1      -9.715   3.932  69.189  1.00  0.00    -0.176 OA 
BRANCH   4   6
HETATM    6  C   UNL     1     -11.002   5.987  69.308  1.00  0.00    -0.436 C  
BRANCH   6   7
HETATM    7  C   UNL     1     -10.836   6.414  70.769  1.00  0.00    -0.321 C  
BRANCH   7   8
HETATM    8  C   UNL     1     -10.825   7.927  70.923  1.00  0.00    -0.245 C  
BRANCH   8   9
HETATM    9  C   UNL     1      -9.437   8.469  71.162  1.00  0.00    -0.249 C  
HETATM   10  C   UNL     1      -8.789   9.328  70.360  1.00  0.00    -0.271 C  
BRANCH  10  11
HETATM   11  C   UNL     1      -9.286   9.759  69.018  1.00  0.00    -0.161 C  
BRANCH  11  12
HETATM   12  C   UNL     1      -9.169  11.225  68.736  1.00  0.00    -0.133 C  
HETATM   13  C   UNL     1      -9.109  11.739  67.495  1.00  0.00    -0.175 C  
BRANCH  13  14
HETATM   14  C   UNL     1      -9.156  11.008  66.172  1.00  0.00    -0.208 C  
BRANCH  14  15
HETATM   15  C   UNL     1     -10.530  10.591  65.714  1.00  0.00    -0.214 C  
HETATM   16  C   UNL     1     -11.302  11.246  64.833  1.00  0.00    -0.023 C  
BRANCH  16  17
HETATM   17  C   UNL     1     -11.004  12.602  64.285  1.00  0.00    -0.404 C  
BRANCH  17  18
HETATM   18  C   UNL     1     -12.069  13.562  64.744  1.00  0.00    -0.442 C  
HETATM   19  C   UNL     1     -11.850  14.609  65.552  1.00  0.00    -0.292 C  
BRANCH  19  20
HETATM   20  C   UNL     1     -10.524  14.962  66.138  1.00  0.00    -0.313 C  
BRANCH  20  21
HETATM   21  C   UNL     1     -10.559  16.264  66.881  1.00  0.00    -0.270 C  
HETATM   22  C   UNL     1     -10.570  16.370  68.219  1.00  0.00    -0.318 C  
BRANCH  22  23
HETATM   23  C   UNL     1     -10.591  15.226  69.185  1.00  0.00    -0.250 C  
HETATM   24  C   UNL     1     -11.560  15.474  70.327  1.00  0.00    -0.355 C  
ENDBRANCH  22  23
ENDBRANCH  20  21
ENDBRANCH  19  20
ENDBRANCH  17  18
ENDBRANCH  16  17
ENDBRANCH  14  15
ENDBRANCH  13  14
ENDBRANCH  11  12
ENDBRANCH  10  11
ENDBRANCH   8   9
ENDBRANCH   7   8
ENDBRANCH   6   7
ENDBRANCH   4   6
ENDBRANCH   3   4
ENDBRANCH   2   3
TORSDOF 15
ENDMDL
MODEL      411
REMARK 921   NORMALIZED FREE ENERGY PREDICTED BY IDOCK:   -2.80 KCAL/MOL
REMARK 922        TOTAL FREE ENERGY PREDICTED BY IDOCK:   -7.80 KCAL/MOL
REMARK 923 INTER-LIGAND FREE ENERGY PREDICTED BY IDOCK:   -5.77 KCAL/MOL
REMARK 924 INTRA-LIGAND FREE ENERGY PREDICTED BY IDOCK:   -2.03 KCAL/MOL
REMARK 927      BINDING AFFINITY PREDICTED BY RF-SCORE:    0.00 PKD
ROOT
HETATM    1  C   UNL     1      -7.582   4.996  72.700  1.00  0.00    -0.096 C  
HETATM    2  C   UNL     1      -8.378   6.063  73.431  1.00  0.00    -0.117 C  
ENDROOT
BRANCH   2   3
HETATM    3  O   UNL     1      -9.685   5.531  73.679  1.00  0.00    -0.145 OA 
BRANCH   3   4
HETATM    4  C   UNL     1     -10.704   6.334  73.262  1.00  0.00    -0.260 C  
HETATM    5  O   UNL     1     -10.890   7.486  73.618  1.00  0.00    -0.329 OA 
BRANCH   4   6
HETATM    6  C   UNL     1     -11.498   5.601  72.216  1.00  0.00    -0.278 C  
BRANCH   6   7
HETATM    7  C   UNL     1     -10.834   5.749  70.844  1.00  0.00    -0.326 C  
BRANCH   7   8
HETATM    8  C   UNL     1     -11.129   7.100  70.211  1.00  0.00    -0.303 C  
BRANCH   8   9
HETATM    9  C   UNL     1      -9.871   7.830  69.807  1.00  0.00    -0.178 C  
HETATM   10  C   UNL     1      -9.348   7.852  68.571  1.00  0.00    -0.141 C  
BRANCH  10  11
HETATM   11  C   UNL     1      -9.849   7.022  67.435  1.00  0.00    -0.197 C  
BRANCH  11  12
HETATM   12  C   UNL     1      -8.790   6.492  66.518  1.00  0.00    -0.142 C  
HETATM   13  C   UNL     1      -8.316   7.173  65.459  1.00  0.00    -0.132 C  
BRANCH  13  14
HETATM   14  C   UNL     1      -8.704   8.554  64.981  1.00  0.00    -0.124 C  
BRANCH  14  15
HETATM   15  C   UNL     1      -8.043   9.697  65.708  1.00  0.00    -0.113 C  
HETATM   16  C   UNL     1      -8.662  10.773  66.218  1.00  0.00    -0.175 C  
BRANCH  16  17
HETATM   17  C   UNL     1     -10.100  11.111  65.997  1.00  0.00    -0.292 C  
BRANCH  17  18
HETATM   18  C   UNL     1     -10.916  10.544  67.127  1.00  0.00    -0.294 C  
HETATM   19  C   UNL     1     -11.420  11.267  68.138  1.00  0.00    -0.376 C  
BRANCH  19  20
HETATM   20  C   UNL     1     -11.224  12.736  68.306  1.00  0.00    -0.308 C  
BRANCH  20  21
HETATM   21  C   UNL     1     -11.948  13.274  69.503  1.00  0.00    -0.366 C  
HETATM   22  C   UNL     1     -12.193  14.576  69.717  1.00  0.00    -0.360 C  
BRANCH  22  23
HETATM   23  C   UNL     1     -11.756  15.703  68.831  1.00  0.00    -0.396 C  
HETATM   24  C   UNL     1     -10.648  16.520  69.469  1.00  0.00    -0.321 C  
ENDBRANCH  22  23
ENDBRANCH  20  21
ENDBRANCH  19  20
ENDBRANCH  17  18
ENDBRANCH  16  17
ENDBRANCH  14  15
ENDBRANCH  13  14
ENDBRANCH  11  12
ENDBRANCH  10  11
ENDBRANCH   8   9
ENDBRANCH   7   8
ENDBRANCH   6   7
ENDBRANCH   4   6
ENDBRANCH   3   4
ENDBRANCH   2   3
TORSDOF 15
ENDMDL
MODEL      412
REMARK 921   NORMALIZED FREE ENERGY PREDICTED BY IDOCK:   -2.79 KCAL/MOL
REMARK 922        TOTAL FREE ENERGY PREDICTED BY IDOCK:   -7.79 KCAL/MOL
REMARK 923 INTER-LIGAND FREE ENERGY PREDICTED BY IDOCK:   -5.45 KCAL/MOL
REMARK 924 INTRA-LIGAND FREE ENERGY PREDICTED BY IDOCK:   -2.34 KCAL/MOL
REMARK 927      BINDING AFFINITY PREDICTED BY RF-SCORE:    0.00 PKD
ROOT
HETATM    1  C   UNL     1     -10.284   9.517  66.437  1.00  0.00    -0.302 C  
HETATM    2  C   UNL     1      -9.726   9.450  67.847  1.00  0.00    -0.152 C  
ENDROOT
BRANCH   2   3
HETATM    3  O   UNL     1      -8.337   9.115  67.747  1.00  0.00    -0.116 OA 
BRANCH   3   4
HETATM    4  C   UNL     1      -7.702   8.993  68.946  1.00  0.00    -0.094 C  
HETATM    5  O   UNL     1      -7.891   8.105  69.761  1.00  0.00    -0.100 OA 
BRANCH   4   6
HETATM    6  C   UNL     1      -6.659  10.072  69.051  1.00  0.00    -0.052 C  
BRANCH   6   7
HETATM    7  C   UNL     1      -6.256  10.560  67.656  1.00  0.00    -0.056 C  
BRANCH   7   8
HETATM    8  C   UNL     1      -6.263  12.077  67.559  1.00  0.00    -0.113 C  
BRANCH   8   9
HETATM    9  C   UNL     1      -7.218  12.710  68.541  1.00  0.00    -0.113 C  
HETATM   10  C   UNL     1      -7.826  13.896  68.380  1.00  0.00    -0.138 C  
BRANCH  10  11
HETATM   11  C   UNL     1      -7.525  14.848  67.269  1.00  0.00    -0.193 C  
BRANCH  11  12
HETATM   12  C   UNL     1      -6.326  15.719  67.485  1.00  0.00    -0.192 C  
HETATM   13  C   UNL     1      -6.368  17.063  67.439  1.00  0.00    -0.179 C  
BRANCH  13  14
HETATM   14  C   UNL     1      -7.561  17.958  67.188  1.00  0.00    -0.219 C  
BRANCH  14  15
HETATM   15  C   UNL     1      -8.607  17.392  66.262  1.00  0.00    -0.246 C  
HETATM   16  C   UNL     1      -9.935  17.433  66.450  1.00  0.00    -0.322 C  
BRANCH  16  17
HETATM   17  C   UNL     1     -10.603  17.893  67.704  1.00  0.00    -0.398 C  
BRANCH  17  18
HETATM   18  C   UNL     1     -10.071  17.096  68.864  1.00  0.00    -0.322 C  
HETATM   19  C   UNL     1     -10.572  15.920  69.270  1.00  0.00    -0.252 C  
BRANCH  19  20
HETATM   20  C   UNL     1     -11.746  15.241  68.649  1.00  0.00    -0.367 C  
BRANCH  20  21
HETATM   21  C   UNL     1     -11.497  13.783  68.405  1.00  0.00    -0.351 C  
HETATM   22  C   UNL     1     -11.465  13.215  67.189  1.00  0.00    -0.378 C  
BRANCH  22  23
HETATM   23  C   UNL     1     -11.709  13.920  65.890  1.00  0.00    -0.372 C  
HETATM   24  C   UNL     1     -10.496  13.854  64.980  1.00  0.00    -0.428 C  
ENDBRANCH  22  23
ENDBRANCH  20  21
ENDBRANCH  19  20
ENDBRANCH  17  18
ENDBRANCH  16  17
ENDBRANCH  14  15
ENDBRANCH  13  14
ENDBRANCH  11  12
ENDBRANCH  10  11
ENDBRANCH   8   9
ENDBRANCH   7   8
ENDBRANCH   6   7
ENDBRANCH   4   6
ENDBRANCH   3   4
ENDBRANCH   2   3
TORSDOF 15
ENDMDL
MODEL      413
REMARK 921   NORMALIZED FREE ENERGY PREDICTED BY IDOCK:   -2.78 KCAL/MOL
REMARK 922        TOTAL FREE ENERGY PREDICTED BY IDOCK:   -7.76 KCAL/MOL
REMARK 923 INTER-LIGAND FREE ENERGY PREDICTED BY IDOCK:   -6.05 KCAL/MOL
REMARK 924 INTRA-LIGAND FREE ENERGY PREDICTED BY IDOCK:   -1.71 KCAL/MOL
REMARK 927      BINDING AFFINITY PREDICTED BY RF-SCORE:    0.00 PKD
ROOT
HETATM    1  C   UNL     1      -8.394   4.023  70.304  1.00  0.00    -0.081 C  
HETATM    2  C   UNL     1      -8.105   3.652  68.861  1.00  0.00    -0.061 C  
ENDROOT
BRANCH   2   3
HETATM    3  O   UNL     1      -9.057   4.340  68.040  1.00  0.00    -0.116 OA 
BRANCH   3   4
HETATM    4  C   UNL     1      -8.503   5.210  67.150  1.00  0.00    -0.106 C  
HETATM    5  O   UNL     1      -7.636   4.936  66.335  1.00  0.00    -0.086 OA 
BRANCH   4   6
HETATM    6  C   UNL     1      -9.209   6.533  67.266  1.00  0.00    -0.124 C  
BRANCH   6   7
HETATM    7  C   UNL     1      -8.591   7.368  68.392  1.00  0.00    -0.124 C  
BRANCH   7   8
HETATM    8  C   UNL     1      -9.453   8.569  68.750  1.00  0.00    -0.143 C  
BRANCH   8   9
HETATM    9  C   UNL     1     -10.298   9.033  67.589  1.00  0.00    -0.317 C  
HETATM   10  C   UNL     1     -10.622  10.309  67.326  1.00  0.00    -0.324 C  
BRANCH  10  11
HETATM   11  C   UNL     1     -10.326  11.454  68.238  1.00  0.00    -0.209 C  
BRANCH  11  12
HETATM   12  C   UNL     1     -11.172  11.521  69.472  1.00  0.00    -0.305 C  
HETATM   13  C   UNL     1     -11.952  12.573  69.781  1.00  0.00    -0.359 C  
BRANCH  13  14
HETATM   14  C   UNL     1     -12.158  13.851  68.999  1.00  0.00    -0.365 C  
BRANCH  14  15
HETATM   15  C   UNL     1     -11.300  15.013  69.427  1.00  0.00    -0.314 C  
HETATM   16  C   UNL     1     -10.639  15.850  68.612  1.00  0.00    -0.250 C  
BRANCH  16  17
HETATM   17  C   UNL     1     -10.498  15.666  67.137  1.00  0.00    -0.303 C  
BRANCH  17  18
HETATM   18  C   UNL     1      -9.087  15.242  66.828  1.00  0.00    -0.283 C  
HETATM   19  C   UNL     1      -8.086  16.086  66.538  1.00  0.00    -0.304 C  
BRANCH  19  20
HETATM   20  C   UNL     1      -8.230  17.569  66.451  1.00  0.00    -0.305 C  
BRANCH  20  21
HETATM   21  C   UNL     1      -7.675  18.265  67.657  1.00  0.00    -0.230 C  
HETATM   22  C   UNL     1      -8.422  18.904  68.571  1.00  0.00    -0.384 C  
BRANCH  22  23
HETATM   23  C   UNL     1      -9.911  19.064  68.524  1.00  0.00    -0.486 C  
HETATM   24  C   UNL     1     -10.329  20.133  67.531  1.00  0.00    -0.472 C  
ENDBRANCH  22  23
ENDBRANCH  20  21
ENDBRANCH  19  20
ENDBRANCH  17  18
ENDBRANCH  16  17
ENDBRANCH  14  15
ENDBRANCH  13  14
ENDBRANCH  11  12
ENDBRANCH  10  11
ENDBRANCH   8   9
ENDBRANCH   7   8
ENDBRANCH   6   7
ENDBRANCH   4   6
ENDBRANCH   3   4
ENDBRANCH   2   3
TORSDOF 15
ENDMDL
MODEL      414
REMARK 921   NORMALIZED FREE ENERGY PREDICTED BY IDOCK:   -2.77 KCAL/MOL
REMARK 922        TOTAL FREE ENERGY PREDICTED BY IDOCK:   -7.76 KCAL/MOL
REMARK 923 INTER-LIGAND FREE ENERGY PREDICTED BY IDOCK:   -5.82 KCAL/MOL
REMARK 924 INTRA-LIGAND FREE ENERGY PREDICTED BY IDOCK:   -1.93 KCAL/MOL
REMARK 927      BINDING AFFINITY PREDICTED BY RF-SCORE:    0.00 PKD
ROOT
HETATM    1  C   UNL     1      -8.673   5.081  65.030  1.00  0.00    -0.151 C  
HETATM    2  C   UNL     1      -8.295   6.539  65.213  1.00  0.00    -0.121 C  
ENDROOT
BRANCH   2   3
HETATM    3  O   UNL     1      -7.604   6.652  66.463  1.00  0.00    -0.087 OA 
BRANCH   3   4
HETATM    4  C   UNL     1      -8.421   6.809  67.542  1.00  0.00    -0.121 C  
HETATM    5  O   UNL     1      -8.555   6.008  68.453  1.00  0.00    -0.112 OA 
BRANCH   4   6
HETATM    6  C   UNL     1      -9.048   8.175  67.477  1.00  0.00    -0.147 C  
BRANCH   6   7
HETATM    7  C   UNL     1      -7.964   9.255  67.415  1.00  0.00    -0.106 C  
BRANCH   7   8
HETATM    8  C   UNL     1      -8.552  10.642  67.211  1.00  0.00    -0.126 C  
BRANCH   8   9
HETATM    9  C   UNL     1      -8.728  10.980  65.750  1.00  0.00    -0.179 C  
HETATM   10  C   UNL     1      -9.871  11.394  65.181  1.00  0.00    -0.302 C  
BRANCH  10  11
HETATM   11  C   UNL     1     -11.190  11.433  65.882  1.00  0.00    -0.172 C  
BRANCH  11  12
HETATM   12  C   UNL     1     -11.917  12.739  65.799  1.00  0.00    -0.502 C  
HETATM   13  C   UNL     1     -11.839  13.693  66.744  1.00  0.00    -0.452 C  
BRANCH  13  14
HETATM   14  C   UNL     1     -11.038  13.681  68.027  1.00  0.00    -0.285 C  
BRANCH  14  15
HETATM   15  C   UNL     1      -9.598  14.105  67.892  1.00  0.00    -0.223 C  
HETATM   16  C   UNL     1      -9.081  15.282  68.276  1.00  0.00    -0.181 C  
BRANCH  16  17
HETATM   17  C   UNL     1      -9.884  16.451  68.746  1.00  0.00    -0.250 C  
BRANCH  17  18
HETATM   18  C   UNL     1     -10.716  16.966  67.603  1.00  0.00    -0.290 C  
HETATM   19  C   UNL     1     -10.225  17.621  66.541  1.00  0.00    -0.355 C  
BRANCH  19  20
HETATM   20  C   UNL     1      -8.785  17.959  66.348  1.00  0.00    -0.249 C  
BRANCH  20  21
HETATM   21  C   UNL     1      -8.542  19.438  66.359  1.00  0.00    -0.372 C  
HETATM   22  C   UNL     1      -8.208  20.141  67.452  1.00  0.00    -0.385 C  
BRANCH  22  23
HETATM   23  C   UNL     1      -8.064  19.586  68.836  1.00  0.00    -0.317 C  
HETATM   24  C   UNL     1      -6.639  19.145  69.118  1.00  0.00    -0.336 C  
ENDBRANCH  22  23
ENDBRANCH  20  21
ENDBRANCH  19  20
ENDBRANCH  17  18
ENDBRANCH  16  17
ENDBRANCH  14  15
ENDBRANCH  13  14
ENDBRANCH  11  12
ENDBRANCH  10  11
ENDBRANCH   8   9
ENDBRANCH   7   8
ENDBRANCH   6   7
ENDBRANCH   4   6
ENDBRANCH   3   4
ENDBRANCH   2   3
TORSDOF 15
ENDMDL
MODEL      415
REMARK 921   NORMALIZED FREE ENERGY PREDICTED BY IDOCK:   -2.75 KCAL/MOL
REMARK 922        TOTAL FREE ENERGY PREDICTED BY IDOCK:   -7.72 KCAL/MOL
REMARK 923 INTER-LIGAND FREE ENERGY PREDICTED BY IDOCK:   -5.92 KCAL/MOL
REMARK 924 INTRA-LIGAND FREE ENERGY PREDICTED BY IDOCK:   -1.80 KCAL/MOL
REMARK 927      BINDING AFFINITY PREDICTED BY RF-SCORE:    0.00 PKD
ROOT
HETATM    1  C   UNL     1      -8.966  17.426  68.392  1.00  0.00    -0.277 C  
HETATM    2  C   UNL     1      -9.428  16.446  67.329  1.00  0.00    -0.227 C  
ENDROOT
BRANCH   2   3
HETATM    3  O   UNL     1     -10.790  16.110  67.615  1.00  0.00    -0.318 OA 
BRANCH   3   4
HETATM    4  C   UNL     1     -10.951  14.909  68.239  1.00  0.00    -0.264 C  
HETATM    5  O   UNL     1     -10.401  14.568  69.273  1.00  0.00    -0.219 OA 
BRANCH   4   6
HETATM    6  C   UNL     1     -11.997  14.119  67.501  1.00  0.00    -0.419 C  
BRANCH   6   7
HETATM    7  C   UNL     1     -11.404  13.513  66.226  1.00  0.00    -0.327 C  
BRANCH   7   8
HETATM    8  C   UNL     1     -10.198  12.634  66.519  1.00  0.00    -0.255 C  
BRANCH   8   9
HETATM    9  C   UNL     1     -10.547  11.166  66.529  1.00  0.00    -0.314 C  
HETATM   10  C   UNL     1     -10.788  10.432  67.627  1.00  0.00    -0.361 C  
BRANCH  10  11
HETATM   11  C   UNL     1     -10.588  10.924  69.023  1.00  0.00    -0.248 C  
BRANCH  11  12
HETATM   12  C   UNL     1     -11.835  11.023  69.847  1.00  0.00    -0.431 C  
HETATM   13  C   UNL     1     -12.165  10.137  70.804  1.00  0.00    -0.434 C  
BRANCH  13  14
HETATM   14  C   UNL     1     -11.399   8.914  71.256  1.00  0.00    -0.371 C  
BRANCH  14  15
HETATM   15  C   UNL     1     -10.418   9.146  72.377  1.00  0.00     0.399 C  
HETATM   16  C   UNL     1      -9.897   8.205  73.179  1.00  0.00    -0.267 C  
BRANCH  16  17
HETATM   17  C   UNL     1     -10.336   6.778  73.212  1.00  0.00    -0.293 C  
BRANCH  17  18
HETATM   18  C   UNL     1      -9.121   5.890  73.221  1.00  0.00    -0.133 C  
HETATM   19  C   UNL     1      -9.078   4.655  72.700  1.00  0.00    -0.140 C  
BRANCH  19  20
HETATM   20  C   UNL     1     -10.237   3.968  72.059  1.00  0.00    -0.186 C  
BRANCH  20  21
HETATM   21  C   UNL     1      -9.862   3.306  70.767  1.00  0.00    -0.060 C  
HETATM   22  C   UNL     1      -9.765   3.946  69.591  1.00  0.00    -0.208 C  
BRANCH  22  23
HETATM   23  C   UNL     1     -10.048   5.400  69.363  1.00  0.00    -0.304 C  
HETATM   24  C   UNL     1     -10.562   5.656  67.958  1.00  0.00    -0.260 C  
ENDBRANCH  22  23
ENDBRANCH  20  21
ENDBRANCH  19  20
ENDBRANCH  17  18
ENDBRANCH  16  17
ENDBRANCH  14  15
ENDBRANCH  13  14
ENDBRANCH  11  12
ENDBRANCH  10  11
ENDBRANCH   8   9
ENDBRANCH   7   8
ENDBRANCH   6   7
ENDBRANCH   4   6
ENDBRANCH   3   4
ENDBRANCH   2   3
TORSDOF 15
ENDMDL
MODEL      416
REMARK 921   NORMALIZED FREE ENERGY PREDICTED BY IDOCK:   -2.75 KCAL/MOL
REMARK 922        TOTAL FREE ENERGY PREDICTED BY IDOCK:   -7.72 KCAL/MOL
REMARK 923 INTER-LIGAND FREE ENERGY PREDICTED BY IDOCK:   -5.90 KCAL/MOL
REMARK 924 INTRA-LIGAND FREE ENERGY PREDICTED BY IDOCK:   -1.81 KCAL/MOL
REMARK 927      BINDING AFFINITY PREDICTED BY RF-SCORE:    0.00 PKD
ROOT
HETATM    1  C   UNL     1      -9.138   5.087  70.139  1.00  0.00    -0.163 C  
HETATM    2  C   UNL     1      -8.973   4.422  68.785  1.00  0.00    -0.110 C  
ENDROOT
BRANCH   2   3
HETATM    3  O   UNL     1      -8.597   5.438  67.848  1.00  0.00    -0.105 OA 
BRANCH   3   4
HETATM    4  C   UNL     1      -9.484   5.616  66.829  1.00  0.00    -0.141 C  
HETATM    5  O   UNL     1     -10.532   5.007  66.686  1.00  0.00    -0.264 OA 
BRANCH   4   6
HETATM    6  C   UNL     1      -9.010   6.757  65.972  1.00  0.00    -0.129 C  
BRANCH   6   7
HETATM    7  C   UNL     1      -9.137   8.081  66.732  1.00  0.00    -0.189 C  
BRANCH   7   8
HETATM    8  C   UNL     1     -10.567   8.598  66.742  1.00  0.00    -0.223 C  
BRANCH   8   9
HETATM    9  C   UNL     1     -10.760   9.730  67.722  1.00  0.00    -0.329 C  
HETATM   10  C   UNL     1     -10.918  11.022  67.394  1.00  0.00    -0.349 C  
BRANCH  10  11
HETATM   11  C   UNL     1     -10.770  11.560  66.008  1.00  0.00    -0.332 C  
BRANCH  11  12
HETATM   12  C   UNL     1     -12.024  12.106  65.399  1.00  0.00    -0.296 C  
HETATM   13  C   UNL     1     -12.370  13.405  65.453  1.00  0.00    -0.522 C  
BRANCH  13  14
HETATM   14  C   UNL     1     -11.618  14.552  66.091  1.00  0.00    -0.366 C  
BRANCH  14  15
HETATM   15  C   UNL     1     -10.834  15.417  65.137  1.00  0.00    -0.447 C  
HETATM   16  C   UNL     1     -10.324  16.629  65.407  1.00  0.00    -0.214 C  
BRANCH  16  17
HETATM   17  C   UNL     1     -10.597  17.410  66.650  1.00  0.00    -0.182 C  
BRANCH  17  18
HETATM   18  C   UNL     1      -9.623  18.554  66.735  1.00  0.00    -0.329 C  
HETATM   19  C   UNL     1      -8.310  18.418  66.970  1.00  0.00    -0.257 C  
BRANCH  19  20
HETATM   20  C   UNL     1      -7.625  17.114  67.209  1.00  0.00    -0.192 C  
BRANCH  20  21
HETATM   21  C   UNL     1      -7.424  16.836  68.669  1.00  0.00    -0.219 C  
HETATM   22  C   UNL     1      -8.208  16.026  69.398  1.00  0.00    -0.135 C  
BRANCH  22  23
HETATM   23  C   UNL     1      -9.422  15.304  68.899  1.00  0.00    -0.218 C  
HETATM   24  C   UNL     1      -9.063  13.966  68.279  1.00  0.00    -0.191 C  
ENDBRANCH  22  23
ENDBRANCH  20  21
ENDBRANCH  19  20
ENDBRANCH  17  18
ENDBRANCH  16  17
ENDBRANCH  14  15
ENDBRANCH  13  14
ENDBRANCH  11  12
ENDBRANCH  10  11
ENDBRANCH   8   9
ENDBRANCH   7   8
ENDBRANCH   6   7
ENDBRANCH   4   6
ENDBRANCH   3   4
ENDBRANCH   2   3
TORSDOF 15
ENDMDL
MODEL      417
REMARK 921   NORMALIZED FREE ENERGY PREDICTED BY IDOCK:   -2.75 KCAL/MOL
REMARK 922        TOTAL FREE ENERGY PREDICTED BY IDOCK:   -7.72 KCAL/MOL
REMARK 923 INTER-LIGAND FREE ENERGY PREDICTED BY IDOCK:   -6.26 KCAL/MOL
REMARK 924 INTRA-LIGAND FREE ENERGY PREDICTED BY IDOCK:   -1.45 KCAL/MOL
REMARK 927      BINDING AFFINITY PREDICTED BY RF-SCORE:    0.00 PKD
ROOT
HETATM    1  C   UNL     1      -8.930  19.651  69.048  1.00  0.00    -0.187 C  
HETATM    2  C   UNL     1     -10.302  19.725  68.404  1.00  0.00    -0.391 C  
ENDROOT
BRANCH   2   3
HETATM    3  O   UNL     1     -10.157  20.416  67.158  1.00  0.00    -0.432 OA 
BRANCH   3   4
HETATM    4  C   UNL     1     -10.469  19.668  66.063  1.00  0.00    -0.523 C  
HETATM    5  O   UNL     1     -11.071  20.066  65.079  1.00  0.00    -0.238 OA 
BRANCH   4   6
HETATM    6  C   UNL     1      -9.859  18.302  66.223  1.00  0.00    -0.323 C  
BRANCH   6   7
HETATM    7  C   UNL     1      -8.358  18.352  65.918  1.00  0.00     0.098 C  
BRANCH   7   8
HETATM    8  C   UNL     1      -7.697  16.993  66.085  1.00  0.00    -0.292 C  
BRANCH   8   9
HETATM    9  C   UNL     1      -6.233  17.108  66.433  1.00  0.00    -0.202 C  
HETATM   10  C   UNL     1      -5.713  16.968  67.664  1.00  0.00    -0.150 C  
BRANCH  10  11
HETATM   11  C   UNL     1      -6.530  16.833  68.907  1.00  0.00    -0.178 C  
BRANCH  11  12
HETATM   12  C   UNL     1      -6.406  15.517  69.611  1.00  0.00    -0.163 C  
HETATM   13  C   UNL     1      -7.059  14.405  69.226  1.00  0.00    -0.124 C  
BRANCH  13  14
HETATM   14  C   UNL     1      -8.002  14.227  68.057  1.00  0.00    -0.142 C  
BRANCH  14  15
HETATM   15  C   UNL     1      -9.413  14.702  68.290  1.00  0.00    -0.211 C  
HETATM   16  C   UNL     1     -10.497  13.923  68.427  1.00  0.00    -0.250 C  
BRANCH  16  17
HETATM   17  C   UNL     1     -10.519  12.447  68.194  1.00  0.00    -0.228 C  
BRANCH  17  18
HETATM   18  C   UNL     1     -11.882  11.915  68.546  1.00  0.00    -0.357 C  
HETATM   19  C   UNL     1     -12.118  11.003  69.500  1.00  0.00    -0.400 C  
BRANCH  19  20
HETATM   20  C   UNL     1     -11.061  10.363  70.337  1.00  0.00    -0.371 C  
BRANCH  20  21
HETATM   21  C   UNL     1     -10.581   9.068  69.753  1.00  0.00    -0.236 C  
HETATM   22  C   UNL     1     -10.990   7.857  70.163  1.00  0.00    -0.235 C  
BRANCH  22  23
HETATM   23  C   UNL     1     -11.949   7.592  71.284  1.00  0.00    -0.330 C  
HETATM   24  C   UNL     1     -11.233   7.468  72.617  1.00  0.00    -0.399 C  
ENDBRANCH  22  23
ENDBRANCH  20  21
ENDBRANCH  19  20
ENDBRANCH  17  18
ENDBRANCH  16  17
ENDBRANCH  14  15
ENDBRANCH  13  14
ENDBRANCH  11  12
ENDBRANCH  10  11
ENDBRANCH   8   9
ENDBRANCH   7   8
ENDBRANCH   6   7
ENDBRANCH   4   6
ENDBRANCH   3   4
ENDBRANCH   2   3
TORSDOF 15
ENDMDL
MODEL      418
REMARK 921   NORMALIZED FREE ENERGY PREDICTED BY IDOCK:   -2.75 KCAL/MOL
REMARK 922        TOTAL FREE ENERGY PREDICTED BY IDOCK:   -7.71 KCAL/MOL
REMARK 923 INTER-LIGAND FREE ENERGY PREDICTED BY IDOCK:   -4.77 KCAL/MOL
REMARK 924 INTRA-LIGAND FREE ENERGY PREDICTED BY IDOCK:   -2.94 KCAL/MOL
REMARK 927      BINDING AFFINITY PREDICTED BY RF-SCORE:    0.00 PKD
ROOT
HETATM    1  C   UNL     1      -8.294  16.588  68.174  1.00  0.00    -0.186 C  
HETATM    2  C   UNL     1      -8.793  15.743  69.332  1.00  0.00    -0.237 C  
ENDROOT
BRANCH   2   3
HETATM    3  O   UNL     1     -10.073  15.216  68.961  1.00  0.00    -0.225 OA 
BRANCH   3   4
HETATM    4  C   UNL     1     -11.094  15.601  69.776  1.00  0.00    -0.313 C  
HETATM    5  O   UNL     1     -11.177  16.674  70.352  1.00  0.00    -0.260 OA 
BRANCH   4   6
HETATM    6  C   UNL     1     -12.150  14.530  69.764  1.00  0.00    -0.380 C  
BRANCH   6   7
HETATM    7  C   UNL     1     -11.642  13.291  69.021  1.00  0.00    -0.359 C  
BRANCH   7   8
HETATM    8  C   UNL     1     -11.554  12.076  69.931  1.00  0.00    -0.315 C  
BRANCH   8   9
HETATM    9  C   UNL     1     -12.023  10.814  69.248  1.00  0.00    -0.334 C  
HETATM   10  C   UNL     1     -11.303   9.689  69.116  1.00  0.00     0.029 C  
BRANCH  10  11
HETATM   11  C   UNL     1      -9.861   9.568  69.489  1.00  0.00    -0.205 C  
BRANCH  11  12
HETATM   12  C   UNL     1      -9.246   8.228  69.228  1.00  0.00    -0.151 C  
HETATM   13  C   UNL     1      -8.109   8.057  68.529  1.00  0.00    -0.125 C  
BRANCH  13  14
HETATM   14  C   UNL     1      -7.230   9.110  67.893  1.00  0.00    -0.080 C  
BRANCH  14  15
HETATM   15  C   UNL     1      -6.361   8.627  66.761  1.00  0.00    -0.059 C  
HETATM   16  C   UNL     1      -6.258   9.189  65.547  1.00  0.00    -0.063 C  
BRANCH  16  17
HETATM   17  C   UNL     1      -7.127  10.297  65.047  1.00  0.00    -0.111 C  
BRANCH  17  18
HETATM   18  C   UNL     1      -8.344   9.706  64.387  1.00  0.00    -0.171 C  
HETATM   19  C   UNL     1      -9.595   9.826  64.854  1.00  0.00    -0.316 C  
BRANCH  19  20
HETATM   20  C   UNL     1      -9.963  10.541  66.111  1.00  0.00    -0.286 C  
BRANCH  20  21
HETATM   21  C   UNL     1     -10.196  12.004  65.886  1.00  0.00    -0.263 C  
HETATM   22  C   UNL     1      -9.367  12.974  66.303  1.00  0.00    -0.149 C  
BRANCH  22  23
HETATM   23  C   UNL     1      -8.108  12.768  67.090  1.00  0.00    -0.131 C  
HETATM   24  C   UNL     1      -8.403  12.395  68.531  1.00  0.00    -0.081 C  
ENDBRANCH  22  23
ENDBRANCH  20  21
ENDBRANCH  19  20
ENDBRANCH  17  18
ENDBRANCH  16  17
ENDBRANCH  14  15
ENDBRANCH  13  14
ENDBRANCH  11  12
ENDBRANCH  10  11
ENDBRANCH   8   9
ENDBRANCH   7   8
ENDBRANCH   6   7
ENDBRANCH   4   6
ENDBRANCH   3   4
ENDBRANCH   2   3
TORSDOF 15
ENDMDL
MODEL      419
REMARK 921   NORMALIZED FREE ENERGY PREDICTED BY IDOCK:   -2.74 KCAL/MOL
REMARK 922        TOTAL FREE ENERGY PREDICTED BY IDOCK:   -7.69 KCAL/MOL
REMARK 923 INTER-LIGAND FREE ENERGY PREDICTED BY IDOCK:   -5.90 KCAL/MOL
REMARK 924 INTRA-LIGAND FREE ENERGY PREDICTED BY IDOCK:   -1.79 KCAL/MOL
REMARK 927      BINDING AFFINITY PREDICTED BY RF-SCORE:    0.00 PKD
ROOT
HETATM    1  C   UNL     1     -11.633  15.981  70.227  1.00  0.00    -0.335 C  
HETATM    2  C   UNL     1     -11.851  15.374  71.601  1.00  0.00    -0.401 C  
ENDROOT
BRANCH   2   3
HETATM    3  O   UNL     1     -12.468  14.094  71.414  1.00  0.00    -0.334 OA 
BRANCH   3   4
HETATM    4  C   UNL     1     -13.347  13.748  72.395  1.00  0.00    -0.535 C  
HETATM    5  O   UNL     1     -13.911  14.524  73.150  1.00  0.00    -0.470 OA 
BRANCH   4   6
HETATM    6  C   UNL     1     -13.589  12.265  72.324  1.00  0.00    -0.299 C  
BRANCH   6   7
HETATM    7  C   UNL     1     -12.495  11.587  71.493  1.00  0.00    -0.266 C  
BRANCH   7   8
HETATM    8  C   UNL     1     -12.876  11.486  70.024  1.00  0.00     0.175 C  
BRANCH   8   9
HETATM    9  C   UNL     1     -12.206  10.320  69.338  1.00  0.00     0.120 C  
HETATM   10  C   UNL     1     -10.933  10.296  68.912  1.00  0.00    -0.279 C  
BRANCH  10  11
HETATM   11  C   UNL     1     -10.028  11.484  68.910  1.00  0.00    -0.117 C  
BRANCH  11  12
HETATM   12  C   UNL     1      -8.799  11.347  68.065  1.00  0.00    -0.155 C  
HETATM   13  C   UNL     1      -7.875  12.317  67.937  1.00  0.00    -0.146 C  
BRANCH  13  14
HETATM   14  C   UNL     1      -7.851  13.683  68.585  1.00  0.00    -0.096 C  
BRANCH  14  15
HETATM   15  C   UNL     1      -7.359  14.804  67.706  1.00  0.00    -0.186 C  
HETATM   16  C   UNL     1      -8.114  15.771  67.161  1.00  0.00    -0.244 C  
BRANCH  16  17
HETATM   17  C   UNL     1      -9.607  15.800  67.187  1.00  0.00    -0.224 C  
BRANCH  17  18
HETATM   18  C   UNL     1     -10.119  15.954  65.780  1.00  0.00    -0.389 C  
HETATM   19  C   UNL     1     -10.325  14.937  64.931  1.00  0.00    -0.347 C  
BRANCH  19  20
HETATM   20  C   UNL     1     -10.052  13.504  65.246  1.00  0.00    -0.277 C  
BRANCH  20  21
HETATM   21  C   UNL     1     -11.132  12.595  64.741  1.00  0.00    -0.335 C  
HETATM   22  C   UNL     1     -12.435  12.735  65.032  1.00  0.00    -0.572 C  
BRANCH  22  23
HETATM   23  C   UNL     1     -13.021  13.781  65.930  1.00  0.00    -0.240 C  
HETATM   24  C   UNL     1     -12.520  13.641  67.356  1.00  0.00     0.052 C  
ENDBRANCH  22  23
ENDBRANCH  20  21
ENDBRANCH  19  20
ENDBRANCH  17  18
ENDBRANCH  16  17
ENDBRANCH  14  15
ENDBRANCH  13  14
ENDBRANCH  11  12
ENDBRANCH  10  11
ENDBRANCH   8   9
ENDBRANCH   7   8
ENDBRANCH   6   7
ENDBRANCH   4   6
ENDBRANCH   3   4
ENDBRANCH   2   3
TORSDOF 15
ENDMDL
MODEL      420
REMARK 921   NORMALIZED FREE ENERGY PREDICTED BY IDOCK:   -2.72 KCAL/MOL
REMARK 922        TOTAL FREE ENERGY PREDICTED BY IDOCK:   -7.66 KCAL/MOL
REMARK 923 INTER-LIGAND FREE ENERGY PREDICTED BY IDOCK:   -5.99 KCAL/MOL
REMARK 924 INTRA-LIGAND FREE ENERGY PREDICTED BY IDOCK:   -1.67 KCAL/MOL
REMARK 927      BINDING AFFINITY PREDICTED BY RF-SCORE:    0.00 PKD
ROOT
HETATM    1  C   UNL     1      -6.388  17.613  69.216  1.00  0.00    -0.247 C  
HETATM    2  C   UNL     1      -7.264  16.399  68.967  1.00  0.00    -0.215 C  
ENDROOT
BRANCH   2   3
HETATM    3  O   UNL     1      -8.434  16.848  68.272  1.00  0.00    -0.213 OA 
BRANCH   3   4
HETATM    4  C   UNL     1      -9.608  16.472  68.853  1.00  0.00    -0.261 C  
HETATM    5  O   UNL     1      -9.738  16.074  69.999  1.00  0.00    -0.068 OA 
BRANCH   4   6
HETATM    6  C   UNL     1     -10.729  16.728  67.883  1.00  0.00    -0.347 C  
BRANCH   6   7
HETATM    7  C   UNL     1     -10.749  15.647  66.797  1.00  0.00    -0.300 C  
BRANCH   7   8
HETATM    8  C   UNL     1     -11.664  14.489  67.162  1.00  0.00    -0.420 C  
BRANCH   8   9
HETATM    9  C   UNL     1     -12.237  13.806  65.944  1.00  0.00    -0.501 C  
HETATM   10  C   UNL     1     -11.951  12.556  65.547  1.00  0.00    -0.500 C  
BRANCH  10  11
HETATM   11  C   UNL     1     -10.895  11.701  66.167  1.00  0.00    -0.343 C  
BRANCH  11  12
HETATM   12  C   UNL     1     -10.339  10.631  65.279  1.00  0.00    -0.321 C  
HETATM   13  C   UNL     1      -9.790   9.493  65.742  1.00  0.00    -0.363 C  
BRANCH  13  14
HETATM   14  C   UNL     1      -9.626   9.046  67.178  1.00  0.00    -0.218 C  
BRANCH  14  15
HETATM   15  C   UNL     1      -9.318  10.144  68.164  1.00  0.00    -0.140 C  
HETATM   16  C   UNL     1      -8.353  10.123  69.095  1.00  0.00    -0.154 C  
BRANCH  16  17
HETATM   17  C   UNL     1      -7.526   8.927  69.435  1.00  0.00    -0.077 C  
BRANCH  17  18
HETATM   18  C   UNL     1      -7.781   8.545  70.869  1.00  0.00    -0.092 C  
HETATM   19  C   UNL     1      -8.604   7.562  71.259  1.00  0.00    -0.122 C  
BRANCH  19  20
HETATM   20  C   UNL     1      -9.411   6.717  70.330  1.00  0.00    -0.159 C  
BRANCH  20  21
HETATM   21  C   UNL     1     -10.746   6.354  70.906  1.00  0.00    -0.301 C  
HETATM   22  C   UNL     1     -11.836   7.135  70.837  1.00  0.00    -0.379 C  
BRANCH  22  23
HETATM   23  C   UNL     1     -11.895   8.499  70.220  1.00  0.00     0.193 C  
HETATM   24  C   UNL     1     -11.564   9.585  71.228  1.00  0.00    -0.445 C  
ENDBRANCH  22  23
ENDBRANCH  20  21
ENDBRANCH  19  20
ENDBRANCH  17  18
ENDBRANCH  16  17
ENDBRANCH  14  15
ENDBRANCH  13  14
ENDBRANCH  11  12
ENDBRANCH  10  11
ENDBRANCH   8   9
ENDBRANCH   7   8
ENDBRANCH   6   7
ENDBRANCH   4   6
ENDBRANCH   3   4
ENDBRANCH   2   3
TORSDOF 15
ENDMDL
MODEL      421
REMARK 921   NORMALIZED FREE ENERGY PREDICTED BY IDOCK:   -2.72 KCAL/MOL
REMARK 922        TOTAL FREE ENERGY PREDICTED BY IDOCK:   -7.65 KCAL/MOL
REMARK 923 INTER-LIGAND FREE ENERGY PREDICTED BY IDOCK:   -6.84 KCAL/MOL
REMARK 924 INTRA-LIGAND FREE ENERGY PREDICTED BY IDOCK:   -0.81 KCAL/MOL
REMARK 927      BINDING AFFINITY PREDICTED BY RF-SCORE:    0.00 PKD
ROOT
HETATM    1  C   UNL     1      -6.484  17.798  68.756  1.00  0.00    -0.225 C  
HETATM    2  C   UNL     1      -7.613  16.829  68.454  1.00  0.00    -0.205 C  
ENDROOT
BRANCH   2   3
HETATM    3  O   UNL     1      -8.307  17.321  67.302  1.00  0.00    -0.195 OA 
BRANCH   3   4
HETATM    4  C   UNL     1      -9.624  17.600  67.518  1.00  0.00    -0.267 C  
HETATM    5  O   UNL     1     -10.087  18.095  68.532  1.00  0.00    -0.366 OA 
BRANCH   4   6
HETATM    6  C   UNL     1     -10.393  17.294  66.262  1.00  0.00    -0.323 C  
BRANCH   6   7
HETATM    7  C   UNL     1     -10.219  15.822  65.877  1.00  0.00    -0.377 C  
BRANCH   7   8
HETATM    8  C   UNL     1     -11.325  14.949  66.448  1.00  0.00    -0.308 C  
BRANCH   8   9
HETATM    9  C   UNL     1     -12.035  14.153  65.380  1.00  0.00    -0.382 C  
HETATM   10  C   UNL     1     -12.078  12.813  65.309  1.00  0.00    -0.505 C  
BRANCH  10  11
HETATM   11  C   UNL     1     -11.293  11.901  66.195  1.00  0.00    -0.383 C  
BRANCH  11  12
HETATM   12  C   UNL     1     -10.470  10.873  65.481  1.00  0.00    -0.286 C  
HETATM   13  C   UNL     1      -9.981   9.770  66.076  1.00  0.00    -0.342 C  
BRANCH  13  14
HETATM   14  C   UNL     1     -10.145   9.327  67.513  1.00  0.00    -0.273 C  
BRANCH  14  15
HETATM   15  C   UNL     1     -10.026  10.422  68.542  1.00  0.00    -0.179 C  
HETATM   16  C   UNL     1      -9.391  10.332  69.722  1.00  0.00    -0.116 C  
BRANCH  16  17
HETATM   17  C   UNL     1      -8.842   9.069  70.298  1.00  0.00    -0.210 C  
BRANCH  17  18
HETATM   18  C   UNL     1      -9.275   8.956  71.735  1.00  0.00    -0.279 C  
HETATM   19  C   UNL     1      -9.984   7.935  72.237  1.00  0.00    -0.280 C  
BRANCH  19  20
HETATM   20  C   UNL     1     -10.471   6.772  71.439  1.00  0.00    -0.238 C  
BRANCH  20  21
HETATM   21  C   UNL     1     -11.666   6.115  72.063  1.00  0.00    -0.354 C  
HETATM   22  C   UNL     1     -11.602   5.235  73.075  1.00  0.00    -0.290 C  
BRANCH  22  23
HETATM   23  C   UNL     1     -10.345   4.734  73.717  1.00  0.00    -0.267 C  
HETATM   24  C   UNL     1     -10.063   3.289  73.347  1.00  0.00    -0.194 C  
ENDBRANCH  22  23
ENDBRANCH  20  21
ENDBRANCH  19  20
ENDBRANCH  17  18
ENDBRANCH  16  17
ENDBRANCH  14  15
ENDBRANCH  13  14
ENDBRANCH  11  12
ENDBRANCH  10  11
ENDBRANCH   8   9
ENDBRANCH   7   8
ENDBRANCH   6   7
ENDBRANCH   4   6
ENDBRANCH   3   4
ENDBRANCH   2   3
TORSDOF 15
ENDMDL
MODEL      422
REMARK 921   NORMALIZED FREE ENERGY PREDICTED BY IDOCK:   -2.71 KCAL/MOL
REMARK 922        TOTAL FREE ENERGY PREDICTED BY IDOCK:   -7.64 KCAL/MOL
REMARK 923 INTER-LIGAND FREE ENERGY PREDICTED BY IDOCK:   -6.28 KCAL/MOL
REMARK 924 INTRA-LIGAND FREE ENERGY PREDICTED BY IDOCK:   -1.36 KCAL/MOL
REMARK 927      BINDING AFFINITY PREDICTED BY RF-SCORE:    0.00 PKD
ROOT
HETATM    1  C   UNL     1      -9.827   9.074  66.139  1.00  0.00    -0.349 C  
HETATM    2  C   UNL     1      -9.673  10.269  65.215  1.00  0.00    -0.291 C  
ENDROOT
BRANCH   2   3
HETATM    3  O   UNL     1     -10.983  10.651  64.782  1.00  0.00    -0.024 OA 
BRANCH   3   4
HETATM    4  C   UNL     1     -11.099  11.965  64.440  1.00  0.00    -0.336 C  
HETATM    5  O   UNL     1     -10.559  12.500  63.485  1.00  0.00    -0.432 OA 
BRANCH   4   6
HETATM    6  C   UNL     1     -12.084  12.619  65.369  1.00  0.00    -0.516 C  
BRANCH   6   7
HETATM    7  C   UNL     1     -11.350  13.495  66.390  1.00  0.00    -0.335 C  
BRANCH   7   8
HETATM    8  C   UNL     1     -11.646  13.072  67.821  1.00  0.00    -0.385 C  
BRANCH   8   9
HETATM    9  C   UNL     1     -11.828  11.580  67.950  1.00  0.00    -0.255 C  
HETATM   10  C   UNL     1     -12.087  10.925  69.093  1.00  0.00    -0.292 C  
BRANCH  10  11
HETATM   11  C   UNL     1     -12.078  11.562  70.444  1.00  0.00    -0.471 C  
BRANCH  11  12
HETATM   12  C   UNL     1     -12.964  10.911  71.462  1.00  0.00    -0.556 C  
HETATM   13  C   UNL     1     -12.817   9.637  71.866  1.00  0.00    -0.515 C  
BRANCH  13  14
HETATM   14  C   UNL     1     -11.781   8.626  71.428  1.00  0.00    -0.355 C  
BRANCH  14  15
HETATM   15  C   UNL     1     -12.333   7.355  70.833  1.00  0.00    -0.236 C  
HETATM   16  C   UNL     1     -12.225   6.125  71.359  1.00  0.00     0.108 C  
BRANCH  16  17
HETATM   17  C   UNL     1     -11.383   5.776  72.542  1.00  0.00    -0.358 C  
BRANCH  17  18
HETATM   18  C   UNL     1     -12.016   4.622  73.271  1.00  0.00     0.067 C  
HETATM   19  C   UNL     1     -11.354   3.532  73.689  1.00  0.00    -0.212 C  
BRANCH  19  20
HETATM   20  C   UNL     1      -9.898   3.292  73.469  1.00  0.00    -0.161 C  
BRANCH  20  21
HETATM   21  C   UNL     1      -9.646   2.178  72.498  1.00  0.00    -0.160 C  
HETATM   22  C   UNL     1      -9.684   2.316  71.164  1.00  0.00    -0.181 C  
BRANCH  22  23
HETATM   23  C   UNL     1     -10.019   3.577  70.426  1.00  0.00     0.111 C  
HETATM   24  C   UNL     1      -8.911   3.979  69.470  1.00  0.00    -0.143 C  
ENDBRANCH  22  23
ENDBRANCH  20  21
ENDBRANCH  19  20
ENDBRANCH  17  18
ENDBRANCH  16  17
ENDBRANCH  14  15
ENDBRANCH  13  14
ENDBRANCH  11  12
ENDBRANCH  10  11
ENDBRANCH   8   9
ENDBRANCH   7   8
ENDBRANCH   6   7
ENDBRANCH   4   6
ENDBRANCH   3   4
ENDBRANCH   2   3
TORSDOF 15
ENDMDL
MODEL      423
REMARK 921   NORMALIZED FREE ENERGY PREDICTED BY IDOCK:   -2.70 KCAL/MOL
REMARK 922        TOTAL FREE ENERGY PREDICTED BY IDOCK:   -7.63 KCAL/MOL
REMARK 923 INTER-LIGAND FREE ENERGY PREDICTED BY IDOCK:   -5.53 KCAL/MOL
REMARK 924 INTRA-LIGAND FREE ENERGY PREDICTED BY IDOCK:   -2.10 KCAL/MOL
REMARK 927      BINDING AFFINITY PREDICTED BY RF-SCORE:    0.00 PKD
ROOT
HETATM    1  C   UNL     1      -8.081   4.278  70.484  1.00  0.00    -0.066 C  
HETATM    2  C   UNL     1      -7.758   4.376  69.004  1.00  0.00    -0.058 C  
ENDROOT
BRANCH   2   3
HETATM    3  O   UNL     1      -8.793   5.150  68.387  1.00  0.00    -0.101 OA 
BRANCH   3   4
HETATM    4  C   UNL     1      -8.371   6.340  67.874  1.00  0.00    -0.118 C  
HETATM    5  O   UNL     1      -7.325   6.522  67.273  1.00  0.00    -0.083 OA 
BRANCH   4   6
HETATM    6  C   UNL     1      -9.455   7.363  68.077  1.00  0.00    -0.146 C  
BRANCH   6   7
HETATM    7  C   UNL     1      -8.944   8.510  68.955  1.00  0.00    -0.146 C  
BRANCH   7   8
HETATM    8  C   UNL     1      -9.883   9.706  68.933  1.00  0.00    -0.179 C  
BRANCH   8   9
HETATM    9  C   UNL     1     -10.627   9.825  67.626  1.00  0.00    -0.333 C  
HETATM   10  C   UNL     1     -10.953  10.978  67.019  1.00  0.00    -0.333 C  
BRANCH  10  11
HETATM   11  C   UNL     1     -10.764  12.328  67.629  1.00  0.00    -0.250 C  
BRANCH  11  12
HETATM   12  C   UNL     1     -11.820  13.334  67.289  1.00  0.00    -0.421 C  
HETATM   13  C   UNL     1     -11.653  14.305  66.372  1.00  0.00    -0.381 C  
BRANCH  13  14
HETATM   14  C   UNL     1     -10.442  14.585  65.512  1.00  0.00    -0.373 C  
BRANCH  14  15
HETATM   15  C   UNL     1      -9.674  15.832  65.867  1.00  0.00    -0.389 C  
HETATM   16  C   UNL     1      -8.532  15.885  66.570  1.00  0.00    -0.348 C  
BRANCH  16  17
HETATM   17  C   UNL     1      -7.915  14.723  67.277  1.00  0.00    -0.232 C  
BRANCH  17  18
HETATM   18  C   UNL     1      -8.246  14.809  68.743  1.00  0.00    -0.163 C  
HETATM   19  C   UNL     1      -7.425  15.309  69.679  1.00  0.00    -0.181 C  
BRANCH  19  20
HETATM   20  C   UNL     1      -6.053  15.829  69.409  1.00  0.00    -0.138 C  
BRANCH  20  21
HETATM   21  C   UNL     1      -5.750  17.069  70.194  1.00  0.00    -0.212 C  
HETATM   22  C   UNL     1      -6.100  18.308  69.814  1.00  0.00    -0.211 C  
BRANCH  22  23
HETATM   23  C   UNL     1      -6.805  18.664  68.541  1.00  0.00    -0.281 C  
HETATM   24  C   UNL     1      -8.071  19.459  68.804  1.00  0.00    -0.388 C  
ENDBRANCH  22  23
ENDBRANCH  20  21
ENDBRANCH  19  20
ENDBRANCH  17  18
ENDBRANCH  16  17
ENDBRANCH  14  15
ENDBRANCH  13  14
ENDBRANCH  11  12
ENDBRANCH  10  11
ENDBRANCH   8   9
ENDBRANCH   7   8
ENDBRANCH   6   7
ENDBRANCH   4   6
ENDBRANCH   3   4
ENDBRANCH   2   3
TORSDOF 15
ENDMDL
MODEL      424
REMARK 921   NORMALIZED FREE ENERGY PREDICTED BY IDOCK:   -2.70 KCAL/MOL
REMARK 922        TOTAL FREE ENERGY PREDICTED BY IDOCK:   -7.63 KCAL/MOL
REMARK 923 INTER-LIGAND FREE ENERGY PREDICTED BY IDOCK:   -5.35 KCAL/MOL
REMARK 924 INTRA-LIGAND FREE ENERGY PREDICTED BY IDOCK:   -2.28 KCAL/MOL
REMARK 927      BINDING AFFINITY PREDICTED BY RF-SCORE:    0.00 PKD
ROOT
HETATM    1  C   UNL     1     -10.775  18.929  67.277  1.00  0.00    -0.523 C  
HETATM    2  C   UNL     1      -9.451  19.647  67.095  1.00  0.00    -0.340 C  
ENDROOT
BRANCH   2   3
HETATM    3  O   UNL     1      -8.897  19.221  65.844  1.00  0.00    -0.440 OA 
BRANCH   3   4
HETATM    4  C   UNL     1      -7.541  19.091  65.847  1.00  0.00    -0.195 C  
HETATM    5  O   UNL     1      -6.802  19.347  64.911  1.00  0.00    -0.418 OA 
BRANCH   4   6
HETATM    6  C   UNL     1      -7.099  18.683  67.226  1.00  0.00    -0.210 C  
BRANCH   6   7
HETATM    7  C   UNL     1      -6.763  17.189  67.256  1.00  0.00    -0.190 C  
BRANCH   7   8
HETATM    8  C   UNL     1      -7.425  16.478  68.426  1.00  0.00    -0.186 C  
BRANCH   8   9
HETATM    9  C   UNL     1      -8.553  15.578  67.984  1.00  0.00    -0.155 C  
HETATM   10  C   UNL     1      -8.469  14.247  67.828  1.00  0.00    -0.177 C  
BRANCH  10  11
HETATM   11  C   UNL     1      -7.195  13.472  67.915  1.00  0.00    -0.139 C  
BRANCH  11  12
HETATM   12  C   UNL     1      -6.719  13.183  69.306  1.00  0.00    -0.061 C  
HETATM   13  C   UNL     1      -5.991  12.099  69.631  1.00  0.00    -0.117 C  
BRANCH  13  14
HETATM   14  C   UNL     1      -5.500  10.992  68.726  1.00  0.00    -0.040 C  
BRANCH  14  15
HETATM   15  C   UNL     1      -5.540   9.607  69.321  1.00  0.00    -0.035 C  
HETATM   16  C   UNL     1      -6.588   8.770  69.306  1.00  0.00    -0.049 C  
BRANCH  16  17
HETATM   17  C   UNL     1      -7.962   9.136  68.848  1.00  0.00    -0.099 C  
BRANCH  17  18
HETATM   18  C   UNL     1      -8.752   9.643  70.025  1.00  0.00    -0.256 C  
HETATM   19  C   UNL     1     -10.073   9.870  70.011  1.00  0.00    -0.308 C  
BRANCH  19  20
HETATM   20  C   UNL     1     -10.951   9.679  68.820  1.00  0.00    -0.153 C  
BRANCH  20  21
HETATM   21  C   UNL     1     -11.305  10.978  68.160  1.00  0.00    -0.374 C  
HETATM   22  C   UNL     1     -10.663  11.483  67.095  1.00  0.00    -0.294 C  
BRANCH  22  23
HETATM   23  C   UNL     1      -9.477  10.868  66.417  1.00  0.00    -0.214 C  
HETATM   24  C   UNL     1      -9.893   9.932  65.297  1.00  0.00    -0.373 C  
ENDBRANCH  22  23
ENDBRANCH  20  21
ENDBRANCH  19  20
ENDBRANCH  17  18
ENDBRANCH  16  17
ENDBRANCH  14  15
ENDBRANCH  13  14
ENDBRANCH  11  12
ENDBRANCH  10  11
ENDBRANCH   8   9
ENDBRANCH   7   8
ENDBRANCH   6   7
ENDBRANCH   4   6
ENDBRANCH   3   4
ENDBRANCH   2   3
TORSDOF 15
ENDMDL
MODEL      425
REMARK 921   NORMALIZED FREE ENERGY PREDICTED BY IDOCK:   -2.70 KCAL/MOL
REMARK 922        TOTAL FREE ENERGY PREDICTED BY IDOCK:   -7.62 KCAL/MOL
REMARK 923 INTER-LIGAND FREE ENERGY PREDICTED BY IDOCK:   -5.32 KCAL/MOL
REMARK 924 INTRA-LIGAND FREE ENERGY PREDICTED BY IDOCK:   -2.30 KCAL/MOL
REMARK 927      BINDING AFFINITY PREDICTED BY RF-SCORE:    0.00 PKD
ROOT
HETATM    1  C   UNL     1      -9.944  19.346  68.244  1.00  0.00    -0.516 C  
HETATM    2  C   UNL     1      -8.813  20.167  67.651  1.00  0.00    -0.309 C  
ENDROOT
BRANCH   2   3
HETATM    3  O   UNL     1      -8.550  19.656  66.340  1.00  0.00    -0.333 OA 
BRANCH   3   4
HETATM    4  C   UNL     1      -7.309  19.953  65.861  1.00  0.00    -0.320 C  
HETATM    5  O   UNL     1      -7.069  20.448  64.771  1.00  0.00    -0.185 OA 
BRANCH   4   6
HETATM    6  C   UNL     1      -6.297  19.669  66.936  1.00  0.00    -0.192 C  
BRANCH   6   7
HETATM    7  C   UNL     1      -5.851  18.205  66.873  1.00  0.00    -0.168 C  
BRANCH   7   8
HETATM    8  C   UNL     1      -5.564  17.636  68.254  1.00  0.00    -0.152 C  
BRANCH   8   9
HETATM    9  C   UNL     1      -6.800  17.070  68.908  1.00  0.00    -0.211 C  
HETATM   10  C   UNL     1      -7.329  15.862  68.657  1.00  0.00    -0.141 C  
BRANCH  10  11
HETATM   11  C   UNL     1      -6.860  14.953  67.568  1.00  0.00    -0.189 C  
BRANCH  11  12
HETATM   12  C   UNL     1      -5.644  14.141  67.896  1.00  0.00    -0.099 C  
HETATM   13  C   UNL     1      -5.574  12.808  67.727  1.00  0.00    -0.128 C  
BRANCH  13  14
HETATM   14  C   UNL     1      -6.634  11.873  67.188  1.00  0.00    -0.148 C  
BRANCH  14  15
HETATM   15  C   UNL     1      -7.498  11.209  68.229  1.00  0.00    -0.094 C  
HETATM   16  C   UNL     1      -8.720  11.609  68.614  1.00  0.00    -0.083 C  
BRANCH  16  17
HETATM   17  C   UNL     1      -9.365  12.891  68.201  1.00  0.00    -0.214 C  
BRANCH  17  18
HETATM   18  C   UNL     1     -10.856  12.763  68.358  1.00  0.00    -0.272 C  
HETATM   19  C   UNL     1     -11.694  12.392  67.378  1.00  0.00    -0.417 C  
BRANCH  19  20
HETATM   20  C   UNL     1     -11.274  12.078  65.981  1.00  0.00    -0.385 C  
BRANCH  20  21
HETATM   21  C   UNL     1     -11.032  10.613  65.776  1.00  0.00     0.091 C  
HETATM   22  C   UNL     1      -9.998  10.107  65.085  1.00  0.00    -0.379 C  
BRANCH  22  23
HETATM   23  C   UNL     1      -8.949  10.907  64.375  1.00  0.00    -0.121 C  
HETATM   24  C   UNL     1      -9.203  10.963  62.879  1.00  0.00    -0.348 C  
ENDBRANCH  22  23
ENDBRANCH  20  21
ENDBRANCH  19  20
ENDBRANCH  17  18
ENDBRANCH  16  17
ENDBRANCH  14  15
ENDBRANCH  13  14
ENDBRANCH  11  12
ENDBRANCH  10  11
ENDBRANCH   8   9
ENDBRANCH   7   8
ENDBRANCH   6   7
ENDBRANCH   4   6
ENDBRANCH   3   4
ENDBRANCH   2   3
TORSDOF 15
ENDMDL
MODEL      426
REMARK 921   NORMALIZED FREE ENERGY PREDICTED BY IDOCK:   -2.69 KCAL/MOL
REMARK 922        TOTAL FREE ENERGY PREDICTED BY IDOCK:   -7.60 KCAL/MOL
REMARK 923 INTER-LIGAND FREE ENERGY PREDICTED BY IDOCK:   -6.46 KCAL/MOL
REMARK 924 INTRA-LIGAND FREE ENERGY PREDICTED BY IDOCK:   -1.15 KCAL/MOL
REMARK 927      BINDING AFFINITY PREDICTED BY RF-SCORE:    0.00 PKD
ROOT
HETATM    1  C   UNL     1     -12.614  12.019  63.767  1.00  0.00    -0.567 C  
HETATM    2  C   UNL     1     -11.160  11.859  63.360  1.00  0.00    -0.383 C  
ENDROOT
BRANCH   2   3
HETATM    3  O   UNL     1     -10.605  10.800  64.149  1.00  0.00    -0.347 OA 
BRANCH   3   4
HETATM    4  C   UNL     1      -9.429  11.114  64.760  1.00  0.00    -0.218 C  
HETATM    5  O   UNL     1      -8.424  10.421  64.765  1.00  0.00    -0.171 OA 
BRANCH   4   6
HETATM    6  C   UNL     1      -9.539  12.500  65.335  1.00  0.00    -0.015 C  
BRANCH   6   7
HETATM    7  C   UNL     1      -9.283  12.471  66.845  1.00  0.00    -0.211 C  
BRANCH   7   8
HETATM    8  C   UNL     1      -9.897  11.245  67.504  1.00  0.00    -0.195 C  
BRANCH   8   9
HETATM    9  C   UNL     1     -11.405  11.298  67.518  1.00  0.00    -0.360 C  
HETATM   10  C   UNL     1     -12.152  11.949  68.424  1.00  0.00    -0.086 C  
BRANCH  10  11
HETATM   11  C   UNL     1     -11.603  12.593  69.654  1.00  0.00    -0.321 C  
BRANCH  11  12
HETATM   12  C   UNL     1     -12.527  12.607  70.833  1.00  0.00    -0.368 C  
HETATM   13  C   UNL     1     -12.847  11.507  71.539  1.00  0.00    -0.485 C  
BRANCH  13  14
HETATM   14  C   UNL     1     -12.369  10.087  71.332  1.00  0.00    -0.512 C  
BRANCH  14  15
HETATM   15  C   UNL     1     -10.879   9.886  71.449  1.00  0.00    -0.012 C  
HETATM   16  C   UNL     1     -10.266   8.852  72.046  1.00  0.00    -0.363 C  
BRANCH  16  17
HETATM   17  C   UNL     1     -10.957   7.806  72.857  1.00  0.00    -0.467 C  
BRANCH  17  18
HETATM   18  C   UNL     1     -11.565   6.788  71.929  1.00  0.00    -0.330 C  
HETATM   19  C   UNL     1     -10.931   5.694  71.483  1.00  0.00    -0.268 C  
BRANCH  19  20
HETATM   20  C   UNL     1      -9.522   5.337  71.818  1.00  0.00    -0.183 C  
BRANCH  20  21
HETATM   21  C   UNL     1      -8.661   5.211  70.597  1.00  0.00    -0.142 C  
HETATM   22  C   UNL     1      -8.566   4.100  69.851  1.00  0.00    -0.103 C  
BRANCH  22  23
HETATM   23  C   UNL     1      -9.260   2.801  70.127  1.00  0.00    -0.205 C  
HETATM   24  C   UNL     1      -8.919   1.750  69.086  1.00  0.00    -0.145 C  
ENDBRANCH  22  23
ENDBRANCH  20  21
ENDBRANCH  19  20
ENDBRANCH  17  18
ENDBRANCH  16  17
ENDBRANCH  14  15
ENDBRANCH  13  14
ENDBRANCH  11  12
ENDBRANCH  10  11
ENDBRANCH   8   9
ENDBRANCH   7   8
ENDBRANCH   6   7
ENDBRANCH   4   6
ENDBRANCH   3   4
ENDBRANCH   2   3
TORSDOF 15
ENDMDL
MODEL      427
REMARK 921   NORMALIZED FREE ENERGY PREDICTED BY IDOCK:   -2.68 KCAL/MOL
REMARK 922        TOTAL FREE ENERGY PREDICTED BY IDOCK:   -7.59 KCAL/MOL
REMARK 923 INTER-LIGAND FREE ENERGY PREDICTED BY IDOCK:   -6.57 KCAL/MOL
REMARK 924 INTRA-LIGAND FREE ENERGY PREDICTED BY IDOCK:   -1.01 KCAL/MOL
REMARK 927      BINDING AFFINITY PREDICTED BY RF-SCORE:    0.00 PKD
ROOT
HETATM    1  C   UNL     1     -13.362  16.268  73.616  1.00  0.00    -0.203 C  
HETATM    2  C   UNL     1     -12.401  15.232  74.170  1.00  0.00    -0.625 C  
ENDROOT
BRANCH   2   3
HETATM    3  O   UNL     1     -12.429  14.103  73.289  1.00  0.00    -0.199 OA 
BRANCH   3   4
HETATM    4  C   UNL     1     -13.039  14.340  72.095  1.00  0.00    -0.382 C  
HETATM    5  O   UNL     1     -14.231  14.209  71.869  1.00  0.00    -0.461 OA 
BRANCH   4   6
HETATM    6  C   UNL     1     -12.021  14.889  71.134  1.00  0.00    -0.389 C  
BRANCH   6   7
HETATM    7  C   UNL     1     -12.373  14.487  69.698  1.00  0.00    -0.284 C  
BRANCH   7   8
HETATM    8  C   UNL     1     -11.279  13.648  69.057  1.00  0.00    -0.316 C  
BRANCH   8   9
HETATM    9  C   UNL     1     -11.817  12.376  68.447  1.00  0.00    -0.361 C  
HETATM   10  C   UNL     1     -12.262  11.313  69.135  1.00  0.00    -0.251 C  
BRANCH  10  11
HETATM   11  C   UNL     1     -12.144  11.164  70.616  1.00  0.00    -0.477 C  
BRANCH  11  12
HETATM   12  C   UNL     1     -12.578   9.838  71.160  1.00  0.00    -0.438 C  
HETATM   13  C   UNL     1     -11.825   8.725  71.089  1.00  0.00    -0.345 C  
BRANCH  13  14
HETATM   14  C   UNL     1     -10.445   8.561  70.493  1.00  0.00    -0.230 C  
BRANCH  14  15
HETATM   15  C   UNL     1      -9.332   8.362  71.490  1.00  0.00    -0.263 C  
HETATM   16  C   UNL     1      -8.478   7.328  71.526  1.00  0.00    -0.113 C  
BRANCH  16  17
HETATM   17  C   UNL     1      -8.595   6.099  70.685  1.00  0.00    -0.135 C  
BRANCH  17  18
HETATM   18  C   UNL     1      -7.229   5.716  70.183  1.00  0.00    -0.068 C  
HETATM   19  C   UNL     1      -6.793   5.925  68.932  1.00  0.00    -0.066 C  
BRANCH  19  20
HETATM   20  C   UNL     1      -7.607   6.544  67.846  1.00  0.00    -0.103 C  
BRANCH  20  21
HETATM   21  C   UNL     1      -7.580   8.042  67.897  1.00  0.00    -0.112 C  
HETATM   22  C   UNL     1      -8.405   8.838  67.199  1.00  0.00    -0.103 C  
BRANCH  22  23
HETATM   23  C   UNL     1      -9.452   8.375  66.232  1.00  0.00    -0.292 C  
HETATM   24  C   UNL     1     -10.604   7.685  66.940  1.00  0.00    -0.359 C  
ENDBRANCH  22  23
ENDBRANCH  20  21
ENDBRANCH  19  20
ENDBRANCH  17  18
ENDBRANCH  16  17
ENDBRANCH  14  15
ENDBRANCH  13  14
ENDBRANCH  11  12
ENDBRANCH  10  11
ENDBRANCH   8   9
ENDBRANCH   7   8
ENDBRANCH   6   7
ENDBRANCH   4   6
ENDBRANCH   3   4
ENDBRANCH   2   3
TORSDOF 15
ENDMDL
MODEL      428
REMARK 921   NORMALIZED FREE ENERGY PREDICTED BY IDOCK:   -2.67 KCAL/MOL
REMARK 922        TOTAL FREE ENERGY PREDICTED BY IDOCK:   -7.56 KCAL/MOL
REMARK 923 INTER-LIGAND FREE ENERGY PREDICTED BY IDOCK:   -5.83 KCAL/MOL
REMARK 924 INTRA-LIGAND FREE ENERGY PREDICTED BY IDOCK:   -1.73 KCAL/MOL
REMARK 927      BINDING AFFINITY PREDICTED BY RF-SCORE:    0.00 PKD
ROOT
HETATM    1  C   UNL     1     -12.071  11.689  70.023  1.00  0.00    -0.395 C  
HETATM    2  C   UNL     1     -12.810  11.167  71.241  1.00  0.00    -0.412 C  
ENDROOT
BRANCH   2   3
HETATM    3  O   UNL     1     -13.320   9.869  70.913  1.00  0.00    -0.349 OA 
BRANCH   3   4
HETATM    4  C   UNL     1     -13.406   9.017  71.972  1.00  0.00    -0.438 C  
HETATM    5  O   UNL     1     -14.364   8.908  72.720  1.00  0.00    -0.600 OA 
BRANCH   4   6
HETATM    6  C   UNL     1     -12.169   8.161  72.003  1.00  0.00    -0.385 C  
BRANCH   6   7
HETATM    7  C   UNL     1     -12.384   6.887  71.180  1.00  0.00    -0.419 C  
BRANCH   7   8
HETATM    8  C   UNL     1     -11.222   6.613  70.238  1.00  0.00    -0.408 C  
BRANCH   8   9
HETATM    9  C   UNL     1     -10.628   5.242  70.445  1.00  0.00    -0.278 C  
HETATM   10  C   UNL     1      -9.644   4.943  71.308  1.00  0.00    -0.229 C  
BRANCH  10  11
HETATM   11  C   UNL     1      -8.875   5.960  72.086  1.00  0.00    -0.136 C  
BRANCH  11  12
HETATM   12  C   UNL     1      -7.398   5.970  71.837  1.00  0.00    -0.094 C  
HETATM   13  C   UNL     1      -6.823   6.624  70.811  1.00  0.00    -0.063 C  
BRANCH  13  14
HETATM   14  C   UNL     1      -7.486   7.462  69.742  1.00  0.00    -0.092 C  
BRANCH  14  15
HETATM   15  C   UNL     1      -6.545   8.208  68.831  1.00  0.00    -0.049 C  
HETATM   16  C   UNL     1      -6.318   9.530  68.840  1.00  0.00    -0.043 C  
BRANCH  16  17
HETATM   17  C   UNL     1      -7.097  10.522  69.641  1.00  0.00    -0.141 C  
BRANCH  17  18
HETATM   18  C   UNL     1      -6.402  11.856  69.580  1.00  0.00    -0.124 C  
HETATM   19  C   UNL     1      -6.650  12.800  68.661  1.00  0.00    -0.084 C  
BRANCH  19  20
HETATM   20  C   UNL     1      -7.632  12.658  67.547  1.00  0.00    -0.160 C  
BRANCH  20  21
HETATM   21  C   UNL     1      -8.652  13.756  67.544  1.00  0.00    -0.194 C  
HETATM   22  C   UNL     1      -9.606  13.899  66.610  1.00  0.00    -0.297 C  
BRANCH  22  23
HETATM   23  C   UNL     1      -9.787  13.025  65.407  1.00  0.00    -0.127 C  
HETATM   24  C   UNL     1     -10.562  11.764  65.742  1.00  0.00    -0.312 C  
ENDBRANCH  22  23
ENDBRANCH  20  21
ENDBRANCH  19  20
ENDBRANCH  17  18
ENDBRANCH  16  17
ENDBRANCH  14  15
ENDBRANCH  13  14
ENDBRANCH  11  12
ENDBRANCH  10  11
ENDBRANCH   8   9
ENDBRANCH   7   8
ENDBRANCH   6   7
ENDBRANCH   4   6
ENDBRANCH   3   4
ENDBRANCH   2   3
TORSDOF 15
ENDMDL
MODEL      429
REMARK 921   NORMALIZED FREE ENERGY PREDICTED BY IDOCK:   -2.67 KCAL/MOL
REMARK 922        TOTAL FREE ENERGY PREDICTED BY IDOCK:   -7.55 KCAL/MOL
REMARK 923 INTER-LIGAND FREE ENERGY PREDICTED BY IDOCK:   -4.33 KCAL/MOL
REMARK 924 INTRA-LIGAND FREE ENERGY PREDICTED BY IDOCK:   -3.22 KCAL/MOL
REMARK 927      BINDING AFFINITY PREDICTED BY RF-SCORE:    0.00 PKD
ROOT
HETATM    1  C   UNL     1     -11.338   9.775  70.946  1.00  0.00    -0.439 C  
HETATM    2  C   UNL     1     -12.020   8.455  71.259  1.00  0.00    -0.288 C  
ENDROOT
BRANCH   2   3
HETATM    3  O   UNL     1     -11.953   8.261  72.677  1.00  0.00    -0.399 OA 
BRANCH   3   4
HETATM    4  C   UNL     1     -11.063   7.306  73.070  1.00  0.00    -0.317 C  
HETATM    5  O   UNL     1     -10.266   7.414  73.988  1.00  0.00    -0.262 OA 
BRANCH   4   6
HETATM    6  C   UNL     1     -11.299   6.064  72.255  1.00  0.00    -0.353 C  
BRANCH   6   7
HETATM    7  C   UNL     1     -11.226   4.821  73.147  1.00  0.00    -0.390 C  
BRANCH   7   8
HETATM    8  C   UNL     1     -10.303   3.759  72.571  1.00  0.00    -0.204 C  
BRANCH   8   9
HETATM    9  C   UNL     1      -8.981   3.695  73.296  1.00  0.00    -0.104 C  
HETATM   10  C   UNL     1      -7.773   3.673  72.709  1.00  0.00    -0.065 C  
BRANCH  10  11
HETATM   11  C   UNL     1      -7.560   3.548  71.236  1.00  0.00    -0.048 C  
BRANCH  11  12
HETATM   12  C   UNL     1      -6.812   2.325  70.802  1.00  0.00    -0.032 C  
HETATM   13  C   UNL     1      -7.216   1.526  69.798  1.00  0.00    -0.036 C  
BRANCH  13  14
HETATM   14  C   UNL     1      -8.436   1.670  68.915  1.00  0.00    -0.081 C  
BRANCH  14  15
HETATM   15  C   UNL     1      -8.332   2.720  67.839  1.00  0.00    -0.094 C  
HETATM   16  C   UNL     1      -8.946   3.913  67.836  1.00  0.00    -0.155 C  
BRANCH  16  17
HETATM   17  C   UNL     1      -9.985   4.336  68.822  1.00  0.00    -0.023 C  
BRANCH  17  18
HETATM   18  C   UNL     1     -10.414   5.744  68.507  1.00  0.00    -0.290 C  
HETATM   19  C   UNL     1      -9.791   6.846  68.952  1.00  0.00    -0.147 C  
BRANCH  19  20
HETATM   20  C   UNL     1      -8.596   6.838  69.845  1.00  0.00    -0.141 C  
BRANCH  20  21
HETATM   21  C   UNL     1      -8.233   8.212  70.321  1.00  0.00    -0.122 C  
HETATM   22  C   UNL     1      -7.655   8.474  71.504  1.00  0.00    -0.131 C  
BRANCH  22  23
HETATM   23  C   UNL     1      -7.316   7.460  72.553  1.00  0.00    -0.076 C  
HETATM   24  C   UNL     1      -6.659   8.102  73.761  1.00  0.00    -0.137 C  
ENDBRANCH  22  23
ENDBRANCH  20  21
ENDBRANCH  19  20
ENDBRANCH  17  18
ENDBRANCH  16  17
ENDBRANCH  14  15
ENDBRANCH  13  14
ENDBRANCH  11  12
ENDBRANCH  10  11
ENDBRANCH   8   9
ENDBRANCH   7   8
ENDBRANCH   6   7
ENDBRANCH   4   6
ENDBRANCH   3   4
ENDBRANCH   2   3
TORSDOF 15
ENDMDL
MODEL      430
REMARK 921   NORMALIZED FREE ENERGY PREDICTED BY IDOCK:   -2.66 KCAL/MOL
REMARK 922        TOTAL FREE ENERGY PREDICTED BY IDOCK:   -7.55 KCAL/MOL
REMARK 923 INTER-LIGAND FREE ENERGY PREDICTED BY IDOCK:   -5.70 KCAL/MOL
REMARK 924 INTRA-LIGAND FREE ENERGY PREDICTED BY IDOCK:   -1.85 KCAL/MOL
REMARK 927      BINDING AFFINITY PREDICTED BY RF-SCORE:    0.00 PKD
ROOT
HETATM    1  C   UNL     1      -9.522   4.886  70.030  1.00  0.00    -0.234 C  
HETATM    2  C   UNL     1     -10.015   4.692  68.608  1.00  0.00    -0.070 C  
ENDROOT
BRANCH   2   3
HETATM    3  O   UNL     1      -9.288   5.599  67.771  1.00  0.00    -0.110 OA 
BRANCH   3   4
HETATM    4  C   UNL     1     -10.070   6.490  67.099  1.00  0.00    -0.170 C  
HETATM    5  O   UNL     1     -11.283   6.586  67.199  1.00  0.00    -0.388 OA 
BRANCH   4   6
HETATM    6  C   UNL     1      -9.182   7.402  66.298  1.00  0.00    -0.182 C  
BRANCH   6   7
HETATM    7  C   UNL     1      -8.452   8.381  67.223  1.00  0.00    -0.124 C  
BRANCH   7   8
HETATM    8  C   UNL     1      -9.262   9.645  67.469  1.00  0.00    -0.149 C  
BRANCH   8   9
HETATM    9  C   UNL     1      -8.792  10.396  68.690  1.00  0.00    -0.142 C  
HETATM   10  C   UNL     1      -8.220  11.611  68.682  1.00  0.00    -0.110 C  
BRANCH  10  11
HETATM   11  C   UNL     1      -7.815  12.338  67.442  1.00  0.00    -0.171 C  
BRANCH  11  12
HETATM   12  C   UNL     1      -8.792  13.365  66.958  1.00  0.00    -0.217 C  
HETATM   13  C   UNL     1      -8.771  14.652  67.348  1.00  0.00    -0.209 C  
BRANCH  13  14
HETATM   14  C   UNL     1      -7.809  15.330  68.298  1.00  0.00    -0.116 C  
BRANCH  14  15
HETATM   15  C   UNL     1      -6.458  15.663  67.717  1.00  0.00    -0.181 C  
HETATM   16  C   UNL     1      -6.197  16.638  66.833  1.00  0.00    -0.189 C  
BRANCH  16  17
HETATM   17  C   UNL     1      -7.235  17.451  66.132  1.00  0.00    -0.327 C  
BRANCH  17  18
HETATM   18  C   UNL     1      -6.696  18.837  65.896  1.00  0.00    -0.294 C  
HETATM   19  C   UNL     1      -7.020  19.913  66.628  1.00  0.00    -0.243 C  
BRANCH  19  20
HETATM   20  C   UNL     1      -7.982  19.901  67.768  1.00  0.00    -0.326 C  
BRANCH  20  21
HETATM   21  C   UNL     1      -9.356  20.337  67.356  1.00  0.00    -0.531 C  
HETATM   22  C   UNL     1     -10.419  19.520  67.284  1.00  0.00    -0.590 C  
BRANCH  22  23
HETATM   23  C   UNL     1     -10.407  18.047  67.557  1.00  0.00    -0.394 C  
HETATM   24  C   UNL     1     -10.341  17.753  69.045  1.00  0.00    -0.234 C  
ENDBRANCH  22  23
ENDBRANCH  20  21
ENDBRANCH  19  20
ENDBRANCH  17  18
ENDBRANCH  16  17
ENDBRANCH  14  15
ENDBRANCH  13  14
ENDBRANCH  11  12
ENDBRANCH  10  11
ENDBRANCH   8   9
ENDBRANCH   7   8
ENDBRANCH   6   7
ENDBRANCH   4   6
ENDBRANCH   3   4
ENDBRANCH   2   3
TORSDOF 15
ENDMDL
MODEL      431
REMARK 921   NORMALIZED FREE ENERGY PREDICTED BY IDOCK:   -2.64 KCAL/MOL
REMARK 922        TOTAL FREE ENERGY PREDICTED BY IDOCK:   -7.50 KCAL/MOL
REMARK 923 INTER-LIGAND FREE ENERGY PREDICTED BY IDOCK:   -6.29 KCAL/MOL
REMARK 924 INTRA-LIGAND FREE ENERGY PREDICTED BY IDOCK:   -1.21 KCAL/MOL
REMARK 927      BINDING AFFINITY PREDICTED BY RF-SCORE:    0.00 PKD
ROOT
HETATM    1  C   UNL     1     -10.310   4.149  65.012  1.00  0.00    -0.209 C  
HETATM    2  C   UNL     1      -9.439   4.403  66.228  1.00  0.00    -0.174 C  
ENDROOT
BRANCH   2   3
HETATM    3  O   UNL     1      -8.856   3.151  66.610  1.00  0.00    -0.127 OA 
BRANCH   3   4
HETATM    4  C   UNL     1      -9.261   2.693  67.828  1.00  0.00    -0.200 C  
HETATM    5  O   UNL     1      -9.580   1.543  68.083  1.00  0.00    -0.189 OA 
BRANCH   4   6
HETATM    6  C   UNL     1      -9.149   3.813  68.825  1.00  0.00    -0.199 C  
BRANCH   6   7
HETATM    7  C   UNL     1      -9.407   3.292  70.242  1.00  0.00    -0.242 C  
BRANCH   7   8
HETATM    8  C   UNL     1      -8.115   3.073  71.014  1.00  0.00    -0.062 C  
BRANCH   8   9
HETATM    9  C   UNL     1      -7.829   4.197  71.980  1.00  0.00    -0.084 C  
HETATM   10  C   UNL     1      -8.562   4.496  73.064  1.00  0.00    -0.105 C  
BRANCH  10  11
HETATM   11  C   UNL     1      -9.871   3.856  73.392  1.00  0.00    -0.161 C  
BRANCH  11  12
HETATM   12  C   UNL     1     -10.961   4.802  73.793  1.00  0.00    -0.371 C  
HETATM   13  C   UNL     1     -11.357   5.841  73.036  1.00  0.00    -0.254 C  
BRANCH  13  14
HETATM   14  C   UNL     1     -10.840   6.266  71.680  1.00  0.00    -0.298 C  
BRANCH  14  15
HETATM   15  C   UNL     1     -10.126   7.594  71.650  1.00  0.00    -0.212 C  
HETATM   16  C   UNL     1     -10.703   8.799  71.530  1.00  0.00    -0.371 C  
BRANCH  16  17
HETATM   17  C   UNL     1     -12.148   9.024  71.227  1.00  0.00    -0.375 C  
BRANCH  17  18
HETATM   18  C   UNL     1     -12.426  10.503  71.231  1.00  0.00    -0.524 C  
HETATM   19  C   UNL     1     -12.153  11.330  70.210  1.00  0.00    -0.459 C  
BRANCH  19  20
HETATM   20  C   UNL     1     -11.510  10.909  68.931  1.00  0.00    -0.369 C  
BRANCH  20  21
HETATM   21  C   UNL     1     -10.470  11.885  68.470  1.00  0.00    -0.240 C  
HETATM   22  C   UNL     1     -10.663  12.793  67.501  1.00  0.00    -0.247 C  
BRANCH  22  23
HETATM   23  C   UNL     1     -11.916  12.959  66.696  1.00  0.00    -0.436 C  
HETATM   24  C   UNL     1     -11.651  12.815  65.209  1.00  0.00    -0.379 C  
ENDBRANCH  22  23
ENDBRANCH  20  21
ENDBRANCH  19  20
ENDBRANCH  17  18
ENDBRANCH  16  17
ENDBRANCH  14  15
ENDBRANCH  13  14
ENDBRANCH  11  12
ENDBRANCH  10  11
ENDBRANCH   8   9
ENDBRANCH   7   8
ENDBRANCH   6   7
ENDBRANCH   4   6
ENDBRANCH   3   4
ENDBRANCH   2   3
TORSDOF 15
ENDMDL
MODEL      432
REMARK 921   NORMALIZED FREE ENERGY PREDICTED BY IDOCK:   -2.63 KCAL/MOL
REMARK 922        TOTAL FREE ENERGY PREDICTED BY IDOCK:   -7.49 KCAL/MOL
REMARK 923 INTER-LIGAND FREE ENERGY PREDICTED BY IDOCK:   -5.85 KCAL/MOL
REMARK 924 INTRA-LIGAND FREE ENERGY PREDICTED BY IDOCK:   -1.64 KCAL/MOL
REMARK 927      BINDING AFFINITY PREDICTED BY RF-SCORE:    0.00 PKD
ROOT
HETATM    1  C   UNL     1     -10.982   6.138  72.339  1.00  0.00    -0.299 C  
HETATM    2  C   UNL     1     -10.051   4.940  72.384  1.00  0.00    -0.187 C  
ENDROOT
BRANCH   2   3
HETATM    3  O   UNL     1     -10.530   3.984  71.431  1.00  0.00     0.033 OA 
BRANCH   3   4
HETATM    4  C   UNL     1      -9.555   3.425  70.661  1.00  0.00    -0.168 C  
HETATM    5  O   UNL     1      -9.355   2.228  70.529  1.00  0.00    -0.116 OA 
BRANCH   4   6
HETATM    6  C   UNL     1      -8.837   4.519  69.921  1.00  0.00    -0.129 C  
BRANCH   6   7
HETATM    7  C   UNL     1      -9.586   4.871  68.633  1.00  0.00    -0.215 C  
BRANCH   7   8
HETATM    8  C   UNL     1     -10.576   6.007  68.841  1.00  0.00    -0.356 C  
BRANCH   8   9
HETATM    9  C   UNL     1      -9.889   7.319  69.129  1.00  0.00    -0.166 C  
HETATM   10  C   UNL     1      -9.873   8.384  68.312  1.00  0.00    -0.189 C  
BRANCH  10  11
HETATM   11  C   UNL     1     -10.403   8.377  66.916  1.00  0.00    -0.378 C  
BRANCH  11  12
HETATM   12  C   UNL     1      -9.412   8.747  65.856  1.00  0.00    -0.278 C  
HETATM   13  C   UNL     1      -9.204  10.010  65.442  1.00  0.00    -0.259 C  
BRANCH  13  14
HETATM   14  C   UNL     1      -9.871  11.278  65.927  1.00  0.00    -0.272 C  
BRANCH  14  15
HETATM   15  C   UNL     1      -9.033  12.138  66.838  1.00  0.00    -0.201 C  
HETATM   16  C   UNL     1      -9.255  13.429  67.132  1.00  0.00    -0.240 C  
BRANCH  16  17
HETATM   17  C   UNL     1     -10.276  14.290  66.463  1.00  0.00    -0.277 C  
BRANCH  17  18
HETATM   18  C   UNL     1     -11.459  14.448  67.380  1.00  0.00    -0.377 C  
HETATM   19  C   UNL     1     -11.583  15.416  68.300  1.00  0.00    -0.361 C  
BRANCH  19  20
HETATM   20  C   UNL     1     -10.554  16.462  68.570  1.00  0.00    -0.304 C  
BRANCH  20  21
HETATM   21  C   UNL     1     -10.894  17.773  67.928  1.00  0.00    -0.229 C  
HETATM   22  C   UNL     1     -10.165  18.352  66.961  1.00  0.00    -0.402 C  
BRANCH  22  23
HETATM   23  C   UNL     1      -8.885  17.818  66.394  1.00  0.00    -0.256 C  
HETATM   24  C   UNL     1      -7.690  18.202  67.248  1.00  0.00    -0.226 C  
ENDBRANCH  22  23
ENDBRANCH  20  21
ENDBRANCH  19  20
ENDBRANCH  17  18
ENDBRANCH  16  17
ENDBRANCH  14  15
ENDBRANCH  13  14
ENDBRANCH  11  12
ENDBRANCH  10  11
ENDBRANCH   8   9
ENDBRANCH   7   8
ENDBRANCH   6   7
ENDBRANCH   4   6
ENDBRANCH   3   4
ENDBRANCH   2   3
TORSDOF 15
ENDMDL
MODEL      433
REMARK 921   NORMALIZED FREE ENERGY PREDICTED BY IDOCK:   -2.63 KCAL/MOL
REMARK 922        TOTAL FREE ENERGY PREDICTED BY IDOCK:   -7.49 KCAL/MOL
REMARK 923 INTER-LIGAND FREE ENERGY PREDICTED BY IDOCK:   -5.45 KCAL/MOL
REMARK 924 INTRA-LIGAND FREE ENERGY PREDICTED BY IDOCK:   -2.04 KCAL/MOL
REMARK 927      BINDING AFFINITY PREDICTED BY RF-SCORE:    0.00 PKD
ROOT
HETATM    1  C   UNL     1      -8.777  16.808  68.527  1.00  0.00    -0.245 C  
HETATM    2  C   UNL     1      -9.358  16.510  67.157  1.00  0.00    -0.233 C  
ENDROOT
BRANCH   2   3
HETATM    3  O   UNL     1     -10.725  16.125  67.342  1.00  0.00    -0.312 OA 
BRANCH   3   4
HETATM    4  C   UNL     1     -10.898  14.815  67.674  1.00  0.00    -0.285 C  
HETATM    5  O   UNL     1     -10.240  14.199  68.497  1.00  0.00    -0.237 OA 
BRANCH   4   6
HETATM    6  C   UNL     1     -12.097  14.286  66.937  1.00  0.00    -0.440 C  
BRANCH   6   7
HETATM    7  C   UNL     1     -11.900  14.433  65.425  1.00  0.00    -0.366 C  
BRANCH   7   8
HETATM    8  C   UNL     1     -10.562  13.875  64.967  1.00  0.00    -0.418 C  
BRANCH   8   9
HETATM    9  C   UNL     1     -10.721  12.762  63.961  1.00  0.00    -0.457 C  
HETATM   10  C   UNL     1     -10.380  11.479  64.162  1.00  0.00    -0.386 C  
BRANCH  10  11
HETATM   11  C   UNL     1      -9.640  10.986  65.362  1.00  0.00    -0.267 C  
BRANCH  11  12
HETATM   12  C   UNL     1     -10.456  10.882  66.614  1.00  0.00    -0.307 C  
HETATM   13  C   UNL     1     -10.756   9.713  67.209  1.00  0.00    -0.284 C  
BRANCH  13  14
HETATM   14  C   UNL     1     -10.355   8.316  66.790  1.00  0.00    -0.361 C  
BRANCH  14  15
HETATM   15  C   UNL     1      -9.001   7.862  67.273  1.00  0.00    -0.137 C  
HETATM   16  C   UNL     1      -8.355   6.751  66.886  1.00  0.00    -0.114 C  
BRANCH  16  17
HETATM   17  C   UNL     1      -8.948   5.676  66.036  1.00  0.00    -0.158 C  
BRANCH  17  18
HETATM   18  C   UNL     1      -8.018   5.391  64.887  1.00  0.00    -0.108 C  
HETATM   19  C   UNL     1      -7.775   6.241  63.878  1.00  0.00    -0.107 C  
BRANCH  19  20
HETATM   20  C   UNL     1      -8.409   7.583  63.733  1.00  0.00     0.159 C  
BRANCH  20  21
HETATM   21  C   UNL     1      -7.476   8.592  63.135  1.00  0.00    -0.106 C  
HETATM   22  C   UNL     1      -6.531   9.250  63.826  1.00  0.00    -0.091 C  
BRANCH  22  23
HETATM   23  C   UNL     1      -6.278   9.123  65.297  1.00  0.00    -0.064 C  
HETATM   24  C   UNL     1      -6.347  10.468  65.996  1.00  0.00    -0.124 C  
ENDBRANCH  22  23
ENDBRANCH  20  21
ENDBRANCH  19  20
ENDBRANCH  17  18
ENDBRANCH  16  17
ENDBRANCH  14  15
ENDBRANCH  13  14
ENDBRANCH  11  12
ENDBRANCH  10  11
ENDBRANCH   8   9
ENDBRANCH   7   8
ENDBRANCH   6   7
ENDBRANCH   4   6
ENDBRANCH   3   4
ENDBRANCH   2   3
TORSDOF 15
ENDMDL
MODEL      434
REMARK 921   NORMALIZED FREE ENERGY PREDICTED BY IDOCK:   -2.62 KCAL/MOL
REMARK 922        TOTAL FREE ENERGY PREDICTED BY IDOCK:   -7.48 KCAL/MOL
REMARK 923 INTER-LIGAND FREE ENERGY PREDICTED BY IDOCK:   -5.43 KCAL/MOL
REMARK 924 INTRA-LIGAND FREE ENERGY PREDICTED BY IDOCK:   -2.04 KCAL/MOL
REMARK 927      BINDING AFFINITY PREDICTED BY RF-SCORE:    0.00 PKD
ROOT
HETATM    1  C   UNL     1     -10.411   7.788  68.243  1.00  0.00    -0.215 C  
HETATM    2  C   UNL     1      -9.015   7.848  67.650  1.00  0.00    -0.131 C  
ENDROOT
BRANCH   2   3
HETATM    3  O   UNL     1      -9.155   7.982  66.230  1.00  0.00    -0.171 OA 
BRANCH   3   4
HETATM    4  C   UNL     1      -8.419   8.992  65.688  1.00  0.00    -0.150 C  
HETATM    5  O   UNL     1      -7.255   8.909  65.329  1.00  0.00    -0.085 OA 
BRANCH   4   6
HETATM    6  C   UNL     1      -9.307  10.192  65.508  1.00  0.00    -0.260 C  
BRANCH   6   7
HETATM    7  C   UNL     1      -8.672  11.427  66.155  1.00  0.00    -0.153 C  
BRANCH   7   8
HETATM    8  C   UNL     1      -9.573  12.045  67.212  1.00  0.00    -0.185 C  
BRANCH   8   9
HETATM    9  C   UNL     1     -10.961  11.453  67.198  1.00  0.00    -0.340 C  
HETATM   10  C   UNL     1     -11.771  11.344  68.263  1.00  0.00    -0.359 C  
BRANCH  10  11
HETATM   11  C   UNL     1     -11.357  11.651  69.665  1.00  0.00    -0.308 C  
BRANCH  11  12
HETATM   12  C   UNL     1     -12.391  11.368  70.711  1.00  0.00    -0.483 C  
HETATM   13  C   UNL     1     -12.382  10.267  71.484  1.00  0.00    -0.488 C  
BRANCH  13  14
HETATM   14  C   UNL     1     -11.384   9.132  71.491  1.00  0.00    -0.439 C  
BRANCH  14  15
HETATM   15  C   UNL     1     -11.726   7.977  72.397  1.00  0.00    -0.444 C  
HETATM   16  C   UNL     1     -10.918   7.426  73.315  1.00  0.00    -0.367 C  
BRANCH  16  17
HETATM   17  C   UNL     1      -9.469   7.749  73.476  1.00  0.00    -0.346 C  
BRANCH  17  18
HETATM   18  C   UNL     1      -8.807   6.653  74.267  1.00  0.00    -0.180 C  
HETATM   19  C   UNL     1      -7.623   6.102  73.959  1.00  0.00    -0.090 C  
BRANCH  19  20
HETATM   20  C   UNL     1      -6.801   6.477  72.772  1.00  0.00    -0.069 C  
BRANCH  20  21
HETATM   21  C   UNL     1      -7.243   5.769  71.527  1.00  0.00    -0.082 C  
HETATM   22  C   UNL     1      -6.771   6.034  70.298  1.00  0.00    -0.049 C  
BRANCH  22  23
HETATM   23  C   UNL     1      -5.768   7.093  69.959  1.00  0.00    -0.023 C  
HETATM   24  C   UNL     1      -5.393   7.060  68.488  1.00  0.00    -0.017 C  
ENDBRANCH  22  23
ENDBRANCH  20  21
ENDBRANCH  19  20
ENDBRANCH  17  18
ENDBRANCH  16  17
ENDBRANCH  14  15
ENDBRANCH  13  14
ENDBRANCH  11  12
ENDBRANCH  10  11
ENDBRANCH   8   9
ENDBRANCH   7   8
ENDBRANCH   6   7
ENDBRANCH   4   6
ENDBRANCH   3   4
ENDBRANCH   2   3
TORSDOF 15
ENDMDL
MODEL      435
REMARK 921   NORMALIZED FREE ENERGY PREDICTED BY IDOCK:   -2.60 KCAL/MOL
REMARK 922        TOTAL FREE ENERGY PREDICTED BY IDOCK:   -7.43 KCAL/MOL
REMARK 923 INTER-LIGAND FREE ENERGY PREDICTED BY IDOCK:   -5.73 KCAL/MOL
REMARK 924 INTRA-LIGAND FREE ENERGY PREDICTED BY IDOCK:   -1.70 KCAL/MOL
REMARK 927      BINDING AFFINITY PREDICTED BY RF-SCORE:    0.00 PKD
ROOT
HETATM    1  C   UNL     1      -8.273   3.935  70.155  1.00  0.00    -0.071 C  
HETATM    2  C   UNL     1      -9.102   4.865  71.022  1.00  0.00    -0.140 C  
ENDROOT
BRANCH   2   3
HETATM    3  O   UNL     1     -10.470   4.724  70.621  1.00  0.00    -0.168 OA 
BRANCH   3   4
HETATM    4  C   UNL     1     -11.034   5.869  70.143  1.00  0.00    -0.342 C  
HETATM    5  O   UNL     1     -11.559   6.738  70.821  1.00  0.00    -0.323 OA 
BRANCH   4   6
HETATM    6  C   UNL     1     -10.809   5.932  68.657  1.00  0.00    -0.333 C  
BRANCH   6   7
HETATM    7  C   UNL     1     -10.276   7.312  68.259  1.00  0.00    -0.208 C  
BRANCH   7   8
HETATM    8  C   UNL     1      -8.758   7.333  68.169  1.00  0.00    -0.128 C  
BRANCH   8   9
HETATM    9  C   UNL     1      -8.154   8.478  68.945  1.00  0.00    -0.119 C  
HETATM   10  C   UNL     1      -7.303   9.390  68.448  1.00  0.00    -0.077 C  
BRANCH  10  11
HETATM   11  C   UNL     1      -6.698   9.316  67.085  1.00  0.00    -0.076 C  
BRANCH  11  12
HETATM   12  C   UNL     1      -6.900  10.530  66.231  1.00  0.00    -0.127 C  
HETATM   13  C   UNL     1      -7.947  10.688  65.402  1.00  0.00    -0.086 C  
BRANCH  13  14
HETATM   14  C   UNL     1      -9.104   9.745  65.160  1.00  0.00    -0.270 C  
BRANCH  14  15
HETATM   15  C   UNL     1     -10.233   9.840  66.155  1.00  0.00    -0.278 C  
HETATM   16  C   UNL     1     -11.027  10.903  66.350  1.00  0.00    -0.156 C  
BRANCH  16  17
HETATM   17  C   UNL     1     -10.815  12.247  65.735  1.00  0.00    -0.313 C  
BRANCH  17  18
HETATM   18  C   UNL     1     -12.104  13.022  65.791  1.00  0.00    -0.510 C  
HETATM   19  C   UNL     1     -12.203  14.308  66.158  1.00  0.00    -0.430 C  
BRANCH  19  20
HETATM   20  C   UNL     1     -11.052  15.154  66.589  1.00  0.00    -0.308 C  
BRANCH  20  21
HETATM   21  C   UNL     1     -10.583  16.073  65.501  1.00  0.00    -0.415 C  
HETATM   22  C   UNL     1     -10.005  17.266  65.716  1.00  0.00    -0.105 C  
BRANCH  22  23
HETATM   23  C   UNL     1      -9.770  17.892  67.057  1.00  0.00    -0.298 C  
HETATM   24  C   UNL     1     -10.843  18.911  67.396  1.00  0.00    -0.449 C  
ENDBRANCH  22  23
ENDBRANCH  20  21
ENDBRANCH  19  20
ENDBRANCH  17  18
ENDBRANCH  16  17
ENDBRANCH  14  15
ENDBRANCH  13  14
ENDBRANCH  11  12
ENDBRANCH  10  11
ENDBRANCH   8   9
ENDBRANCH   7   8
ENDBRANCH   6   7
ENDBRANCH   4   6
ENDBRANCH   3   4
ENDBRANCH   2   3
TORSDOF 15
ENDMDL
MODEL      436
REMARK 921   NORMALIZED FREE ENERGY PREDICTED BY IDOCK:   -2.58 KCAL/MOL
REMARK 922        TOTAL FREE ENERGY PREDICTED BY IDOCK:   -7.40 KCAL/MOL
REMARK 923 INTER-LIGAND FREE ENERGY PREDICTED BY IDOCK:   -6.00 KCAL/MOL
REMARK 924 INTRA-LIGAND FREE ENERGY PREDICTED BY IDOCK:   -1.40 KCAL/MOL
REMARK 927      BINDING AFFINITY PREDICTED BY RF-SCORE:    0.00 PKD
ROOT
HETATM    1  C   UNL     1     -10.788  18.184  67.249  1.00  0.00    -0.241 C  
HETATM    2  C   UNL     1      -9.417  18.830  67.176  1.00  0.00    -0.305 C  
ENDROOT
BRANCH   2   3
HETATM    3  O   UNL     1      -8.832  18.462  65.921  1.00  0.00    -0.491 OA 
BRANCH   3   4
HETATM    4  C   UNL     1      -7.498  18.192  65.983  1.00  0.00    -0.228 C  
HETATM    5  O   UNL     1      -6.685  18.431  65.105  1.00  0.00    -0.504 OA 
BRANCH   4   6
HETATM    6  C   UNL     1      -7.179  17.650  67.349  1.00  0.00    -0.198 C  
BRANCH   6   7
HETATM    7  C   UNL     1      -7.394  16.134  67.383  1.00  0.00    -0.206 C  
BRANCH   7   8
HETATM    8  C   UNL     1      -8.247  15.705  68.567  1.00  0.00    -0.153 C  
BRANCH   8   9
HETATM    9  C   UNL     1      -9.602  15.196  68.141  1.00  0.00    -0.205 C  
HETATM   10  C   UNL     1      -9.897  13.918  67.855  1.00  0.00    -0.228 C  
BRANCH  10  11
HETATM   11  C   UNL     1      -8.883  12.825  67.760  1.00  0.00    -0.187 C  
BRANCH  11  12
HETATM   12  C   UNL     1      -8.618  12.089  69.038  1.00  0.00     0.326 C  
HETATM   13  C   UNL     1      -8.449  10.756  69.105  1.00  0.00    -0.105 C  
BRANCH  13  14
HETATM   14  C   UNL     1      -8.471   9.749  67.977  1.00  0.00    -0.118 C  
BRANCH  14  15
HETATM   15  C   UNL     1      -8.660   8.314  68.399  1.00  0.00    -0.133 C  
HETATM   16  C   UNL     1      -9.763   7.793  68.957  1.00  0.00    -0.157 C  
BRANCH  16  17
HETATM   17  C   UNL     1     -10.938   8.589  69.422  1.00  0.00    -0.020 C  
BRANCH  17  18
HETATM   18  C   UNL     1     -10.697   9.037  70.839  1.00  0.00    -0.319 C  
HETATM   19  C   UNL     1     -11.439   9.949  71.484  1.00  0.00    -0.322 C  
BRANCH  19  20
HETATM   20  C   UNL     1     -12.597  10.674  70.884  1.00  0.00    -0.503 C  
BRANCH  20  21
HETATM   21  C   UNL     1     -13.311  11.532  71.884  1.00  0.00    -0.408 C  
HETATM   22  C   UNL     1     -13.163  12.863  71.981  1.00  0.00    -0.549 C  
BRANCH  22  23
HETATM   23  C   UNL     1     -12.243  13.701  71.147  1.00  0.00    -0.326 C  
HETATM   24  C   UNL     1     -12.541  15.182  71.299  1.00  0.00    -0.421 C  
ENDBRANCH  22  23
ENDBRANCH  20  21
ENDBRANCH  19  20
ENDBRANCH  17  18
ENDBRANCH  16  17
ENDBRANCH  14  15
ENDBRANCH  13  14
ENDBRANCH  11  12
ENDBRANCH  10  11
ENDBRANCH   8   9
ENDBRANCH   7   8
ENDBRANCH   6   7
ENDBRANCH   4   6
ENDBRANCH   3   4
ENDBRANCH   2   3
TORSDOF 15
ENDMDL
MODEL      437
REMARK 921   NORMALIZED FREE ENERGY PREDICTED BY IDOCK:   -2.58 KCAL/MOL
REMARK 922        TOTAL FREE ENERGY PREDICTED BY IDOCK:   -7.40 KCAL/MOL
REMARK 923 INTER-LIGAND FREE ENERGY PREDICTED BY IDOCK:   -4.87 KCAL/MOL
REMARK 924 INTRA-LIGAND FREE ENERGY PREDICTED BY IDOCK:   -2.53 KCAL/MOL
REMARK 927      BINDING AFFINITY PREDICTED BY RF-SCORE:    0.00 PKD
ROOT
HETATM    1  C   UNL     1      -8.818   3.132  64.094  1.00  0.00    -0.097 C  
HETATM    2  C   UNL     1      -8.280   4.431  64.667  1.00  0.00    -0.106 C  
ENDROOT
BRANCH   2   3
HETATM    3  O   UNL     1      -9.368   5.100  65.315  1.00  0.00    -0.135 OA 
BRANCH   3   4
HETATM    4  C   UNL     1      -9.434   4.890  66.659  1.00  0.00    -0.150 C  
HETATM    5  O   UNL     1     -10.203   4.126  67.221  1.00  0.00    -0.028 OA 
BRANCH   4   6
HETATM    6  C   UNL     1      -8.336   5.674  67.324  1.00  0.00    -0.100 C  
BRANCH   6   7
HETATM    7  C   UNL     1      -8.683   7.166  67.341  1.00  0.00    -0.120 C  
BRANCH   7   8
HETATM    8  C   UNL     1      -7.464   8.037  67.078  1.00  0.00    -0.092 C  
BRANCH   8   9
HETATM    9  C   UNL     1      -6.920   7.854  65.682  1.00  0.00    -0.053 C  
HETATM   10  C   UNL     1      -6.886   8.801  64.731  1.00  0.00    -0.073 C  
BRANCH  10  11
HETATM   11  C   UNL     1      -7.531  10.142  64.861  1.00  0.00    -0.137 C  
BRANCH  11  12
HETATM   12  C   UNL     1      -8.800  10.317  64.084  1.00  0.00    -0.239 C  
HETATM   13  C   UNL     1     -10.017  10.379  64.655  1.00  0.00    -0.408 C  
BRANCH  13  14
HETATM   14  C   UNL     1     -10.370  10.307  66.124  1.00  0.00    -0.253 C  
BRANCH  14  15
HETATM   15  C   UNL     1     -10.767  11.616  66.756  1.00  0.00    -0.299 C  
HETATM   16  C   UNL     1     -11.244  11.781  68.000  1.00  0.00    -0.324 C  
BRANCH  16  17
HETATM   17  C   UNL     1     -11.632  10.667  68.916  1.00  0.00    -0.320 C  
BRANCH  17  18
HETATM   18  C   UNL     1     -10.398  10.140  69.598  1.00  0.00    -0.278 C  
HETATM   19  C   UNL     1     -10.357   9.023  70.339  1.00  0.00    -0.253 C  
BRANCH  19  20
HETATM   20  C   UNL     1     -11.536   8.152  70.619  1.00  0.00    -0.237 C  
BRANCH  20  21
HETATM   21  C   UNL     1     -11.312   7.254  71.798  1.00  0.00    -0.285 C  
HETATM   22  C   UNL     1     -10.723   6.050  71.730  1.00  0.00    -0.294 C  
BRANCH  22  23
HETATM   23  C   UNL     1     -10.232   5.388  70.479  1.00  0.00    -0.326 C  
HETATM   24  C   UNL     1      -9.707   3.990  70.753  1.00  0.00    -0.263 C  
ENDBRANCH  22  23
ENDBRANCH  20  21
ENDBRANCH  19  20
ENDBRANCH  17  18
ENDBRANCH  16  17
ENDBRANCH  14  15
ENDBRANCH  13  14
ENDBRANCH  11  12
ENDBRANCH  10  11
ENDBRANCH   8   9
ENDBRANCH   7   8
ENDBRANCH   6   7
ENDBRANCH   4   6
ENDBRANCH   3   4
ENDBRANCH   2   3
TORSDOF 15
ENDMDL
MODEL      438
REMARK 921   NORMALIZED FREE ENERGY PREDICTED BY IDOCK:   -2.58 KCAL/MOL
REMARK 922        TOTAL FREE ENERGY PREDICTED BY IDOCK:   -7.39 KCAL/MOL
REMARK 923 INTER-LIGAND FREE ENERGY PREDICTED BY IDOCK:   -6.30 KCAL/MOL
REMARK 924 INTRA-LIGAND FREE ENERGY PREDICTED BY IDOCK:   -1.10 KCAL/MOL
REMARK 927      BINDING AFFINITY PREDICTED BY RF-SCORE:    0.00 PKD
ROOT
HETATM    1  C   UNL     1      -9.468   6.023  71.175  1.00  0.00    -0.182 C  
HETATM    2  C   UNL     1      -8.733   7.351  71.192  1.00  0.00    -0.137 C  
ENDROOT
BRANCH   2   3
HETATM    3  O   UNL     1      -9.581   8.304  71.844  1.00  0.00    -0.177 OA 
BRANCH   3   4
HETATM    4  C   UNL     1     -10.497   8.892  71.025  1.00  0.00    -0.248 C  
HETATM    5  O   UNL     1     -11.658   9.132  71.316  1.00  0.00    -0.282 OA 
BRANCH   4   6
HETATM    6  C   UNL     1      -9.814   9.291  69.746  1.00  0.00    -0.202 C  
BRANCH   6   7
HETATM    7  C   UNL     1     -10.499  10.518  69.137  1.00  0.00    -0.250 C  
BRANCH   7   8
HETATM    8  C   UNL     1     -10.964  10.263  67.712  1.00  0.00    -0.360 C  
BRANCH   8   9
HETATM    9  C   UNL     1     -10.329   9.031  67.115  1.00  0.00    -0.342 C  
HETATM   10  C   UNL     1      -9.442   9.025  66.106  1.00  0.00    -0.318 C  
BRANCH  10  11
HETATM   11  C   UNL     1      -9.068  10.234  65.313  1.00  0.00    -0.228 C  
BRANCH  11  12
HETATM   12  C   UNL     1      -9.823  10.415  64.033  1.00  0.00    -0.355 C  
HETATM   13  C   UNL     1     -10.466  11.551  63.704  1.00  0.00    -0.483 C  
BRANCH  13  14
HETATM   14  C   UNL     1     -10.561  12.837  64.493  1.00  0.00    -0.383 C  
BRANCH  14  15
HETATM   15  C   UNL     1     -11.610  12.853  65.576  1.00  0.00    -0.395 C  
HETATM   16  C   UNL     1     -11.620  13.650  66.655  1.00  0.00    -0.391 C  
BRANCH  16  17
HETATM   17  C   UNL     1     -10.494  14.542  67.065  1.00  0.00    -0.268 C  
BRANCH  17  18
HETATM   18  C   UNL     1     -10.400  15.690  66.096  1.00  0.00    -0.329 C  
HETATM   19  C   UNL     1      -9.471  16.655  66.150  1.00  0.00    -0.319 C  
BRANCH  19  20
HETATM   20  C   UNL     1      -8.409  16.748  67.194  1.00  0.00    -0.207 C  
BRANCH  20  21
HETATM   21  C   UNL     1      -8.927  16.424  68.563  1.00  0.00    -0.224 C  
HETATM   22  C   UNL     1      -8.151  16.082  69.603  1.00  0.00     0.126 C  
BRANCH  22  23
HETATM   23  C   UNL     1      -6.661  15.929  69.567  1.00  0.00    -0.192 C  
HETATM   24  C   UNL     1      -6.198  14.755  70.410  1.00  0.00    -0.152 C  
ENDBRANCH  22  23
ENDBRANCH  20  21
ENDBRANCH  19  20
ENDBRANCH  17  18
ENDBRANCH  16  17
ENDBRANCH  14  15
ENDBRANCH  13  14
ENDBRANCH  11  12
ENDBRANCH  10  11
ENDBRANCH   8   9
ENDBRANCH   7   8
ENDBRANCH   6   7
ENDBRANCH   4   6
ENDBRANCH   3   4
ENDBRANCH   2   3
TORSDOF 15
ENDMDL
MODEL      439
REMARK 921   NORMALIZED FREE ENERGY PREDICTED BY IDOCK:   -2.58 KCAL/MOL
REMARK 922        TOTAL FREE ENERGY PREDICTED BY IDOCK:   -7.39 KCAL/MOL
REMARK 923 INTER-LIGAND FREE ENERGY PREDICTED BY IDOCK:   -5.89 KCAL/MOL
REMARK 924 INTRA-LIGAND FREE ENERGY PREDICTED BY IDOCK:   -1.50 KCAL/MOL
REMARK 927      BINDING AFFINITY PREDICTED BY RF-SCORE:    0.00 PKD
ROOT
HETATM    1  C   UNL     1     -14.173   8.589  71.570  1.00  0.00    -0.448 C  
HETATM    2  C   UNL     1     -13.394   9.330  72.642  1.00  0.00    -0.282 C  
ENDROOT
BRANCH   2   3
HETATM    3  O   UNL     1     -12.294   9.986  72.000  1.00  0.00    -0.328 OA 
BRANCH   3   4
HETATM    4  C   UNL     1     -11.517   9.163  71.241  1.00  0.00    -0.335 C  
HETATM    5  O   UNL     1     -11.275   9.311  70.054  1.00  0.00    -0.235 OA 
BRANCH   4   6
HETATM    6  C   UNL     1     -10.923   8.105  72.131  1.00  0.00    -0.372 C  
BRANCH   6   7
HETATM    7  C   UNL     1      -9.546   8.547  72.637  1.00  0.00    -0.294 C  
BRANCH   7   8
HETATM    8  C   UNL     1      -8.531   7.416  72.589  1.00  0.00    -0.138 C  
BRANCH   8   9
HETATM    9  C   UNL     1      -8.529   6.705  71.257  1.00  0.00    -0.125 C  
HETATM   10  C   UNL     1      -7.690   6.962  70.241  1.00  0.00    -0.100 C  
BRANCH  10  11
HETATM   11  C   UNL     1      -6.728   8.105  70.217  1.00  0.00    -0.037 C  
BRANCH  11  12
HETATM   12  C   UNL     1      -7.336   9.442  69.924  1.00  0.00    -0.088 C  
HETATM   13  C   UNL     1      -7.919   9.751  68.752  1.00  0.00    -0.087 C  
BRANCH  13  14
HETATM   14  C   UNL     1      -8.102   8.874  67.533  1.00  0.00    -0.109 C  
BRANCH  14  15
HETATM   15  C   UNL     1      -9.447   8.975  66.862  1.00  0.00    -0.219 C  
HETATM   16  C   UNL     1      -9.923  10.042  66.201  1.00  0.00    -0.322 C  
BRANCH  16  17
HETATM   17  C   UNL     1      -9.268  11.384  66.169  1.00  0.00    -0.223 C  
BRANCH  17  18
HETATM   18  C   UNL     1     -10.331  12.449  66.168  1.00  0.00    -0.271 C  
HETATM   19  C   UNL     1     -10.849  13.007  67.272  1.00  0.00    -0.270 C  
BRANCH  19  20
HETATM   20  C   UNL     1     -10.466  12.634  68.665  1.00  0.00    -0.224 C  
BRANCH  20  21
HETATM   21  C   UNL     1     -11.640  12.167  69.472  1.00  0.00    -0.382 C  
HETATM   22  C   UNL     1     -12.493  12.985  70.109  1.00  0.00    -0.166 C  
BRANCH  22  23
HETATM   23  C   UNL     1     -12.397  14.479  70.158  1.00  0.00    -0.398 C  
HETATM   24  C   UNL     1     -12.913  15.031  71.474  1.00  0.00    -0.434 C  
ENDBRANCH  22  23
ENDBRANCH  20  21
ENDBRANCH  19  20
ENDBRANCH  17  18
ENDBRANCH  16  17
ENDBRANCH  14  15
ENDBRANCH  13  14
ENDBRANCH  11  12
ENDBRANCH  10  11
ENDBRANCH   8   9
ENDBRANCH   7   8
ENDBRANCH   6   7
ENDBRANCH   4   6
ENDBRANCH   3   4
ENDBRANCH   2   3
TORSDOF 15
ENDMDL
MODEL      440
REMARK 921   NORMALIZED FREE ENERGY PREDICTED BY IDOCK:   -2.57 KCAL/MOL
REMARK 922        TOTAL FREE ENERGY PREDICTED BY IDOCK:   -7.38 KCAL/MOL
REMARK 923 INTER-LIGAND FREE ENERGY PREDICTED BY IDOCK:   -5.39 KCAL/MOL
REMARK 924 INTRA-LIGAND FREE ENERGY PREDICTED BY IDOCK:   -2.00 KCAL/MOL
REMARK 927      BINDING AFFINITY PREDICTED BY RF-SCORE:    0.00 PKD
ROOT
HETATM    1  C   UNL     1     -10.404   3.978  64.325  1.00  0.00    -0.203 C  
HETATM    2  C   UNL     1      -9.420   4.579  65.312  1.00  0.00    -0.171 C  
ENDROOT
BRANCH   2   3
HETATM    3  O   UNL     1      -8.843   3.500  66.057  1.00  0.00    -0.118 OA 
BRANCH   3   4
HETATM    4  C   UNL     1      -9.212   3.465  67.368  1.00  0.00    -0.195 C  
HETATM    5  O   UNL     1      -9.631   2.485  67.962  1.00  0.00    -0.198 OA 
BRANCH   4   6
HETATM    6  C   UNL     1      -8.919   4.805  67.987  1.00  0.00    -0.126 C  
BRANCH   6   7
HETATM    7  C   UNL     1      -9.997   5.164  69.014  1.00  0.00    -0.265 C  
BRANCH   7   8
HETATM    8  C   UNL     1      -9.654   4.650  70.404  1.00  0.00    -0.271 C  
BRANCH   8   9
HETATM    9  C   UNL     1      -9.031   5.717  71.271  1.00  0.00    -0.147 C  
HETATM   10  C   UNL     1      -9.681   6.451  72.188  1.00  0.00    -0.161 C  
BRANCH  10  11
HETATM   11  C   UNL     1     -11.163   6.431  72.379  1.00  0.00    -0.313 C  
BRANCH  11  12
HETATM   12  C   UNL     1     -11.735   7.643  73.047  1.00  0.00    -0.081 C  
HETATM   13  C   UNL     1     -11.953   8.808  72.410  1.00  0.00    -0.369 C  
BRANCH  13  14
HETATM   14  C   UNL     1     -11.701   9.146  70.958  1.00  0.00    -0.363 C  
BRANCH  14  15
HETATM   15  C   UNL     1     -12.172  10.509  70.522  1.00  0.00    -0.435 C  
HETATM   16  C   UNL     1     -12.073  11.023  69.286  1.00  0.00    -0.363 C  
BRANCH  16  17
HETATM   17  C   UNL     1     -11.314  10.395  68.163  1.00  0.00    -0.284 C  
BRANCH  17  18
HETATM   18  C   UNL     1     -11.276  11.352  67.002  1.00  0.00    -0.350 C  
HETATM   19  C   UNL     1     -10.259  12.184  66.736  1.00  0.00    -0.224 C  
BRANCH  19  20
HETATM   20  C   UNL     1      -9.025  12.304  67.567  1.00  0.00    -0.180 C  
BRANCH  20  21
HETATM   21  C   UNL     1      -8.019  11.240  67.248  1.00  0.00    -0.141 C  
HETATM   22  C   UNL     1      -7.382  10.501  68.170  1.00  0.00    -0.088 C  
BRANCH  22  23
HETATM   23  C   UNL     1      -7.533  10.638  69.654  1.00  0.00    -0.121 C  
HETATM   24  C   UNL     1      -8.395   9.532  70.235  1.00  0.00    -0.221 C  
ENDBRANCH  22  23
ENDBRANCH  20  21
ENDBRANCH  19  20
ENDBRANCH  17  18
ENDBRANCH  16  17
ENDBRANCH  14  15
ENDBRANCH  13  14
ENDBRANCH  11  12
ENDBRANCH  10  11
ENDBRANCH   8   9
ENDBRANCH   7   8
ENDBRANCH   6   7
ENDBRANCH   4   6
ENDBRANCH   3   4
ENDBRANCH   2   3
TORSDOF 15
ENDMDL
MODEL      441
REMARK 921   NORMALIZED FREE ENERGY PREDICTED BY IDOCK:   -2.57 KCAL/MOL
REMARK 922        TOTAL FREE ENERGY PREDICTED BY IDOCK:   -7.38 KCAL/MOL
REMARK 923 INTER-LIGAND FREE ENERGY PREDICTED BY IDOCK:   -5.53 KCAL/MOL
REMARK 924 INTRA-LIGAND FREE ENERGY PREDICTED BY IDOCK:   -1.85 KCAL/MOL
REMARK 927      BINDING AFFINITY PREDICTED BY RF-SCORE:    0.00 PKD
ROOT
HETATM    1  C   UNL     1      -9.058   2.351  72.263  1.00  0.00    -0.125 C  
HETATM    2  C   UNL     1      -8.924   3.863  72.228  1.00  0.00    -0.109 C  
ENDROOT
BRANCH   2   3
HETATM    3  O   UNL     1      -9.971   4.370  71.392  1.00  0.00    -0.183 OA 
BRANCH   3   4
HETATM    4  C   UNL     1     -10.642   5.433  71.918  1.00  0.00    -0.226 C  
HETATM    5  O   UNL     1     -11.737   5.385  72.454  1.00  0.00    -0.185 OA 
BRANCH   4   6
HETATM    6  C   UNL     1      -9.765   6.651  71.824  1.00  0.00    -0.168 C  
BRANCH   6   7
HETATM    7  C   UNL     1      -9.552   7.040  70.358  1.00  0.00    -0.169 C  
BRANCH   7   8
HETATM    8  C   UNL     1     -10.796   7.669  69.748  1.00  0.00    -0.222 C  
BRANCH   8   9
HETATM    9  C   UNL     1     -11.400   6.809  68.666  1.00  0.00    -0.076 C  
HETATM   10  C   UNL     1     -11.113   6.891  67.357  1.00  0.00    -0.322 C  
BRANCH  10  11
HETATM   11  C   UNL     1     -10.264   7.961  66.751  1.00  0.00    -0.358 C  
BRANCH  11  12
HETATM   12  C   UNL     1      -8.957   7.494  66.187  1.00  0.00    -0.188 C  
HETATM   13  C   UNL     1      -8.137   8.280  65.465  1.00  0.00    -0.128 C  
BRANCH  13  14
HETATM   14  C   UNL     1      -8.321   9.732  65.088  1.00  0.00    -0.146 C  
BRANCH  14  15
HETATM   15  C   UNL     1      -9.254   9.985  63.931  1.00  0.00    -0.317 C  
HETATM   16  C   UNL     1     -10.053  11.052  63.777  1.00  0.00    -0.420 C  
BRANCH  16  17
HETATM   17  C   UNL     1     -10.287  12.096  64.820  1.00  0.00    -0.320 C  
BRANCH  17  18
HETATM   18  C   UNL     1     -11.403  11.645  65.724  1.00  0.00    -0.244 C  
HETATM   19  C   UNL     1     -12.019  12.430  66.619  1.00  0.00    -0.300 C  
BRANCH  19  20
HETATM   20  C   UNL     1     -11.673  13.860  66.869  1.00  0.00    -0.425 C  
BRANCH  20  21
HETATM   21  C   UNL     1     -11.088  14.073  68.233  1.00  0.00    -0.275 C  
HETATM   22  C   UNL     1      -9.780  13.974  68.518  1.00  0.00    -0.215 C  
BRANCH  22  23
HETATM   23  C   UNL     1      -8.701  13.601  67.548  1.00  0.00    -0.198 C  
HETATM   24  C   UNL     1      -7.582  14.626  67.532  1.00  0.00    -0.215 C  
ENDBRANCH  22  23
ENDBRANCH  20  21
ENDBRANCH  19  20
ENDBRANCH  17  18
ENDBRANCH  16  17
ENDBRANCH  14  15
ENDBRANCH  13  14
ENDBRANCH  11  12
ENDBRANCH  10  11
ENDBRANCH   8   9
ENDBRANCH   7   8
ENDBRANCH   6   7
ENDBRANCH   4   6
ENDBRANCH   3   4
ENDBRANCH   2   3
TORSDOF 15
ENDMDL
MODEL      442
REMARK 921   NORMALIZED FREE ENERGY PREDICTED BY IDOCK:   -2.56 KCAL/MOL
REMARK 922        TOTAL FREE ENERGY PREDICTED BY IDOCK:   -7.35 KCAL/MOL
REMARK 923 INTER-LIGAND FREE ENERGY PREDICTED BY IDOCK:   -4.88 KCAL/MOL
REMARK 924 INTRA-LIGAND FREE ENERGY PREDICTED BY IDOCK:   -2.48 KCAL/MOL
REMARK 927      BINDING AFFINITY PREDICTED BY RF-SCORE:    0.00 PKD
ROOT
HETATM    1  C   UNL     1      -6.538  18.722  69.264  1.00  0.00    -0.298 C  
HETATM    2  C   UNL     1      -7.663  18.166  68.409  1.00  0.00    -0.295 C  
ENDROOT
BRANCH   2   3
HETATM    3  O   UNL     1      -7.076  17.639  67.213  1.00  0.00    -0.170 OA 
BRANCH   3   4
HETATM    4  C   UNL     1      -6.742  16.320  67.288  1.00  0.00    -0.193 C  
HETATM    5  O   UNL     1      -5.652  15.848  67.008  1.00  0.00    -0.334 OA 
BRANCH   4   6
HETATM    6  C   UNL     1      -7.902  15.561  67.870  1.00  0.00    -0.142 C  
BRANCH   6   7
HETATM    7  C   UNL     1      -7.960  14.147  67.284  1.00  0.00    -0.171 C  
BRANCH   7   8
HETATM    8  C   UNL     1      -7.618  13.086  68.319  1.00  0.00    -0.135 C  
BRANCH   8   9
HETATM    9  C   UNL     1      -6.948  11.882  67.704  1.00  0.00    -0.112 C  
HETATM   10  C   UNL     1      -7.305  10.604  67.910  1.00  0.00    -0.089 C  
BRANCH  10  11
HETATM   11  C   UNL     1      -8.325  10.171  68.911  1.00  0.00    -0.130 C  
BRANCH  11  12
HETATM   12  C   UNL     1      -7.771   9.615  70.186  1.00  0.00    -0.179 C  
HETATM   13  C   UNL     1      -8.538   9.111  71.171  1.00  0.00    -0.196 C  
BRANCH  13  14
HETATM   14  C   UNL     1     -10.044   8.983  71.216  1.00  0.00    -0.384 C  
BRANCH  14  15
HETATM   15  C   UNL     1     -10.571   7.571  71.201  1.00  0.00    -0.234 C  
HETATM   16  C   UNL     1     -11.015   6.904  70.125  1.00  0.00    -0.322 C  
BRANCH  16  17
HETATM   17  C   UNL     1     -11.231   7.512  68.778  1.00  0.00     0.289 C  
BRANCH  17  18
HETATM   18  C   UNL     1     -10.892   6.495  67.721  1.00  0.00    -0.395 C  
HETATM   19  C   UNL     1      -9.841   6.583  66.892  1.00  0.00    -0.211 C  
BRANCH  19  20
HETATM   20  C   UNL     1      -8.869   7.715  66.877  1.00  0.00    -0.142 C  
BRANCH  20  21
HETATM   21  C   UNL     1      -8.571   8.190  65.486  1.00  0.00    -0.173 C  
HETATM   22  C   UNL     1      -9.128   9.273  64.922  1.00  0.00    -0.227 C  
BRANCH  22  23
HETATM   23  C   UNL     1     -10.157  10.157  65.557  1.00  0.00    -0.338 C  
HETATM   24  C   UNL     1      -9.942  11.616  65.200  1.00  0.00    -0.297 C  
ENDBRANCH  22  23
ENDBRANCH  20  21
ENDBRANCH  19  20
ENDBRANCH  17  18
ENDBRANCH  16  17
ENDBRANCH  14  15
ENDBRANCH  13  14
ENDBRANCH  11  12
ENDBRANCH  10  11
ENDBRANCH   8   9
ENDBRANCH   7   8
ENDBRANCH   6   7
ENDBRANCH   4   6
ENDBRANCH   3   4
ENDBRANCH   2   3
TORSDOF 15
ENDMDL
MODEL      443
REMARK 921   NORMALIZED FREE ENERGY PREDICTED BY IDOCK:   -2.55 KCAL/MOL
REMARK 922        TOTAL FREE ENERGY PREDICTED BY IDOCK:   -7.34 KCAL/MOL
REMARK 923 INTER-LIGAND FREE ENERGY PREDICTED BY IDOCK:   -4.12 KCAL/MOL
REMARK 924 INTRA-LIGAND FREE ENERGY PREDICTED BY IDOCK:   -3.22 KCAL/MOL
REMARK 927      BINDING AFFINITY PREDICTED BY RF-SCORE:    0.00 PKD
ROOT
HETATM    1  C   UNL     1      -9.323   4.218  64.812  1.00  0.00    -0.163 C  
HETATM    2  C   UNL     1      -8.555   5.491  65.120  1.00  0.00    -0.141 C  
ENDROOT
BRANCH   2   3
HETATM    3  O   UNL     1      -9.101   6.042  66.325  1.00  0.00    -0.145 OA 
BRANCH   3   4
HETATM    4  C   UNL     1      -9.424   7.363  66.240  1.00  0.00    -0.081 C  
HETATM    5  O   UNL     1      -8.872   8.184  65.526  1.00  0.00    -0.162 OA 
BRANCH   4   6
HETATM    6  C   UNL     1     -10.639   7.617  67.089  1.00  0.00    -0.410 C  
BRANCH   6   7
HETATM    7  C   UNL     1     -10.283   8.528  68.268  1.00  0.00    -0.244 C  
BRANCH   7   8
HETATM    8  C   UNL     1     -10.748   7.951  69.596  1.00  0.00    -0.218 C  
BRANCH   8   9
HETATM    9  C   UNL     1     -11.009   6.467  69.515  1.00  0.00    -0.421 C  
HETATM   10  C   UNL     1     -10.836   5.592  70.518  1.00  0.00    -0.266 C  
BRANCH  10  11
HETATM   11  C   UNL     1     -10.204   5.933  71.828  1.00  0.00    -0.248 C  
BRANCH  11  12
HETATM   12  C   UNL     1     -11.061   5.688  73.032  1.00  0.00    -0.327 C  
HETATM   13  C   UNL     1     -11.278   4.466  73.552  1.00  0.00    -0.375 C  
BRANCH  13  14
HETATM   14  C   UNL     1     -10.732   3.136  73.083  1.00  0.00    -0.261 C  
BRANCH  14  15
HETATM   15  C   UNL     1      -9.348   2.798  73.574  1.00  0.00    -0.102 C  
HETATM   16  C   UNL     1      -8.234   2.751  72.828  1.00  0.00    -0.070 C  
BRANCH  16  17
HETATM   17  C   UNL     1      -8.203   2.854  71.338  1.00  0.00    -0.074 C  
BRANCH  17  18
HETATM   18  C   UNL     1      -6.775   2.998  70.886  1.00  0.00    -0.032 C  
HETATM   19  C   UNL     1      -6.166   4.170  70.654  1.00  0.00    -0.018 C  
BRANCH  19  20
HETATM   20  C   UNL     1      -6.822   5.504  70.785  1.00  0.00    -0.052 C  
BRANCH  20  21
HETATM   21  C   UNL     1      -7.243   6.063  69.459  1.00  0.00    -0.070 C  
HETATM   22  C   UNL     1      -7.058   7.338  69.084  1.00  0.00    -0.080 C  
BRANCH  22  23
HETATM   23  C   UNL     1      -6.446   8.416  69.926  1.00  0.00    -0.035 C  
HETATM   24  C   UNL     1      -7.500   9.199  70.687  1.00  0.00    -0.129 C  
ENDBRANCH  22  23
ENDBRANCH  20  21
ENDBRANCH  19  20
ENDBRANCH  17  18
ENDBRANCH  16  17
ENDBRANCH  14  15
ENDBRANCH  13  14
ENDBRANCH  11  12
ENDBRANCH  10  11
ENDBRANCH   8   9
ENDBRANCH   7   8
ENDBRANCH   6   7
ENDBRANCH   4   6
ENDBRANCH   3   4
ENDBRANCH   2   3
TORSDOF 15
ENDMDL
MODEL      444
REMARK 921   NORMALIZED FREE ENERGY PREDICTED BY IDOCK:   -2.54 KCAL/MOL
REMARK 922        TOTAL FREE ENERGY PREDICTED BY IDOCK:   -7.32 KCAL/MOL
REMARK 923 INTER-LIGAND FREE ENERGY PREDICTED BY IDOCK:   -6.05 KCAL/MOL
REMARK 924 INTRA-LIGAND FREE ENERGY PREDICTED BY IDOCK:   -1.27 KCAL/MOL
REMARK 927      BINDING AFFINITY PREDICTED BY RF-SCORE:    0.00 PKD
ROOT
HETATM    1  C   UNL     1     -13.782   9.077  72.008  1.00  0.00    -0.516 C  
HETATM    2  C   UNL     1     -12.322   8.667  72.053  1.00  0.00    -0.371 C  
ENDROOT
BRANCH   2   3
HETATM    3  O   UNL     1     -12.169   7.524  71.202  1.00  0.00    -0.314 OA 
BRANCH   3   4
HETATM    4  C   UNL     1     -11.049   7.550  70.426  1.00  0.00    -0.261 C  
HETATM    5  O   UNL     1     -10.008   8.123  70.702  1.00  0.00    -0.187 OA 
BRANCH   4   6
HETATM    6  C   UNL     1     -11.274   6.670  69.227  1.00  0.00    -0.326 C  
BRANCH   6   7
HETATM    7  C   UNL     1     -10.285   5.501  69.232  1.00  0.00    -0.315 C  
BRANCH   7   8
HETATM    8  C   UNL     1      -9.270   5.607  68.104  1.00  0.00    -0.114 C  
BRANCH   8   9
HETATM    9  C   UNL     1      -8.053   6.405  68.503  1.00  0.00    -0.110 C  
HETATM   10  C   UNL     1      -7.476   7.365  67.762  1.00  0.00    -0.101 C  
BRANCH  10  11
HETATM   11  C   UNL     1      -7.860   7.680  66.353  1.00  0.00    -0.094 C  
BRANCH  11  12
HETATM   12  C   UNL     1      -9.323   7.915  66.129  1.00  0.00    -0.188 C  
HETATM   13  C   UNL     1      -9.902   9.125  66.224  1.00  0.00    -0.359 C  
BRANCH  13  14
HETATM   14  C   UNL     1      -9.256  10.454  66.546  1.00  0.00    -0.184 C  
BRANCH  14  15
HETATM   15  C   UNL     1      -9.196  10.804  68.011  1.00  0.00    -0.150 C  
HETATM   16  C   UNL     1      -9.331  12.031  68.537  1.00  0.00    -0.127 C  
BRANCH  16  17
HETATM   17  C   UNL     1      -9.388  13.295  67.743  1.00  0.00    -0.209 C  
BRANCH  17  18
HETATM   18  C   UNL     1      -8.518  14.329  68.405  1.00  0.00    -0.166 C  
HETATM   19  C   UNL     1      -8.941  15.540  68.796  1.00  0.00    -0.204 C  
BRANCH  19  20
HETATM   20  C   UNL     1     -10.330  16.051  68.609  1.00  0.00    -0.241 C  
BRANCH  20  21
HETATM   21  C   UNL     1     -10.545  16.625  67.241  1.00  0.00    -0.281 C  
HETATM   22  C   UNL     1     -10.141  17.847  66.862  1.00  0.00    -0.348 C  
BRANCH  22  23
HETATM   23  C   UNL     1      -9.452  18.849  67.737  1.00  0.00    -0.342 C  
HETATM   24  C   UNL     1     -10.121  20.209  67.667  1.00  0.00    -0.542 C  
ENDBRANCH  22  23
ENDBRANCH  20  21
ENDBRANCH  19  20
ENDBRANCH  17  18
ENDBRANCH  16  17
ENDBRANCH  14  15
ENDBRANCH  13  14
ENDBRANCH  11  12
ENDBRANCH  10  11
ENDBRANCH   8   9
ENDBRANCH   7   8
ENDBRANCH   6   7
ENDBRANCH   4   6
ENDBRANCH   3   4
ENDBRANCH   2   3
TORSDOF 15
ENDMDL
MODEL      445
REMARK 921   NORMALIZED FREE ENERGY PREDICTED BY IDOCK:   -2.54 KCAL/MOL
REMARK 922        TOTAL FREE ENERGY PREDICTED BY IDOCK:   -7.32 KCAL/MOL
REMARK 923 INTER-LIGAND FREE ENERGY PREDICTED BY IDOCK:   -5.66 KCAL/MOL
REMARK 924 INTRA-LIGAND FREE ENERGY PREDICTED BY IDOCK:   -1.66 KCAL/MOL
REMARK 927      BINDING AFFINITY PREDICTED BY RF-SCORE:    0.00 PKD
ROOT
HETATM    1  C   UNL     1      -9.838   4.312  69.641  1.00  0.00    -0.244 C  
HETATM    2  C   UNL     1      -9.213   3.037  69.103  1.00  0.00    -0.154 C  
ENDROOT
BRANCH   2   3
HETATM    3  O   UNL     1      -8.064   3.411  68.335  1.00  0.00    -0.068 OA 
BRANCH   3   4
HETATM    4  C   UNL     1      -8.343   3.782  67.054  1.00  0.00    -0.099 C  
HETATM    5  O   UNL     1      -9.248   3.336  66.367  1.00  0.00    -0.153 OA 
BRANCH   4   6
HETATM    6  C   UNL     1      -7.421   4.905  66.665  1.00  0.00    -0.087 C  
BRANCH   6   7
HETATM    7  C   UNL     1      -6.766   5.510  67.911  1.00  0.00    -0.055 C  
BRANCH   7   8
HETATM    8  C   UNL     1      -7.473   6.777  68.369  1.00  0.00    -0.095 C  
BRANCH   8   9
HETATM    9  C   UNL     1      -7.205   7.945  67.452  1.00  0.00    -0.088 C  
HETATM   10  C   UNL     1      -8.110   8.526  66.649  1.00  0.00    -0.104 C  
BRANCH  10  11
HETATM   11  C   UNL     1      -9.490   8.000  66.422  1.00  0.00    -0.268 C  
BRANCH  11  12
HETATM   12  C   UNL     1     -10.502   8.405  67.449  1.00  0.00    -0.354 C  
HETATM   13  C   UNL     1     -10.843   9.683  67.691  1.00  0.00    -0.276 C  
BRANCH  13  14
HETATM   14  C   UNL     1     -10.328  10.936  67.018  1.00  0.00    -0.276 C  
BRANCH  14  15
HETATM   15  C   UNL     1     -11.372  11.982  66.718  1.00  0.00    -0.398 C  
HETATM   16  C   UNL     1     -11.722  13.001  67.517  1.00  0.00    -0.421 C  
BRANCH  16  17
HETATM   17  C   UNL     1     -11.261  13.174  68.926  1.00  0.00    -0.324 C  
BRANCH  17  18
HETATM   18  C   UNL     1     -12.237  14.056  69.657  1.00  0.00    -0.383 C  
HETATM   19  C   UNL     1     -11.969  15.301  70.078  1.00  0.00    -0.375 C  
BRANCH  19  20
HETATM   20  C   UNL     1     -10.655  15.986  69.906  1.00  0.00    -0.314 C  
BRANCH  20  21
HETATM   21  C   UNL     1     -10.757  17.204  69.038  1.00  0.00    -0.219 C  
HETATM   22  C   UNL     1     -10.219  17.305  67.812  1.00  0.00    -0.332 C  
BRANCH  22  23
HETATM   23  C   UNL     1      -9.402  16.252  67.128  1.00  0.00    -0.232 C  
HETATM   24  C   UNL     1      -8.179  16.844  66.450  1.00  0.00    -0.342 C  
ENDBRANCH  22  23
ENDBRANCH  20  21
ENDBRANCH  19  20
ENDBRANCH  17  18
ENDBRANCH  16  17
ENDBRANCH  14  15
ENDBRANCH  13  14
ENDBRANCH  11  12
ENDBRANCH  10  11
ENDBRANCH   8   9
ENDBRANCH   7   8
ENDBRANCH   6   7
ENDBRANCH   4   6
ENDBRANCH   3   4
ENDBRANCH   2   3
TORSDOF 15
ENDMDL
MODEL      446
REMARK 921   NORMALIZED FREE ENERGY PREDICTED BY IDOCK:   -2.54 KCAL/MOL
REMARK 922        TOTAL FREE ENERGY PREDICTED BY IDOCK:   -7.32 KCAL/MOL
REMARK 923 INTER-LIGAND FREE ENERGY PREDICTED BY IDOCK:   -4.77 KCAL/MOL
REMARK 924 INTRA-LIGAND FREE ENERGY PREDICTED BY IDOCK:   -2.55 KCAL/MOL
REMARK 927      BINDING AFFINITY PREDICTED BY RF-SCORE:    0.00 PKD
ROOT
HETATM    1  C   UNL     1     -10.827  10.646  70.104  1.00  0.00    -0.224 C  
HETATM    2  C   UNL     1     -11.569   9.395  70.539  1.00  0.00    -0.235 C  
ENDROOT
BRANCH   2   3
HETATM    3  O   UNL     1     -11.403   9.265  71.955  1.00  0.00    -0.349 OA 
BRANCH   3   4
HETATM    4  C   UNL     1     -10.582   8.245  72.331  1.00  0.00    -0.337 C  
HETATM    5  O   UNL     1      -9.699   8.318  73.171  1.00  0.00    -0.254 OA 
BRANCH   4   6
HETATM    6  C   UNL     1     -11.011   6.992  71.618  1.00  0.00    -0.258 C  
BRANCH   6   7
HETATM    7  C   UNL     1     -10.876   5.780  72.545  1.00  0.00    -0.294 C  
BRANCH   7   8
HETATM    8  C   UNL     1     -10.188   4.611  71.857  1.00  0.00    -0.254 C  
BRANCH   8   9
HETATM    9  C   UNL     1      -8.842   4.300  72.465  1.00  0.00    -0.119 C  
HETATM   10  C   UNL     1      -7.696   4.154  71.781  1.00  0.00    -0.074 C  
BRANCH  10  11
HETATM   11  C   UNL     1      -7.609   4.120  70.290  1.00  0.00    -0.045 C  
BRANCH  11  12
HETATM   12  C   UNL     1      -7.315   2.776  69.700  1.00  0.00    -0.044 C  
HETATM   13  C   UNL     1      -8.083   2.193  68.761  1.00  0.00    -0.066 C  
BRANCH  13  14
HETATM   14  C   UNL     1      -9.338   2.730  68.109  1.00  0.00    -0.258 C  
BRANCH  14  15
HETATM   15  C   UNL     1      -9.112   3.676  66.958  1.00  0.00    -0.186 C  
HETATM   16  C   UNL     1      -9.281   5.007  66.984  1.00  0.00    -0.122 C  
BRANCH  16  17
HETATM   17  C   UNL     1      -9.894   5.764  68.115  1.00  0.00    -0.162 C  
BRANCH  17  18
HETATM   18  C   UNL     1     -10.977   6.660  67.576  1.00  0.00    -0.416 C  
HETATM   19  C   UNL     1     -10.772   7.895  67.095  1.00  0.00    -0.306 C  
BRANCH  19  20
HETATM   20  C   UNL     1      -9.445   8.574  67.049  1.00  0.00    -0.223 C  
BRANCH  20  21
HETATM   21  C   UNL     1      -9.551  10.001  66.600  1.00  0.00    -0.234 C  
HETATM   22  C   UNL     1      -8.719  10.979  66.990  1.00  0.00    -0.141 C  
BRANCH  22  23
HETATM   23  C   UNL     1      -7.585  10.827  67.957  1.00  0.00    -0.092 C  
HETATM   24  C   UNL     1      -6.843  12.135  68.163  1.00  0.00    -0.075 C  
ENDBRANCH  22  23
ENDBRANCH  20  21
ENDBRANCH  19  20
ENDBRANCH  17  18
ENDBRANCH  16  17
ENDBRANCH  14  15
ENDBRANCH  13  14
ENDBRANCH  11  12
ENDBRANCH  10  11
ENDBRANCH   8   9
ENDBRANCH   7   8
ENDBRANCH   6   7
ENDBRANCH   4   6
ENDBRANCH   3   4
ENDBRANCH   2   3
TORSDOF 15
ENDMDL
MODEL      447
REMARK 921   NORMALIZED FREE ENERGY PREDICTED BY IDOCK:   -2.54 KCAL/MOL
REMARK 922        TOTAL FREE ENERGY PREDICTED BY IDOCK:   -7.31 KCAL/MOL
REMARK 923 INTER-LIGAND FREE ENERGY PREDICTED BY IDOCK:   -5.33 KCAL/MOL
REMARK 924 INTRA-LIGAND FREE ENERGY PREDICTED BY IDOCK:   -1.99 KCAL/MOL
REMARK 927      BINDING AFFINITY PREDICTED BY RF-SCORE:    0.00 PKD
ROOT
HETATM    1  C   UNL     1     -12.224  13.245  68.627  1.00  0.00    -0.115 C  
HETATM    2  C   UNL     1     -11.668  12.356  69.724  1.00  0.00    -0.291 C  
ENDROOT
BRANCH   2   3
HETATM    3  O   UNL     1     -12.335  11.091  69.633  1.00  0.00    -0.321 OA 
BRANCH   3   4
HETATM    4  C   UNL     1     -11.733  10.089  70.333  1.00  0.00    -0.286 C  
HETATM    5  O   UNL     1     -12.310   9.208  70.949  1.00  0.00    -0.254 OA 
BRANCH   4   6
HETATM    6  C   UNL     1     -10.245  10.188  70.133  1.00  0.00    -0.235 C  
BRANCH   6   7
HETATM    7  C   UNL     1      -9.688   8.857  69.620  1.00  0.00    -0.175 C  
BRANCH   7   8
HETATM    8  C   UNL     1     -10.283   8.470  68.275  1.00  0.00    -0.244 C  
BRANCH   8   9
HETATM    9  C   UNL     1     -10.139   6.995  67.989  1.00  0.00    -0.199 C  
HETATM   10  C   UNL     1      -9.115   6.428  67.331  1.00  0.00    -0.111 C  
BRANCH  10  11
HETATM   11  C   UNL     1      -8.035   7.195  66.640  1.00  0.00    -0.111 C  
BRANCH  11  12
HETATM   12  C   UNL     1      -8.109   7.192  65.144  1.00  0.00    -0.127 C  
HETATM   13  C   UNL     1      -8.401   8.283  64.414  1.00  0.00    -0.082 C  
BRANCH  13  14
HETATM   14  C   UNL     1      -8.693   9.686  64.897  1.00  0.00    -0.207 C  
BRANCH  14  15
HETATM   15  C   UNL     1      -9.876  10.358  64.249  1.00  0.00    -0.388 C  
HETATM   16  C   UNL     1     -10.352  11.578  64.543  1.00  0.00    -0.354 C  
BRANCH  16  17
HETATM   17  C   UNL     1      -9.895  12.414  65.693  1.00  0.00    -0.235 C  
BRANCH  17  18
HETATM   18  C   UNL     1      -9.350  11.513  66.768  1.00  0.00    -0.191 C  
HETATM   19  C   UNL     1      -8.446  11.887  67.686  1.00  0.00    -0.156 C  
BRANCH  19  20
HETATM   20  C   UNL     1      -7.828  13.243  67.761  1.00  0.00    -0.157 C  
BRANCH  20  21
HETATM   21  C   UNL     1      -8.732  14.244  68.414  1.00  0.00    -0.181 C  
HETATM   22  C   UNL     1      -9.201  15.347  67.809  1.00  0.00    -0.183 C  
BRANCH  22  23
HETATM   23  C   UNL     1      -8.874  15.782  66.413  1.00  0.00    -0.371 C  
HETATM   24  C   UNL     1     -10.074  16.410  65.727  1.00  0.00    -0.352 C  
ENDBRANCH  22  23
ENDBRANCH  20  21
ENDBRANCH  19  20
ENDBRANCH  17  18
ENDBRANCH  16  17
ENDBRANCH  14  15
ENDBRANCH  13  14
ENDBRANCH  11  12
ENDBRANCH  10  11
ENDBRANCH   8   9
ENDBRANCH   7   8
ENDBRANCH   6   7
ENDBRANCH   4   6
ENDBRANCH   3   4
ENDBRANCH   2   3
TORSDOF 15
ENDMDL
MODEL      448
REMARK 921   NORMALIZED FREE ENERGY PREDICTED BY IDOCK:   -2.54 KCAL/MOL
REMARK 922        TOTAL FREE ENERGY PREDICTED BY IDOCK:   -7.31 KCAL/MOL
REMARK 923 INTER-LIGAND FREE ENERGY PREDICTED BY IDOCK:   -4.47 KCAL/MOL
REMARK 924 INTRA-LIGAND FREE ENERGY PREDICTED BY IDOCK:   -2.84 KCAL/MOL
REMARK 927      BINDING AFFINITY PREDICTED BY RF-SCORE:    0.00 PKD
ROOT
HETATM    1  C   UNL     1     -10.092   3.871  64.277  1.00  0.00    -0.216 C  
HETATM    2  C   UNL     1      -8.790   4.613  64.036  1.00  0.00    -0.138 C  
ENDROOT
BRANCH   2   3
HETATM    3  O   UNL     1      -8.697   5.651  65.019  1.00  0.00    -0.141 OA 
BRANCH   3   4
HETATM    4  C   UNL     1      -8.321   6.862  64.520  1.00  0.00     0.089 C  
HETATM    5  O   UNL     1      -7.630   7.038  63.529  1.00  0.00    -0.092 OA 
BRANCH   4   6
HETATM    6  C   UNL     1      -8.983   7.943  65.330  1.00  0.00     0.125 C  
BRANCH   6   7
HETATM    7  C   UNL     1      -8.233   8.155  66.648  1.00  0.00    -0.103 C  
BRANCH   7   8
HETATM    8  C   UNL     1      -9.158   8.065  67.852  1.00  0.00    -0.134 C  
BRANCH   8   9
HETATM    9  C   UNL     1     -10.377   7.220  67.575  1.00  0.00    -0.310 C  
HETATM   10  C   UNL     1     -10.761   6.152  68.292  1.00  0.00    -0.361 C  
BRANCH  10  11
HETATM   11  C   UNL     1      -9.948   5.540  69.385  1.00  0.00    -0.276 C  
BRANCH  11  12
HETATM   12  C   UNL     1      -8.778   4.723  68.929  1.00  0.00    -0.107 C  
HETATM   13  C   UNL     1      -7.500   5.033  69.213  1.00  0.00    -0.057 C  
BRANCH  13  14
HETATM   14  C   UNL     1      -6.974   6.198  70.021  1.00  0.00    -0.070 C  
BRANCH  14  15
HETATM   15  C   UNL     1      -6.815   5.939  71.497  1.00  0.00    -0.067 C  
HETATM   16  C   UNL     1      -7.506   6.533  72.483  1.00  0.00    -0.090 C  
BRANCH  16  17
HETATM   17  C   UNL     1      -8.434   7.688  72.295  1.00  0.00    -0.153 C  
BRANCH  17  18
HETATM   18  C   UNL     1      -9.437   7.700  73.417  1.00  0.00    -0.330 C  
HETATM   19  C   UNL     1     -10.654   7.140  73.354  1.00  0.00    -0.424 C  
BRANCH  19  20
HETATM   20  C   UNL     1     -11.204   6.447  72.152  1.00  0.00    -0.319 C  
BRANCH  20  21
HETATM   21  C   UNL     1     -12.521   7.017  71.720  1.00  0.00    -0.393 C  
HETATM   22  C   UNL     1     -12.667   8.204  71.112  1.00  0.00    -0.132 C  
BRANCH  22  23
HETATM   23  C   UNL     1     -11.563   9.168  70.802  1.00  0.00    -0.329 C  
HETATM   24  C   UNL     1     -11.984  10.604  71.058  1.00  0.00    -0.442 C  
ENDBRANCH  22  23
ENDBRANCH  20  21
ENDBRANCH  19  20
ENDBRANCH  17  18
ENDBRANCH  16  17
ENDBRANCH  14  15
ENDBRANCH  13  14
ENDBRANCH  11  12
ENDBRANCH  10  11
ENDBRANCH   8   9
ENDBRANCH   7   8
ENDBRANCH   6   7
ENDBRANCH   4   6
ENDBRANCH   3   4
ENDBRANCH   2   3
TORSDOF 15
ENDMDL
MODEL      449
REMARK 921   NORMALIZED FREE ENERGY PREDICTED BY IDOCK:   -2.53 KCAL/MOL
REMARK 922        TOTAL FREE ENERGY PREDICTED BY IDOCK:   -7.29 KCAL/MOL
REMARK 923 INTER-LIGAND FREE ENERGY PREDICTED BY IDOCK:   -6.40 KCAL/MOL
REMARK 924 INTRA-LIGAND FREE ENERGY PREDICTED BY IDOCK:   -0.90 KCAL/MOL
REMARK 927      BINDING AFFINITY PREDICTED BY RF-SCORE:    0.00 PKD
ROOT
HETATM    1  C   UNL     1     -12.013  16.907  73.354  1.00  0.00    -0.103 C  
HETATM    2  C   UNL     1     -11.849  15.422  73.621  1.00  0.00    -0.282 C  
ENDROOT
BRANCH   2   3
HETATM    3  O   UNL     1     -12.959  14.749  73.016  1.00  0.00    -0.448 OA 
BRANCH   3   4
HETATM    4  C   UNL     1     -13.282  15.207  71.774  1.00  0.00    -0.395 C  
HETATM    5  O   UNL     1     -14.401  15.525  71.404  1.00  0.00    -0.531 OA 
BRANCH   4   6
HETATM    6  C   UNL     1     -12.019  15.356  70.972  1.00  0.00    -0.409 C  
BRANCH   6   7
HETATM    7  C   UNL     1     -12.277  15.003  69.504  1.00  0.00    -0.267 C  
BRANCH   7   8
HETATM    8  C   UNL     1     -11.153  14.167  68.912  1.00  0.00    -0.288 C  
BRANCH   8   9
HETATM    9  C   UNL     1     -11.633  12.818  68.436  1.00  0.00    -0.365 C  
HETATM   10  C   UNL     1     -11.981  11.792  69.230  1.00  0.00    -0.354 C  
BRANCH  10  11
HETATM   11  C   UNL     1     -11.794  11.780  70.712  1.00  0.00    -0.059 C  
BRANCH  11  12
HETATM   12  C   UNL     1     -12.569  10.728  71.443  1.00  0.00    -0.516 C  
HETATM   13  C   UNL     1     -12.080   9.507  71.726  1.00  0.00    -0.459 C  
BRANCH  13  14
HETATM   14  C   UNL     1     -10.712   8.946  71.405  1.00  0.00    -0.382 C  
BRANCH  14  15
HETATM   15  C   UNL     1     -10.694   7.835  70.387  1.00  0.00    -0.238 C  
HETATM   16  C   UNL     1     -10.313   7.943  69.104  1.00  0.00    -0.225 C  
BRANCH  16  17
HETATM   17  C   UNL     1     -10.008   9.232  68.414  1.00  0.00    -0.196 C  
BRANCH  17  18
HETATM   18  C   UNL     1     -10.187   9.049  66.931  1.00  0.00    -0.339 C  
HETATM   19  C   UNL     1      -9.307   8.433  66.129  1.00  0.00    -0.267 C  
BRANCH  19  20
HETATM   20  C   UNL     1      -8.006   7.862  66.585  1.00  0.00    -0.103 C  
BRANCH  20  21
HETATM   21  C   UNL     1      -6.865   8.270  65.702  1.00  0.00    -0.066 C  
HETATM   22  C   UNL     1      -5.608   8.462  66.132  1.00  0.00    -0.039 C  
BRANCH  22  23
HETATM   23  C   UNL     1      -5.143   8.344  67.551  1.00  0.00    -0.033 C  
HETATM   24  C   UNL     1      -5.209   9.676  68.276  1.00  0.00    -0.033 C  
ENDBRANCH  22  23
ENDBRANCH  20  21
ENDBRANCH  19  20
ENDBRANCH  17  18
ENDBRANCH  16  17
ENDBRANCH  14  15
ENDBRANCH  13  14
ENDBRANCH  11  12
ENDBRANCH  10  11
ENDBRANCH   8   9
ENDBRANCH   7   8
ENDBRANCH   6   7
ENDBRANCH   4   6
ENDBRANCH   3   4
ENDBRANCH   2   3
TORSDOF 15
ENDMDL
MODEL      450
REMARK 921   NORMALIZED FREE ENERGY PREDICTED BY IDOCK:   -2.51 KCAL/MOL
REMARK 922        TOTAL FREE ENERGY PREDICTED BY IDOCK:   -7.26 KCAL/MOL
REMARK 923 INTER-LIGAND FREE ENERGY PREDICTED BY IDOCK:   -5.66 KCAL/MOL
REMARK 924 INTRA-LIGAND FREE ENERGY PREDICTED BY IDOCK:   -1.60 KCAL/MOL
REMARK 927      BINDING AFFINITY PREDICTED BY RF-SCORE:    0.00 PKD
ROOT
HETATM    1  C   UNL     1      -8.884  19.380  69.205  1.00  0.00    -0.157 C  
HETATM    2  C   UNL     1     -10.052  19.928  68.404  1.00  0.00    -0.437 C  
ENDROOT
BRANCH   2   3
HETATM    3  O   UNL     1      -9.584  20.171  67.072  1.00  0.00    -0.371 OA 
BRANCH   3   4
HETATM    4  C   UNL     1     -10.297  19.532  66.103  1.00  0.00    -0.520 C  
HETATM    5  O   UNL     1     -10.967  20.076  65.239  1.00  0.00    -0.315 OA 
BRANCH   4   6
HETATM    6  C   UNL     1     -10.038  18.055  66.209  1.00  0.00    -0.363 C  
BRANCH   6   7
HETATM    7  C   UNL     1      -8.575  17.746  65.878  1.00  0.00     0.094 C  
BRANCH   7   8
HETATM    8  C   UNL     1      -8.121  16.423  66.475  1.00  0.00    -0.345 C  
BRANCH   8   9
HETATM    9  C   UNL     1      -6.681  16.463  66.925  1.00  0.00    -0.205 C  
HETATM   10  C   UNL     1      -6.180  15.807  67.984  1.00  0.00    -0.148 C  
BRANCH  10  11
HETATM   11  C   UNL     1      -7.010  15.059  68.976  1.00  0.00    -0.127 C  
BRANCH  11  12
HETATM   12  C   UNL     1      -6.986  13.569  68.832  1.00  0.00    -0.108 C  
HETATM   13  C   UNL     1      -7.927  12.871  68.170  1.00  0.00    -0.153 C  
BRANCH  13  14
HETATM   14  C   UNL     1      -9.148  13.394  67.447  1.00  0.00    -0.216 C  
BRANCH  14  15
HETATM   15  C   UNL     1     -10.376  13.571  68.302  1.00  0.00    -0.253 C  
HETATM   16  C   UNL     1     -11.320  12.645  68.532  1.00  0.00    -0.333 C  
BRANCH  16  17
HETATM   17  C   UNL     1     -11.406  11.328  67.834  1.00  0.00    -0.367 C  
BRANCH  17  18
HETATM   18  C   UNL     1     -11.171  11.537  66.362  1.00  0.00    -0.307 C  
HETATM   19  C   UNL     1     -10.518  10.676  65.567  1.00  0.00    -0.246 C  
BRANCH  19  20
HETATM   20  C   UNL     1      -9.905   9.397  66.030  1.00  0.00    -0.366 C  
BRANCH  20  21
HETATM   21  C   UNL     1      -8.585   9.611  66.709  1.00  0.00    -0.140 C  
HETATM   22  C   UNL     1      -7.475  10.037  66.085  1.00  0.00    -0.109 C  
BRANCH  22  23
HETATM   23  C   UNL     1      -7.354  10.326  64.620  1.00  0.00    -0.085 C  
HETATM   24  C   UNL     1      -6.979   9.084  63.832  1.00  0.00    -0.088 C  
ENDBRANCH  22  23
ENDBRANCH  20  21
ENDBRANCH  19  20
ENDBRANCH  17  18
ENDBRANCH  16  17
ENDBRANCH  14  15
ENDBRANCH  13  14
ENDBRANCH  11  12
ENDBRANCH  10  11
ENDBRANCH   8   9
ENDBRANCH   7   8
ENDBRANCH   6   7
ENDBRANCH   4   6
ENDBRANCH   3   4
ENDBRANCH   2   3
TORSDOF 15
ENDMDL
MODEL      451
REMARK 921   NORMALIZED FREE ENERGY PREDICTED BY IDOCK:   -2.51 KCAL/MOL
REMARK 922        TOTAL FREE ENERGY PREDICTED BY IDOCK:   -7.26 KCAL/MOL
REMARK 923 INTER-LIGAND FREE ENERGY PREDICTED BY IDOCK:   -5.75 KCAL/MOL
REMARK 924 INTRA-LIGAND FREE ENERGY PREDICTED BY IDOCK:   -1.50 KCAL/MOL
REMARK 927      BINDING AFFINITY PREDICTED BY RF-SCORE:    0.00 PKD
ROOT
HETATM    1  C   UNL     1     -14.256   8.740  71.586  1.00  0.00    -0.414 C  
HETATM    2  C   UNL     1     -13.137   9.051  72.562  1.00  0.00    -0.385 C  
ENDROOT
BRANCH   2   3
HETATM    3  O   UNL     1     -11.980   9.403  71.795  1.00  0.00    -0.360 OA 
BRANCH   3   4
HETATM    4  C   UNL     1     -11.342   8.342  71.226  1.00  0.00    -0.266 C  
HETATM    5  O   UNL     1     -10.862   8.321  70.104  1.00  0.00    -0.240 OA 
BRANCH   4   6
HETATM    6  C   UNL     1     -11.234   7.242  72.246  1.00  0.00    -0.305 C  
BRANCH   6   7
HETATM    7  C   UNL     1      -9.779   7.075  72.697  1.00  0.00    -0.173 C  
BRANCH   7   8
HETATM    8  C   UNL     1      -9.324   5.626  72.630  1.00  0.00    -0.148 C  
BRANCH   8   9
HETATM    9  C   UNL     1     -10.032   4.853  71.545  1.00  0.00    -0.260 C  
HETATM   10  C   UNL     1      -9.440   4.287  70.481  1.00  0.00    -0.244 C  
BRANCH  10  11
HETATM   11  C   UNL     1      -8.001   4.473  70.126  1.00  0.00    -0.063 C  
BRANCH  11  12
HETATM   12  C   UNL     1      -7.600   5.881  69.809  1.00  0.00    -0.081 C  
HETATM   13  C   UNL     1      -7.779   6.450  68.603  1.00  0.00    -0.101 C  
BRANCH  13  14
HETATM   14  C   UNL     1      -8.401   5.847  67.363  1.00  0.00    -0.105 C  
BRANCH  14  15
HETATM   15  C   UNL     1      -9.716   6.452  66.942  1.00  0.00    -0.190 C  
HETATM   16  C   UNL     1      -9.876   7.588  66.246  1.00  0.00    -0.059 C  
BRANCH  16  17
HETATM   17  C   UNL     1      -8.779   8.547  65.918  1.00  0.00    -0.203 C  
BRANCH  17  18
HETATM   18  C   UNL     1      -9.147   9.306  64.672  1.00  0.00    -0.177 C  
HETATM   19  C   UNL     1      -9.460  10.610  64.642  1.00  0.00    -0.308 C  
BRANCH  19  20
HETATM   20  C   UNL     1      -9.517  11.494  65.842  1.00  0.00    -0.251 C  
BRANCH  20  21
HETATM   21  C   UNL     1     -10.847  12.169  65.989  1.00  0.00    -0.318 C  
HETATM   22  C   UNL     1     -11.041  13.492  65.863  1.00  0.00    -0.292 C  
BRANCH  22  23
HETATM   23  C   UNL     1      -9.973  14.509  65.600  1.00  0.00    -0.376 C  
HETATM   24  C   UNL     1     -10.558  15.827  65.127  1.00  0.00    -0.436 C  
ENDBRANCH  22  23
ENDBRANCH  20  21
ENDBRANCH  19  20
ENDBRANCH  17  18
ENDBRANCH  16  17
ENDBRANCH  14  15
ENDBRANCH  13  14
ENDBRANCH  11  12
ENDBRANCH  10  11
ENDBRANCH   8   9
ENDBRANCH   7   8
ENDBRANCH   6   7
ENDBRANCH   4   6
ENDBRANCH   3   4
ENDBRANCH   2   3
TORSDOF 15
ENDMDL
MODEL      452
REMARK 921   NORMALIZED FREE ENERGY PREDICTED BY IDOCK:   -2.50 KCAL/MOL
REMARK 922        TOTAL FREE ENERGY PREDICTED BY IDOCK:   -7.24 KCAL/MOL
REMARK 923 INTER-LIGAND FREE ENERGY PREDICTED BY IDOCK:   -4.47 KCAL/MOL
REMARK 924 INTRA-LIGAND FREE ENERGY PREDICTED BY IDOCK:   -2.77 KCAL/MOL
REMARK 927      BINDING AFFINITY PREDICTED BY RF-SCORE:    0.00 PKD
ROOT
HETATM    1  C   UNL     1      -9.719   3.987  64.440  1.00  0.00    -0.175 C  
HETATM    2  C   UNL     1      -8.483   4.754  64.009  1.00  0.00    -0.132 C  
ENDROOT
BRANCH   2   3
HETATM    3  O   UNL     1      -8.410   5.940  64.809  1.00  0.00    -0.138 OA 
BRANCH   3   4
HETATM    4  C   UNL     1      -7.362   6.756  64.506  1.00  0.00    -0.090 C  
HETATM    5  O   UNL     1      -6.361   6.427  63.890  1.00  0.00    -0.029 OA 
BRANCH   4   6
HETATM    6  C   UNL     1      -7.690   8.151  64.964  1.00  0.00    -0.113 C  
BRANCH   6   7
HETATM    7  C   UNL     1      -6.919   8.485  66.245  1.00  0.00    -0.077 C  
BRANCH   7   8
HETATM    8  C   UNL     1      -7.568   7.873  67.477  1.00  0.00    -0.105 C  
BRANCH   8   9
HETATM    9  C   UNL     1      -6.569   7.602  68.575  1.00  0.00    -0.053 C  
HETATM   10  C   UNL     1      -6.831   7.641  69.891  1.00  0.00    -0.047 C  
BRANCH  10  11
HETATM   11  C   UNL     1      -8.121   8.117  70.475  1.00  0.00    -0.104 C  
BRANCH  11  12
HETATM   12  C   UNL     1      -8.413   9.572  70.273  1.00  0.00    -0.237 C  
HETATM   13  C   UNL     1      -9.625  10.044  69.928  1.00  0.00    -0.233 C  
BRANCH  13  14
HETATM   14  C   UNL     1     -10.902   9.270  69.691  1.00  0.00    -0.228 C  
BRANCH  14  15
HETATM   15  C   UNL     1     -11.808   9.140  70.888  1.00  0.00    -0.327 C  
HETATM   16  C   UNL     1     -12.053   8.014  71.576  1.00  0.00    -0.330 C  
BRANCH  16  17
HETATM   17  C   UNL     1     -11.603   6.651  71.163  1.00  0.00    -0.384 C  
BRANCH  17  18
HETATM   18  C   UNL     1     -11.074   5.923  72.370  1.00  0.00    -0.328 C  
HETATM   19  C   UNL     1      -9.948   5.195  72.384  1.00  0.00    -0.225 C  
BRANCH  19  20
HETATM   20  C   UNL     1      -9.066   4.979  71.200  1.00  0.00    -0.177 C  
BRANCH  20  21
HETATM   21  C   UNL     1      -9.659   4.013  70.219  1.00  0.00    -0.271 C  
HETATM   22  C   UNL     1      -9.894   4.296  68.928  1.00  0.00    -0.131 C  
BRANCH  22  23
HETATM   23  C   UNL     1      -9.646   5.616  68.265  1.00  0.00    -0.145 C  
HETATM   24  C   UNL     1     -10.838   6.061  67.438  1.00  0.00    -0.394 C  
ENDBRANCH  22  23
ENDBRANCH  20  21
ENDBRANCH  19  20
ENDBRANCH  17  18
ENDBRANCH  16  17
ENDBRANCH  14  15
ENDBRANCH  13  14
ENDBRANCH  11  12
ENDBRANCH  10  11
ENDBRANCH   8   9
ENDBRANCH   7   8
ENDBRANCH   6   7
ENDBRANCH   4   6
ENDBRANCH   3   4
ENDBRANCH   2   3
TORSDOF 15
ENDMDL
MODEL      453
REMARK 921   NORMALIZED FREE ENERGY PREDICTED BY IDOCK:   -2.49 KCAL/MOL
REMARK 922        TOTAL FREE ENERGY PREDICTED BY IDOCK:   -7.23 KCAL/MOL
REMARK 923 INTER-LIGAND FREE ENERGY PREDICTED BY IDOCK:   -5.40 KCAL/MOL
REMARK 924 INTRA-LIGAND FREE ENERGY PREDICTED BY IDOCK:   -1.82 KCAL/MOL
REMARK 927      BINDING AFFINITY PREDICTED BY RF-SCORE:    0.00 PKD
ROOT
HETATM    1  C   UNL     1      -9.677   5.027  69.317  1.00  0.00    -0.249 C  
HETATM    2  C   UNL     1      -9.826   3.890  68.323  1.00  0.00     0.043 C  
ENDROOT
BRANCH   2   3
HETATM    3  O   UNL     1      -8.879   4.109  67.271  1.00  0.00    -0.108 OA 
BRANCH   3   4
HETATM    4  C   UNL     1      -9.390   4.749  66.182  1.00  0.00    -0.152 C  
HETATM    5  O   UNL     1     -10.563   4.755  65.848  1.00  0.00    -0.303 OA 
BRANCH   4   6
HETATM    6  C   UNL     1      -8.288   5.532  65.522  1.00  0.00    -0.136 C  
BRANCH   6   7
HETATM    7  C   UNL     1      -7.402   6.198  66.579  1.00  0.00    -0.081 C  
BRANCH   7   8
HETATM    8  C   UNL     1      -7.906   7.582  66.957  1.00  0.00    -0.116 C  
BRANCH   8   9
HETATM    9  C   UNL     1      -8.116   8.464  65.750  1.00  0.00    -0.117 C  
HETATM   10  C   UNL     1      -9.196   9.228  65.525  1.00  0.00    -0.292 C  
BRANCH  10  11
HETATM   11  C   UNL     1     -10.432   9.200  66.363  1.00  0.00    -0.141 C  
BRANCH  11  12
HETATM   12  C   UNL     1     -10.460  10.188  67.489  1.00  0.00    -0.304 C  
HETATM   13  C   UNL     1     -10.583  11.516  67.309  1.00  0.00    -0.266 C  
BRANCH  13  14
HETATM   14  C   UNL     1     -10.726  12.278  66.010  1.00  0.00    -0.296 C  
BRANCH  14  15
HETATM   15  C   UNL     1     -11.913  13.203  65.934  1.00  0.00    -0.479 C  
HETATM   16  C   UNL     1     -12.258  14.124  66.846  1.00  0.00    -0.400 C  
BRANCH  16  17
HETATM   17  C   UNL     1     -11.620  14.271  68.189  1.00  0.00    -0.365 C  
BRANCH  17  18
HETATM   18  C   UNL     1     -11.726  15.707  68.628  1.00  0.00    -0.364 C  
HETATM   19  C   UNL     1     -10.782  16.637  68.421  1.00  0.00    -0.353 C  
BRANCH  19  20
HETATM   20  C   UNL     1      -9.475  16.379  67.749  1.00  0.00    -0.222 C  
BRANCH  20  21
HETATM   21  C   UNL     1      -8.349  16.244  68.729  1.00  0.00    -0.235 C  
HETATM   22  C   UNL     1      -7.724  15.089  69.007  1.00  0.00    -0.170 C  
BRANCH  22  23
HETATM   23  C   UNL     1      -8.066  13.750  68.428  1.00  0.00    -0.148 C  
HETATM   24  C   UNL     1      -6.868  13.109  67.751  1.00  0.00    -0.149 C  
ENDBRANCH  22  23
ENDBRANCH  20  21
ENDBRANCH  19  20
ENDBRANCH  17  18
ENDBRANCH  16  17
ENDBRANCH  14  15
ENDBRANCH  13  14
ENDBRANCH  11  12
ENDBRANCH  10  11
ENDBRANCH   8   9
ENDBRANCH   7   8
ENDBRANCH   6   7
ENDBRANCH   4   6
ENDBRANCH   3   4
ENDBRANCH   2   3
TORSDOF 15
ENDMDL
MODEL      454
REMARK 921   NORMALIZED FREE ENERGY PREDICTED BY IDOCK:   -2.48 KCAL/MOL
REMARK 922        TOTAL FREE ENERGY PREDICTED BY IDOCK:   -7.20 KCAL/MOL
REMARK 923 INTER-LIGAND FREE ENERGY PREDICTED BY IDOCK:   -4.95 KCAL/MOL
REMARK 924 INTRA-LIGAND FREE ENERGY PREDICTED BY IDOCK:   -2.26 KCAL/MOL
REMARK 927      BINDING AFFINITY PREDICTED BY RF-SCORE:    0.00 PKD
ROOT
HETATM    1  C   UNL     1      -8.327   4.088  72.535  1.00  0.00    -0.099 C  
HETATM    2  C   UNL     1      -8.646   5.500  72.080  1.00  0.00    -0.131 C  
ENDROOT
BRANCH   2   3
HETATM    3  O   UNL     1      -9.361   5.404  70.842  1.00  0.00    -0.150 OA 
BRANCH   3   4
HETATM    4  C   UNL     1     -10.464   6.200  70.768  1.00  0.00    -0.230 C  
HETATM    5  O   UNL     1     -11.415   6.166  71.532  1.00  0.00    -0.291 OA 
BRANCH   4   6
HETATM    6  C   UNL     1     -10.266   7.196  69.659  1.00  0.00    -0.215 C  
BRANCH   6   7
HETATM    7  C   UNL     1      -9.417   6.583  68.540  1.00  0.00    -0.121 C  
BRANCH   7   8
HETATM    8  C   UNL     1     -10.085   6.717  67.180  1.00  0.00    -0.249 C  
BRANCH   8   9
HETATM    9  C   UNL     1     -10.903   5.501  66.822  1.00  0.00    -0.252 C  
HETATM   10  C   UNL     1     -10.542   4.552  65.944  1.00  0.00    -0.194 C  
BRANCH  10  11
HETATM   11  C   UNL     1      -9.338   4.639  65.064  1.00  0.00    -0.142 C  
BRANCH  11  12
HETATM   12  C   UNL     1      -8.126   3.918  65.570  1.00  0.00    -0.101 C  
HETATM   13  C   UNL     1      -7.008   4.544  65.981  1.00  0.00    -0.066 C  
BRANCH  13  14
HETATM   14  C   UNL     1      -6.731   6.029  66.040  1.00  0.00    -0.056 C  
BRANCH  14  15
HETATM   15  C   UNL     1      -6.362   6.668  64.725  1.00  0.00    -0.038 C  
HETATM   16  C   UNL     1      -6.972   7.721  64.160  1.00  0.00    -0.068 C  
BRANCH  16  17
HETATM   17  C   UNL     1      -8.241   8.335  64.653  1.00  0.00    -0.145 C  
BRANCH  17  18
HETATM   18  C   UNL     1      -7.983   9.775  65.007  1.00  0.00    -0.131 C  
HETATM   19  C   UNL     1      -8.930  10.724  65.068  1.00  0.00    -0.211 C  
BRANCH  19  20
HETATM   20  C   UNL     1     -10.374  10.497  64.768  1.00  0.00    -0.300 C  
BRANCH  20  21
HETATM   21  C   UNL     1     -10.837  11.282  63.578  1.00  0.00    -0.373 C  
HETATM   22  C   UNL     1     -11.469  12.464  63.652  1.00  0.00    -0.568 C  
BRANCH  22  23
HETATM   23  C   UNL     1     -11.850  13.172  64.916  1.00  0.00    -0.399 C  
HETATM   24  C   UNL     1     -11.644  14.671  64.803  1.00  0.00    -0.418 C  
ENDBRANCH  22  23
ENDBRANCH  20  21
ENDBRANCH  19  20
ENDBRANCH  17  18
ENDBRANCH  16  17
ENDBRANCH  14  15
ENDBRANCH  13  14
ENDBRANCH  11  12
ENDBRANCH  10  11
ENDBRANCH   8   9
ENDBRANCH   7   8
ENDBRANCH   6   7
ENDBRANCH   4   6
ENDBRANCH   3   4
ENDBRANCH   2   3
TORSDOF 15
ENDMDL
MODEL      455
REMARK 921   NORMALIZED FREE ENERGY PREDICTED BY IDOCK:   -2.47 KCAL/MOL
REMARK 922        TOTAL FREE ENERGY PREDICTED BY IDOCK:   -7.19 KCAL/MOL
REMARK 923 INTER-LIGAND FREE ENERGY PREDICTED BY IDOCK:   -5.28 KCAL/MOL
REMARK 924 INTRA-LIGAND FREE ENERGY PREDICTED BY IDOCK:   -1.91 KCAL/MOL
REMARK 927      BINDING AFFINITY PREDICTED BY RF-SCORE:    0.00 PKD
ROOT
HETATM    1  C   UNL     1     -10.227  10.417  65.687  1.00  0.00    -0.308 C  
HETATM    2  C   UNL     1      -9.394   9.221  66.112  1.00  0.00    -0.212 C  
ENDROOT
BRANCH   2   3
HETATM    3  O   UNL     1      -8.586   8.839  64.993  1.00  0.00    -0.175 OA 
BRANCH   3   4
HETATM    4  C   UNL     1      -8.215   7.529  64.991  1.00  0.00    -0.103 C  
HETATM    5  O   UNL     1      -7.823   6.903  64.020  1.00  0.00    -0.109 OA 
BRANCH   4   6
HETATM    6  C   UNL     1      -8.267   7.012  66.403  1.00  0.00    -0.117 C  
BRANCH   6   7
HETATM    7  C   UNL     1      -9.008   5.672  66.451  1.00  0.00    -0.134 C  
BRANCH   7   8
HETATM    8  C   UNL     1      -8.095   4.530  66.870  1.00  0.00    -0.102 C  
BRANCH   8   9
HETATM    9  C   UNL     1      -6.735   5.016  67.310  1.00  0.00    -0.055 C  
HETATM   10  C   UNL     1      -6.332   5.149  68.584  1.00  0.00    -0.035 C  
BRANCH  10  11
HETATM   11  C   UNL     1      -7.228   4.984  69.768  1.00  0.00    -0.055 C  
BRANCH  11  12
HETATM   12  C   UNL     1      -7.604   3.570  70.091  1.00  0.00    -0.044 C  
HETATM   13  C   UNL     1      -8.810   3.213  70.567  1.00  0.00    -0.148 C  
BRANCH  13  14
HETATM   14  C   UNL     1     -10.003   4.096  70.859  1.00  0.00    -0.207 C  
BRANCH  14  15
HETATM   15  C   UNL     1     -10.376   5.059  69.762  1.00  0.00    -0.286 C  
HETATM   16  C   UNL     1     -11.042   6.214  69.916  1.00  0.00    -0.481 C  
BRANCH  16  17
HETATM   17  C   UNL     1     -11.686   6.661  71.187  1.00  0.00    -0.399 C  
BRANCH  17  18
HETATM   18  C   UNL     1     -10.671   7.398  72.018  1.00  0.00    -0.254 C  
HETATM   19  C   UNL     1     -10.562   8.733  72.079  1.00  0.00    -0.414 C  
BRANCH  19  20
HETATM   20  C   UNL     1     -11.415   9.685  71.309  1.00  0.00    -0.463 C  
BRANCH  20  21
HETATM   21  C   UNL     1     -10.914   9.896  69.912  1.00  0.00    -0.321 C  
HETATM   22  C   UNL     1     -11.251  10.939  69.138  1.00  0.00    -0.318 C  
BRANCH  22  23
HETATM   23  C   UNL     1     -12.203  12.034  69.514  1.00  0.00    -0.176 C  
HETATM   24  C   UNL     1     -11.633  13.405  69.197  1.00  0.00    -0.365 C  
ENDBRANCH  22  23
ENDBRANCH  20  21
ENDBRANCH  19  20
ENDBRANCH  17  18
ENDBRANCH  16  17
ENDBRANCH  14  15
ENDBRANCH  13  14
ENDBRANCH  11  12
ENDBRANCH  10  11
ENDBRANCH   8   9
ENDBRANCH   7   8
ENDBRANCH   6   7
ENDBRANCH   4   6
ENDBRANCH   3   4
ENDBRANCH   2   3
TORSDOF 15
ENDMDL
MODEL      456
REMARK 921   NORMALIZED FREE ENERGY PREDICTED BY IDOCK:   -2.47 KCAL/MOL
REMARK 922        TOTAL FREE ENERGY PREDICTED BY IDOCK:   -7.18 KCAL/MOL
REMARK 923 INTER-LIGAND FREE ENERGY PREDICTED BY IDOCK:   -4.62 KCAL/MOL
REMARK 924 INTRA-LIGAND FREE ENERGY PREDICTED BY IDOCK:   -2.57 KCAL/MOL
REMARK 927      BINDING AFFINITY PREDICTED BY RF-SCORE:    0.00 PKD
ROOT
HETATM    1  C   UNL     1     -10.502   4.393  64.986  1.00  0.00    -0.157 C  
HETATM    2  C   UNL     1      -9.670   4.746  66.206  1.00  0.00    -0.196 C  
ENDROOT
BRANCH   2   3
HETATM    3  O   UNL     1      -8.832   3.622  66.497  1.00  0.00    -0.116 OA 
BRANCH   3   4
HETATM    4  C   UNL     1      -9.181   2.941  67.624  1.00  0.00    -0.201 C  
HETATM    5  O   UNL     1      -9.195   1.726  67.744  1.00  0.00    -0.145 OA 
BRANCH   4   6
HETATM    6  C   UNL     1      -9.443   3.932  68.725  1.00  0.00    -0.224 C  
BRANCH   6   7
HETATM    7  C   UNL     1      -9.449   3.228  70.085  1.00  0.00    -0.233 C  
BRANCH   7   8
HETATM    8  C   UNL     1      -8.054   3.130  70.682  1.00  0.00    -0.061 C  
BRANCH   8   9
HETATM    9  C   UNL     1      -7.823   4.153  71.767  1.00  0.00    -0.075 C  
HETATM   10  C   UNL     1      -8.416   4.156  72.972  1.00  0.00    -0.093 C  
BRANCH  10  11
HETATM   11  C   UNL     1      -9.519   3.229  73.365  1.00  0.00    -0.125 C  
BRANCH  11  12
HETATM   12  C   UNL     1     -10.701   3.884  74.012  1.00  0.00    -0.291 C  
HETATM   13  C   UNL     1     -11.285   4.999  73.537  1.00  0.00    -0.341 C  
BRANCH  13  14
HETATM   14  C   UNL     1     -10.920   5.798  72.306  1.00  0.00    -0.314 C  
BRANCH  14  15
HETATM   15  C   UNL     1     -10.168   7.078  72.568  1.00  0.00    -0.207 C  
HETATM   16  C   UNL     1     -10.515   8.301  72.138  1.00  0.00    -0.371 C  
BRANCH  16  17
HETATM   17  C   UNL     1     -11.617   8.581  71.170  1.00  0.00    -0.325 C  
BRANCH  17  18
HETATM   18  C   UNL     1     -11.195   9.700  70.256  1.00  0.00    -0.324 C  
HETATM   19  C   UNL     1     -10.733   9.529  69.009  1.00  0.00    -0.224 C  
BRANCH  19  20
HETATM   20  C   UNL     1     -10.543   8.203  68.352  1.00  0.00    -0.148 C  
BRANCH  20  21
HETATM   21  C   UNL     1      -9.220   8.098  67.655  1.00  0.00    -0.150 C  
HETATM   22  C   UNL     1      -8.127   7.533  68.192  1.00  0.00    -0.124 C  
BRANCH  22  23
HETATM   23  C   UNL     1      -8.029   6.957  69.571  1.00  0.00    -0.125 C  
HETATM   24  C   UNL     1      -7.131   7.792  70.465  1.00  0.00    -0.047 C  
ENDBRANCH  22  23
ENDBRANCH  20  21
ENDBRANCH  19  20
ENDBRANCH  17  18
ENDBRANCH  16  17
ENDBRANCH  14  15
ENDBRANCH  13  14
ENDBRANCH  11  12
ENDBRANCH  10  11
ENDBRANCH   8   9
ENDBRANCH   7   8
ENDBRANCH   6   7
ENDBRANCH   4   6
ENDBRANCH   3   4
ENDBRANCH   2   3
TORSDOF 15
ENDMDL
MODEL      457
REMARK 921   NORMALIZED FREE ENERGY PREDICTED BY IDOCK:   -2.45 KCAL/MOL
REMARK 922        TOTAL FREE ENERGY PREDICTED BY IDOCK:   -7.14 KCAL/MOL
REMARK 923 INTER-LIGAND FREE ENERGY PREDICTED BY IDOCK:   -6.62 KCAL/MOL
REMARK 924 INTRA-LIGAND FREE ENERGY PREDICTED BY IDOCK:   -0.52 KCAL/MOL
REMARK 927      BINDING AFFINITY PREDICTED BY RF-SCORE:    0.00 PKD
ROOT
HETATM    1  C   UNL     1     -12.219   6.435  70.248  1.00  0.00     0.218 C  
HETATM    2  C   UNL     1     -11.266   6.533  71.426  1.00  0.00    -0.283 C  
ENDROOT
BRANCH   2   3
HETATM    3  O   UNL     1     -11.723   7.600  72.264  1.00  0.00    -0.300 OA 
BRANCH   3   4
HETATM    4  C   UNL     1     -12.612   8.441  71.664  1.00  0.00    -0.332 C  
HETATM    5  O   UNL     1     -13.810   8.240  71.545  1.00  0.00    -0.358 OA 
BRANCH   4   6
HETATM    6  C   UNL     1     -11.892   9.701  71.269  1.00  0.00    -0.460 C  
BRANCH   6   7
HETATM    7  C   UNL     1     -10.412   9.408  71.006  1.00  0.00    -0.392 C  
BRANCH   7   8
HETATM    8  C   UNL     1      -9.973   9.881  69.629  1.00  0.00    -0.255 C  
BRANCH   8   9
HETATM    9  C   UNL     1     -11.132  10.006  68.670  1.00  0.00    -0.223 C  
HETATM   10  C   UNL     1     -11.060  10.500  67.424  1.00  0.00    -0.322 C  
BRANCH  10  11
HETATM   11  C   UNL     1      -9.844  11.152  66.850  1.00  0.00    -0.223 C  
BRANCH  11  12
HETATM   12  C   UNL     1     -10.111  12.333  65.968  1.00  0.00    -0.269 C  
HETATM   13  C   UNL     1     -10.369  13.567  66.437  1.00  0.00    -0.289 C  
BRANCH  13  14
HETATM   14  C   UNL     1     -10.434  14.030  67.875  1.00  0.00    -0.241 C  
BRANCH  14  15
HETATM   15  C   UNL     1      -9.105  14.140  68.577  1.00  0.00    -0.176 C  
HETATM   16  C   UNL     1      -8.413  15.270  68.789  1.00  0.00    -0.181 C  
BRANCH  16  17
HETATM   17  C   UNL     1      -8.760  16.601  68.207  1.00  0.00    -0.216 C  
BRANCH  17  18
HETATM   18  C   UNL     1     -10.000  17.123  68.880  1.00  0.00    -0.304 C  
HETATM   19  C   UNL     1     -10.736  18.149  68.427  1.00  0.00    -0.099 C  
BRANCH  19  20
HETATM   20  C   UNL     1     -10.419  18.940  67.202  1.00  0.00    -0.509 C  
BRANCH  20  21
HETATM   21  C   UNL     1      -9.876  20.299  67.528  1.00  0.00    -0.576 C  
HETATM   22  C   UNL     1      -8.570  20.610  67.534  1.00  0.00    -0.260 C  
BRANCH  22  23
HETATM   23  C   UNL     1      -7.446  19.659  67.260  1.00  0.00    -0.278 C  
HETATM   24  C   UNL     1      -6.442  19.634  68.399  1.00  0.00    -0.291 C  
ENDBRANCH  22  23
ENDBRANCH  20  21
ENDBRANCH  19  20
ENDBRANCH  17  18
ENDBRANCH  16  17
ENDBRANCH  14  15
ENDBRANCH  13  14
ENDBRANCH  11  12
ENDBRANCH  10  11
ENDBRANCH   8   9
ENDBRANCH   7   8
ENDBRANCH   6   7
ENDBRANCH   4   6
ENDBRANCH   3   4
ENDBRANCH   2   3
TORSDOF 15
ENDMDL
MODEL      458
REMARK 921   NORMALIZED FREE ENERGY PREDICTED BY IDOCK:   -2.44 KCAL/MOL
REMARK 922        TOTAL FREE ENERGY PREDICTED BY IDOCK:   -7.13 KCAL/MOL
REMARK 923 INTER-LIGAND FREE ENERGY PREDICTED BY IDOCK:   -5.99 KCAL/MOL
REMARK 924 INTRA-LIGAND FREE ENERGY PREDICTED BY IDOCK:   -1.14 KCAL/MOL
REMARK 927      BINDING AFFINITY PREDICTED BY RF-SCORE:    0.00 PKD
ROOT
HETATM    1  C   UNL     1     -10.482   8.222  67.011  1.00  0.00    -0.384 C  
HETATM    2  C   UNL     1      -9.733   8.185  68.331  1.00  0.00    -0.161 C  
ENDROOT
BRANCH   2   3
HETATM    3  O   UNL     1      -8.333   8.241  68.034  1.00  0.00    -0.126 OA 
BRANCH   3   4
HETATM    4  C   UNL     1      -7.540   8.481  69.116  1.00  0.00    -0.089 C  
HETATM    5  O   UNL     1      -7.525   7.824  70.144  1.00  0.00    -0.079 OA 
BRANCH   4   6
HETATM    6  C   UNL     1      -6.615   9.622  68.792  1.00  0.00    -0.047 C  
BRANCH   6   7
HETATM    7  C   UNL     1      -6.699   9.967  67.302  1.00  0.00    -0.074 C  
BRANCH   7   8
HETATM    8  C   UNL     1      -7.217  11.378  67.072  1.00  0.00    -0.141 C  
BRANCH   8   9
HETATM    9  C   UNL     1      -7.866  11.958  68.304  1.00  0.00    -0.141 C  
HETATM   10  C   UNL     1      -8.358  13.202  68.412  1.00  0.00    -0.122 C  
BRANCH  10  11
HETATM   11  C   UNL     1      -8.194  14.261  67.371  1.00  0.00    -0.217 C  
BRANCH  11  12
HETATM   12  C   UNL     1      -6.935  15.065  67.474  1.00  0.00    -0.214 C  
HETATM   13  C   UNL     1      -6.831  16.338  67.050  1.00  0.00    -0.235 C  
BRANCH  13  14
HETATM   14  C   UNL     1      -7.895  17.208  66.421  1.00  0.00    -0.352 C  
BRANCH  14  15
HETATM   15  C   UNL     1      -9.146  16.486  65.989  1.00  0.00    -0.290 C  
HETATM   16  C   UNL     1     -10.396  16.757  66.396  1.00  0.00    -0.309 C  
BRANCH  16  17
HETATM   17  C   UNL     1     -10.746  17.712  67.489  1.00  0.00    -0.294 C  
BRANCH  17  18
HETATM   18  C   UNL     1     -10.127  17.234  68.775  1.00  0.00    -0.337 C  
HETATM   19  C   UNL     1     -10.625  16.251  69.539  1.00  0.00    -0.314 C  
BRANCH  19  20
HETATM   20  C   UNL     1     -11.882  15.503  69.241  1.00  0.00    -0.372 C  
BRANCH  20  21
HETATM   21  C   UNL     1     -12.611  15.097  70.486  1.00  0.00    -0.429 C  
HETATM   22  C   UNL     1     -12.658  13.841  70.958  1.00  0.00    -0.446 C  
BRANCH  22  23
HETATM   23  C   UNL     1     -12.035  12.642  70.311  1.00  0.00    -0.363 C  
HETATM   24  C   UNL     1     -12.562  11.348  70.904  1.00  0.00    -0.453 C  
ENDBRANCH  22  23
ENDBRANCH  20  21
ENDBRANCH  19  20
ENDBRANCH  17  18
ENDBRANCH  16  17
ENDBRANCH  14  15
ENDBRANCH  13  14
ENDBRANCH  11  12
ENDBRANCH  10  11
ENDBRANCH   8   9
ENDBRANCH   7   8
ENDBRANCH   6   7
ENDBRANCH   4   6
ENDBRANCH   3   4
ENDBRANCH   2   3
TORSDOF 15
ENDMDL
MODEL      459
REMARK 921   NORMALIZED FREE ENERGY PREDICTED BY IDOCK:   -2.44 KCAL/MOL
REMARK 922        TOTAL FREE ENERGY PREDICTED BY IDOCK:   -7.13 KCAL/MOL
REMARK 923 INTER-LIGAND FREE ENERGY PREDICTED BY IDOCK:   -5.80 KCAL/MOL
REMARK 924 INTRA-LIGAND FREE ENERGY PREDICTED BY IDOCK:   -1.33 KCAL/MOL
REMARK 927      BINDING AFFINITY PREDICTED BY RF-SCORE:    0.00 PKD
ROOT
HETATM    1  C   UNL     1      -7.309  18.635  66.530  1.00  0.00    -0.263 C  
HETATM    2  C   UNL     1      -8.679  18.745  67.173  1.00  0.00    -0.277 C  
ENDROOT
BRANCH   2   3
HETATM    3  O   UNL     1      -9.563  17.873  66.458  1.00  0.00    -0.294 OA 
BRANCH   3   4
HETATM    4  C   UNL     1     -10.569  17.353  67.214  1.00  0.00    -0.284 C  
HETATM    5  O   UNL     1     -11.397  17.999  67.836  1.00  0.00     0.116 OA 
BRANCH   4   6
HETATM    6  C   UNL     1     -10.556  15.855  67.070  1.00  0.00    -0.306 C  
BRANCH   6   7
HETATM    7  C   UNL     1     -11.563  15.220  68.033  1.00  0.00    -0.325 C  
BRANCH   7   8
HETATM    8  C   UNL     1     -11.758  13.737  67.758  1.00  0.00    -0.393 C  
BRANCH   8   9
HETATM    9  C   UNL     1     -12.235  13.473  66.351  1.00  0.00    -0.454 C  
HETATM   10  C   UNL     1     -11.720  12.559  65.514  1.00  0.00    -0.457 C  
BRANCH  10  11
HETATM   11  C   UNL     1     -10.484  11.768  65.795  1.00  0.00    -0.302 C  
BRANCH  11  12
HETATM   12  C   UNL     1     -10.529  10.338  65.353  1.00  0.00    -0.125 C  
HETATM   13  C   UNL     1      -9.669   9.399  65.788  1.00  0.00    -0.354 C  
BRANCH  13  14
HETATM   14  C   UNL     1      -8.534   9.552  66.775  1.00  0.00    -0.129 C  
BRANCH  14  15
HETATM   15  C   UNL     1      -7.346   8.654  66.536  1.00  0.00    -0.081 C  
HETATM   16  C   UNL     1      -7.040   7.546  67.228  1.00  0.00    -0.085 C  
BRANCH  16  17
HETATM   17  C   UNL     1      -7.730   7.106  68.477  1.00  0.00    -0.120 C  
BRANCH  17  18
HETATM   18  C   UNL     1      -8.975   6.346  68.108  1.00  0.00    -0.116 C  
HETATM   19  C   UNL     1      -9.701   5.614  68.966  1.00  0.00    -0.187 C  
BRANCH  19  20
HETATM   20  C   UNL     1      -9.367   5.424  70.407  1.00  0.00    -0.203 C  
BRANCH  20  21
HETATM   21  C   UNL     1     -10.577   5.513  71.288  1.00  0.00    -0.304 C  
HETATM   22  C   UNL     1     -10.919   6.601  71.995  1.00  0.00    -0.274 C  
BRANCH  22  23
HETATM   23  C   UNL     1     -10.142   7.880  72.058  1.00  0.00    -0.260 C  
HETATM   24  C   UNL     1      -9.116   7.859  73.177  1.00  0.00    -0.322 C  
ENDBRANCH  22  23
ENDBRANCH  20  21
ENDBRANCH  19  20
ENDBRANCH  17  18
ENDBRANCH  16  17
ENDBRANCH  14  15
ENDBRANCH  13  14
ENDBRANCH  11  12
ENDBRANCH  10  11
ENDBRANCH   8   9
ENDBRANCH   7   8
ENDBRANCH   6   7
ENDBRANCH   4   6
ENDBRANCH   3   4
ENDBRANCH   2   3
TORSDOF 15
ENDMDL
MODEL      460
REMARK 921   NORMALIZED FREE ENERGY PREDICTED BY IDOCK:   -2.40 KCAL/MOL
REMARK 922        TOTAL FREE ENERGY PREDICTED BY IDOCK:   -7.06 KCAL/MOL
REMARK 923 INTER-LIGAND FREE ENERGY PREDICTED BY IDOCK:   -5.51 KCAL/MOL
REMARK 924 INTRA-LIGAND FREE ENERGY PREDICTED BY IDOCK:   -1.55 KCAL/MOL
REMARK 927      BINDING AFFINITY PREDICTED BY RF-SCORE:    0.00 PKD
ROOT
HETATM    1  C   UNL     1     -14.411   8.694  71.545  1.00  0.00    -0.402 C  
HETATM    2  C   UNL     1     -13.313   8.940  72.564  1.00  0.00    -0.399 C  
ENDROOT
BRANCH   2   3
HETATM    3  O   UNL     1     -12.170   9.436  71.856  1.00  0.00    -0.365 OA 
BRANCH   3   4
HETATM    4  C   UNL     1     -11.216   8.496  71.605  1.00  0.00    -0.292 C  
HETATM    5  O   UNL     1     -10.223   8.660  70.915  1.00  0.00    -0.191 OA 
BRANCH   4   6
HETATM    6  C   UNL     1     -11.536   7.261  72.402  1.00  0.00    -0.327 C  
BRANCH   6   7
HETATM    7  C   UNL     1     -10.429   6.987  73.425  1.00  0.00    -0.383 C  
BRANCH   7   8
HETATM    8  C   UNL     1      -9.907   5.562  73.334  1.00  0.00    -0.172 C  
BRANCH   8   9
HETATM    9  C   UNL     1     -10.085   4.975  71.955  1.00  0.00    -0.255 C  
HETATM   10  C   UNL     1      -9.090   4.675  71.104  1.00  0.00    -0.180 C  
BRANCH  10  11
HETATM   11  C   UNL     1      -7.657   5.028  71.334  1.00  0.00    -0.088 C  
BRANCH  11  12
HETATM   12  C   UNL     1      -7.361   6.496  71.379  1.00  0.00    -0.084 C  
HETATM   13  C   UNL     1      -7.211   7.257  70.280  1.00  0.00    -0.067 C  
BRANCH  13  14
HETATM   14  C   UNL     1      -7.310   6.841  68.829  1.00  0.00    -0.094 C  
BRANCH  14  15
HETATM   15  C   UNL     1      -8.564   7.282  68.117  1.00  0.00    -0.122 C  
HETATM   16  C   UNL     1      -8.813   8.513  67.644  1.00  0.00    -0.138 C  
BRANCH  16  17
HETATM   17  C   UNL     1      -7.958   9.711  67.898  1.00  0.00    -0.098 C  
BRANCH  17  18
HETATM   18  C   UNL     1      -8.074  10.653  66.730  1.00  0.00    -0.131 C  
HETATM   19  C   UNL     1      -8.753  11.809  66.751  1.00  0.00    -0.192 C  
BRANCH  19  20
HETATM   20  C   UNL     1      -9.517  12.319  67.926  1.00  0.00    -0.200 C  
BRANCH  20  21
HETATM   21  C   UNL     1     -10.928  12.683  67.573  1.00  0.00    -0.280 C  
HETATM   22  C   UNL     1     -11.668  13.579  68.245  1.00  0.00    -0.394 C  
BRANCH  22  23
HETATM   23  C   UNL     1     -11.234  14.327  69.468  1.00  0.00    -0.286 C  
HETATM   24  C   UNL     1     -12.106  15.544  69.720  1.00  0.00    -0.372 C  
ENDBRANCH  22  23
ENDBRANCH  20  21
ENDBRANCH  19  20
ENDBRANCH  17  18
ENDBRANCH  16  17
ENDBRANCH  14  15
ENDBRANCH  13  14
ENDBRANCH  11  12
ENDBRANCH  10  11
ENDBRANCH   8   9
ENDBRANCH   7   8
ENDBRANCH   6   7
ENDBRANCH   4   6
ENDBRANCH   3   4
ENDBRANCH   2   3
TORSDOF 15
ENDMDL
MODEL      461
REMARK 921   NORMALIZED FREE ENERGY PREDICTED BY IDOCK:   -2.36 KCAL/MOL
REMARK 922        TOTAL FREE ENERGY PREDICTED BY IDOCK:   -6.99 KCAL/MOL
REMARK 923 INTER-LIGAND FREE ENERGY PREDICTED BY IDOCK:   -6.29 KCAL/MOL
REMARK 924 INTRA-LIGAND FREE ENERGY PREDICTED BY IDOCK:   -0.70 KCAL/MOL
REMARK 927      BINDING AFFINITY PREDICTED BY RF-SCORE:    0.00 PKD
ROOT
HETATM    1  C   UNL     1      -7.663  20.762  67.084  1.00  0.00    -0.316 C  
HETATM    2  C   UNL     1      -8.603  19.829  66.342  1.00  0.00    -0.360 C  
ENDROOT
BRANCH   2   3
HETATM    3  O   UNL     1      -8.942  18.760  67.234  1.00  0.00    -0.270 OA 
BRANCH   3   4
HETATM    4  C   UNL     1      -8.067  17.716  67.214  1.00  0.00    -0.209 C  
HETATM    5  O   UNL     1      -7.046  17.633  67.879  1.00  0.00    -0.181 OA 
BRANCH   4   6
HETATM    6  C   UNL     1      -8.619  16.640  66.320  1.00  0.00    -0.359 C  
BRANCH   6   7
HETATM    7  C   UNL     1     -10.105  16.414  66.616  1.00  0.00    -0.290 C  
BRANCH   7   8
HETATM    8  C   UNL     1     -10.315  15.440  67.765  1.00  0.00    -0.253 C  
BRANCH   8   9
HETATM    9  C   UNL     1      -9.409  14.238  67.670  1.00  0.00    -0.201 C  
HETATM   10  C   UNL     1      -9.815  12.970  67.497  1.00  0.00    -0.209 C  
BRANCH  10  11
HETATM   11  C   UNL     1     -11.244  12.536  67.530  1.00  0.00    -0.342 C  
BRANCH  11  12
HETATM   12  C   UNL     1     -12.074  13.162  68.608  1.00  0.00    -0.222 C  
HETATM   13  C   UNL     1     -12.277  12.596  69.812  1.00  0.00    -0.209 C  
BRANCH  13  14
HETATM   14  C   UNL     1     -11.737  11.284  70.335  1.00  0.00    -0.398 C  
BRANCH  14  15
HETATM   15  C   UNL     1     -12.744  10.404  71.030  1.00  0.00    -0.490 C  
HETATM   16  C   UNL     1     -12.474   9.287  71.723  1.00  0.00    -0.458 C  
BRANCH  16  17
HETATM   17  C   UNL     1     -11.138   8.622  71.777  1.00  0.00    -0.396 C  
BRANCH  17  18
HETATM   18  C   UNL     1     -10.945   8.016  73.141  1.00  0.00    -0.180 C  
HETATM   19  C   UNL     1     -10.074   7.036  73.421  1.00  0.00    -0.320 C  
BRANCH  19  20
HETATM   20  C   UNL     1      -9.186   6.382  72.415  1.00  0.00    -0.137 C  
BRANCH  20  21
HETATM   21  C   UNL     1      -9.662   5.010  72.043  1.00  0.00    -0.214 C  
HETATM   22  C   UNL     1      -9.040   4.207  71.165  1.00  0.00    -0.183 C  
BRANCH  22  23
HETATM   23  C   UNL     1      -7.807   4.553  70.387  1.00  0.00    -0.053 C  
HETATM   24  C   UNL     1      -6.938   3.333  70.142  1.00  0.00    -0.034 C  
ENDBRANCH  22  23
ENDBRANCH  20  21
ENDBRANCH  19  20
ENDBRANCH  17  18
ENDBRANCH  16  17
ENDBRANCH  14  15
ENDBRANCH  13  14
ENDBRANCH  11  12
ENDBRANCH  10  11
ENDBRANCH   8   9
ENDBRANCH   7   8
ENDBRANCH   6   7
ENDBRANCH   4   6
ENDBRANCH   3   4
ENDBRANCH   2   3
TORSDOF 15
ENDMDL
MODEL      462
REMARK 921   NORMALIZED FREE ENERGY PREDICTED BY IDOCK:   -2.35 KCAL/MOL
REMARK 922        TOTAL FREE ENERGY PREDICTED BY IDOCK:   -6.96 KCAL/MOL
REMARK 923 INTER-LIGAND FREE ENERGY PREDICTED BY IDOCK:   -4.98 KCAL/MOL
REMARK 924 INTRA-LIGAND FREE ENERGY PREDICTED BY IDOCK:   -1.98 KCAL/MOL
REMARK 927      BINDING AFFINITY PREDICTED BY RF-SCORE:    0.00 PKD
ROOT
HETATM    1  C   UNL     1      -8.310  16.410  68.229  1.00  0.00    -0.189 C  
HETATM    2  C   UNL     1      -8.814  15.550  69.374  1.00  0.00    -0.257 C  
ENDROOT
BRANCH   2   3
HETATM    3  O   UNL     1     -10.130  15.101  69.029  1.00  0.00    -0.225 OA 
BRANCH   3   4
HETATM    4  C   UNL     1     -11.123  15.636  69.793  1.00  0.00    -0.313 C  
HETATM    5  O   UNL     1     -11.152  16.779  70.219  1.00  0.00    -0.211 OA 
BRANCH   4   6
HETATM    6  C   UNL     1     -12.223  14.620  69.934  1.00  0.00    -0.365 C  
BRANCH   6   7
HETATM    7  C   UNL     1     -11.697  13.218  69.611  1.00  0.00    -0.369 C  
BRANCH   7   8
HETATM    8  C   UNL     1     -11.910  12.250  70.765  1.00  0.00     0.109 C  
BRANCH   8   9
HETATM    9  C   UNL     1     -12.523  10.947  70.313  1.00  0.00    -0.383 C  
HETATM   10  C   UNL     1     -12.309   9.749  70.880  1.00  0.00    -0.379 C  
BRANCH  10  11
HETATM   11  C   UNL     1     -11.301   9.500  71.955  1.00  0.00    -0.156 C  
BRANCH  11  12
HETATM   12  C   UNL     1     -11.423   8.177  72.647  1.00  0.00    -0.454 C  
HETATM   13  C   UNL     1     -10.386   7.344  72.844  1.00  0.00    -0.328 C  
BRANCH  13  14
HETATM   14  C   UNL     1      -8.939   7.537  72.450  1.00  0.00    -0.172 C  
BRANCH  14  15
HETATM   15  C   UNL     1      -7.987   6.482  72.954  1.00  0.00    -0.105 C  
HETATM   16  C   UNL     1      -7.204   5.697  72.198  1.00  0.00    -0.089 C  
BRANCH  16  17
HETATM   17  C   UNL     1      -7.272   5.610  70.709  1.00  0.00    -0.079 C  
BRANCH  17  18
HETATM   18  C   UNL     1      -8.072   4.394  70.324  1.00  0.00    -0.062 C  
HETATM   19  C   UNL     1      -9.252   4.431  69.688  1.00  0.00    -0.200 C  
BRANCH  19  20
HETATM   20  C   UNL     1      -9.959   5.684  69.292  1.00  0.00    -0.251 C  
BRANCH  20  21
HETATM   21  C   UNL     1      -9.813   5.981  67.830  1.00  0.00    -0.129 C  
HETATM   22  C   UNL     1      -8.935   6.859  67.322  1.00  0.00    -0.118 C  
BRANCH  22  23
HETATM   23  C   UNL     1      -7.993   7.711  68.117  1.00  0.00    -0.123 C  
HETATM   24  C   UNL     1      -8.736   8.689  69.008  1.00  0.00    -0.134 C  
ENDBRANCH  22  23
ENDBRANCH  20  21
ENDBRANCH  19  20
ENDBRANCH  17  18
ENDBRANCH  16  17
ENDBRANCH  14  15
ENDBRANCH  13  14
ENDBRANCH  11  12
ENDBRANCH  10  11
ENDBRANCH   8   9
ENDBRANCH   7   8
ENDBRANCH   6   7
ENDBRANCH   4   6
ENDBRANCH   3   4
ENDBRANCH   2   3
TORSDOF 15
ENDMDL
MODEL      463
REMARK 921   NORMALIZED FREE ENERGY PREDICTED BY IDOCK:   -2.34 KCAL/MOL
REMARK 922        TOTAL FREE ENERGY PREDICTED BY IDOCK:   -6.94 KCAL/MOL
REMARK 923 INTER-LIGAND FREE ENERGY PREDICTED BY IDOCK:   -6.50 KCAL/MOL
REMARK 924 INTRA-LIGAND FREE ENERGY PREDICTED BY IDOCK:   -0.45 KCAL/MOL
REMARK 927      BINDING AFFINITY PREDICTED BY RF-SCORE:    0.00 PKD
ROOT
HETATM    1  C   UNL     1     -11.092   3.324  73.517  1.00  0.00    -0.314 C  
HETATM    2  C   UNL     1     -10.481   4.709  73.623  1.00  0.00    -0.224 C  
ENDROOT
BRANCH   2   3
HETATM    3  O   UNL     1      -9.371   4.762  72.719  1.00  0.00    -0.128 OA 
BRANCH   3   4
HETATM    4  C   UNL     1      -9.583   5.537  71.618  1.00  0.00    -0.152 C  
HETATM    5  O   UNL     1      -8.996   5.432  70.553  1.00  0.00    -0.130 OA 
BRANCH   4   6
HETATM    6  C   UNL     1     -10.728   6.470  71.899  1.00  0.00    -0.251 C  
BRANCH   6   7
HETATM    7  C   UNL     1     -10.223   7.910  72.023  1.00  0.00    -0.270 C  
BRANCH   7   8
HETATM    8  C   UNL     1     -10.712   8.788  70.882  1.00  0.00    -0.282 C  
BRANCH   8   9
HETATM    9  C   UNL     1     -10.692   8.066  69.557  1.00  0.00    -0.185 C  
HETATM   10  C   UNL     1     -10.658   8.656  68.351  1.00  0.00    -0.169 C  
BRANCH  10  11
HETATM   11  C   UNL     1     -10.796  10.127  68.134  1.00  0.00    -0.310 C  
BRANCH  11  12
HETATM   12  C   UNL     1      -9.514  10.853  67.861  1.00  0.00    -0.166 C  
HETATM   13  C   UNL     1      -9.279  11.543  66.730  1.00  0.00    -0.187 C  
BRANCH  13  14
HETATM   14  C   UNL     1     -10.198  11.749  65.547  1.00  0.00    -0.291 C  
BRANCH  14  15
HETATM   15  C   UNL     1     -11.537  12.360  65.870  1.00  0.00    -0.449 C  
HETATM   16  C   UNL     1     -11.801  13.671  65.983  1.00  0.00    -0.415 C  
BRANCH  16  17
HETATM   17  C   UNL     1     -10.768  14.750  65.983  1.00  0.00    -0.314 C  
BRANCH  17  18
HETATM   18  C   UNL     1      -9.774  14.477  67.079  1.00  0.00    -0.247 C  
HETATM   19  C   UNL     1      -9.809  15.042  68.294  1.00  0.00    -0.219 C  
BRANCH  19  20
HETATM   20  C   UNL     1     -10.824  16.045  68.731  1.00  0.00    -0.302 C  
BRANCH  20  21
HETATM   21  C   UNL     1     -10.920  16.144  70.223  1.00  0.00    -0.345 C  
HETATM   22  C   UNL     1     -11.460  15.200  71.010  1.00  0.00    -0.372 C  
BRANCH  22  23
HETATM   23  C   UNL     1     -12.087  13.924  70.538  1.00  0.00    -0.426 C  
HETATM   24  C   UNL     1     -13.283  13.538  71.389  1.00  0.00    -0.348 C  
ENDBRANCH  22  23
ENDBRANCH  20  21
ENDBRANCH  19  20
ENDBRANCH  17  18
ENDBRANCH  16  17
ENDBRANCH  14  15
ENDBRANCH  13  14
ENDBRANCH  11  12
ENDBRANCH  10  11
ENDBRANCH   8   9
ENDBRANCH   7   8
ENDBRANCH   6   7
ENDBRANCH   4   6
ENDBRANCH   3   4
ENDBRANCH   2   3
TORSDOF 15
ENDMDL
MODEL      464
REMARK 921   NORMALIZED FREE ENERGY PREDICTED BY IDOCK:   -2.31 KCAL/MOL
REMARK 922        TOTAL FREE ENERGY PREDICTED BY IDOCK:   -6.89 KCAL/MOL
REMARK 923 INTER-LIGAND FREE ENERGY PREDICTED BY IDOCK:   -5.96 KCAL/MOL
REMARK 924 INTRA-LIGAND FREE ENERGY PREDICTED BY IDOCK:   -0.94 KCAL/MOL
REMARK 927      BINDING AFFINITY PREDICTED BY RF-SCORE:    0.00 PKD
ROOT
HETATM    1  C   UNL     1     -10.871  19.542  66.920  1.00  0.00    -0.523 C  
HETATM    2  C   UNL     1      -9.983  18.661  67.779  1.00  0.00    -0.346 C  
ENDROOT
BRANCH   2   3
HETATM    3  O   UNL     1     -10.385  17.303  67.563  1.00  0.00    -0.323 OA 
BRANCH   3   4
HETATM    4  C   UNL     1     -10.302  16.512  68.669  1.00  0.00    -0.287 C  
HETATM    5  O   UNL     1      -9.345  16.446  69.424  1.00  0.00    -0.210 OA 
BRANCH   4   6
HETATM    6  C   UNL     1     -11.620  15.816  68.864  1.00  0.00    -0.400 C  
BRANCH   6   7
HETATM    7  C   UNL     1     -11.450  14.602  69.784  1.00  0.00    -0.325 C  
BRANCH   7   8
HETATM    8  C   UNL     1     -10.555  13.540  69.166  1.00  0.00    -0.055 C  
BRANCH   8   9
HETATM    9  C   UNL     1     -11.345  12.389  68.591  1.00  0.00    -0.332 C  
HETATM   10  C   UNL     1     -11.596  12.194  67.287  1.00  0.00    -0.404 C  
BRANCH  10  11
HETATM   11  C   UNL     1     -11.262  13.177  66.213  1.00  0.00    -0.328 C  
BRANCH  11  12
HETATM   12  C   UNL     1     -11.542  12.715  64.816  1.00  0.00    -0.377 C  
HETATM   13  C   UNL     1     -11.047  11.576  64.298  1.00  0.00    -0.385 C  
BRANCH  13  14
HETATM   14  C   UNL     1     -10.158  10.550  64.965  1.00  0.00    -0.390 C  
BRANCH  14  15
HETATM   15  C   UNL     1      -8.727  10.974  65.171  1.00  0.00    -0.068 C  
HETATM   16  C   UNL     1      -7.995  10.774  66.278  1.00  0.00    -0.160 C  
BRANCH  16  17
HETATM   17  C   UNL     1      -8.531  10.249  67.569  1.00  0.00    -0.118 C  
BRANCH  17  18
HETATM   18  C   UNL     1      -8.426   8.748  67.570  1.00  0.00    -0.120 C  
HETATM   19  C   UNL     1      -8.432   7.986  68.673  1.00  0.00    -0.128 C  
BRANCH  19  20
HETATM   20  C   UNL     1      -8.517   8.516  70.065  1.00  0.00    -0.125 C  
BRANCH  20  21
HETATM   21  C   UNL     1      -8.594   7.422  71.087  1.00  0.00    -0.122 C  
HETATM   22  C   UNL     1      -9.658   7.196  71.874  1.00  0.00    -0.161 C  
BRANCH  22  23
HETATM   23  C   UNL     1     -10.916   8.010  71.895  1.00  0.00    -0.321 C  
HETATM   24  C   UNL     1     -10.628   9.492  71.737  1.00  0.00     0.051 C  
ENDBRANCH  22  23
ENDBRANCH  20  21
ENDBRANCH  19  20
ENDBRANCH  17  18
ENDBRANCH  16  17
ENDBRANCH  14  15
ENDBRANCH  13  14
ENDBRANCH  11  12
ENDBRANCH  10  11
ENDBRANCH   8   9
ENDBRANCH   7   8
ENDBRANCH   6   7
ENDBRANCH   4   6
ENDBRANCH   3   4
ENDBRANCH   2   3
TORSDOF 15
ENDMDL
MODEL      465
REMARK 921   NORMALIZED FREE ENERGY PREDICTED BY IDOCK:   -2.31 KCAL/MOL
REMARK 922        TOTAL FREE ENERGY PREDICTED BY IDOCK:   -6.89 KCAL/MOL
REMARK 923 INTER-LIGAND FREE ENERGY PREDICTED BY IDOCK:   -5.64 KCAL/MOL
REMARK 924 INTRA-LIGAND FREE ENERGY PREDICTED BY IDOCK:   -1.25 KCAL/MOL
REMARK 927      BINDING AFFINITY PREDICTED BY RF-SCORE:    0.00 PKD
ROOT
HETATM    1  C   UNL     1     -12.390  11.989  63.483  1.00  0.00    -0.661 C  
HETATM    2  C   UNL     1     -12.276  13.474  63.773  1.00  0.00    -0.388 C  
ENDROOT
BRANCH   2   3
HETATM    3  O   UNL     1     -12.486  13.657  65.178  1.00  0.00    -0.424 OA 
BRANCH   3   4
HETATM    4  C   UNL     1     -11.390  14.103  65.854  1.00  0.00    -0.323 C  
HETATM    5  O   UNL     1     -10.267  14.215  65.389  1.00  0.00    -0.329 OA 
BRANCH   4   6
HETATM    6  C   UNL     1     -11.815  14.533  67.231  1.00  0.00    -0.419 C  
BRANCH   6   7
HETATM    7  C   UNL     1     -12.069  13.309  68.115  1.00  0.00    -0.248 C  
BRANCH   7   8
HETATM    8  C   UNL     1     -10.791  12.537  68.401  1.00  0.00    -0.266 C  
BRANCH   8   9
HETATM    9  C   UNL     1     -11.000  11.440  69.417  1.00  0.00    -0.260 C  
HETATM   10  C   UNL     1     -10.625  10.159  69.265  1.00  0.00    -0.254 C  
BRANCH  10  11
HETATM   11  C   UNL     1     -10.083   9.589  67.995  1.00  0.00    -0.226 C  
BRANCH  11  12
HETATM   12  C   UNL     1     -10.904   8.494  67.388  1.00  0.00    -0.082 C  
HETATM   13  C   UNL     1     -10.374   7.453  66.720  1.00  0.00    -0.321 C  
BRANCH  13  14
HETATM   14  C   UNL     1      -8.916   7.153  66.453  1.00  0.00    -0.178 C  
BRANCH  14  15
HETATM   15  C   UNL     1      -8.590   5.701  66.214  1.00  0.00    -0.127 C  
HETATM   16  C   UNL     1      -7.720   4.960  66.917  1.00  0.00    -0.092 C  
BRANCH  16  17
HETATM   17  C   UNL     1      -6.787   5.498  67.952  1.00  0.00    -0.064 C  
BRANCH  17  18
HETATM   18  C   UNL     1      -6.366   4.376  68.864  1.00  0.00    -0.032 C  
HETATM   19  C   UNL     1      -6.509   4.386  70.197  1.00  0.00    -0.031 C  
BRANCH  19  20
HETATM   20  C   UNL     1      -7.081   5.522  70.977  1.00  0.00    -0.069 C  
BRANCH  20  21
HETATM   21  C   UNL     1      -8.414   5.960  70.448  1.00  0.00    -0.131 C  
HETATM   22  C   UNL     1      -9.573   5.335  70.710  1.00  0.00    -0.234 C  
BRANCH  22  23
HETATM   23  C   UNL     1      -9.727   4.089  71.527  1.00  0.00    -0.246 C  
HETATM   24  C   UNL     1     -10.211   4.396  72.932  1.00  0.00    -0.229 C  
ENDBRANCH  22  23
ENDBRANCH  20  21
ENDBRANCH  19  20
ENDBRANCH  17  18
ENDBRANCH  16  17
ENDBRANCH  14  15
ENDBRANCH  13  14
ENDBRANCH  11  12
ENDBRANCH  10  11
ENDBRANCH   8   9
ENDBRANCH   7   8
ENDBRANCH   6   7
ENDBRANCH   4   6
ENDBRANCH   3   4
ENDBRANCH   2   3
TORSDOF 15
ENDMDL
MODEL      466
REMARK 921   NORMALIZED FREE ENERGY PREDICTED BY IDOCK:   -2.30 KCAL/MOL
REMARK 922        TOTAL FREE ENERGY PREDICTED BY IDOCK:   -6.87 KCAL/MOL
REMARK 923 INTER-LIGAND FREE ENERGY PREDICTED BY IDOCK:   -4.14 KCAL/MOL
REMARK 924 INTRA-LIGAND FREE ENERGY PREDICTED BY IDOCK:   -2.73 KCAL/MOL
REMARK 927      BINDING AFFINITY PREDICTED BY RF-SCORE:    0.00 PKD
ROOT
HETATM    1  C   UNL     1      -9.521   4.269  64.584  1.00  0.00    -0.163 C  
HETATM    2  C   UNL     1      -8.261   5.009  64.173  1.00  0.00    -0.129 C  
ENDROOT
BRANCH   2   3
HETATM    3  O   UNL     1      -8.230   6.243  64.899  1.00  0.00    -0.140 OA 
BRANCH   3   4
HETATM    4  C   UNL     1      -7.278   7.120  64.472  1.00  0.00    -0.074 C  
HETATM    5  O   UNL     1      -6.227   6.818  63.929  1.00  0.00    -0.034 OA 
BRANCH   4   6
HETATM    6  C   UNL     1      -7.783   8.521  64.683  1.00  0.00    -0.116 C  
BRANCH   6   7
HETATM    7  C   UNL     1      -7.058   9.175  65.863  1.00  0.00    -0.089 C  
BRANCH   7   8
HETATM    8  C   UNL     1      -7.713   8.839  67.193  1.00  0.00    -0.096 C  
BRANCH   8   9
HETATM    9  C   UNL     1      -6.709   8.399  68.231  1.00  0.00    -0.065 C  
HETATM   10  C   UNL     1      -6.405   9.072  69.352  1.00  0.00    -0.044 C  
BRANCH  10  11
HETATM   11  C   UNL     1      -6.903  10.445  69.667  1.00  0.00    -0.108 C  
BRANCH  11  12
HETATM   12  C   UNL     1      -5.937  11.553  69.381  1.00  0.00    -0.076 C  
HETATM   13  C   UNL     1      -6.096  12.437  68.379  1.00  0.00    -0.056 C  
BRANCH  13  14
HETATM   14  C   UNL     1      -7.223  12.523  67.374  1.00  0.00    -0.146 C  
BRANCH  14  15
HETATM   15  C   UNL     1      -8.337  13.472  67.735  1.00  0.00    -0.181 C  
HETATM   16  C   UNL     1      -9.493  13.143  68.332  1.00  0.00    -0.166 C  
BRANCH  16  17
HETATM   17  C   UNL     1      -9.953  11.744  68.582  1.00  0.00    -0.181 C  
BRANCH  17  18
HETATM   18  C   UNL     1     -11.433  11.659  68.321  1.00  0.00    -0.369 C  
HETATM   19  C   UNL     1     -12.354  11.378  69.254  1.00  0.00    -0.148 C  
BRANCH  19  20
HETATM   20  C   UNL     1     -12.046  11.082  70.684  1.00  0.00    -0.471 C  
BRANCH  20  21
HETATM   21  C   UNL     1     -12.430   9.686  71.071  1.00  0.00    -0.382 C  
HETATM   22  C   UNL     1     -11.552   8.718  71.380  1.00  0.00    -0.366 C  
BRANCH  22  23
HETATM   23  C   UNL     1     -10.060   8.853  71.353  1.00  0.00    -0.379 C  
HETATM   24  C   UNL     1      -9.410   7.723  70.574  1.00  0.00    -0.163 C  
ENDBRANCH  22  23
ENDBRANCH  20  21
ENDBRANCH  19  20
ENDBRANCH  17  18
ENDBRANCH  16  17
ENDBRANCH  14  15
ENDBRANCH  13  14
ENDBRANCH  11  12
ENDBRANCH  10  11
ENDBRANCH   8   9
ENDBRANCH   7   8
ENDBRANCH   6   7
ENDBRANCH   4   6
ENDBRANCH   3   4
ENDBRANCH   2   3
TORSDOF 15
ENDMDL
MODEL      467
REMARK 921   NORMALIZED FREE ENERGY PREDICTED BY IDOCK:   -2.27 KCAL/MOL
REMARK 922        TOTAL FREE ENERGY PREDICTED BY IDOCK:   -6.81 KCAL/MOL
REMARK 923 INTER-LIGAND FREE ENERGY PREDICTED BY IDOCK:   -4.10 KCAL/MOL
REMARK 924 INTRA-LIGAND FREE ENERGY PREDICTED BY IDOCK:   -2.71 KCAL/MOL
REMARK 927      BINDING AFFINITY PREDICTED BY RF-SCORE:    0.00 PKD
ROOT
HETATM    1  C   UNL     1      -9.789  10.344  64.503  1.00  0.00    -0.405 C  
HETATM    2  C   UNL     1     -10.622  10.910  65.639  1.00  0.00    -0.164 C  
ENDROOT
BRANCH   2   3
HETATM    3  O   UNL     1     -10.190  12.258  65.861  1.00  0.00    -0.238 OA 
BRANCH   3   4
HETATM    4  C   UNL     1      -9.921  12.552  67.164  1.00  0.00    -0.216 C  
HETATM    5  O   UNL     1     -10.743  12.597  68.065  1.00  0.00    -0.213 OA 
BRANCH   4   6
HETATM    6  C   UNL     1      -8.434  12.710  67.325  1.00  0.00    -0.193 C  
BRANCH   6   7
HETATM    7  C   UNL     1      -8.071  12.836  68.808  1.00  0.00     0.090 C  
BRANCH   7   8
HETATM    8  C   UNL     1      -7.298  11.626  69.311  1.00  0.00     0.025 C  
BRANCH   8   9
HETATM    9  C   UNL     1      -5.991  11.438  68.580  1.00  0.00    -0.045 C  
HETATM   10  C   UNL     1      -5.475  10.257  68.204  1.00  0.00    -0.034 C  
BRANCH  10  11
HETATM   11  C   UNL     1      -6.042   8.931  68.595  1.00  0.00    -0.045 C  
BRANCH  11  12
HETATM   12  C   UNL     1      -6.267   7.976  67.464  1.00  0.00    -0.052 C  
HETATM   13  C   UNL     1      -7.487   7.639  67.008  1.00  0.00    -0.095 C  
BRANCH  13  14
HETATM   14  C   UNL     1      -8.836   8.125  67.489  1.00  0.00    -0.137 C  
BRANCH  14  15
HETATM   15  C   UNL     1     -10.019   7.331  66.998  1.00  0.00    -0.293 C  
HETATM   16  C   UNL     1     -10.919   6.697  67.766  1.00  0.00    -0.367 C  
BRANCH  16  17
HETATM   17  C   UNL     1     -10.801   6.521  69.245  1.00  0.00    -0.361 C  
BRANCH  17  18
HETATM   18  C   UNL     1     -10.397   5.101  69.539  1.00  0.00    -0.292 C  
HETATM   19  C   UNL     1     -10.099   4.634  70.760  1.00  0.00    -0.264 C  
BRANCH  19  20
HETATM   20  C   UNL     1     -10.099   5.458  72.004  1.00  0.00    -0.240 C  
BRANCH  20  21
HETATM   21  C   UNL     1      -8.739   5.544  72.629  1.00  0.00    -0.123 C  
HETATM   22  C   UNL     1      -7.773   6.384  72.223  1.00  0.00    -0.098 C  
BRANCH  22  23
HETATM   23  C   UNL     1      -7.870   7.335  71.070  1.00  0.00    -0.097 C  
HETATM   24  C   UNL     1      -8.516   8.646  71.477  1.00  0.00    -0.238 C  
ENDBRANCH  22  23
ENDBRANCH  20  21
ENDBRANCH  19  20
ENDBRANCH  17  18
ENDBRANCH  16  17
ENDBRANCH  14  15
ENDBRANCH  13  14
ENDBRANCH  11  12
ENDBRANCH  10  11
ENDBRANCH   8   9
ENDBRANCH   7   8
ENDBRANCH   6   7
ENDBRANCH   4   6
ENDBRANCH   3   4
ENDBRANCH   2   3
TORSDOF 15
ENDMDL
MODEL      468
REMARK 921   NORMALIZED FREE ENERGY PREDICTED BY IDOCK:   -2.26 KCAL/MOL
REMARK 922        TOTAL FREE ENERGY PREDICTED BY IDOCK:   -6.79 KCAL/MOL
REMARK 923 INTER-LIGAND FREE ENERGY PREDICTED BY IDOCK:   -6.16 KCAL/MOL
REMARK 924 INTRA-LIGAND FREE ENERGY PREDICTED BY IDOCK:   -0.62 KCAL/MOL
REMARK 927      BINDING AFFINITY PREDICTED BY RF-SCORE:    0.00 PKD
ROOT
HETATM    1  C   UNL     1     -10.518   7.814  71.080  1.00  0.00    -0.227 C  
HETATM    2  C   UNL     1     -11.366   7.071  70.064  1.00  0.00    -0.249 C  
ENDROOT
BRANCH   2   3
HETATM    3  O   UNL     1     -10.486   6.578  69.046  1.00  0.00    -0.182 OA 
BRANCH   3   4
HETATM    4  C   UNL     1     -10.167   7.495  68.090  1.00  0.00    -0.189 C  
HETATM    5  O   UNL     1     -10.966   8.142  67.432  1.00  0.00    -0.138 OA 
BRANCH   4   6
HETATM    6  C   UNL     1      -8.672   7.653  68.055  1.00  0.00    -0.125 C  
BRANCH   6   7
HETATM    7  C   UNL     1      -8.032   6.490  67.292  1.00  0.00    -0.113 C  
BRANCH   7   8
HETATM    8  C   UNL     1      -8.861   6.073  66.087  1.00  0.00    -0.152 C  
BRANCH   8   9
HETATM    9  C   UNL     1      -8.031   5.962  64.831  1.00  0.00    -0.125 C  
HETATM   10  C   UNL     1      -7.662   6.990  64.051  1.00  0.00    -0.116 C  
BRANCH  10  11
HETATM   11  C   UNL     1      -8.154   8.390  64.222  1.00  0.00    -0.151 C  
BRANCH  11  12
HETATM   12  C   UNL     1      -8.405   9.137  62.948  1.00  0.00    -0.199 C  
HETATM   13  C   UNL     1      -9.283  10.151  62.843  1.00  0.00    -0.316 C  
BRANCH  13  14
HETATM   14  C   UNL     1     -10.160  10.750  63.920  1.00  0.00    -0.397 C  
BRANCH  14  15
HETATM   15  C   UNL     1     -11.260  11.654  63.428  1.00  0.00    -0.401 C  
HETATM   16  C   UNL     1     -11.432  12.943  63.760  1.00  0.00    -0.519 C  
BRANCH  16  17
HETATM   17  C   UNL     1     -10.661  13.658  64.820  1.00  0.00    -0.420 C  
BRANCH  17  18
HETATM   18  C   UNL     1     -11.624  14.371  65.732  1.00  0.00    -0.353 C  
HETATM   19  C   UNL     1     -11.599  14.298  67.070  1.00  0.00    -0.406 C  
BRANCH  19  20
HETATM   20  C   UNL     1     -10.629  13.478  67.854  1.00  0.00    -0.255 C  
BRANCH  20  21
HETATM   21  C   UNL     1      -9.502  14.301  68.402  1.00  0.00    -0.213 C  
HETATM   22  C   UNL     1      -9.625  15.574  68.811  1.00  0.00    -0.208 C  
BRANCH  22  23
HETATM   23  C   UNL     1     -10.878  16.392  68.753  1.00  0.00    -0.338 C  
HETATM   24  C   UNL     1     -10.645  17.729  68.074  1.00  0.00    -0.372 C  
ENDBRANCH  22  23
ENDBRANCH  20  21
ENDBRANCH  19  20
ENDBRANCH  17  18
ENDBRANCH  16  17
ENDBRANCH  14  15
ENDBRANCH  13  14
ENDBRANCH  11  12
ENDBRANCH  10  11
ENDBRANCH   8   9
ENDBRANCH   7   8
ENDBRANCH   6   7
ENDBRANCH   4   6
ENDBRANCH   3   4
ENDBRANCH   2   3
TORSDOF 15
ENDMDL
MODEL      469
REMARK 921   NORMALIZED FREE ENERGY PREDICTED BY IDOCK:   -2.24 KCAL/MOL
REMARK 922        TOTAL FREE ENERGY PREDICTED BY IDOCK:   -6.75 KCAL/MOL
REMARK 923 INTER-LIGAND FREE ENERGY PREDICTED BY IDOCK:   -5.09 KCAL/MOL
REMARK 924 INTRA-LIGAND FREE ENERGY PREDICTED BY IDOCK:   -1.66 KCAL/MOL
REMARK 927      BINDING AFFINITY PREDICTED BY RF-SCORE:    0.00 PKD
ROOT
HETATM    1  C   UNL     1      -8.032   7.296  70.592  1.00  0.00    -0.099 C  
HETATM    2  C   UNL     1      -7.225   8.329  71.357  1.00  0.00    -0.080 C  
ENDROOT
BRANCH   2   3
HETATM    3  O   UNL     1      -7.753   9.619  71.028  1.00  0.00    -0.323 OA 
BRANCH   3   4
HETATM    4  C   UNL     1      -8.431   9.662  69.847  1.00  0.00    -0.198 C  
HETATM    5  O   UNL     1      -9.596   9.335  69.684  1.00  0.00    -0.167 OA 
BRANCH   4   6
HETATM    6  C   UNL     1      -7.540  10.277  68.802  1.00  0.00    -0.093 C  
BRANCH   6   7
HETATM    7  C   UNL     1      -8.368  11.120  67.827  1.00  0.00    -0.123 C  
BRANCH   7   8
HETATM    8  C   UNL     1      -7.511  12.122  67.070  1.00  0.00    -0.086 C  
BRANCH   8   9
HETATM    9  C   UNL     1      -6.552  12.854  67.976  1.00  0.00    -0.107 C  
HETATM   10  C   UNL     1      -6.835  13.968  68.670  1.00  0.00    -0.103 C  
BRANCH  10  11
HETATM   11  C   UNL     1      -8.102  14.745  68.527  1.00  0.00    -0.146 C  
BRANCH  11  12
HETATM   12  C   UNL     1      -8.039  15.896  67.571  1.00  0.00    -0.171 C  
HETATM   13  C   UNL     1      -8.612  15.882  66.354  1.00  0.00    -0.364 C  
BRANCH  13  14
HETATM   14  C   UNL     1      -9.416  14.777  65.707  1.00  0.00    -0.209 C  
BRANCH  14  15
HETATM   15  C   UNL     1     -10.460  15.232  64.720  1.00  0.00    -0.217 C  
HETATM   16  C   UNL     1     -11.780  15.004  64.803  1.00  0.00    -0.370 C  
BRANCH  16  17
HETATM   17  C   UNL     1     -12.425  14.101  65.802  1.00  0.00    -0.490 C  
BRANCH  17  18
HETATM   18  C   UNL     1     -11.858  12.715  65.650  1.00  0.00    -0.488 C  
HETATM   19  C   UNL     1     -11.658  11.860  66.664  1.00  0.00    -0.337 C  
BRANCH  19  20
HETATM   20  C   UNL     1     -11.943  12.166  68.096  1.00  0.00    -0.242 C  
BRANCH  20  21
HETATM   21  C   UNL     1     -10.800  12.868  68.766  1.00  0.00    -0.277 C  
HETATM   22  C   UNL     1     -10.921  13.999  69.479  1.00  0.00    -0.138 C  
BRANCH  22  23
HETATM   23  C   UNL     1     -12.191  14.765  69.691  1.00  0.00    -0.310 C  
HETATM   24  C   UNL     1     -12.082  16.187  69.171  1.00  0.00     0.050 C  
ENDBRANCH  22  23
ENDBRANCH  20  21
ENDBRANCH  19  20
ENDBRANCH  17  18
ENDBRANCH  16  17
ENDBRANCH  14  15
ENDBRANCH  13  14
ENDBRANCH  11  12
ENDBRANCH  10  11
ENDBRANCH   8   9
ENDBRANCH   7   8
ENDBRANCH   6   7
ENDBRANCH   4   6
ENDBRANCH   3   4
ENDBRANCH   2   3
TORSDOF 15
ENDMDL
MODEL      470
REMARK 921   NORMALIZED FREE ENERGY PREDICTED BY IDOCK:   -2.19 KCAL/MOL
REMARK 922        TOTAL FREE ENERGY PREDICTED BY IDOCK:   -6.67 KCAL/MOL
REMARK 923 INTER-LIGAND FREE ENERGY PREDICTED BY IDOCK:   -6.17 KCAL/MOL
REMARK 924 INTRA-LIGAND FREE ENERGY PREDICTED BY IDOCK:   -0.50 KCAL/MOL
REMARK 927      BINDING AFFINITY PREDICTED BY RF-SCORE:    0.00 PKD
ROOT
HETATM    1  C   UNL     1      -8.898  19.546  69.130  1.00  0.00    -0.125 C  
HETATM    2  C   UNL     1     -10.249  19.388  68.456  1.00  0.00    -0.398 C  
ENDROOT
BRANCH   2   3
HETATM    3  O   UNL     1     -10.166  20.014  67.170  1.00  0.00    -0.415 OA 
BRANCH   3   4
HETATM    4  C   UNL     1     -10.337  19.163  66.121  1.00  0.00    -0.484 C  
HETATM    5  O   UNL     1     -11.001  19.392  65.122  1.00  0.00    -0.430 OA 
BRANCH   4   6
HETATM    6  C   UNL     1      -9.490  17.941  66.348  1.00  0.00    -0.278 C  
BRANCH   6   7
HETATM    7  C   UNL     1      -8.012  18.268  66.115  1.00  0.00    -0.219 C  
BRANCH   7   8
HETATM    8  C   UNL     1      -7.121  17.050  66.306  1.00  0.00    -0.236 C  
BRANCH   8   9
HETATM    9  C   UNL     1      -5.780  17.410  66.896  1.00  0.00    -0.202 C  
HETATM   10  C   UNL     1      -5.430  17.254  68.183  1.00  0.00    -0.125 C  
BRANCH  10  11
HETATM   11  C   UNL     1      -6.377  16.845  69.265  1.00  0.00    -0.223 C  
BRANCH  11  12
HETATM   12  C   UNL     1      -5.948  15.659  70.072  1.00  0.00    -0.155 C  
HETATM   13  C   UNL     1      -5.985  14.395  69.612  1.00  0.00    -0.111 C  
BRANCH  13  14
HETATM   14  C   UNL     1      -6.428  13.904  68.252  1.00  0.00    -0.111 C  
BRANCH  14  15
HETATM   15  C   UNL     1      -7.919  13.873  68.032  1.00  0.00    -0.154 C  
HETATM   16  C   UNL     1      -8.692  12.776  68.006  1.00  0.00    -0.194 C  
BRANCH  16  17
HETATM   17  C   UNL     1      -8.178  11.373  68.016  1.00  0.00    -0.140 C  
BRANCH  17  18
HETATM   18  C   UNL     1      -9.335  10.426  67.846  1.00  0.00    -0.147 C  
HETATM   19  C   UNL     1     -10.625  10.789  67.881  1.00  0.00    -0.258 C  
BRANCH  19  20
HETATM   20  C   UNL     1     -11.106  12.181  68.121  1.00  0.00    -0.295 C  
BRANCH  20  21
HETATM   21  C   UNL     1     -11.945  12.288  69.358  1.00  0.00    -0.318 C  
HETATM   22  C   UNL     1     -12.135  13.424  70.047  1.00  0.00    -0.404 C  
BRANCH  22  23
HETATM   23  C   UNL     1     -11.517  14.751  69.728  1.00  0.00    -0.330 C  
HETATM   24  C   UNL     1     -11.196  15.537  70.986  1.00  0.00    -0.419 C  
ENDBRANCH  22  23
ENDBRANCH  20  21
ENDBRANCH  19  20
ENDBRANCH  17  18
ENDBRANCH  16  17
ENDBRANCH  14  15
ENDBRANCH  13  14
ENDBRANCH  11  12
ENDBRANCH  10  11
ENDBRANCH   8   9
ENDBRANCH   7   8
ENDBRANCH   6   7
ENDBRANCH   4   6
ENDBRANCH   3   4
ENDBRANCH   2   3
TORSDOF 15
ENDMDL
MODEL      471
REMARK 921   NORMALIZED FREE ENERGY PREDICTED BY IDOCK:   -2.19 KCAL/MOL
REMARK 922        TOTAL FREE ENERGY PREDICTED BY IDOCK:   -6.66 KCAL/MOL
REMARK 923 INTER-LIGAND FREE ENERGY PREDICTED BY IDOCK:   -4.44 KCAL/MOL
REMARK 924 INTRA-LIGAND FREE ENERGY PREDICTED BY IDOCK:   -2.22 KCAL/MOL
REMARK 927      BINDING AFFINITY PREDICTED BY RF-SCORE:    0.00 PKD
ROOT
HETATM    1  C   UNL     1      -9.768  10.667  64.186  1.00  0.00    -0.378 C  
HETATM    2  C   UNL     1     -10.668  11.485  65.095  1.00  0.00    -0.289 C  
ENDROOT
BRANCH   2   3
HETATM    3  O   UNL     1     -10.065  12.774  65.253  1.00  0.00    -0.286 OA 
BRANCH   3   4
HETATM    4  C   UNL     1      -9.899  13.160  66.549  1.00  0.00    -0.265 C  
HETATM    5  O   UNL     1     -10.731  13.737  67.230  1.00  0.00    -0.279 OA 
BRANCH   4   6
HETATM    6  C   UNL     1      -8.564  12.664  67.032  1.00  0.00    -0.181 C  
BRANCH   6   7
HETATM    7  C   UNL     1      -8.666  12.190  68.485  1.00  0.00    -0.079 C  
BRANCH   7   8
HETATM    8  C   UNL     1      -8.302  10.721  68.634  1.00  0.00    -0.141 C  
BRANCH   8   9
HETATM    9  C   UNL     1      -7.011  10.526  69.390  1.00  0.00    -0.099 C  
HETATM   10  C   UNL     1      -6.440   9.341  69.662  1.00  0.00    -0.040 C  
BRANCH  10  11
HETATM   11  C   UNL     1      -7.084   8.021  69.391  1.00  0.00    -0.063 C  
BRANCH  11  12
HETATM   12  C   UNL     1      -6.141   6.860  69.296  1.00  0.00    -0.026 C  
HETATM   13  C   UNL     1      -5.717   6.343  68.129  1.00  0.00    -0.012 C  
BRANCH  13  14
HETATM   14  C   UNL     1      -6.058   6.788  66.725  1.00  0.00    -0.036 C  
BRANCH  14  15
HETATM   15  C   UNL     1      -7.265   6.125  66.113  1.00  0.00    -0.076 C  
HETATM   16  C   UNL     1      -8.479   6.676  65.963  1.00  0.00    -0.142 C  
BRANCH  16  17
HETATM   17  C   UNL     1      -8.894   7.989  66.541  1.00  0.00    -0.175 C  
BRANCH  17  18
HETATM   18  C   UNL     1     -10.393   8.013  66.679  1.00  0.00    -0.273 C  
HETATM   19  C   UNL     1     -11.111   7.080  67.321  1.00  0.00    -0.302 C  
BRANCH  19  20
HETATM   20  C   UNL     1     -10.534   5.867  67.970  1.00  0.00    -0.294 C  
BRANCH  20  21
HETATM   21  C   UNL     1     -10.843   5.805  69.436  1.00  0.00    -0.393 C  
HETATM   22  C   UNL     1     -10.052   5.222  70.350  1.00  0.00    -0.324 C  
BRANCH  22  23
HETATM   23  C   UNL     1      -8.766   4.508  70.065  1.00  0.00    -0.115 C  
HETATM   24  C   UNL     1      -9.009   3.108  69.530  1.00  0.00    -0.174 C  
ENDBRANCH  22  23
ENDBRANCH  20  21
ENDBRANCH  19  20
ENDBRANCH  17  18
ENDBRANCH  16  17
ENDBRANCH  14  15
ENDBRANCH  13  14
ENDBRANCH  11  12
ENDBRANCH  10  11
ENDBRANCH   8   9
ENDBRANCH   7   8
ENDBRANCH   6   7
ENDBRANCH   4   6
ENDBRANCH   3   4
ENDBRANCH   2   3
TORSDOF 15
ENDMDL
MODEL      472
REMARK 921   NORMALIZED FREE ENERGY PREDICTED BY IDOCK:   -2.18 KCAL/MOL
REMARK 922        TOTAL FREE ENERGY PREDICTED BY IDOCK:   -6.64 KCAL/MOL
REMARK 923 INTER-LIGAND FREE ENERGY PREDICTED BY IDOCK:   -4.84 KCAL/MOL
REMARK 924 INTRA-LIGAND FREE ENERGY PREDICTED BY IDOCK:   -1.80 KCAL/MOL
REMARK 927      BINDING AFFINITY PREDICTED BY RF-SCORE:    0.00 PKD
ROOT
HETATM    1  C   UNL     1      -6.712   6.584  71.190  1.00  0.00    -0.058 C  
HETATM    2  C   UNL     1      -6.952   5.554  70.101  1.00  0.00    -0.064 C  
ENDROOT
BRANCH   2   3
HETATM    3  O   UNL     1      -8.211   5.859  69.489  1.00  0.00    -0.110 OA 
BRANCH   3   4
HETATM    4  C   UNL     1      -8.999   4.772  69.258  1.00  0.00    -0.095 C  
HETATM    5  O   UNL     1      -9.948   4.734  68.492  1.00  0.00    -0.148 OA 
BRANCH   4   6
HETATM    6  C   UNL     1      -8.441   3.601  70.020  1.00  0.00    -0.095 C  
BRANCH   6   7
HETATM    7  C   UNL     1      -9.379   3.220  71.169  1.00  0.00    -0.210 C  
BRANCH   7   8
HETATM    8  C   UNL     1      -9.711   4.412  72.054  1.00  0.00    -0.227 C  
BRANCH   8   9
HETATM    9  C   UNL     1     -11.045   5.027  71.706  1.00  0.00     0.089 C  
HETATM   10  C   UNL     1     -11.337   6.336  71.774  1.00  0.00    -0.346 C  
BRANCH  10  11
HETATM   11  C   UNL     1     -10.430   7.368  72.357  1.00  0.00    -0.273 C  
BRANCH  11  12
HETATM   12  C   UNL     1      -9.973   8.428  71.402  1.00  0.00    -0.275 C  
HETATM   13  C   UNL     1     -10.706   9.512  71.091  1.00  0.00    -0.408 C  
BRANCH  13  14
HETATM   14  C   UNL     1     -12.073   9.902  71.608  1.00  0.00    -0.457 C  
BRANCH  14  15
HETATM   15  C   UNL     1     -12.981  10.557  70.599  1.00  0.00    -0.362 C  
HETATM   16  C   UNL     1     -12.836  11.789  70.087  1.00  0.00     0.225 C  
BRANCH  16  17
HETATM   17  C   UNL     1     -11.843  12.797  70.565  1.00  0.00    -0.142 C  
BRANCH  17  18
HETATM   18  C   UNL     1     -12.229  14.154  70.041  1.00  0.00    -0.418 C  
HETATM   19  C   UNL     1     -11.998  14.579  68.791  1.00  0.00    -0.315 C  
BRANCH  19  20
HETATM   20  C   UNL     1     -11.299  13.781  67.742  1.00  0.00    -0.331 C  
BRANCH  20  21
HETATM   21  C   UNL     1      -9.808  13.901  67.835  1.00  0.00    -0.228 C  
HETATM   22  C   UNL     1      -8.980  12.871  68.073  1.00  0.00    -0.196 C  
BRANCH  22  23
HETATM   23  C   UNL     1      -9.399  11.455  68.322  1.00  0.00    -0.187 C  
HETATM   24  C   UNL     1      -9.679  10.716  67.026  1.00  0.00    -0.207 C  
ENDBRANCH  22  23
ENDBRANCH  20  21
ENDBRANCH  19  20
ENDBRANCH  17  18
ENDBRANCH  16  17
ENDBRANCH  14  15
ENDBRANCH  13  14
ENDBRANCH  11  12
ENDBRANCH  10  11
ENDBRANCH   8   9
ENDBRANCH   7   8
ENDBRANCH   6   7
ENDBRANCH   4   6
ENDBRANCH   3   4
ENDBRANCH   2   3
TORSDOF 15
ENDMDL
MODEL      473
REMARK 921   NORMALIZED FREE ENERGY PREDICTED BY IDOCK:   -2.17 KCAL/MOL
REMARK 922        TOTAL FREE ENERGY PREDICTED BY IDOCK:   -6.63 KCAL/MOL
REMARK 923 INTER-LIGAND FREE ENERGY PREDICTED BY IDOCK:   -5.32 KCAL/MOL
REMARK 924 INTRA-LIGAND FREE ENERGY PREDICTED BY IDOCK:   -1.31 KCAL/MOL
REMARK 927      BINDING AFFINITY PREDICTED BY RF-SCORE:    0.00 PKD
ROOT
HETATM    1  C   UNL     1      -8.123   7.208  70.556  1.00  0.00    -0.113 C  
HETATM    2  C   UNL     1      -7.306   8.256  71.290  1.00  0.00    -0.078 C  
ENDROOT
BRANCH   2   3
HETATM    3  O   UNL     1      -7.806   9.541  70.904  1.00  0.00    -0.299 OA 
BRANCH   3   4
HETATM    4  C   UNL     1      -8.684   9.511  69.862  1.00  0.00    -0.210 C  
HETATM    5  O   UNL     1      -9.894   9.383  69.957  1.00  0.00    -0.192 OA 
BRANCH   4   6
HETATM    6  C   UNL     1      -7.927   9.766  68.588  1.00  0.00    -0.089 C  
BRANCH   6   7
HETATM    7  C   UNL     1      -8.609  10.873  67.777  1.00  0.00    -0.128 C  
BRANCH   7   8
HETATM    8  C   UNL     1      -7.651  11.540  66.803  1.00  0.00    -0.126 C  
BRANCH   8   9
HETATM    9  C   UNL     1      -6.357  11.950  67.464  1.00  0.00    -0.105 C  
HETATM   10  C   UNL     1      -6.220  12.950  68.350  1.00  0.00    -0.079 C  
BRANCH  10  11
HETATM   11  C   UNL     1      -7.305  13.915  68.698  1.00  0.00    -0.117 C  
BRANCH  11  12
HETATM   12  C   UNL     1      -6.920  14.980  69.678  1.00  0.00    -0.191 C  
HETATM   13  C   UNL     1      -6.943  16.295  69.393  1.00  0.00    -0.212 C  
BRANCH  13  14
HETATM   14  C   UNL     1      -7.349  16.969  68.101  1.00  0.00    -0.192 C  
BRANCH  14  15
HETATM   15  C   UNL     1      -8.116  18.257  68.260  1.00  0.00    -0.311 C  
HETATM   16  C   UNL     1      -9.441  18.412  68.114  1.00  0.00    -0.327 C  
BRANCH  16  17
HETATM   17  C   UNL     1     -10.367  17.362  67.593  1.00  0.00    -0.355 C  
BRANCH  17  18
HETATM   18  C   UNL     1     -10.060  17.114  66.141  1.00  0.00    -0.317 C  
HETATM   19  C   UNL     1     -10.447  16.027  65.458  1.00  0.00    -0.426 C  
BRANCH  19  20
HETATM   20  C   UNL     1     -11.215  14.890  66.044  1.00  0.00    -0.327 C  
BRANCH  20  21
HETATM   21  C   UNL     1     -10.407  14.108  67.034  1.00  0.00    -0.267 C  
HETATM   22  C   UNL     1     -10.849  13.738  68.246  1.00  0.00    -0.266 C  
BRANCH  22  23
HETATM   23  C   UNL     1     -12.190  14.072  68.826  1.00  0.00    -0.237 C  
HETATM   24  C   UNL     1     -12.113  15.260  69.767  1.00  0.00    -0.357 C  
ENDBRANCH  22  23
ENDBRANCH  20  21
ENDBRANCH  19  20
ENDBRANCH  17  18
ENDBRANCH  16  17
ENDBRANCH  14  15
ENDBRANCH  13  14
ENDBRANCH  11  12
ENDBRANCH  10  11
ENDBRANCH   8   9
ENDBRANCH   7   8
ENDBRANCH   6   7
ENDBRANCH   4   6
ENDBRANCH   3   4
ENDBRANCH   2   3
TORSDOF 15
ENDMDL
MODEL      474
REMARK 921   NORMALIZED FREE ENERGY PREDICTED BY IDOCK:   -2.15 KCAL/MOL
REMARK 922        TOTAL FREE ENERGY PREDICTED BY IDOCK:   -6.60 KCAL/MOL
REMARK 923 INTER-LIGAND FREE ENERGY PREDICTED BY IDOCK:   -4.85 KCAL/MOL
REMARK 924 INTRA-LIGAND FREE ENERGY PREDICTED BY IDOCK:   -1.75 KCAL/MOL
REMARK 927      BINDING AFFINITY PREDICTED BY RF-SCORE:    0.00 PKD
ROOT
HETATM    1  C   UNL     1     -12.443  13.259  69.244  1.00  0.00     0.133 C  
HETATM    2  C   UNL     1     -11.854  12.109  70.041  1.00  0.00    -0.306 C  
ENDROOT
BRANCH   2   3
HETATM    3  O   UNL     1     -12.651  10.949  69.776  1.00  0.00    -0.270 OA 
BRANCH   3   4
HETATM    4  C   UNL     1     -12.769  10.097  70.834  1.00  0.00    -0.357 C  
HETATM    5  O   UNL     1     -13.759   9.439  71.108  1.00  0.00    -0.304 OA 
BRANCH   4   6
HETATM    6  C   UNL     1     -11.444  10.023  71.543  1.00  0.00    -0.219 C  
BRANCH   6   7
HETATM    7  C   UNL     1     -10.983   8.567  71.658  1.00  0.00    -0.362 C  
BRANCH   7   8
HETATM    8  C   UNL     1     -10.971   7.864  70.310  1.00  0.00    -0.249 C  
BRANCH   8   9
HETATM    9  C   UNL     1     -10.856   6.366  70.446  1.00  0.00    -0.343 C  
HETATM   10  C   UNL     1      -9.733   5.653  70.268  1.00  0.00    -0.232 C  
BRANCH  10  11
HETATM   11  C   UNL     1      -8.453   6.223  69.748  1.00  0.00    -0.126 C  
BRANCH  11  12
HETATM   12  C   UNL     1      -8.113   5.845  68.340  1.00  0.00    -0.109 C  
HETATM   13  C   UNL     1      -8.173   6.704  67.306  1.00  0.00    -0.121 C  
BRANCH  13  14
HETATM   14  C   UNL     1      -8.559   8.166  67.321  1.00  0.00    -0.124 C  
BRANCH  14  15
HETATM   15  C   UNL     1      -9.710   8.538  66.422  1.00  0.00    -0.328 C  
HETATM   16  C   UNL     1     -10.178   9.777  66.209  1.00  0.00    -0.282 C  
BRANCH  16  17
HETATM   17  C   UNL     1      -9.750  10.990  66.967  1.00  0.00    -0.208 C  
BRANCH  17  18
HETATM   18  C   UNL     1      -9.066  10.559  68.237  1.00  0.00    -0.146 C  
HETATM   19  C   UNL     1      -8.137  11.279  68.882  1.00  0.00    -0.090 C  
BRANCH  19  20
HETATM   20  C   UNL     1      -7.624  12.603  68.422  1.00  0.00    -0.132 C  
BRANCH  20  21
HETATM   21  C   UNL     1      -8.470  13.741  68.909  1.00  0.00     0.129 C  
HETATM   22  C   UNL     1      -9.184  14.548  68.110  1.00  0.00    -0.195 C  
BRANCH  22  23
HETATM   23  C   UNL     1      -9.226  14.480  66.613  1.00  0.00    -0.290 C  
HETATM   24  C   UNL     1     -10.618  14.762  66.078  1.00  0.00    -0.318 C  
ENDBRANCH  22  23
ENDBRANCH  20  21
ENDBRANCH  19  20
ENDBRANCH  17  18
ENDBRANCH  16  17
ENDBRANCH  14  15
ENDBRANCH  13  14
ENDBRANCH  11  12
ENDBRANCH  10  11
ENDBRANCH   8   9
ENDBRANCH   7   8
ENDBRANCH   6   7
ENDBRANCH   4   6
ENDBRANCH   3   4
ENDBRANCH   2   3
TORSDOF 15
ENDMDL
MODEL      475
REMARK 921   NORMALIZED FREE ENERGY PREDICTED BY IDOCK:   -2.10 KCAL/MOL
REMARK 922        TOTAL FREE ENERGY PREDICTED BY IDOCK:   -6.50 KCAL/MOL
REMARK 923 INTER-LIGAND FREE ENERGY PREDICTED BY IDOCK:   -4.39 KCAL/MOL
REMARK 924 INTRA-LIGAND FREE ENERGY PREDICTED BY IDOCK:   -2.11 KCAL/MOL
REMARK 927      BINDING AFFINITY PREDICTED BY RF-SCORE:    0.00 PKD
ROOT
HETATM    1  C   UNL     1      -6.636  18.610  69.470  1.00  0.00    -0.201 C  
HETATM    2  C   UNL     1      -7.808  18.055  68.681  1.00  0.00    -0.290 C  
ENDROOT
BRANCH   2   3
HETATM    3  O   UNL     1      -7.277  17.395  67.526  1.00  0.00    -0.162 OA 
BRANCH   3   4
HETATM    4  C   UNL     1      -6.990  16.077  67.717  1.00  0.00    -0.143 C  
HETATM    5  O   UNL     1      -6.019  15.491  67.268  1.00  0.00    -0.326 OA 
BRANCH   4   6
HETATM    6  C   UNL     1      -8.009  15.493  68.657  1.00  0.00    -0.146 C  
BRANCH   6   7
HETATM    7  C   UNL     1      -8.614  14.219  68.060  1.00  0.00    -0.169 C  
BRANCH   7   8
HETATM    8  C   UNL     1      -7.999  12.962  68.654  1.00  0.00    -0.024 C  
BRANCH   8   9
HETATM    9  C   UNL     1      -7.817  11.873  67.626  1.00  0.00    -0.142 C  
HETATM   10  C   UNL     1      -8.257  10.610  67.746  1.00  0.00    -0.111 C  
BRANCH  10  11
HETATM   11  C   UNL     1      -8.859  10.047  68.992  1.00  0.00    -0.159 C  
BRANCH  11  12
HETATM   12  C   UNL     1      -7.878   9.499  69.982  1.00  0.00    -0.157 C  
HETATM   13  C   UNL     1      -8.233   8.993  71.177  1.00  0.00    -0.198 C  
BRANCH  13  14
HETATM   14  C   UNL     1      -9.621   8.855  71.762  1.00  0.00    -0.353 C  
BRANCH  14  15
HETATM   15  C   UNL     1     -10.083   7.439  71.997  1.00  0.00    -0.212 C  
HETATM   16  C   UNL     1     -10.629   6.624  71.081  1.00  0.00    -0.263 C  
BRANCH  16  17
HETATM   17  C   UNL     1     -11.038   7.041  69.707  1.00  0.00    -0.278 C  
BRANCH  17  18
HETATM   18  C   UNL     1     -10.936   5.857  68.784  1.00  0.00    -0.311 C  
HETATM   19  C   UNL     1      -9.879   5.591  68.002  1.00  0.00    -0.173 C  
BRANCH  19  20
HETATM   20  C   UNL     1      -8.659   6.445  67.912  1.00  0.00    -0.116 C  
BRANCH  20  21
HETATM   21  C   UNL     1      -8.595   7.212  66.626  1.00  0.00    -0.124 C  
HETATM   22  C   UNL     1      -8.160   6.702  65.463  1.00  0.00    -0.124 C  
BRANCH  22  23
HETATM   23  C   UNL     1      -7.633   5.314  65.261  1.00  0.00    -0.082 C  
HETATM   24  C   UNL     1      -8.304   4.625  64.087  1.00  0.00    -0.120 C  
ENDBRANCH  22  23
ENDBRANCH  20  21
ENDBRANCH  19  20
ENDBRANCH  17  18
ENDBRANCH  16  17
ENDBRANCH  14  15
ENDBRANCH  13  14
ENDBRANCH  11  12
ENDBRANCH  10  11
ENDBRANCH   8   9
ENDBRANCH   7   8
ENDBRANCH   6   7
ENDBRANCH   4   6
ENDBRANCH   3   4
ENDBRANCH   2   3
TORSDOF 15
ENDMDL
MODEL      476
REMARK 921   NORMALIZED FREE ENERGY PREDICTED BY IDOCK:   -2.02 KCAL/MOL
REMARK 922        TOTAL FREE ENERGY PREDICTED BY IDOCK:   -6.34 KCAL/MOL
REMARK 923 INTER-LIGAND FREE ENERGY PREDICTED BY IDOCK:   -4.36 KCAL/MOL
REMARK 924 INTRA-LIGAND FREE ENERGY PREDICTED BY IDOCK:   -1.98 KCAL/MOL
REMARK 927      BINDING AFFINITY PREDICTED BY RF-SCORE:    0.00 PKD
ROOT
HETATM    1  C   UNL     1      -9.769  10.344  64.134  1.00  0.00    -0.387 C  
HETATM    2  C   UNL     1     -10.641  11.309  64.917  1.00  0.00    -0.300 C  
ENDROOT
BRANCH   2   3
HETATM    3  O   UNL     1      -9.934  12.551  65.010  1.00  0.00    -0.255 OA 
BRANCH   3   4
HETATM    4  C   UNL     1      -9.693  12.965  66.285  1.00  0.00    -0.268 C  
HETATM    5  O   UNL     1     -10.444  13.647  66.963  1.00  0.00    -0.266 OA 
BRANCH   4   6
HETATM    6  C   UNL     1      -8.401  12.355  66.754  1.00  0.00    -0.060 C  
BRANCH   6   7
HETATM    7  C   UNL     1      -8.310  12.410  68.282  1.00  0.00    -0.169 C  
BRANCH   7   8
HETATM    8  C   UNL     1      -8.139  11.029  68.894  1.00  0.00    -0.135 C  
BRANCH   8   9
HETATM    9  C   UNL     1      -6.948  10.955  69.818  1.00  0.00    -0.121 C  
HETATM   10  C   UNL     1      -6.625   9.904  70.587  1.00  0.00    -0.104 C  
BRANCH  10  11
HETATM   11  C   UNL     1      -7.490   8.699  70.765  1.00  0.00    -0.080 C  
BRANCH  11  12
HETATM   12  C   UNL     1      -6.974   7.682  71.737  1.00  0.00    -0.062 C  
HETATM   13  C   UNL     1      -6.462   6.495  71.368  1.00  0.00    -0.050 C  
BRANCH  13  14
HETATM   14  C   UNL     1      -6.283   5.943  69.971  1.00  0.00    -0.027 C  
BRANCH  14  15
HETATM   15  C   UNL     1      -7.492   5.255  69.390  1.00  0.00    -0.065 C  
HETATM   16  C   UNL     1      -8.226   5.688  68.353  1.00  0.00    -0.103 C  
BRANCH  16  17
HETATM   17  C   UNL     1      -8.075   7.025  67.704  1.00  0.00    -0.114 C  
BRANCH  17  18
HETATM   18  C   UNL     1      -9.428   7.509  67.258  1.00  0.00    -0.186 C  
HETATM   19  C   UNL     1     -10.567   7.313  67.938  1.00  0.00    -0.266 C  
BRANCH  19  20
HETATM   20  C   UNL     1     -10.665   6.561  69.223  1.00  0.00    -0.329 C  
BRANCH  20  21
HETATM   21  C   UNL     1     -11.039   7.447  70.373  1.00  0.00    -0.284 C  
HETATM   22  C   UNL     1     -10.770   7.171  71.658  1.00  0.00    -0.236 C  
BRANCH  22  23
HETATM   23  C   UNL     1     -10.097   5.931  72.162  1.00  0.00    -0.210 C  
HETATM   24  C   UNL     1     -11.096   4.946  72.741  1.00  0.00    -0.283 C  
ENDBRANCH  22  23
ENDBRANCH  20  21
ENDBRANCH  19  20
ENDBRANCH  17  18
ENDBRANCH  16  17
ENDBRANCH  14  15
ENDBRANCH  13  14
ENDBRANCH  11  12
ENDBRANCH  10  11
ENDBRANCH   8   9
ENDBRANCH   7   8
ENDBRANCH   6   7
ENDBRANCH   4   6
ENDBRANCH   3   4
ENDBRANCH   2   3
TORSDOF 15
ENDMDL
MODEL      477
REMARK 921   NORMALIZED FREE ENERGY PREDICTED BY IDOCK:   -1.99 KCAL/MOL
REMARK 922        TOTAL FREE ENERGY PREDICTED BY IDOCK:   -6.30 KCAL/MOL
REMARK 923 INTER-LIGAND FREE ENERGY PREDICTED BY IDOCK:   -5.45 KCAL/MOL
REMARK 924 INTRA-LIGAND FREE ENERGY PREDICTED BY IDOCK:   -0.84 KCAL/MOL
REMARK 927      BINDING AFFINITY PREDICTED BY RF-SCORE:    0.00 PKD
ROOT
HETATM    1  C   UNL     1      -5.763  13.386  68.367  1.00  0.00    -0.087 C  
HETATM    2  C   UNL     1      -6.483  14.721  68.434  1.00  0.00    -0.103 C  
ENDROOT
BRANCH   2   3
HETATM    3  O   UNL     1      -7.831  14.462  68.844  1.00  0.00    -0.138 OA 
BRANCH   3   4
HETATM    4  C   UNL     1      -8.779  14.977  68.011  1.00  0.00    -0.159 C  
HETATM    5  O   UNL     1      -8.584  15.368  66.871  1.00  0.00    -0.219 OA 
BRANCH   4   6
HETATM    6  C   UNL     1     -10.118  14.886  68.690  1.00  0.00    -0.237 C  
BRANCH   6   7
HETATM    7  C   UNL     1     -10.819  16.248  68.667  1.00  0.00    -0.322 C  
BRANCH   7   8
HETATM    8  C   UNL     1      -9.870  17.372  68.283  1.00  0.00    -0.310 C  
BRANCH   8   9
HETATM    9  C   UNL     1     -10.524  18.389  67.380  1.00  0.00    -0.443 C  
HETATM   10  C   UNL     1     -10.841  18.193  66.090  1.00  0.00     0.019 C  
BRANCH  10  11
HETATM   11  C   UNL     1     -10.447  16.985  65.305  1.00  0.00    -0.056 C  
BRANCH  11  12
HETATM   12  C   UNL     1     -11.577  16.262  64.639  1.00  0.00    -0.067 C  
HETATM   13  C   UNL     1     -11.674  14.921  64.590  1.00  0.00    -0.406 C  
BRANCH  13  14
HETATM   14  C   UNL     1     -10.731  13.890  65.169  1.00  0.00    -0.371 C  
BRANCH  14  15
HETATM   15  C   UNL     1     -11.305  12.504  65.319  1.00  0.00    -0.363 C  
HETATM   16  C   UNL     1     -10.880  11.560  66.173  1.00  0.00    -0.330 C  
BRANCH  16  17
HETATM   17  C   UNL     1      -9.644  11.661  67.005  1.00  0.00    -0.196 C  
BRANCH  17  18
HETATM   18  C   UNL     1      -8.745  10.495  66.692  1.00  0.00    -0.138 C  
HETATM   19  C   UNL     1      -8.912   9.256  67.177  1.00  0.00    -0.141 C  
BRANCH  19  20
HETATM   20  C   UNL     1      -9.997   8.856  68.121  1.00  0.00    -0.208 C  
BRANCH  20  21
HETATM   21  C   UNL     1     -10.679   7.590  67.699  1.00  0.00    -0.266 C  
HETATM   22  C   UNL     1     -10.686   6.459  68.422  1.00  0.00    -0.349 C  
BRANCH  22  23
HETATM   23  C   UNL     1      -9.990   6.256  69.733  1.00  0.00    -0.204 C  
HETATM   24  C   UNL     1     -10.978   6.105  70.875  1.00  0.00    -0.359 C  
ENDBRANCH  22  23
ENDBRANCH  20  21
ENDBRANCH  19  20
ENDBRANCH  17  18
ENDBRANCH  16  17
ENDBRANCH  14  15
ENDBRANCH  13  14
ENDBRANCH  11  12
ENDBRANCH  10  11
ENDBRANCH   8   9
ENDBRANCH   7   8
ENDBRANCH   6   7
ENDBRANCH   4   6
ENDBRANCH   3   4
ENDBRANCH   2   3
TORSDOF 15
ENDMDL
MODEL      478
REMARK 921   NORMALIZED FREE ENERGY PREDICTED BY IDOCK:   -1.96 KCAL/MOL
REMARK 922        TOTAL FREE ENERGY PREDICTED BY IDOCK:   -6.23 KCAL/MOL
REMARK 923 INTER-LIGAND FREE ENERGY PREDICTED BY IDOCK:   -4.50 KCAL/MOL
REMARK 924 INTRA-LIGAND FREE ENERGY PREDICTED BY IDOCK:   -1.72 KCAL/MOL
REMARK 927      BINDING AFFINITY PREDICTED BY RF-SCORE:    0.00 PKD
ROOT
HETATM    1  C   UNL     1     -12.069  11.689  70.021  1.00  0.00    -0.395 C  
HETATM    2  C   UNL     1     -12.817  11.169  71.235  1.00  0.00    -0.412 C  
ENDROOT
BRANCH   2   3
HETATM    3  O   UNL     1     -13.331   9.874  70.904  1.00  0.00    -0.349 OA 
BRANCH   3   4
HETATM    4  C   UNL     1     -13.436   9.025  71.964  1.00  0.00    -0.442 C  
HETATM    5  O   UNL     1     -14.405   8.928  72.701  1.00  0.00    -0.613 OA 
BRANCH   4   6
HETATM    6  C   UNL     1     -12.208   8.158  72.012  1.00  0.00    -0.385 C  
BRANCH   6   7
HETATM    7  C   UNL     1     -12.425   6.885  71.189  1.00  0.00    -0.398 C  
BRANCH   7   8
HETATM    8  C   UNL     1     -11.594   6.881  69.915  1.00  0.00    -0.255 C  
BRANCH   8   9
HETATM    9  C   UNL     1     -10.720   5.655  69.806  1.00  0.00    -0.401 C  
HETATM   10  C   UNL     1      -9.475   5.542  70.297  1.00  0.00    -0.211 C  
BRANCH  10  11
HETATM   11  C   UNL     1      -8.704   6.675  70.892  1.00  0.00    -0.138 C  
BRANCH  11  12
HETATM   12  C   UNL     1      -7.395   6.972  70.227  1.00  0.00    -0.084 C  
HETATM   13  C   UNL     1      -7.278   7.737  69.127  1.00  0.00    -0.082 C  
BRANCH  13  14
HETATM   14  C   UNL     1      -8.369   8.445  68.355  1.00  0.00    -0.131 C  
BRANCH  14  15
HETATM   15  C   UNL     1      -7.892   9.362  67.258  1.00  0.00    -0.099 C  
HETATM   16  C   UNL     1      -7.911  10.703  67.284  1.00  0.00    -0.116 C  
BRANCH  16  17
HETATM   17  C   UNL     1      -8.577  11.524  68.340  1.00  0.00    -0.159 C  
BRANCH  17  18
HETATM   18  C   UNL     1      -7.778  11.429  69.612  1.00  0.00     0.425 C  
HETATM   19  C   UNL     1      -6.782  12.262  69.947  1.00  0.00     0.200 C  
BRANCH  19  20
HETATM   20  C   UNL     1      -6.301  13.389  69.096  1.00  0.00    -0.102 C  
BRANCH  20  21
HETATM   21  C   UNL     1      -6.340  14.703  69.817  1.00  0.00    -0.152 C  
HETATM   22  C   UNL     1      -5.895  15.861  69.304  1.00  0.00    -0.120 C  
BRANCH  22  23
HETATM   23  C   UNL     1      -5.255  16.030  67.960  1.00  0.00    -0.127 C  
HETATM   24  C   UNL     1      -6.290  16.151  66.857  1.00  0.00     0.044 C  
ENDBRANCH  22  23
ENDBRANCH  20  21
ENDBRANCH  19  20
ENDBRANCH  17  18
ENDBRANCH  16  17
ENDBRANCH  14  15
ENDBRANCH  13  14
ENDBRANCH  11  12
ENDBRANCH  10  11
ENDBRANCH   8   9
ENDBRANCH   7   8
ENDBRANCH   6   7
ENDBRANCH   4   6
ENDBRANCH   3   4
ENDBRANCH   2   3
TORSDOF 15
ENDMDL
MODEL      479
REMARK 921   NORMALIZED FREE ENERGY PREDICTED BY IDOCK:   -1.94 KCAL/MOL
REMARK 922        TOTAL FREE ENERGY PREDICTED BY IDOCK:   -6.20 KCAL/MOL
REMARK 923 INTER-LIGAND FREE ENERGY PREDICTED BY IDOCK:   -5.64 KCAL/MOL
REMARK 924 INTRA-LIGAND FREE ENERGY PREDICTED BY IDOCK:   -0.57 KCAL/MOL
REMARK 927      BINDING AFFINITY PREDICTED BY RF-SCORE:    0.00 PKD
ROOT
HETATM    1  C   UNL     1      -8.245  20.885  67.155  1.00  0.00    -0.134 C  
HETATM    2  C   UNL     1      -9.330  19.823  67.132  1.00  0.00    -0.351 C  
ENDROOT
BRANCH   2   3
HETATM    3  O   UNL     1      -8.751  18.606  67.616  1.00  0.00    -0.268 OA 
BRANCH   3   4
HETATM    4  C   UNL     1      -8.684  17.610  66.688  1.00  0.00    -0.264 C  
HETATM    5  O   UNL     1      -7.684  17.280  66.073  1.00  0.00    -0.427 OA 
BRANCH   4   6
HETATM    6  C   UNL     1     -10.019  16.919  66.626  1.00  0.00    -0.302 C  
BRANCH   6   7
HETATM    7  C   UNL     1     -10.564  16.687  68.039  1.00  0.00    -0.338 C  
BRANCH   7   8
HETATM    8  C   UNL     1      -9.704  15.713  68.830  1.00  0.00    -0.212 C  
BRANCH   8   9
HETATM    9  C   UNL     1      -9.433  14.440  68.067  1.00  0.00    -0.209 C  
HETATM   10  C   UNL     1     -10.329  13.467  67.835  1.00  0.00    -0.249 C  
BRANCH  10  11
HETATM   11  C   UNL     1     -11.696  13.426  68.436  1.00  0.00    -0.390 C  
BRANCH  11  12
HETATM   12  C   UNL     1     -11.756  13.724  69.903  1.00  0.00    -0.353 C  
HETATM   13  C   UNL     1     -11.994  12.788  70.840  1.00  0.00     0.049 C  
BRANCH  13  14
HETATM   14  C   UNL     1     -12.230  11.307  70.650  1.00  0.00    -0.489 C  
BRANCH  14  15
HETATM   15  C   UNL     1     -11.456  10.670  69.524  1.00  0.00    -0.360 C  
HETATM   16  C   UNL     1     -10.501   9.737  69.649  1.00  0.00    -0.263 C  
BRANCH  16  17
HETATM   17  C   UNL     1      -9.911   9.293  70.948  1.00  0.00    -0.367 C  
BRANCH  17  18
HETATM   18  C   UNL     1      -9.989   7.793  71.034  1.00  0.00    -0.191 C  
HETATM   19  C   UNL     1      -9.147   6.952  70.416  1.00  0.00    -0.156 C  
BRANCH  19  20
HETATM   20  C   UNL     1      -8.025   7.379  69.530  1.00  0.00    -0.127 C  
BRANCH  20  21
HETATM   21  C   UNL     1      -6.712   7.418  70.253  1.00  0.00    -0.047 C  
HETATM   22  C   UNL     1      -6.170   8.529  70.776  1.00  0.00    -0.034 C  
BRANCH  22  23
HETATM   23  C   UNL     1      -6.753   9.907  70.692  1.00  0.00    -0.097 C  
HETATM   24  C   UNL     1      -6.267  10.648  69.460  1.00  0.00    -0.059 C  
ENDBRANCH  22  23
ENDBRANCH  20  21
ENDBRANCH  19  20
ENDBRANCH  17  18
ENDBRANCH  16  17
ENDBRANCH  14  15
ENDBRANCH  13  14
ENDBRANCH  11  12
ENDBRANCH  10  11
ENDBRANCH   8   9
ENDBRANCH   7   8
ENDBRANCH   6   7
ENDBRANCH   4   6
ENDBRANCH   3   4
ENDBRANCH   2   3
TORSDOF 15
ENDMDL
MODEL      480
REMARK 921   NORMALIZED FREE ENERGY PREDICTED BY IDOCK:   -1.89 KCAL/MOL
REMARK 922        TOTAL FREE ENERGY PREDICTED BY IDOCK:   -6.10 KCAL/MOL
REMARK 923 INTER-LIGAND FREE ENERGY PREDICTED BY IDOCK:   -5.95 KCAL/MOL
REMARK 924 INTRA-LIGAND FREE ENERGY PREDICTED BY IDOCK:   -0.15 KCAL/MOL
REMARK 927      BINDING AFFINITY PREDICTED BY RF-SCORE:    0.00 PKD
ROOT
HETATM    1  C   UNL     1      -8.281  20.966  67.160  1.00  0.00    -0.134 C  
HETATM    2  C   UNL     1      -9.381  19.923  67.088  1.00  0.00    -0.364 C  
ENDROOT
BRANCH   2   3
HETATM    3  O   UNL     1      -8.788  18.650  67.372  1.00  0.00    -0.269 OA 
BRANCH   3   4
HETATM    4  C   UNL     1      -8.813  17.776  66.327  1.00  0.00    -0.173 C  
HETATM    5  O   UNL     1      -7.856  17.474  65.632  1.00  0.00    -0.507 OA 
BRANCH   4   6
HETATM    6  C   UNL     1     -10.185  17.166  66.241  1.00  0.00    -0.340 C  
BRANCH   6   7
HETATM    7  C   UNL     1     -10.617  16.633  67.610  1.00  0.00    -0.321 C  
BRANCH   7   8
HETATM    8  C   UNL     1      -9.814  15.411  68.026  1.00  0.00    -0.216 C  
BRANCH   8   9
HETATM    9  C   UNL     1      -9.832  14.329  66.973  1.00  0.00    -0.254 C  
HETATM   10  C   UNL     1     -10.848  13.481  66.748  1.00  0.00    -0.284 C  
BRANCH  10  11
HETATM   11  C   UNL     1     -12.059  13.376  67.615  1.00  0.00    -0.311 C  
BRANCH  11  12
HETATM   12  C   UNL     1     -11.816  13.587  69.078  1.00  0.00    -0.385 C  
HETATM   13  C   UNL     1     -11.728  12.581  69.968  1.00  0.00    -0.297 C  
BRANCH  13  14
HETATM   14  C   UNL     1     -11.833  11.094  69.718  1.00  0.00    -0.422 C  
BRANCH  14  15
HETATM   15  C   UNL     1     -11.529  10.654  68.309  1.00  0.00    -0.318 C  
HETATM   16  C   UNL     1     -10.535   9.834  67.934  1.00  0.00    -0.288 C  
BRANCH  16  17
HETATM   17  C   UNL     1      -9.444   9.353  68.834  1.00  0.00    -0.154 C  
BRANCH  17  18
HETATM   18  C   UNL     1      -9.804   7.987  69.354  1.00  0.00    -0.181 C  
HETATM   19  C   UNL     1      -9.839   6.874  68.607  1.00  0.00    -0.145 C  
BRANCH  19  20
HETATM   20  C   UNL     1      -9.551   6.829  67.144  1.00  0.00    -0.177 C  
BRANCH  20  21
HETATM   21  C   UNL     1      -8.107   6.547  66.856  1.00  0.00    -0.113 C  
HETATM   22  C   UNL     1      -7.608   5.323  66.623  1.00  0.00    -0.088 C  
BRANCH  22  23
HETATM   23  C   UNL     1      -8.387   4.044  66.649  1.00  0.00    -0.104 C  
HETATM   24  C   UNL     1      -8.430   3.442  68.042  1.00  0.00    -0.106 C  
ENDBRANCH  22  23
ENDBRANCH  20  21
ENDBRANCH  19  20
ENDBRANCH  17  18
ENDBRANCH  16  17
ENDBRANCH  14  15
ENDBRANCH  13  14
ENDBRANCH  11  12
ENDBRANCH  10  11
ENDBRANCH   8   9
ENDBRANCH   7   8
ENDBRANCH   6   7
ENDBRANCH   4   6
ENDBRANCH   3   4
ENDBRANCH   2   3
TORSDOF 15
ENDMDL
MODEL      481
REMARK 921   NORMALIZED FREE ENERGY PREDICTED BY IDOCK:   -1.87 KCAL/MOL
REMARK 922        TOTAL FREE ENERGY PREDICTED BY IDOCK:   -6.06 KCAL/MOL
REMARK 923 INTER-LIGAND FREE ENERGY PREDICTED BY IDOCK:   -5.23 KCAL/MOL
REMARK 924 INTRA-LIGAND FREE ENERGY PREDICTED BY IDOCK:   -0.82 KCAL/MOL
REMARK 927      BINDING AFFINITY PREDICTED BY RF-SCORE:    0.00 PKD
ROOT
HETATM    1  C   UNL     1      -8.702  15.637  68.793  1.00  0.00    -0.197 C  
HETATM    2  C   UNL     1      -7.293  15.404  68.280  1.00  0.00    -0.112 C  
ENDROOT
BRANCH   2   3
HETATM    3  O   UNL     1      -7.353  14.343  67.319  1.00  0.00    -0.176 OA 
BRANCH   3   4
HETATM    4  C   UNL     1      -6.528  13.293  67.591  1.00  0.00    -0.162 C  
HETATM    5  O   UNL     1      -5.375  13.179  67.209  1.00  0.00    -0.343 OA 
BRANCH   4   6
HETATM    6  C   UNL     1      -7.239  12.352  68.525  1.00  0.00    -0.103 C  
BRANCH   6   7
HETATM    7  C   UNL     1      -8.430  11.699  67.817  1.00  0.00    -0.144 C  
BRANCH   7   8
HETATM    8  C   UNL     1      -9.464  11.179  68.803  1.00  0.00    -0.173 C  
BRANCH   8   9
HETATM    9  C   UNL     1     -10.585  10.437  68.118  1.00  0.00    -0.246 C  
HETATM   10  C   UNL     1     -11.001  10.647  66.859  1.00  0.00    -0.228 C  
BRANCH  10  11
HETATM   11  C   UNL     1     -10.517  11.763  65.993  1.00  0.00    -0.286 C  
BRANCH  11  12
HETATM   12  C   UNL     1     -10.233  11.389  64.570  1.00  0.00    -0.352 C  
HETATM   13  C   UNL     1      -9.367  10.422  64.216  1.00  0.00    -0.324 C  
BRANCH  13  14
HETATM   14  C   UNL     1      -8.536   9.531  65.112  1.00  0.00    -0.181 C  
BRANCH  14  15
HETATM   15  C   UNL     1      -8.344   8.120  64.618  1.00  0.00    -0.089 C  
HETATM   16  C   UNL     1      -8.636   6.999  65.295  1.00  0.00     0.001 C  
BRANCH  16  17
HETATM   17  C   UNL     1      -9.040   6.954  66.732  1.00  0.00    -0.162 C  
BRANCH  17  18
HETATM   18  C   UNL     1      -9.427   5.543  67.088  1.00  0.00    -0.122 C  
HETATM   19  C   UNL     1      -9.765   5.137  68.321  1.00  0.00    -0.191 C  
BRANCH  19  20
HETATM   20  C   UNL     1      -9.783   6.017  69.525  1.00  0.00    -0.182 C  
BRANCH  20  21
HETATM   21  C   UNL     1     -11.168   6.217  70.063  1.00  0.00    -0.471 C  
HETATM   22  C   UNL     1     -11.462   6.340  71.367  1.00  0.00    -0.352 C  
BRANCH  22  23
HETATM   23  C   UNL     1     -10.478   6.259  72.495  1.00  0.00    -0.228 C  
HETATM   24  C   UNL     1     -10.389   7.570  73.255  1.00  0.00    -0.412 C  
ENDBRANCH  22  23
ENDBRANCH  20  21
ENDBRANCH  19  20
ENDBRANCH  17  18
ENDBRANCH  16  17
ENDBRANCH  14  15
ENDBRANCH  13  14
ENDBRANCH  11  12
ENDBRANCH  10  11
ENDBRANCH   8   9
ENDBRANCH   7   8
ENDBRANCH   6   7
ENDBRANCH   4   6
ENDBRANCH   3   4
ENDBRANCH   2   3
TORSDOF 15
ENDMDL
MODEL      482
REMARK 921   NORMALIZED FREE ENERGY PREDICTED BY IDOCK:   -1.83 KCAL/MOL
REMARK 922        TOTAL FREE ENERGY PREDICTED BY IDOCK:   -5.98 KCAL/MOL
REMARK 923 INTER-LIGAND FREE ENERGY PREDICTED BY IDOCK:   -5.83 KCAL/MOL
REMARK 924 INTRA-LIGAND FREE ENERGY PREDICTED BY IDOCK:   -0.15 KCAL/MOL
REMARK 927      BINDING AFFINITY PREDICTED BY RF-SCORE:    0.00 PKD
ROOT
HETATM    1  C   UNL     1      -8.282  20.966  67.160  1.00  0.00    -0.134 C  
HETATM    2  C   UNL     1      -9.398  19.939  67.100  1.00  0.00    -0.364 C  
ENDROOT
BRANCH   2   3
HETATM    3  O   UNL     1      -8.821  18.658  67.383  1.00  0.00    -0.269 OA 
BRANCH   3   4
HETATM    4  C   UNL     1      -8.864  17.782  66.341  1.00  0.00    -0.231 C  
HETATM    5  O   UNL     1      -7.915  17.461  65.644  1.00  0.00    -0.477 OA 
BRANCH   4   6
HETATM    6  C   UNL     1     -10.248  17.198  66.259  1.00  0.00    -0.340 C  
BRANCH   6   7
HETATM    7  C   UNL     1     -10.686  16.676  67.631  1.00  0.00    -0.306 C  
BRANCH   7   8
HETATM    8  C   UNL     1      -9.908  15.437  68.046  1.00  0.00    -0.216 C  
BRANCH   8   9
HETATM    9  C   UNL     1      -9.953  14.355  66.995  1.00  0.00    -0.257 C  
HETATM   10  C   UNL     1     -10.989  13.531  66.771  1.00  0.00    -0.297 C  
BRANCH  10  11
HETATM   11  C   UNL     1     -12.201  13.455  67.639  1.00  0.00    -0.202 C  
BRANCH  11  12
HETATM   12  C   UNL     1     -11.951  13.660  69.102  1.00  0.00    -0.394 C  
HETATM   13  C   UNL     1     -11.890  12.653  69.992  1.00  0.00    -0.358 C  
BRANCH  13  14
HETATM   14  C   UNL     1     -12.035  11.169  69.743  1.00  0.00    -0.428 C  
BRANCH  14  15
HETATM   15  C   UNL     1     -11.743  10.720  68.333  1.00  0.00    -0.232 C  
HETATM   16  C   UNL     1     -10.772   9.873  67.958  1.00  0.00    -0.296 C  
BRANCH  16  17
HETATM   17  C   UNL     1      -9.695   9.362  68.858  1.00  0.00    -0.166 C  
BRANCH  17  18
HETATM   18  C   UNL     1      -9.681   7.859  68.801  1.00  0.00    -0.159 C  
HETATM   19  C   UNL     1      -9.293   7.142  67.736  1.00  0.00    -0.131 C  
BRANCH  19  20
HETATM   20  C   UNL     1      -8.843   7.730  66.441  1.00  0.00    -0.180 C  
BRANCH  20  21
HETATM   21  C   UNL     1      -7.359   7.934  66.394  1.00  0.00    -0.086 C  
HETATM   22  C   UNL     1      -6.745   8.839  65.615  1.00  0.00    -0.068 C  
BRANCH  22  23
HETATM   23  C   UNL     1      -7.422   9.757  64.644  1.00  0.00    -0.134 C  
HETATM   24  C   UNL     1      -7.574   9.115  63.277  1.00  0.00    -0.107 C  
ENDBRANCH  22  23
ENDBRANCH  20  21
ENDBRANCH  19  20
ENDBRANCH  17  18
ENDBRANCH  16  17
ENDBRANCH  14  15
ENDBRANCH  13  14
ENDBRANCH  11  12
ENDBRANCH  10  11
ENDBRANCH   8   9
ENDBRANCH   7   8
ENDBRANCH   6   7
ENDBRANCH   4   6
ENDBRANCH   3   4
ENDBRANCH   2   3
TORSDOF 15
ENDMDL
MODEL      483
REMARK 921   NORMALIZED FREE ENERGY PREDICTED BY IDOCK:   -1.79 KCAL/MOL
REMARK 922        TOTAL FREE ENERGY PREDICTED BY IDOCK:   -5.91 KCAL/MOL
REMARK 923 INTER-LIGAND FREE ENERGY PREDICTED BY IDOCK:   -5.40 KCAL/MOL
REMARK 924 INTRA-LIGAND FREE ENERGY PREDICTED BY IDOCK:   -0.52 KCAL/MOL
REMARK 927      BINDING AFFINITY PREDICTED BY RF-SCORE:    0.00 PKD
ROOT
HETATM    1  C   UNL     1      -5.682  13.475  67.897  1.00  0.00    -0.125 C  
HETATM    2  C   UNL     1      -6.246  14.878  68.030  1.00  0.00    -0.153 C  
ENDROOT
BRANCH   2   3
HETATM    3  O   UNL     1      -7.576  14.760  68.550  1.00  0.00    -0.108 OA 
BRANCH   3   4
HETATM    4  C   UNL     1      -8.555  15.091  67.662  1.00  0.00    -0.171 C  
HETATM    5  O   UNL     1      -8.432  15.120  66.448  1.00  0.00    -0.198 OA 
BRANCH   4   6
HETATM    6  C   UNL     1      -9.837  15.310  68.418  1.00  0.00    -0.216 C  
BRANCH   6   7
HETATM    7  C   UNL     1     -10.721  16.323  67.684  1.00  0.00    -0.311 C  
BRANCH   7   8
HETATM    8  C   UNL     1      -9.984  16.996  66.536  1.00  0.00    -0.318 C  
BRANCH   8   9
HETATM    9  C   UNL     1     -10.881  17.245  65.348  1.00  0.00    -0.024 C  
HETATM   10  C   UNL     1     -11.433  16.293  64.579  1.00  0.00    -0.171 C  
BRANCH  10  11
HETATM   11  C   UNL     1     -11.114  14.838  64.688  1.00  0.00    -0.337 C  
BRANCH  11  12
HETATM   12  C   UNL     1     -12.298  13.936  64.851  1.00  0.00    -0.445 C  
HETATM   13  C   UNL     1     -12.330  12.899  65.707  1.00  0.00    -0.437 C  
BRANCH  13  14
HETATM   14  C   UNL     1     -11.251  12.435  66.660  1.00  0.00    -0.366 C  
BRANCH  14  15
HETATM   15  C   UNL     1     -11.717  11.525  67.768  1.00  0.00    -0.299 C  
HETATM   16  C   UNL     1     -10.949  10.999  68.734  1.00  0.00    -0.270 C  
BRANCH  16  17
HETATM   17  C   UNL     1      -9.458  11.083  68.776  1.00  0.00    -0.190 C  
BRANCH  17  18
HETATM   18  C   UNL     1      -8.879   9.831  68.173  1.00  0.00    -0.119 C  
HETATM   19  C   UNL     1      -8.771   8.659  68.815  1.00  0.00    -0.135 C  
BRANCH  19  20
HETATM   20  C   UNL     1      -9.184   8.429  70.230  1.00  0.00    -0.154 C  
BRANCH  20  21
HETATM   21  C   UNL     1      -8.710   7.106  70.752  1.00  0.00    -0.147 C  
HETATM   22  C   UNL     1      -8.819   6.716  72.032  1.00  0.00    -0.135 C  
BRANCH  22  23
HETATM   23  C   UNL     1      -9.384   7.538  73.150  1.00  0.00    -0.258 C  
HETATM   24  C   UNL     1     -10.699   6.972  73.653  1.00  0.00    -0.310 C  
ENDBRANCH  22  23
ENDBRANCH  20  21
ENDBRANCH  19  20
ENDBRANCH  17  18
ENDBRANCH  16  17
ENDBRANCH  14  15
ENDBRANCH  13  14
ENDBRANCH  11  12
ENDBRANCH  10  11
ENDBRANCH   8   9
ENDBRANCH   7   8
ENDBRANCH   6   7
ENDBRANCH   4   6
ENDBRANCH   3   4
ENDBRANCH   2   3
TORSDOF 15
ENDMDL
MODEL      484
REMARK 921   NORMALIZED FREE ENERGY PREDICTED BY IDOCK:   -1.77 KCAL/MOL
REMARK 922        TOTAL FREE ENERGY PREDICTED BY IDOCK:   -5.87 KCAL/MOL
REMARK 923 INTER-LIGAND FREE ENERGY PREDICTED BY IDOCK:   -4.49 KCAL/MOL
REMARK 924 INTRA-LIGAND FREE ENERGY PREDICTED BY IDOCK:   -1.38 KCAL/MOL
REMARK 927      BINDING AFFINITY PREDICTED BY RF-SCORE:    0.00 PKD
ROOT
HETATM    1  C   UNL     1     -10.451   7.299  72.134  1.00  0.00    -0.233 C  
HETATM    2  C   UNL     1     -11.151   6.417  71.117  1.00  0.00    -0.291 C  
ENDROOT
BRANCH   2   3
HETATM    3  O   UNL     1     -10.139   5.769  70.338  1.00  0.00    -0.186 OA 
BRANCH   3   4
HETATM    4  C   UNL     1      -9.720   6.485  69.257  1.00  0.00    -0.144 C  
HETATM    5  O   UNL     1     -10.444   6.952  68.392  1.00  0.00    -0.183 OA 
BRANCH   4   6
HETATM    6  C   UNL     1      -8.235   6.694  69.362  1.00  0.00    -0.124 C  
BRANCH   6   7
HETATM    7  C   UNL     1      -7.487   5.439  68.902  1.00  0.00    -0.075 C  
BRANCH   7   8
HETATM    8  C   UNL     1      -8.197   4.742  67.752  1.00  0.00    -0.100 C  
BRANCH   8   9
HETATM    9  C   UNL     1      -7.380   4.755  66.483  1.00  0.00    -0.082 C  
HETATM   10  C   UNL     1      -7.244   5.805  65.658  1.00  0.00    -0.075 C  
BRANCH  10  11
HETATM   11  C   UNL     1      -8.013   7.079  65.789  1.00  0.00    -0.116 C  
BRANCH  11  12
HETATM   12  C   UNL     1      -7.585   8.179  64.867  1.00  0.00    -0.098 C  
HETATM   13  C   UNL     1      -8.237   9.351  64.757  1.00  0.00    -0.145 C  
BRANCH  13  14
HETATM   14  C   UNL     1      -9.470   9.813  65.501  1.00  0.00    -0.324 C  
BRANCH  14  15
HETATM   15  C   UNL     1     -10.047  11.126  65.038  1.00  0.00    -0.338 C  
HETATM   16  C   UNL     1     -10.125  12.254  65.760  1.00  0.00    -0.274 C  
BRANCH  16  17
HETATM   17  C   UNL     1      -9.810  12.355  67.216  1.00  0.00    -0.207 C  
BRANCH  17  18
HETATM   18  C   UNL     1     -11.035  12.828  67.951  1.00  0.00    -0.262 C  
HETATM   19  C   UNL     1     -11.762  12.070  68.785  1.00  0.00    -0.377 C  
BRANCH  19  20
HETATM   20  C   UNL     1     -11.479  10.636  69.087  1.00  0.00    -0.349 C  
BRANCH  20  21
HETATM   21  C   UNL     1     -11.089  10.423  70.519  1.00  0.00    -0.343 C  
HETATM   22  C   UNL     1     -11.780  10.895  71.568  1.00  0.00     0.499 C  
BRANCH  22  23
HETATM   23  C   UNL     1     -13.017  11.737  71.492  1.00  0.00    -0.446 C  
HETATM   24  C   UNL     1     -12.924  12.952  72.396  1.00  0.00    -0.214 C  
ENDBRANCH  22  23
ENDBRANCH  20  21
ENDBRANCH  19  20
ENDBRANCH  17  18
ENDBRANCH  16  17
ENDBRANCH  14  15
ENDBRANCH  13  14
ENDBRANCH  11  12
ENDBRANCH  10  11
ENDBRANCH   8   9
ENDBRANCH   7   8
ENDBRANCH   6   7
ENDBRANCH   4   6
ENDBRANCH   3   4
ENDBRANCH   2   3
TORSDOF 15
ENDMDL
MODEL      485
REMARK 921   NORMALIZED FREE ENERGY PREDICTED BY IDOCK:   -1.71 KCAL/MOL
REMARK 922        TOTAL FREE ENERGY PREDICTED BY IDOCK:   -5.77 KCAL/MOL
REMARK 923 INTER-LIGAND FREE ENERGY PREDICTED BY IDOCK:   -4.67 KCAL/MOL
REMARK 924 INTRA-LIGAND FREE ENERGY PREDICTED BY IDOCK:   -1.10 KCAL/MOL
REMARK 927      BINDING AFFINITY PREDICTED BY RF-SCORE:    0.00 PKD
ROOT
HETATM    1  C   UNL     1      -5.767  13.398  68.362  1.00  0.00    -0.087 C  
HETATM    2  C   UNL     1      -6.424  14.757  68.525  1.00  0.00    -0.092 C  
ENDROOT
BRANCH   2   3
HETATM    3  O   UNL     1      -7.762  14.537  68.986  1.00  0.00    -0.130 OA 
BRANCH   3   4
HETATM    4  C   UNL     1      -8.726  14.846  68.074  1.00  0.00    -0.165 C  
HETATM    5  O   UNL     1      -8.545  15.014  66.879  1.00  0.00    -0.225 OA 
BRANCH   4   6
HETATM    6  C   UNL     1     -10.062  14.842  68.766  1.00  0.00    -0.241 C  
BRANCH   6   7
HETATM    7  C   UNL     1     -10.781  16.176  68.540  1.00  0.00    -0.300 C  
BRANCH   7   8
HETATM    8  C   UNL     1      -9.847  17.242  67.989  1.00  0.00    -0.284 C  
BRANCH   8   9
HETATM    9  C   UNL     1     -10.526  18.128  66.974  1.00  0.00    -0.385 C  
HETATM   10  C   UNL     1     -10.872  17.762  65.730  1.00  0.00     0.037 C  
BRANCH  10  11
HETATM   11  C   UNL     1     -10.491  16.460  65.103  1.00  0.00    -0.218 C  
BRANCH  11  12
HETATM   12  C   UNL     1     -11.637  15.629  64.614  1.00  0.00    -0.249 C  
HETATM   13  C   UNL     1     -11.696  14.292  64.752  1.00  0.00    -0.420 C  
BRANCH  13  14
HETATM   14  C   UNL     1     -10.690  13.370  65.404  1.00  0.00    -0.307 C  
BRANCH  14  15
HETATM   15  C   UNL     1     -11.221  12.017  65.803  1.00  0.00    -0.383 C  
HETATM   16  C   UNL     1     -10.695  11.204  66.732  1.00  0.00    -0.326 C  
BRANCH  16  17
HETATM   17  C   UNL     1      -9.383  11.425  67.411  1.00  0.00    -0.171 C  
BRANCH  17  18
HETATM   18  C   UNL     1      -8.274  11.015  66.480  1.00  0.00    -0.161 C  
HETATM   19  C   UNL     1      -7.898   9.747  66.258  1.00  0.00    -0.106 C  
BRANCH  19  20
HETATM   20  C   UNL     1      -8.507   8.557  66.920  1.00  0.00    -0.113 C  
BRANCH  20  21
HETATM   21  C   UNL     1      -8.835   7.468  65.944  1.00  0.00    -0.157 C  
HETATM   22  C   UNL     1      -7.928   6.637  65.405  1.00  0.00    -0.121 C  
BRANCH  22  23
HETATM   23  C   UNL     1      -6.451   6.680  65.651  1.00  0.00    -0.050 C  
HETATM   24  C   UNL     1      -5.979   5.474  66.443  1.00  0.00    -0.018 C  
ENDBRANCH  22  23
ENDBRANCH  20  21
ENDBRANCH  19  20
ENDBRANCH  17  18
ENDBRANCH  16  17
ENDBRANCH  14  15
ENDBRANCH  13  14
ENDBRANCH  11  12
ENDBRANCH  10  11
ENDBRANCH   8   9
ENDBRANCH   7   8
ENDBRANCH   6   7
ENDBRANCH   4   6
ENDBRANCH   3   4
ENDBRANCH   2   3
TORSDOF 15
ENDMDL
MODEL      486
REMARK 921   NORMALIZED FREE ENERGY PREDICTED BY IDOCK:   -1.67 KCAL/MOL
REMARK 922        TOTAL FREE ENERGY PREDICTED BY IDOCK:   -5.68 KCAL/MOL
REMARK 923 INTER-LIGAND FREE ENERGY PREDICTED BY IDOCK:   -3.86 KCAL/MOL
REMARK 924 INTRA-LIGAND FREE ENERGY PREDICTED BY IDOCK:   -1.82 KCAL/MOL
REMARK 927      BINDING AFFINITY PREDICTED BY RF-SCORE:    0.00 PKD
ROOT
HETATM    1  C   UNL     1     -14.114   8.812  72.473  1.00  0.00    -0.421 C  
HETATM    2  C   UNL     1     -13.293   9.084  71.226  1.00  0.00    -0.206 C  
ENDROOT
BRANCH   2   3
HETATM    3  O   UNL     1     -12.059   9.681  71.643  1.00  0.00    -0.367 OA 
BRANCH   3   4
HETATM    4  C   UNL     1     -11.012   8.812  71.711  1.00  0.00    -0.345 C  
HETATM    5  O   UNL     1     -10.201   8.748  72.622  1.00  0.00    -0.188 OA 
BRANCH   4   6
HETATM    6  C   UNL     1     -11.083   7.879  70.534  1.00  0.00    -0.260 C  
BRANCH   6   7
HETATM    7  C   UNL     1     -10.280   8.444  69.358  1.00  0.00    -0.208 C  
BRANCH   7   8
HETATM    8  C   UNL     1      -9.499   7.363  68.628  1.00  0.00    -0.139 C  
BRANCH   8   9
HETATM    9  C   UNL     1      -8.022   7.664  68.570  1.00  0.00    -0.123 C  
HETATM   10  C   UNL     1      -7.043   6.833  68.964  1.00  0.00    -0.089 C  
BRANCH  10  11
HETATM   11  C   UNL     1      -7.277   5.538  69.670  1.00  0.00    -0.065 C  
BRANCH  11  12
HETATM   12  C   UNL     1      -8.179   4.578  68.958  1.00  0.00    -0.082 C  
HETATM   13  C   UNL     1      -9.217   3.958  69.548  1.00  0.00    -0.226 C  
BRANCH  13  14
HETATM   14  C   UNL     1      -9.698   4.084  70.976  1.00  0.00    -0.252 C  
BRANCH  14  15
HETATM   15  C   UNL     1      -9.604   2.827  71.802  1.00  0.00    -0.218 C  
HETATM   16  C   UNL     1      -8.972   2.699  72.979  1.00  0.00    -0.092 C  
BRANCH  16  17
HETATM   17  C   UNL     1      -8.096   3.743  73.591  1.00  0.00    -0.087 C  
BRANCH  17  18
HETATM   18  C   UNL     1      -8.891   5.009  73.766  1.00  0.00    -0.115 C  
HETATM   19  C   UNL     1      -8.407   6.243  73.568  1.00  0.00    -0.121 C  
BRANCH  19  20
HETATM   20  C   UNL     1      -7.001   6.546  73.169  1.00  0.00    -0.077 C  
BRANCH  20  21
HETATM   21  C   UNL     1      -6.462   7.760  73.863  1.00  0.00    -0.094 C  
HETATM   22  C   UNL     1      -6.107   8.893  73.237  1.00  0.00    -0.019 C  
BRANCH  22  23
HETATM   23  C   UNL     1      -6.149   9.122  71.757  1.00  0.00    -0.055 C  
HETATM   24  C   UNL     1      -5.421  10.395  71.366  1.00  0.00    -0.017 C  
ENDBRANCH  22  23
ENDBRANCH  20  21
ENDBRANCH  19  20
ENDBRANCH  17  18
ENDBRANCH  16  17
ENDBRANCH  14  15
ENDBRANCH  13  14
ENDBRANCH  11  12
ENDBRANCH  10  11
ENDBRANCH   8   9
ENDBRANCH   7   8
ENDBRANCH   6   7
ENDBRANCH   4   6
ENDBRANCH   3   4
ENDBRANCH   2   3
TORSDOF 15
ENDMDL
MODEL      487
REMARK 921   NORMALIZED FREE ENERGY PREDICTED BY IDOCK:   -1.63 KCAL/MOL
REMARK 922        TOTAL FREE ENERGY PREDICTED BY IDOCK:   -5.61 KCAL/MOL
REMARK 923 INTER-LIGAND FREE ENERGY PREDICTED BY IDOCK:   -3.91 KCAL/MOL
REMARK 924 INTRA-LIGAND FREE ENERGY PREDICTED BY IDOCK:   -1.70 KCAL/MOL
REMARK 927      BINDING AFFINITY PREDICTED BY RF-SCORE:    0.00 PKD
ROOT
HETATM    1  C   UNL     1      -8.013   7.454  71.148  1.00  0.00    -0.100 C  
HETATM    2  C   UNL     1      -6.609   7.948  71.446  1.00  0.00    -0.042 C  
ENDROOT
BRANCH   2   3
HETATM    3  O   UNL     1      -6.617   9.375  71.314  1.00  0.00    -0.180 OA 
BRANCH   3   4
HETATM    4  C   UNL     1      -7.541   9.850  70.433  1.00  0.00    -0.099 C  
HETATM    5  O   UNL     1      -8.737   9.963  70.651  1.00  0.00    -0.105 OA 
BRANCH   4   6
HETATM    6  C   UNL     1      -6.830  10.311  69.191  1.00  0.00    -0.062 C  
BRANCH   6   7
HETATM    7  C   UNL     1      -7.552  11.516  68.581  1.00  0.00    -0.134 C  
BRANCH   7   8
HETATM    8  C   UNL     1      -6.596  12.444  67.848  1.00  0.00    -0.097 C  
BRANCH   8   9
HETATM    9  C   UNL     1      -5.418  12.842  68.703  1.00  0.00    -0.065 C  
HETATM   10  C   UNL     1      -5.474  13.647  69.777  1.00  0.00    -0.094 C  
BRANCH  10  11
HETATM   11  C   UNL     1      -6.693  14.401  70.196  1.00  0.00    -0.053 C  
BRANCH  11  12
HETATM   12  C   UNL     1      -6.868  15.740  69.547  1.00  0.00    -0.187 C  
HETATM   13  C   UNL     1      -7.729  15.968  68.539  1.00  0.00    -0.158 C  
BRANCH  13  14
HETATM   14  C   UNL     1      -8.674  14.994  67.872  1.00  0.00    -0.155 C  
BRANCH  14  15
HETATM   15  C   UNL     1      -9.282  15.470  66.577  1.00  0.00    -0.324 C  
HETATM   16  C   UNL     1     -10.192  14.812  65.842  1.00  0.00    -0.331 C  
BRANCH  16  17
HETATM   17  C   UNL     1     -10.630  13.406  66.090  1.00  0.00    -0.294 C  
BRANCH  17  18
HETATM   18  C   UNL     1      -9.701  12.468  65.368  1.00  0.00    -0.102 C  
HETATM   19  C   UNL     1      -9.805  11.131  65.388  1.00  0.00    -0.289 C  
BRANCH  19  20
HETATM   20  C   UNL     1     -10.842  10.375  66.149  1.00  0.00     0.011 C  
BRANCH  20  21
HETATM   21  C   UNL     1     -10.374   9.994  67.521  1.00  0.00    -0.282 C  
HETATM   22  C   UNL     1     -10.976  10.376  68.659  1.00  0.00    -0.288 C  
BRANCH  22  23
HETATM   23  C   UNL     1     -12.175  11.269  68.753  1.00  0.00    -0.101 C  
HETATM   24  C   UNL     1     -11.877  12.527  69.549  1.00  0.00    -0.375 C  
ENDBRANCH  22  23
ENDBRANCH  20  21
ENDBRANCH  19  20
ENDBRANCH  17  18
ENDBRANCH  16  17
ENDBRANCH  14  15
ENDBRANCH  13  14
ENDBRANCH  11  12
ENDBRANCH  10  11
ENDBRANCH   8   9
ENDBRANCH   7   8
ENDBRANCH   6   7
ENDBRANCH   4   6
ENDBRANCH   3   4
ENDBRANCH   2   3
TORSDOF 15
ENDMDL
MODEL      488
REMARK 921   NORMALIZED FREE ENERGY PREDICTED BY IDOCK:   -1.56 KCAL/MOL
REMARK 922        TOTAL FREE ENERGY PREDICTED BY IDOCK:   -5.48 KCAL/MOL
REMARK 923 INTER-LIGAND FREE ENERGY PREDICTED BY IDOCK:   -4.11 KCAL/MOL
REMARK 924 INTRA-LIGAND FREE ENERGY PREDICTED BY IDOCK:   -1.37 KCAL/MOL
REMARK 927      BINDING AFFINITY PREDICTED BY RF-SCORE:    0.00 PKD
ROOT
HETATM    1  C   UNL     1      -9.093  19.609  69.037  1.00  0.00    -0.215 C  
HETATM    2  C   UNL     1     -10.129  20.332  68.195  1.00  0.00    -0.278 C  
ENDROOT
BRANCH   2   3
HETATM    3  O   UNL     1      -9.609  20.433  66.864  1.00  0.00    -0.411 OA 
BRANCH   3   4
HETATM    4  C   UNL     1     -10.137  19.533  65.988  1.00  0.00    -0.436 C  
HETATM    5  O   UNL     1     -10.887  19.799  65.063  1.00  0.00    -0.280 OA 
BRANCH   4   6
HETATM    6  C   UNL     1      -9.559  18.176  66.284  1.00  0.00    -0.246 C  
BRANCH   6   7
HETATM    7  C   UNL     1      -8.112  18.095  65.789  1.00  0.00     0.172 C  
BRANCH   7   8
HETATM    8  C   UNL     1      -7.472  16.755  66.116  1.00  0.00    -0.119 C  
BRANCH   8   9
HETATM    9  C   UNL     1      -6.105  16.910  66.737  1.00  0.00    -0.216 C  
HETATM   10  C   UNL     1      -5.778  16.564  67.992  1.00  0.00    -0.123 C  
BRANCH  10  11
HETATM   11  C   UNL     1      -6.764  16.118  69.022  1.00  0.00    -0.170 C  
BRANCH  11  12
HETATM   12  C   UNL     1      -6.690  14.668  69.388  1.00  0.00    -0.147 C  
HETATM   13  C   UNL     1      -7.539  13.738  68.912  1.00  0.00    -0.040 C  
BRANCH  13  14
HETATM   14  C   UNL     1      -8.687  13.922  67.945  1.00  0.00    -0.184 C  
BRANCH  14  15
HETATM   15  C   UNL     1     -10.055  13.634  68.507  1.00  0.00    -0.219 C  
HETATM   16  C   UNL     1     -10.608  12.420  68.658  1.00  0.00    -0.243 C  
BRANCH  16  17
HETATM   17  C   UNL     1     -10.028  11.150  68.129  1.00  0.00    -0.189 C  
BRANCH  17  18
HETATM   18  C   UNL     1      -9.532  11.384  66.727  1.00  0.00    -0.197 C  
HETATM   19  C   UNL     1      -8.591  10.645  66.122  1.00  0.00    -0.163 C  
BRANCH  19  20
HETATM   20  C   UNL     1      -7.877   9.499  66.757  1.00  0.00    -0.101 C  
BRANCH  20  21
HETATM   21  C   UNL     1      -6.892   9.948  67.795  1.00  0.00    -0.080 C  
HETATM   22  C   UNL     1      -6.867   9.494  69.058  1.00  0.00    -0.054 C  
BRANCH  22  23
HETATM   23  C   UNL     1      -7.827   8.509  69.651  1.00  0.00    -0.095 C  
HETATM   24  C   UNL     1      -7.502   8.214  71.104  1.00  0.00    -0.074 C  
ENDBRANCH  22  23
ENDBRANCH  20  21
ENDBRANCH  19  20
ENDBRANCH  17  18
ENDBRANCH  16  17
ENDBRANCH  14  15
ENDBRANCH  13  14
ENDBRANCH  11  12
ENDBRANCH  10  11
ENDBRANCH   8   9
ENDBRANCH   7   8
ENDBRANCH   6   7
ENDBRANCH   4   6
ENDBRANCH   3   4
ENDBRANCH   2   3
TORSDOF 15
ENDMDL
MODEL      489
REMARK 921   NORMALIZED FREE ENERGY PREDICTED BY IDOCK:   -1.53 KCAL/MOL
REMARK 922        TOTAL FREE ENERGY PREDICTED BY IDOCK:   -5.43 KCAL/MOL
REMARK 923 INTER-LIGAND FREE ENERGY PREDICTED BY IDOCK:   -5.29 KCAL/MOL
REMARK 924 INTRA-LIGAND FREE ENERGY PREDICTED BY IDOCK:   -0.14 KCAL/MOL
REMARK 927      BINDING AFFINITY PREDICTED BY RF-SCORE:    0.00 PKD
ROOT
HETATM    1  C   UNL     1      -9.197  19.360  68.886  1.00  0.00    -0.391 C  
HETATM    2  C   UNL     1     -10.560  19.836  68.417  1.00  0.00    -0.118 C  
ENDROOT
BRANCH   2   3
HETATM    3  O   UNL     1     -10.362  20.605  67.224  1.00  0.00    -0.217 OA 
BRANCH   3   4
HETATM    4  C   UNL     1     -10.381  19.872  66.076  1.00  0.00    -0.486 C  
HETATM    5  O   UNL     1     -11.326  19.781  65.308  1.00  0.00    -0.198 OA 
BRANCH   4   6
HETATM    6  C   UNL     1      -9.016  19.281  65.859  1.00  0.00     0.035 C  
BRANCH   6   7
HETATM    7  C   UNL     1      -7.991  20.390  65.601  1.00  0.00     0.138 C  
BRANCH   7   8
HETATM    8  C   UNL     1      -6.599  19.832  65.345  1.00  0.00    -0.314 C  
BRANCH   8   9
HETATM    9  C   UNL     1      -5.652  20.114  66.485  1.00  0.00    -0.185 C  
HETATM   10  C   UNL     1      -5.460  19.320  67.551  1.00  0.00    -0.170 C  
BRANCH  10  11
HETATM   11  C   UNL     1      -6.278  18.107  67.849  1.00  0.00    -0.174 C  
BRANCH  11  12
HETATM   12  C   UNL     1      -6.573  17.232  66.670  1.00  0.00    -0.268 C  
HETATM   13  C   UNL     1      -7.601  16.364  66.628  1.00  0.00    -0.288 C  
BRANCH  13  14
HETATM   14  C   UNL     1      -8.645  16.094  67.688  1.00  0.00    -0.181 C  
BRANCH  14  15
HETATM   15  C   UNL     1      -8.502  14.780  68.413  1.00  0.00    -0.157 C  
HETATM   16  C   UNL     1      -8.610  13.559  67.866  1.00  0.00    -0.182 C  
BRANCH  16  17
HETATM   17  C   UNL     1      -9.068  13.291  66.470  1.00  0.00    -0.130 C  
BRANCH  17  18
HETATM   18  C   UNL     1     -10.500  13.734  66.330  1.00  0.00    -0.291 C  
HETATM   19  C   UNL     1     -11.465  13.011  65.744  1.00  0.00    -0.367 C  
BRANCH  19  20
HETATM   20  C   UNL     1     -11.257  11.671  65.121  1.00  0.00    -0.262 C  
BRANCH  20  21
HETATM   21  C   UNL     1     -10.347  11.732  63.932  1.00  0.00    -0.428 C  
HETATM   22  C   UNL     1      -9.466  10.774  63.604  1.00  0.00    -0.325 C  
BRANCH  22  23
HETATM   23  C   UNL     1      -9.216   9.517  64.380  1.00  0.00    -0.192 C  
HETATM   24  C   UNL     1      -8.331   9.770  65.587  1.00  0.00    -0.138 C  
ENDBRANCH  22  23
ENDBRANCH  20  21
ENDBRANCH  19  20
ENDBRANCH  17  18
ENDBRANCH  16  17
ENDBRANCH  14  15
ENDBRANCH  13  14
ENDBRANCH  11  12
ENDBRANCH  10  11
ENDBRANCH   8   9
ENDBRANCH   7   8
ENDBRANCH   6   7
ENDBRANCH   4   6
ENDBRANCH   3   4
ENDBRANCH   2   3
TORSDOF 15
ENDMDL
MODEL      490
REMARK 921   NORMALIZED FREE ENERGY PREDICTED BY IDOCK:   -1.51 KCAL/MOL
REMARK 922        TOTAL FREE ENERGY PREDICTED BY IDOCK:   -5.38 KCAL/MOL
REMARK 923 INTER-LIGAND FREE ENERGY PREDICTED BY IDOCK:   -3.28 KCAL/MOL
REMARK 924 INTRA-LIGAND FREE ENERGY PREDICTED BY IDOCK:   -2.10 KCAL/MOL
REMARK 927      BINDING AFFINITY PREDICTED BY RF-SCORE:    0.00 PKD
ROOT
HETATM    1  C   UNL     1     -14.113   8.796  72.416  1.00  0.00    -0.485 C  
HETATM    2  C   UNL     1     -13.496   9.030  71.049  1.00  0.00     0.023 C  
ENDROOT
BRANCH   2   3
HETATM    3  O   UNL     1     -12.166   9.521  71.253  1.00  0.00    -0.308 OA 
BRANCH   3   4
HETATM    4  C   UNL     1     -11.188   8.605  71.010  1.00  0.00    -0.271 C  
HETATM    5  O   UNL     1     -10.256   8.346  71.755  1.00  0.00    -0.208 OA 
BRANCH   4   6
HETATM    6  C   UNL     1     -11.504   7.893  69.723  1.00  0.00     0.216 C  
BRANCH   6   7
HETATM    7  C   UNL     1     -10.771   8.557  68.554  1.00  0.00    -0.080 C  
BRANCH   7   8
HETATM    8  C   UNL     1     -10.221   7.536  67.571  1.00  0.00    -0.288 C  
BRANCH   8   9
HETATM    9  C   UNL     1      -9.890   8.150  66.233  1.00  0.00    -0.193 C  
HETATM   10  C   UNL     1      -8.688   8.111  65.636  1.00  0.00    -0.176 C  
BRANCH  10  11
HETATM   11  C   UNL     1      -7.447   7.588  66.283  1.00  0.00    -0.083 C  
BRANCH  11  12
HETATM   12  C   UNL     1      -7.468   6.127  66.611  1.00  0.00    -0.090 C  
HETATM   13  C   UNL     1      -7.357   5.646  67.863  1.00  0.00    -0.073 C  
BRANCH  13  14
HETATM   14  C   UNL     1      -7.208   6.416  69.156  1.00  0.00    -0.090 C  
BRANCH  14  15
HETATM   15  C   UNL     1      -5.851   6.327  69.806  1.00  0.00    -0.018 C  
HETATM   16  C   UNL     1      -5.131   7.357  70.278  1.00  0.00    -0.023 C  
BRANCH  16  17
HETATM   17  C   UNL     1      -5.475   8.796  70.080  1.00  0.00    -0.028 C  
BRANCH  17  18
HETATM   18  C   UNL     1      -6.893   9.028  70.529  1.00  0.00    -0.061 C  
HETATM   19  C   UNL     1      -7.781   9.793  69.877  1.00  0.00    -0.162 C  
BRANCH  19  20
HETATM   20  C   UNL     1      -7.487  10.548  68.624  1.00  0.00    -0.095 C  
BRANCH  20  21
HETATM   21  C   UNL     1      -8.158  11.888  68.597  1.00  0.00    -0.086 C  
HETATM   22  C   UNL     1      -9.097  12.245  67.707  1.00  0.00    -0.191 C  
BRANCH  22  23
HETATM   23  C   UNL     1      -9.599  11.395  66.580  1.00  0.00    -0.220 C  
HETATM   24  C   UNL     1     -10.438  12.198  65.602  1.00  0.00    -0.290 C  
ENDBRANCH  22  23
ENDBRANCH  20  21
ENDBRANCH  19  20
ENDBRANCH  17  18
ENDBRANCH  16  17
ENDBRANCH  14  15
ENDBRANCH  13  14
ENDBRANCH  11  12
ENDBRANCH  10  11
ENDBRANCH   8   9
ENDBRANCH   7   8
ENDBRANCH   6   7
ENDBRANCH   4   6
ENDBRANCH   3   4
ENDBRANCH   2   3
TORSDOF 15
ENDMDL
MODEL      491
REMARK 921   NORMALIZED FREE ENERGY PREDICTED BY IDOCK:   -1.49 KCAL/MOL
REMARK 922        TOTAL FREE ENERGY PREDICTED BY IDOCK:   -5.35 KCAL/MOL
REMARK 923 INTER-LIGAND FREE ENERGY PREDICTED BY IDOCK:   -5.31 KCAL/MOL
REMARK 924 INTRA-LIGAND FREE ENERGY PREDICTED BY IDOCK:   -0.04 KCAL/MOL
REMARK 927      BINDING AFFINITY PREDICTED BY RF-SCORE:    0.00 PKD
ROOT
HETATM    1  C   UNL     1      -6.611   8.423  67.189  1.00  0.00    -0.058 C  
HETATM    2  C   UNL     1      -7.655   7.627  67.951  1.00  0.00    -0.117 C  
ENDROOT
BRANCH   2   3
HETATM    3  O   UNL     1      -8.837   7.584  67.144  1.00  0.00    -0.122 OA 
BRANCH   3   4
HETATM    4  C   UNL     1      -9.812   6.762  67.623  1.00  0.00    -0.128 C  
HETATM    5  O   UNL     1     -10.258   5.781  67.049  1.00  0.00    -0.166 OA 
BRANCH   4   6
HETATM    6  C   UNL     1     -10.172   7.200  69.016  1.00  0.00    -0.191 C  
BRANCH   6   7
HETATM    7  C   UNL     1     -10.654   6.004  69.842  1.00  0.00    -0.345 C  
BRANCH   7   8
HETATM    8  C   UNL     1     -10.697   6.319  71.330  1.00  0.00    -0.299 C  
BRANCH   8   9
HETATM    9  C   UNL     1     -12.104   6.539  71.828  1.00  0.00    -0.393 C  
HETATM   10  C   UNL     1     -12.657   7.734  72.092  1.00  0.00    -0.250 C  
BRANCH  10  11
HETATM   11  C   UNL     1     -11.905   9.025  72.084  1.00  0.00    -0.384 C  
BRANCH  11  12
HETATM   12  C   UNL     1     -12.087   9.861  70.855  1.00  0.00    -0.431 C  
HETATM   13  C   UNL     1     -12.649  11.083  70.865  1.00  0.00    -0.488 C  
BRANCH  13  14
HETATM   14  C   UNL     1     -13.184  11.861  72.047  1.00  0.00    -0.461 C  
BRANCH  14  15
HETATM   15  C   UNL     1     -13.985  13.089  71.700  1.00  0.00     0.333 C  
HETATM   16  C   UNL     1     -13.500  14.329  71.531  1.00  0.00    -0.426 C  
BRANCH  16  17
HETATM   17  C   UNL     1     -12.096  14.740  71.833  1.00  0.00    -0.409 C  
BRANCH  17  18
HETATM   18  C   UNL     1     -12.001  16.241  71.772  1.00  0.00    -0.473 C  
HETATM   19  C   UNL     1     -11.514  16.930  70.730  1.00  0.00     0.665 C  
BRANCH  19  20
HETATM   20  C   UNL     1     -10.969  16.309  69.487  1.00  0.00    -0.339 C  
BRANCH  20  21
HETATM   21  C   UNL     1      -9.920  15.279  69.778  1.00  0.00    -0.210 C  
HETATM   22  C   UNL     1      -8.772  15.155  69.094  1.00  0.00    -0.216 C  
BRANCH  22  23
HETATM   23  C   UNL     1      -8.365  15.984  67.914  1.00  0.00    -0.158 C  
HETATM   24  C   UNL     1      -9.565  16.612  67.230  1.00  0.00    -0.243 C  
ENDBRANCH  22  23
ENDBRANCH  20  21
ENDBRANCH  19  20
ENDBRANCH  17  18
ENDBRANCH  16  17
ENDBRANCH  14  15
ENDBRANCH  13  14
ENDBRANCH  11  12
ENDBRANCH  10  11
ENDBRANCH   8   9
ENDBRANCH   7   8
ENDBRANCH   6   7
ENDBRANCH   4   6
ENDBRANCH   3   4
ENDBRANCH   2   3
TORSDOF 15
ENDMDL
MODEL      492
REMARK 921   NORMALIZED FREE ENERGY PREDICTED BY IDOCK:   -1.41 KCAL/MOL
REMARK 922        TOTAL FREE ENERGY PREDICTED BY IDOCK:   -5.20 KCAL/MOL
REMARK 923 INTER-LIGAND FREE ENERGY PREDICTED BY IDOCK:   -5.07 KCAL/MOL
REMARK 924 INTRA-LIGAND FREE ENERGY PREDICTED BY IDOCK:   -0.13 KCAL/MOL
REMARK 927      BINDING AFFINITY PREDICTED BY RF-SCORE:    0.00 PKD
ROOT
HETATM    1  C   UNL     1      -7.909  10.517  68.887  1.00  0.00    -0.124 C  
HETATM    2  C   UNL     1      -9.260  11.208  68.835  1.00  0.00    -0.096 C  
ENDROOT
BRANCH   2   3
HETATM    3  O   UNL     1      -9.443  11.698  67.502  1.00  0.00    -0.168 OA 
BRANCH   3   4
HETATM    4  C   UNL     1     -10.166  12.850  67.423  1.00  0.00    -0.230 C  
HETATM    5  O   UNL     1      -9.761  13.964  67.714  1.00  0.00    -0.215 OA 
BRANCH   4   6
HETATM    6  C   UNL     1     -11.508  12.536  66.820  1.00  0.00    -0.422 C  
BRANCH   6   7
HETATM    7  C   UNL     1     -11.359  12.215  65.330  1.00  0.00    -0.386 C  
BRANCH   7   8
HETATM    8  C   UNL     1      -9.919  12.346  64.859  1.00  0.00    -0.207 C  
BRANCH   8   9
HETATM    9  C   UNL     1      -9.708  11.751  63.488  1.00  0.00    -0.325 C  
HETATM   10  C   UNL     1      -9.557  10.443  63.224  1.00  0.00    -0.353 C  
BRANCH  10  11
HETATM   11  C   UNL     1      -9.415   9.388  64.271  1.00  0.00     0.177 C  
BRANCH  11  12
HETATM   12  C   UNL     1      -8.248   8.466  64.092  1.00  0.00    -0.122 C  
HETATM   13  C   UNL     1      -7.732   7.720  65.086  1.00  0.00    -0.101 C  
BRANCH  13  14
HETATM   14  C   UNL     1      -8.188   7.629  66.525  1.00  0.00    -0.125 C  
BRANCH  14  15
HETATM   15  C   UNL     1      -9.672   7.780  66.742  1.00  0.00    -0.296 C  
HETATM   16  C   UNL     1     -10.450   6.972  67.478  1.00  0.00    -0.320 C  
BRANCH  16  17
HETATM   17  C   UNL     1     -10.009   5.673  68.068  1.00  0.00    -0.178 C  
BRANCH  17  18
HETATM   18  C   UNL     1      -9.055   5.948  69.200  1.00  0.00    -0.125 C  
HETATM   19  C   UNL     1      -9.264   5.586  70.474  1.00  0.00    -0.179 C  
BRANCH  19  20
HETATM   20  C   UNL     1     -10.485   4.882  70.963  1.00  0.00    -0.164 C  
BRANCH  20  21
HETATM   21  C   UNL     1     -11.124   5.588  72.121  1.00  0.00    -0.272 C  
HETATM   22  C   UNL     1     -11.388   5.012  73.305  1.00  0.00    -0.393 C  
BRANCH  22  23
HETATM   23  C   UNL     1     -11.131   3.578  73.655  1.00  0.00    -0.314 C  
HETATM   24  C   UNL     1      -9.645   3.276  73.731  1.00  0.00    -0.130 C  
ENDBRANCH  22  23
ENDBRANCH  20  21
ENDBRANCH  19  20
ENDBRANCH  17  18
ENDBRANCH  16  17
ENDBRANCH  14  15
ENDBRANCH  13  14
ENDBRANCH  11  12
ENDBRANCH  10  11
ENDBRANCH   8   9
ENDBRANCH   7   8
ENDBRANCH   6   7
ENDBRANCH   4   6
ENDBRANCH   3   4
ENDBRANCH   2   3
TORSDOF 15
ENDMDL
MODEL      493
REMARK 921   NORMALIZED FREE ENERGY PREDICTED BY IDOCK:   -1.40 KCAL/MOL
REMARK 922        TOTAL FREE ENERGY PREDICTED BY IDOCK:   -5.17 KCAL/MOL
REMARK 923 INTER-LIGAND FREE ENERGY PREDICTED BY IDOCK:   -4.69 KCAL/MOL
REMARK 924 INTRA-LIGAND FREE ENERGY PREDICTED BY IDOCK:   -0.49 KCAL/MOL
REMARK 927      BINDING AFFINITY PREDICTED BY RF-SCORE:    0.00 PKD
ROOT
HETATM    1  C   UNL     1     -10.772   4.721  65.643  1.00  0.00    -0.188 C  
HETATM    2  C   UNL     1      -9.662   5.436  66.391  1.00  0.00    -0.166 C  
ENDROOT
BRANCH   2   3
HETATM    3  O   UNL     1      -8.538   4.550  66.446  1.00  0.00    -0.112 OA 
BRANCH   3   4
HETATM    4  C   UNL     1      -8.439   3.842  67.605  1.00  0.00    -0.095 C  
HETATM    5  O   UNL     1      -7.810   2.807  67.753  1.00  0.00    -0.060 OA 
BRANCH   4   6
HETATM    6  C   UNL     1      -9.145   4.601  68.695  1.00  0.00    -0.156 C  
BRANCH   6   7
HETATM    7  C   UNL     1      -8.517   4.285  70.056  1.00  0.00    -0.089 C  
BRANCH   7   8
HETATM    8  C   UNL     1      -7.086   4.788  70.155  1.00  0.00    -0.049 C  
BRANCH   8   9
HETATM    9  C   UNL     1      -7.007   6.177  70.740  1.00  0.00    -0.067 C  
HETATM   10  C   UNL     1      -7.563   6.565  71.898  1.00  0.00    -0.094 C  
BRANCH  10  11
HETATM   11  C   UNL     1      -8.484   5.716  72.711  1.00  0.00    -0.120 C  
BRANCH  11  12
HETATM   12  C   UNL     1      -9.651   6.437  73.312  1.00  0.00    -0.158 C  
HETATM   13  C   UNL     1     -10.369   7.365  72.654  1.00  0.00    -0.292 C  
BRANCH  13  14
HETATM   14  C   UNL     1     -10.189   7.860  71.236  1.00  0.00    -0.218 C  
BRANCH  14  15
HETATM   15  C   UNL     1      -9.823   9.316  71.104  1.00  0.00    -0.342 C  
HETATM   16  C   UNL     1     -10.314  10.176  70.199  1.00  0.00    -0.280 C  
BRANCH  16  17
HETATM   17  C   UNL     1     -11.182   9.793  69.046  1.00  0.00    -0.080 C  
BRANCH  17  18
HETATM   18  C   UNL     1     -10.341   9.724  67.800  1.00  0.00    -0.274 C  
HETATM   19  C   UNL     1      -9.796  10.787  67.191  1.00  0.00    -0.216 C  
BRANCH  19  20
HETATM   20  C   UNL     1      -9.965  12.198  67.645  1.00  0.00    -0.199 C  
BRANCH  20  21
HETATM   21  C   UNL     1      -9.451  13.184  66.639  1.00  0.00    -0.260 C  
HETATM   22  C   UNL     1     -10.202  13.742  65.676  1.00  0.00    -0.326 C  
BRANCH  22  23
HETATM   23  C   UNL     1     -11.649  13.451  65.419  1.00  0.00    -0.335 C  
HETATM   24  C   UNL     1     -11.878  12.960  64.001  1.00  0.00    -0.512 C  
ENDBRANCH  22  23
ENDBRANCH  20  21
ENDBRANCH  19  20
ENDBRANCH  17  18
ENDBRANCH  16  17
ENDBRANCH  14  15
ENDBRANCH  13  14
ENDBRANCH  11  12
ENDBRANCH  10  11
ENDBRANCH   8   9
ENDBRANCH   7   8
ENDBRANCH   6   7
ENDBRANCH   4   6
ENDBRANCH   3   4
ENDBRANCH   2   3
TORSDOF 15
ENDMDL
MODEL      494
REMARK 921   NORMALIZED FREE ENERGY PREDICTED BY IDOCK:   -1.38 KCAL/MOL
REMARK 922        TOTAL FREE ENERGY PREDICTED BY IDOCK:   -5.15 KCAL/MOL
REMARK 923 INTER-LIGAND FREE ENERGY PREDICTED BY IDOCK:   -4.37 KCAL/MOL
REMARK 924 INTRA-LIGAND FREE ENERGY PREDICTED BY IDOCK:   -0.78 KCAL/MOL
REMARK 927      BINDING AFFINITY PREDICTED BY RF-SCORE:    0.00 PKD
ROOT
HETATM    1  C   UNL     1     -10.763   9.501  70.831  1.00  0.00    -0.403 C  
HETATM    2  C   UNL     1     -12.238   9.259  71.093  1.00  0.00    -0.301 C  
ENDROOT
BRANCH   2   3
HETATM    3  O   UNL     1     -12.350   8.613  72.367  1.00  0.00    -0.379 OA 
BRANCH   3   4
HETATM    4  C   UNL     1     -11.275   7.846  72.702  1.00  0.00    -0.398 C  
HETATM    5  O   UNL     1     -10.576   7.997  73.691  1.00  0.00     0.043 OA 
BRANCH   4   6
HETATM    6  C   UNL     1     -11.159   6.721  71.710  1.00  0.00    -0.275 C  
BRANCH   6   7
HETATM    7  C   UNL     1      -9.934   5.857  72.027  1.00  0.00    -0.204 C  
BRANCH   7   8
HETATM    8  C   UNL     1      -9.841   4.643  71.116  1.00  0.00    -0.261 C  
BRANCH   8   9
HETATM    9  C   UNL     1      -8.905   4.870  69.954  1.00  0.00    -0.126 C  
HETATM   10  C   UNL     1      -9.220   5.511  68.816  1.00  0.00    -0.142 C  
BRANCH  10  11
HETATM   11  C   UNL     1     -10.599   5.960  68.462  1.00  0.00    -0.317 C  
BRANCH  11  12
HETATM   12  C   UNL     1     -10.735   7.420  68.156  1.00  0.00    -0.169 C  
HETATM   13  C   UNL     1     -10.166   8.010  67.089  1.00  0.00    -0.362 C  
BRANCH  13  14
HETATM   14  C   UNL     1      -9.319   7.379  66.007  1.00  0.00    -0.045 C  
BRANCH  14  15
HETATM   15  C   UNL     1      -8.584   8.347  65.116  1.00  0.00    -0.159 C  
HETATM   16  C   UNL     1      -9.080   9.485  64.606  1.00  0.00    -0.263 C  
BRANCH  16  17
HETATM   17  C   UNL     1     -10.512   9.901  64.690  1.00  0.00     0.917 C  
BRANCH  17  18
HETATM   18  C   UNL     1     -10.604  11.388  64.478  1.00  0.00    -0.390 C  
HETATM   19  C   UNL     1     -10.537  12.301  65.458  1.00  0.00    -0.304 C  
BRANCH  19  20
HETATM   20  C   UNL     1     -10.389  11.976  66.907  1.00  0.00    -0.238 C  
BRANCH  20  21
HETATM   21  C   UNL     1     -11.712  11.863  67.603  1.00  0.00    -0.346 C  
HETATM   22  C   UNL     1     -12.189  12.770  68.470  1.00  0.00     0.026 C  
BRANCH  22  23
HETATM   23  C   UNL     1     -11.477  14.010  68.916  1.00  0.00    -0.331 C  
HETATM   24  C   UNL     1     -12.332  15.249  68.721  1.00  0.00     0.058 C  
ENDBRANCH  22  23
ENDBRANCH  20  21
ENDBRANCH  19  20
ENDBRANCH  17  18
ENDBRANCH  16  17
ENDBRANCH  14  15
ENDBRANCH  13  14
ENDBRANCH  11  12
ENDBRANCH  10  11
ENDBRANCH   8   9
ENDBRANCH   7   8
ENDBRANCH   6   7
ENDBRANCH   4   6
ENDBRANCH   3   4
ENDBRANCH   2   3
TORSDOF 15
ENDMDL
MODEL      495
REMARK 921   NORMALIZED FREE ENERGY PREDICTED BY IDOCK:   -1.35 KCAL/MOL
REMARK 922        TOTAL FREE ENERGY PREDICTED BY IDOCK:   -5.09 KCAL/MOL
REMARK 923 INTER-LIGAND FREE ENERGY PREDICTED BY IDOCK:   -4.52 KCAL/MOL
REMARK 924 INTRA-LIGAND FREE ENERGY PREDICTED BY IDOCK:   -0.57 KCAL/MOL
REMARK 927      BINDING AFFINITY PREDICTED BY RF-SCORE:    0.00 PKD
ROOT
HETATM    1  C   UNL     1      -7.488   9.824  67.988  1.00  0.00    -0.082 C  
HETATM    2  C   UNL     1      -8.838  10.514  67.920  1.00  0.00    -0.133 C  
ENDROOT
BRANCH   2   3
HETATM    3  O   UNL     1      -9.003  11.010  66.586  1.00  0.00    -0.159 OA 
BRANCH   3   4
HETATM    4  C   UNL     1      -9.749  12.147  66.500  1.00  0.00    -0.223 C  
HETATM    5  O   UNL     1      -9.376  13.266  66.814  1.00  0.00    -0.243 OA 
BRANCH   4   6
HETATM    6  C   UNL     1     -11.066  11.811  65.857  1.00  0.00    -0.355 C  
BRANCH   6   7
HETATM    7  C   UNL     1     -10.868  11.494  64.372  1.00  0.00    -0.405 C  
BRANCH   7   8
HETATM    8  C   UNL     1      -9.422  11.677  63.938  1.00  0.00    -0.099 C  
BRANCH   8   9
HETATM    9  C   UNL     1      -9.150  11.070  62.583  1.00  0.00    -0.375 C  
HETATM   10  C   UNL     1      -8.901   9.772  62.348  1.00  0.00    -0.263 C  
BRANCH  10  11
HETATM   11  C   UNL     1      -8.698   8.751  63.420  1.00  0.00     0.021 C  
BRANCH  11  12
HETATM   12  C   UNL     1      -7.466   7.912  63.275  1.00  0.00    -0.119 C  
HETATM   13  C   UNL     1      -6.900   7.242  64.295  1.00  0.00    -0.048 C  
BRANCH  13  14
HETATM   14  C   UNL     1      -7.351   7.171  65.737  1.00  0.00    -0.075 C  
BRANCH  14  15
HETATM   15  C   UNL     1      -8.842   7.224  65.949  1.00  0.00    -0.136 C  
HETATM   16  C   UNL     1      -9.564   6.384  66.706  1.00  0.00    -0.189 C  
BRANCH  16  17
HETATM   17  C   UNL     1      -9.034   5.136  67.333  1.00  0.00    -0.109 C  
BRANCH  17  18
HETATM   18  C   UNL     1      -8.087   5.508  68.441  1.00  0.00    -0.099 C  
HETATM   19  C   UNL     1      -8.256   5.173  69.729  1.00  0.00    -0.089 C  
BRANCH  19  20
HETATM   20  C   UNL     1      -9.421   4.406  70.257  1.00  0.00    -0.242 C  
BRANCH  20  21
HETATM   21  C   UNL     1     -10.097   5.109  71.396  1.00  0.00    -0.265 C  
HETATM   22  C   UNL     1     -10.748   6.277  71.283  1.00  0.00    -0.299 C  
BRANCH  22  23
HETATM   23  C   UNL     1     -10.876   7.087  70.029  1.00  0.00    -0.290 C  
HETATM   24  C   UNL     1     -10.717   8.572  70.302  1.00  0.00    -0.242 C  
ENDBRANCH  22  23
ENDBRANCH  20  21
ENDBRANCH  19  20
ENDBRANCH  17  18
ENDBRANCH  16  17
ENDBRANCH  14  15
ENDBRANCH  13  14
ENDBRANCH  11  12
ENDBRANCH  10  11
ENDBRANCH   8   9
ENDBRANCH   7   8
ENDBRANCH   6   7
ENDBRANCH   4   6
ENDBRANCH   3   4
ENDBRANCH   2   3
TORSDOF 15
ENDMDL
MODEL      496
REMARK 921   NORMALIZED FREE ENERGY PREDICTED BY IDOCK:   -1.19 KCAL/MOL
REMARK 922        TOTAL FREE ENERGY PREDICTED BY IDOCK:   -4.78 KCAL/MOL
REMARK 923 INTER-LIGAND FREE ENERGY PREDICTED BY IDOCK:   -4.01 KCAL/MOL
REMARK 924 INTRA-LIGAND FREE ENERGY PREDICTED BY IDOCK:   -0.77 KCAL/MOL
REMARK 927      BINDING AFFINITY PREDICTED BY RF-SCORE:    0.00 PKD
ROOT
HETATM    1  C   UNL     1     -10.923   4.367  65.001  1.00  0.00    -0.041 C  
HETATM    2  C   UNL     1      -9.427   4.504  65.217  1.00  0.00    -0.171 C  
ENDROOT
BRANCH   2   3
HETATM    3  O   UNL     1      -8.776   4.061  64.020  1.00  0.00    -0.104 OA 
BRANCH   3   4
HETATM    4  C   UNL     1      -8.422   2.745  64.029  1.00  0.00    -0.086 C  
HETATM    5  O   UNL     1      -8.274   2.043  63.042  1.00  0.00    -0.067 OA 
BRANCH   4   6
HETATM    6  C   UNL     1      -8.141   2.331  65.448  1.00  0.00    -0.080 C  
BRANCH   6   7
HETATM    7  C   UNL     1      -6.848   1.514  65.518  1.00  0.00    -0.031 C  
BRANCH   7   8
HETATM    8  C   UNL     1      -5.616   2.402  65.601  1.00  0.00    -0.017 C  
BRANCH   8   9
HETATM    9  C   UNL     1      -5.781   3.517  66.606  1.00  0.00    -0.022 C  
HETATM   10  C   UNL     1      -5.611   3.399  67.932  1.00  0.00    -0.018 C  
BRANCH  10  11
HETATM   11  C   UNL     1      -5.385   2.101  68.636  1.00  0.00    -0.013 C  
BRANCH  11  12
HETATM   12  C   UNL     1      -5.593   2.135  70.119  1.00  0.00    -0.017 C  
HETATM   13  C   UNL     1      -6.461   2.963  70.727  1.00  0.00    -0.027 C  
BRANCH  13  14
HETATM   14  C   UNL     1      -7.386   3.981  70.098  1.00  0.00    -0.045 C  
BRANCH  14  15
HETATM   15  C   UNL     1      -7.429   5.323  70.784  1.00  0.00    -0.075 C  
HETATM   16  C   UNL     1      -8.476   5.842  71.443  1.00  0.00    -0.128 C  
BRANCH  16  17
HETATM   17  C   UNL     1      -9.847   5.250  71.460  1.00  0.00    -0.228 C  
BRANCH  17  18
HETATM   18  C   UNL     1     -10.651   5.840  70.332  1.00  0.00    -0.365 C  
HETATM   19  C   UNL     1     -11.075   7.112  70.287  1.00  0.00    -0.303 C  
BRANCH  19  20
HETATM   20  C   UNL     1     -10.836   8.121  71.359  1.00  0.00    -0.281 C  
BRANCH  20  21
HETATM   21  C   UNL     1     -11.987   8.219  72.314  1.00  0.00    -0.448 C  
HETATM   22  C   UNL     1     -13.004   9.087  72.186  1.00  0.00    -0.490 C  
BRANCH  22  23
HETATM   23  C   UNL     1     -13.141  10.117  71.107  1.00  0.00    -0.480 C  
HETATM   24  C   UNL     1     -12.824  11.511  71.619  1.00  0.00    -0.475 C  
ENDBRANCH  22  23
ENDBRANCH  20  21
ENDBRANCH  19  20
ENDBRANCH  17  18
ENDBRANCH  16  17
ENDBRANCH  14  15
ENDBRANCH  13  14
ENDBRANCH  11  12
ENDBRANCH  10  11
ENDBRANCH   8   9
ENDBRANCH   7   8
ENDBRANCH   6   7
ENDBRANCH   4   6
ENDBRANCH   3   4
ENDBRANCH   2   3
TORSDOF 15
ENDMDL
MODEL      497
REMARK 921   NORMALIZED FREE ENERGY PREDICTED BY IDOCK:   -0.85 KCAL/MOL
REMARK 922        TOTAL FREE ENERGY PREDICTED BY IDOCK:   -4.15 KCAL/MOL
REMARK 923 INTER-LIGAND FREE ENERGY PREDICTED BY IDOCK:   -3.75 KCAL/MOL
REMARK 924 INTRA-LIGAND FREE ENERGY PREDICTED BY IDOCK:   -0.41 KCAL/MOL
REMARK 927      BINDING AFFINITY PREDICTED BY RF-SCORE:    0.00 PKD
ROOT
HETATM    1  C   UNL     1     -10.644   4.801  65.456  1.00  0.00    -0.169 C  
HETATM    2  C   UNL     1      -9.226   4.818  65.997  1.00  0.00    -0.148 C  
ENDROOT
BRANCH   2   3
HETATM    3  O   UNL     1      -8.430   3.984  65.146  1.00  0.00    -0.110 OA 
BRANCH   3   4
HETATM    4  C   UNL     1      -8.336   2.690  65.560  1.00  0.00    -0.096 C  
HETATM    5  O   UNL     1      -8.035   1.740  64.855  1.00  0.00    -0.071 OA 
BRANCH   4   6
HETATM    6  C   UNL     1      -8.559   2.642  67.047  1.00  0.00    -0.119 C  
BRANCH   6   7
HETATM    7  C   UNL     1      -7.571   1.671  67.701  1.00  0.00    -0.058 C  
BRANCH   7   8
HETATM    8  C   UNL     1      -6.185   2.278  67.847  1.00  0.00    -0.025 C  
BRANCH   8   9
HETATM    9  C   UNL     1      -6.125   3.310  68.947  1.00  0.00    -0.028 C  
HETATM   10  C   UNL     1      -6.827   3.268  70.091  1.00  0.00    -0.034 C  
BRANCH  10  11
HETATM   11  C   UNL     1      -7.900   2.269  70.379  1.00  0.00    -0.047 C  
BRANCH  11  12
HETATM   12  C   UNL     1      -9.004   2.758  71.265  1.00  0.00    -0.161 C  
HETATM   13  C   UNL     1      -9.657   3.918  71.066  1.00  0.00    -0.251 C  
BRANCH  13  14
HETATM   14  C   UNL     1      -9.453   4.933  69.963  1.00  0.00    -0.234 C  
BRANCH  14  15
HETATM   15  C   UNL     1      -9.398   6.370  70.413  1.00  0.00    -0.169 C  
HETATM   16  C   UNL     1     -10.207   7.359  70.001  1.00  0.00    -0.211 C  
BRANCH  16  17
HETATM   17  C   UNL     1     -11.194   7.242  68.886  1.00  0.00     0.130 C  
BRANCH  17  18
HETATM   18  C   UNL     1     -10.520   7.617  67.593  1.00  0.00    -0.313 C  
HETATM   19  C   UNL     1     -10.272   8.876  67.204  1.00  0.00    -0.339 C  
BRANCH  19  20
HETATM   20  C   UNL     1     -10.650  10.092  67.982  1.00  0.00    -0.280 C  
BRANCH  20  21
HETATM   21  C   UNL     1     -11.225  11.168  67.111  1.00  0.00    -0.320 C  
HETATM   22  C   UNL     1     -10.508  12.168  66.573  1.00  0.00    -0.254 C  
BRANCH  22  23
HETATM   23  C   UNL     1      -9.043  12.400  66.779  1.00  0.00    -0.212 C  
HETATM   24  C   UNL     1      -8.765  13.792  67.315  1.00  0.00    -0.226 C  
ENDBRANCH  22  23
ENDBRANCH  20  21
ENDBRANCH  19  20
ENDBRANCH  17  18
ENDBRANCH  16  17
ENDBRANCH  14  15
ENDBRANCH  13  14
ENDBRANCH  11  12
ENDBRANCH  10  11
ENDBRANCH   8   9
ENDBRANCH   7   8
ENDBRANCH   6   7
ENDBRANCH   4   6
ENDBRANCH   3   4
ENDBRANCH   2   3
TORSDOF 15
ENDMDL
MODEL      498
REMARK 921   NORMALIZED FREE ENERGY PREDICTED BY IDOCK:   -0.68 KCAL/MOL
REMARK 922        TOTAL FREE ENERGY PREDICTED BY IDOCK:   -3.82 KCAL/MOL
REMARK 923 INTER-LIGAND FREE ENERGY PREDICTED BY IDOCK:   -4.26 KCAL/MOL
REMARK 924 INTRA-LIGAND FREE ENERGY PREDICTED BY IDOCK:    0.44 KCAL/MOL
REMARK 927      BINDING AFFINITY PREDICTED BY RF-SCORE:    0.00 PKD
ROOT
HETATM    1  C   UNL     1     -11.628   6.143  70.126  1.00  0.00    -0.260 C  
HETATM    2  C   UNL     1     -10.639   6.171  71.277  1.00  0.00    -0.243 C  
ENDROOT
BRANCH   2   3
HETATM    3  O   UNL     1     -11.084   7.168  72.205  1.00  0.00    -0.234 OA 
BRANCH   3   4
HETATM    4  C   UNL     1     -11.770   8.197  71.634  1.00  0.00    -0.287 C  
HETATM    5  O   UNL     1     -12.974   8.225  71.437  1.00  0.00    -0.300 OA 
BRANCH   4   6
HETATM    6  C   UNL     1     -10.815   9.333  71.385  1.00  0.00    -0.434 C  
BRANCH   6   7
HETATM    7  C   UNL     1      -9.367   8.842  71.487  1.00  0.00    -0.335 C  
BRANCH   7   8
HETATM    8  C   UNL     1      -8.469   9.496  70.449  1.00  0.00    -0.238 C  
BRANCH   8   9
HETATM    9  C   UNL     1      -9.134   9.596  69.098  1.00  0.00    -0.154 C  
HETATM   10  C   UNL     1      -8.510   9.881  67.944  1.00  0.00    -0.121 C  
BRANCH  10  11
HETATM   11  C   UNL     1      -7.080  10.301  67.846  1.00  0.00    -0.084 C  
BRANCH  11  12
HETATM   12  C   UNL     1      -6.747  11.156  66.663  1.00  0.00    -0.137 C  
HETATM   13  C   UNL     1      -7.269  12.380  66.461  1.00  0.00     0.616 C  
BRANCH  13  14
HETATM   14  C   UNL     1      -8.244  13.140  67.333  1.00  0.00    -0.187 C  
BRANCH  14  15
HETATM   15  C   UNL     1      -7.795  13.370  68.753  1.00  0.00    -0.009 C  
HETATM   16  C   UNL     1      -7.337  14.524  69.261  1.00  0.00    -0.126 C  
BRANCH  16  17
HETATM   17  C   UNL     1      -7.025  15.742  68.455  1.00  0.00    -0.117 C  
BRANCH  17  18
HETATM   18  C   UNL     1      -8.018  15.855  67.330  1.00  0.00    -0.212 C  
HETATM   19  C   UNL     1      -7.865  16.645  66.258  1.00  0.00    -0.309 C  
BRANCH  19  20
HETATM   20  C   UNL     1      -6.700  17.551  66.035  1.00  0.00    -0.256 C  
BRANCH  20  21
HETATM   21  C   UNL     1      -6.954  18.939  66.542  1.00  0.00    -0.231 C  
HETATM   22  C   UNL     1      -6.264  19.518  67.537  1.00  0.00    -0.211 C  
BRANCH  22  23
HETATM   23  C   UNL     1      -5.167  18.873  68.329  1.00  0.00    -0.180 C  
HETATM   24  C   UNL     1      -5.191  19.313  69.781  1.00  0.00    -0.208 C  
ENDBRANCH  22  23
ENDBRANCH  20  21
ENDBRANCH  19  20
ENDBRANCH  17  18
ENDBRANCH  16  17
ENDBRANCH  14  15
ENDBRANCH  13  14
ENDBRANCH  11  12
ENDBRANCH  10  11
ENDBRANCH   8   9
ENDBRANCH   7   8
ENDBRANCH   6   7
ENDBRANCH   4   6
ENDBRANCH   3   4
ENDBRANCH   2   3
TORSDOF 15
ENDMDL
MODEL      499
REMARK 921   NORMALIZED FREE ENERGY PREDICTED BY IDOCK:   -0.52 KCAL/MOL
REMARK 922        TOTAL FREE ENERGY PREDICTED BY IDOCK:   -3.53 KCAL/MOL
REMARK 923 INTER-LIGAND FREE ENERGY PREDICTED BY IDOCK:   -3.24 KCAL/MOL
REMARK 924 INTRA-LIGAND FREE ENERGY PREDICTED BY IDOCK:   -0.29 KCAL/MOL
REMARK 927      BINDING AFFINITY PREDICTED BY RF-SCORE:    0.00 PKD
ROOT
HETATM    1  C   UNL     1      -8.364  14.773  68.175  1.00  0.00    -0.144 C  
HETATM    2  C   UNL     1      -6.885  14.479  68.004  1.00  0.00    -0.145 C  
ENDROOT
BRANCH   2   3
HETATM    3  O   UNL     1      -6.752  13.077  67.738  1.00  0.00    -0.110 OA 
BRANCH   3   4
HETATM    4  C   UNL     1      -6.527  12.317  68.846  1.00  0.00    -0.089 C  
HETATM    5  O   UNL     1      -5.431  12.047  69.311  1.00  0.00    -0.062 OA 
BRANCH   4   6
HETATM    6  C   UNL     1      -7.852  11.954  69.459  1.00  0.00     0.688 C  
BRANCH   6   7
HETATM    7  C   UNL     1      -8.423  10.702  68.786  1.00  0.00    -0.149 C  
BRANCH   7   8
HETATM    8  C   UNL     1      -9.138   9.797  69.778  1.00  0.00    -0.246 C  
BRANCH   8   9
HETATM    9  C   UNL     1      -9.884   8.677  69.096  1.00  0.00    -0.185 C  
HETATM   10  C   UNL     1     -10.292   8.680  67.817  1.00  0.00    -0.303 C  
BRANCH  10  11
HETATM   11  C   UNL     1     -10.209   9.867  66.914  1.00  0.00    -0.302 C  
BRANCH  11  12
HETATM   12  C   UNL     1      -9.567   9.613  65.585  1.00  0.00    -0.338 C  
HETATM   13  C   UNL     1      -8.521   8.785  65.412  1.00  0.00    -0.186 C  
BRANCH  13  14
HETATM   14  C   UNL     1      -7.797   7.957  66.450  1.00  0.00    -0.097 C  
BRANCH  14  15
HETATM   15  C   UNL     1      -7.660   6.492  66.124  1.00  0.00    -0.090 C  
HETATM   16  C   UNL     1      -8.100   5.470  66.874  1.00  0.00    -0.101 C  
BRANCH  16  17
HETATM   17  C   UNL     1      -8.650   5.605  68.256  1.00  0.00    -0.107 C  
BRANCH  17  18
HETATM   18  C   UNL     1      -7.514   5.555  69.243  1.00  0.00    -0.078 C  
HETATM   19  C   UNL     1      -7.667   5.504  70.574  1.00  0.00    -0.093 C  
BRANCH  19  20
HETATM   20  C   UNL     1      -8.984   5.516  71.275  1.00  0.00    -0.153 C  
BRANCH  20  21
HETATM   21  C   UNL     1      -9.009   6.481  72.423  1.00  0.00    -0.133 C  
HETATM   22  C   UNL     1     -10.011   7.340  72.666  1.00  0.00    -0.223 C  
BRANCH  22  23
HETATM   23  C   UNL     1     -11.239   7.509  71.824  1.00  0.00    -0.281 C  
HETATM   24  C   UNL     1     -12.031   6.219  71.721  1.00  0.00    -0.313 C  
ENDBRANCH  22  23
ENDBRANCH  20  21
ENDBRANCH  19  20
ENDBRANCH  17  18
ENDBRANCH  16  17
ENDBRANCH  14  15
ENDBRANCH  13  14
ENDBRANCH  11  12
ENDBRANCH  10  11
ENDBRANCH   8   9
ENDBRANCH   7   8
ENDBRANCH   6   7
ENDBRANCH   4   6
ENDBRANCH   3   4
ENDBRANCH   2   3
TORSDOF 15
ENDMDL
MODEL      500
REMARK 921   NORMALIZED FREE ENERGY PREDICTED BY IDOCK:    0.25 KCAL/MOL
REMARK 922        TOTAL FREE ENERGY PREDICTED BY IDOCK:   -2.09 KCAL/MOL
REMARK 923 INTER-LIGAND FREE ENERGY PREDICTED BY IDOCK:   -4.35 KCAL/MOL
REMARK 924 INTRA-LIGAND FREE ENERGY PREDICTED BY IDOCK:    2.26 KCAL/MOL
REMARK 927      BINDING AFFINITY PREDICTED BY RF-SCORE:    0.00 PKD
ROOT
HETATM    1  C   UNL     1     -12.566  12.231  69.544  1.00  0.00     0.387 C  
HETATM    2  C   UNL     1     -11.905  11.301  68.542  1.00  0.00    -0.285 C  
ENDROOT
BRANCH   2   3
HETATM    3  O   UNL     1     -10.792  10.682  69.197  1.00  0.00    -0.205 OA 
BRANCH   3   4
HETATM    4  C   UNL     1     -10.191   9.699  68.470  1.00  0.00    -0.193 C  
HETATM    5  O   UNL     1     -10.116   8.524  68.791  1.00  0.00    -0.186 OA 
BRANCH   4   6
HETATM    6  C   UNL     1      -9.729  10.281  67.162  1.00  0.00    -0.210 C  
BRANCH   6   7
HETATM    7  C   UNL     1      -9.431  11.775  67.320  1.00  0.00    -0.173 C  
BRANCH   7   8
HETATM    8  C   UNL     1     -10.315  12.630  66.427  1.00  0.00    -0.264 C  
BRANCH   8   9
HETATM    9  C   UNL     1      -9.545  13.738  65.751  1.00  0.00    -0.097 C  
HETATM   10  C   UNL     1     -10.000  14.983  65.538  1.00  0.00    -0.390 C  
BRANCH  10  11
HETATM   11  C   UNL     1     -11.405  15.418  65.799  1.00  0.00    -0.115 C  
BRANCH  11  12
HETATM   12  C   UNL     1     -11.736  15.673  67.237  1.00  0.00     0.182 C  
HETATM   13  C   UNL     1     -11.093  16.577  67.998  1.00  0.00    -0.275 C  
BRANCH  13  14
HETATM   14  C   UNL     1      -9.964  17.502  67.604  1.00  0.00    -0.309 C  
BRANCH  14  15
HETATM   15  C   UNL     1      -8.969  17.805  68.695  1.00  0.00    -0.258 C  
HETATM   16  C   UNL     1      -7.804  17.171  68.901  1.00  0.00    -0.217 C  
BRANCH  16  17
HETATM   17  C   UNL     1      -7.373  15.931  68.188  1.00  0.00    -0.133 C  
BRANCH  17  18
HETATM   18  C   UNL     1      -6.800  16.310  66.849  1.00  0.00    -0.195 C  
HETATM   19  C   UNL     1      -6.058  17.404  66.621  1.00  0.00    -0.239 C  
BRANCH  19  20
HETATM   20  C   UNL     1      -5.714  18.421  67.657  1.00  0.00    -0.158 C  
BRANCH  20  21
HETATM   21  C   UNL     1      -6.619  19.615  67.604  1.00  0.00    -0.254 C  
HETATM   22  C   UNL     1      -6.507  20.609  66.709  1.00  0.00    -0.307 C  
BRANCH  22  23
HETATM   23  C   UNL     1      -5.451  20.716  65.651  1.00  0.00    -0.229 C  
HETATM   24  C   UNL     1      -5.420  19.486  64.763  1.00  0.00    -0.225 C  
ENDBRANCH  22  23
ENDBRANCH  20  21
ENDBRANCH  19  20
ENDBRANCH  17  18
ENDBRANCH  16  17
ENDBRANCH  14  15
ENDBRANCH  13  14
ENDBRANCH  11  12
ENDBRANCH  10  11
ENDBRANCH   8   9
ENDBRANCH   7   8
ENDBRANCH   6   7
ENDBRANCH   4   6
ENDBRANCH   3   4
ENDBRANCH   2   3
TORSDOF 15
ENDMDL
MODEL      501
REMARK 921   NORMALIZED FREE ENERGY PREDICTED BY IDOCK:    0.52 KCAL/MOL
REMARK 922        TOTAL FREE ENERGY PREDICTED BY IDOCK:   -1.58 KCAL/MOL
REMARK 923 INTER-LIGAND FREE ENERGY PREDICTED BY IDOCK:   -4.25 KCAL/MOL
REMARK 924 INTRA-LIGAND FREE ENERGY PREDICTED BY IDOCK:    2.67 KCAL/MOL
REMARK 927      BINDING AFFINITY PREDICTED BY RF-SCORE:    0.00 PKD
ROOT
HETATM    1  C   UNL     1      -8.344  14.640  68.457  1.00  0.00    -0.162 C  
HETATM    2  C   UNL     1      -7.001  15.054  67.884  1.00  0.00    -0.156 C  
ENDROOT
BRANCH   2   3
HETATM    3  O   UNL     1      -6.417  13.897  67.274  1.00  0.00    -0.282 OA 
BRANCH   3   4
HETATM    4  C   UNL     1      -6.171  12.872  68.137  1.00  0.00    -0.093 C  
HETATM    5  O   UNL     1      -5.129  12.242  68.212  1.00  0.00    -0.052 OA 
BRANCH   4   6
HETATM    6  C   UNL     1      -7.356  12.717  69.051  1.00  0.00     0.056 C  
BRANCH   6   7
HETATM    7  C   UNL     1      -7.989  11.334  68.870  1.00  0.00    -0.104 C  
BRANCH   7   8
HETATM    8  C   UNL     1      -7.453  10.326  69.874  1.00  0.00    -0.165 C  
BRANCH   8   9
HETATM    9  C   UNL     1      -8.510   9.345  70.320  1.00  0.00    -0.237 C  
HETATM   10  C   UNL     1      -9.800   9.371  69.949  1.00  0.00    -0.235 C  
BRANCH  10  11
HETATM   11  C   UNL     1     -10.423  10.475  69.159  1.00  0.00    -0.250 C  
BRANCH  11  12
HETATM   12  C   UNL     1     -10.677  10.161  67.717  1.00  0.00    -0.328 C  
HETATM   13  C   UNL     1     -10.475   8.946  67.175  1.00  0.00    -0.344 C  
BRANCH  13  14
HETATM   14  C   UNL     1      -9.987   7.685  67.852  1.00  0.00    -0.208 C  
BRANCH  14  15
HETATM   15  C   UNL     1     -11.008   6.584  67.978  1.00  0.00    -0.368 C  
HETATM   16  C   UNL     1     -11.128   5.730  69.006  1.00  0.00    -0.174 C  
BRANCH  16  17
HETATM   17  C   UNL     1     -10.151   5.610  70.130  1.00  0.00    -0.293 C  
BRANCH  17  18
HETATM   18  C   UNL     1     -10.803   6.088  71.399  1.00  0.00    -0.328 C  
HETATM   19  C   UNL     1     -10.176   6.202  72.579  1.00  0.00    -0.206 C  
BRANCH  19  20
HETATM   20  C   UNL     1      -8.747   5.846  72.814  1.00  0.00    -0.125 C  
BRANCH  20  21
HETATM   21  C   UNL     1      -8.536   4.364  72.898  1.00  0.00    -0.105 C  
HETATM   22  C   UNL     1      -7.347   3.781  73.117  1.00  0.00    -0.064 C  
BRANCH  22  23
HETATM   23  C   UNL     1      -6.040   4.496  73.271  1.00  0.00    -0.024 C  
HETATM   24  C   UNL     1      -5.267   3.997  74.479  1.00  0.00    -0.004 C  
ENDBRANCH  22  23
ENDBRANCH  20  21
ENDBRANCH  19  20
ENDBRANCH  17  18
ENDBRANCH  16  17
ENDBRANCH  14  15
ENDBRANCH  13  14
ENDBRANCH  11  12
ENDBRANCH  10  11
ENDBRANCH   8   9
ENDBRANCH   7   8
ENDBRANCH   6   7
ENDBRANCH   4   6
ENDBRANCH   3   4
ENDBRANCH   2   3
TORSDOF 15
ENDMDL
MODEL      502
REMARK 921   NORMALIZED FREE ENERGY PREDICTED BY IDOCK:    2.05 KCAL/MOL
REMARK 922        TOTAL FREE ENERGY PREDICTED BY IDOCK:    1.29 KCAL/MOL
REMARK 923 INTER-LIGAND FREE ENERGY PREDICTED BY IDOCK:   -0.27 KCAL/MOL
REMARK 924 INTRA-LIGAND FREE ENERGY PREDICTED BY IDOCK:    1.56 KCAL/MOL
REMARK 927      BINDING AFFINITY PREDICTED BY RF-SCORE:    0.00 PKD
ROOT
HETATM    1  C   UNL     1      -8.201  15.390  69.879  1.00  0.00     0.150 C  
HETATM    2  C   UNL     1      -7.373  15.072  68.647  1.00  0.00    -0.118 C  
ENDROOT
BRANCH   2   3
HETATM    3  O   UNL     1      -8.145  15.444  67.500  1.00  0.00    -0.143 OA 
BRANCH   3   4
HETATM    4  C   UNL     1      -9.468  15.131  67.591  1.00  0.00    -0.201 C  
HETATM    5  O   UNL     1     -10.160  15.257  68.588  1.00  0.00    -0.211 OA 
BRANCH   4   6
HETATM    6  C   UNL     1      -9.958  14.708  66.233  1.00  0.00    -0.306 C  
BRANCH   6   7
HETATM    7  C   UNL     1      -9.031  13.641  65.643  1.00  0.00     0.880 C  
BRANCH   7   8
HETATM    8  C   UNL     1      -8.072  13.080  66.682  1.00  0.00     0.322 C  
BRANCH   8   9
HETATM    9  C   UNL     1      -7.524  11.731  66.286  1.00  0.00     0.288 C  
HETATM   10  C   UNL     1      -7.893  10.555  66.820  1.00  0.00    -0.121 C  
BRANCH  10  11
HETATM   11  C   UNL     1      -8.791  10.419  68.006  1.00  0.00    -0.130 C  
BRANCH  11  12
HETATM   12  C   UNL     1     -10.201  10.878  67.793  1.00  0.00    -0.209 C  
HETATM   13  C   UNL     1     -11.252  10.384  68.472  1.00  0.00    -0.308 C  
BRANCH  13  14
HETATM   14  C   UNL     1     -11.260   9.325  69.551  1.00  0.00    -0.017 C  
BRANCH  14  15
HETATM   15  C   UNL     1     -11.759   9.781  70.898  1.00  0.00    -0.429 C  
HETATM   16  C   UNL     1     -11.784   9.049  72.022  1.00  0.00    -0.417 C  
BRANCH  16  17
HETATM   17  C   UNL     1     -11.483   7.587  72.091  1.00  0.00    -0.334 C  
BRANCH  17  18
HETATM   18  C   UNL     1     -10.616   7.321  73.292  1.00  0.00    -0.428 C  
HETATM   19  C   UNL     1      -9.324   6.966  73.233  1.00  0.00    -0.170 C  
BRANCH  19  20
HETATM   20  C   UNL     1      -8.562   6.756  71.967  1.00  0.00    -0.122 C  
BRANCH  20  21
HETATM   21  C   UNL     1      -8.018   8.038  71.412  1.00  0.00    -0.109 C  
HETATM   22  C   UNL     1      -7.270   8.906  72.110  1.00  0.00     0.087 C  
BRANCH  22  23
HETATM   23  C   UNL     1      -6.891   8.768  73.553  1.00  0.00     0.066 C  
HETATM   24  C   UNL     1      -6.538  10.109  74.171  1.00  0.00     1.706 C  
ENDBRANCH  22  23
ENDBRANCH  20  21
ENDBRANCH  19  20
ENDBRANCH  17  18
ENDBRANCH  16  17
ENDBRANCH  14  15
ENDBRANCH  13  14
ENDBRANCH  11  12
ENDBRANCH  10  11
ENDBRANCH   8   9
ENDBRANCH   7   8
ENDBRANCH   6   7
ENDBRANCH   4   6
ENDBRANCH   3   4
ENDBRANCH   2   3
TORSDOF 15
ENDMDL
MODEL      503
REMARK 921   NORMALIZED FREE ENERGY PREDICTED BY IDOCK:    4.03 KCAL/MOL
REMARK 922        TOTAL FREE ENERGY PREDICTED BY IDOCK:    5.02 KCAL/MOL
REMARK 923 INTER-LIGAND FREE ENERGY PREDICTED BY IDOCK:   -1.22 KCAL/MOL
REMARK 924 INTRA-LIGAND FREE ENERGY PREDICTED BY IDOCK:    6.24 KCAL/MOL
REMARK 927      BINDING AFFINITY PREDICTED BY RF-SCORE:    0.00 PKD
ROOT
HETATM    1  C   UNL     1     -10.385   9.648  70.747  1.00  0.00    -0.356 C  
HETATM    2  C   UNL     1     -11.558   9.380  71.673  1.00  0.00    -0.396 C  
ENDROOT
BRANCH   2   3
HETATM    3  O   UNL     1     -11.119   8.447  72.667  1.00  0.00    -0.359 OA 
BRANCH   3   4
HETATM    4  C   UNL     1      -9.971   7.787  72.347  1.00  0.00    -0.214 C  
HETATM    5  O   UNL     1      -9.037   7.580  73.105  1.00  0.00    -0.144 OA 
BRANCH   4   6
HETATM    6  C   UNL     1     -10.090   7.266  70.941  1.00  0.00    -0.192 C  
BRANCH   6   7
HETATM    7  C   UNL     1      -9.148   6.076  70.733  1.00  0.00    -0.161 C  
BRANCH   7   8
HETATM    8  C   UNL     1      -9.794   4.976  69.905  1.00  0.00    -0.296 C  
BRANCH   8   9
HETATM    9  C   UNL     1      -9.730   5.262  68.424  1.00  0.00    -0.189 C  
HETATM   10  C   UNL     1     -10.332   6.289  67.805  1.00  0.00    -0.242 C  
BRANCH  10  11
HETATM   11  C   UNL     1     -11.293   7.221  68.468  1.00  0.00     0.346 C  
BRANCH  11  12
HETATM   12  C   UNL     1     -11.440   8.559  67.811  1.00  0.00     1.374 C  
HETATM   13  C   UNL     1     -10.875   8.872  66.630  1.00  0.00     0.188 C  
BRANCH  13  14
HETATM   14  C   UNL     1     -10.023   7.999  65.736  1.00  0.00     0.620 C  
BRANCH  14  15
HETATM   15  C   UNL     1      -8.965   8.725  64.946  1.00  0.00    -0.065 C  
HETATM   16  C   UNL     1      -8.815  10.056  64.861  1.00  0.00    -0.219 C  
BRANCH  16  17
HETATM   17  C   UNL     1      -9.785  11.057  65.398  1.00  0.00    -0.279 C  
BRANCH  17  18
HETATM   18  C   UNL     1      -9.036  12.084  66.203  1.00  0.00    -0.079 C  
HETATM   19  C   UNL     1      -7.952  11.822  66.949  1.00  0.00    -0.149 C  
BRANCH  19  20
HETATM   20  C   UNL     1      -7.346  10.469  67.112  1.00  0.00    -0.093 C  
BRANCH  20  21
HETATM   21  C   UNL     1      -7.195  10.083  68.552  1.00  0.00    -0.076 C  
HETATM   22  C   UNL     1      -6.477  10.777  69.449  1.00  0.00    -0.076 C  
BRANCH  22  23
HETATM   23  C   UNL     1      -5.682  12.014  69.161  1.00  0.00    -0.064 C  
HETATM   24  C   UNL     1      -6.464  12.998  68.309  1.00  0.00    -0.093 C  
ENDBRANCH  22  23
ENDBRANCH  20  21
ENDBRANCH  19  20
ENDBRANCH  17  18
ENDBRANCH  16  17
ENDBRANCH  14  15
ENDBRANCH  13  14
ENDBRANCH  11  12
ENDBRANCH  10  11
ENDBRANCH   8   9
ENDBRANCH   7   8
ENDBRANCH   6   7
ENDBRANCH   4   6
ENDBRANCH   3   4
ENDBRANCH   2   3
TORSDOF 15
ENDMDL
MODEL      504
REMARK 921   NORMALIZED FREE ENERGY PREDICTED BY IDOCK:   11.39 KCAL/MOL
REMARK 922        TOTAL FREE ENERGY PREDICTED BY IDOCK:   18.82 KCAL/MOL
REMARK 923 INTER-LIGAND FREE ENERGY PREDICTED BY IDOCK:    4.62 KCAL/MOL
REMARK 924 INTRA-LIGAND FREE ENERGY PREDICTED BY IDOCK:   14.20 KCAL/MOL
REMARK 927      BINDING AFFINITY PREDICTED BY RF-SCORE:    0.00 PKD
ROOT
HETATM    1  C   UNL     1     -11.898  12.203  68.059  1.00  0.00    -0.351 C  
HETATM    2  C   UNL     1     -11.704  11.881  69.530  1.00  0.00    -0.345 C  
ENDROOT
BRANCH   2   3
HETATM    3  O   UNL     1     -13.003  11.749  70.118  1.00  0.00     0.189 OA 
BRANCH   3   4
HETATM    4  C   UNL     1     -13.286  12.685  71.067  1.00  0.00     0.184 C  
HETATM    5  O   UNL     1     -14.290  12.711  71.760  1.00  0.00     0.712 OA 
BRANCH   4   6
HETATM    6  C   UNL     1     -12.111  13.616  71.190  1.00  0.00    -0.209 C  
BRANCH   6   7
HETATM    7  C   UNL     1     -10.801  12.850  70.981  1.00  0.00     3.817 C  
BRANCH   7   8
HETATM    8  C   UNL     1     -11.032  11.353  70.838  1.00  0.00     1.810 C  
BRANCH   8   9
HETATM    9  C   UNL     1     -12.136  10.856  71.739  1.00  0.00     0.262 C  
HETATM   10  C   UNL     1     -12.298   9.585  72.140  1.00  0.00    -0.332 C  
BRANCH  10  11
HETATM   11  C   UNL     1     -11.497   8.435  71.624  1.00  0.00    -0.349 C  
BRANCH  11  12
HETATM   12  C   UNL     1     -11.937   7.896  70.298  1.00  0.00     0.245 C  
HETATM   13  C   UNL     1     -11.140   7.177  69.487  1.00  0.00    -0.170 C  
BRANCH  13  14
HETATM   14  C   UNL     1      -9.705   6.756  69.713  1.00  0.00    -0.162 C  
BRANCH  14  15
HETATM   15  C   UNL     1      -8.671   7.577  68.985  1.00  0.00    -0.136 C  
HETATM   16  C   UNL     1      -7.378   7.699  69.323  1.00  0.00    -0.088 C  
BRANCH  16  17
HETATM   17  C   UNL     1      -6.777   7.179  70.587  1.00  0.00    -0.052 C  
BRANCH  17  18
HETATM   18  C   UNL     1      -6.357   5.749  70.379  1.00  0.00    -0.031 C  
HETATM   19  C   UNL     1      -5.849   4.959  71.337  1.00  0.00    -0.016 C  
BRANCH  19  20
HETATM   20  C   UNL     1      -5.601   5.390  72.744  1.00  0.00    -0.022 C  
BRANCH  20  21
HETATM   21  C   UNL     1      -6.816   5.238  73.608  1.00  0.00    -0.080 C  
HETATM   22  C   UNL     1      -7.323   6.214  74.378  1.00  0.00    -0.090 C  
BRANCH  22  23
HETATM   23  C   UNL     1      -6.749   7.589  74.535  1.00  0.00    -0.110 C  
HETATM   24  C   UNL     1      -7.815   8.661  74.399  1.00  0.00    -0.053 C  
ENDBRANCH  22  23
ENDBRANCH  20  21
ENDBRANCH  19  20
ENDBRANCH  17  18
ENDBRANCH  16  17
ENDBRANCH  14  15
ENDBRANCH  13  14
ENDBRANCH  11  12
ENDBRANCH  10  11
ENDBRANCH   8   9
ENDBRANCH   7   8
ENDBRANCH   6   7
ENDBRANCH   4   6
ENDBRANCH   3   4
ENDBRANCH   2   3
TORSDOF 15
ENDMDL
MODEL      505
REMARK 921   NORMALIZED FREE ENERGY PREDICTED BY IDOCK:   11.98 KCAL/MOL
REMARK 922        TOTAL FREE ENERGY PREDICTED BY IDOCK:   19.93 KCAL/MOL
REMARK 923 INTER-LIGAND FREE ENERGY PREDICTED BY IDOCK:    0.46 KCAL/MOL
REMARK 924 INTRA-LIGAND FREE ENERGY PREDICTED BY IDOCK:   19.48 KCAL/MOL
REMARK 927      BINDING AFFINITY PREDICTED BY RF-SCORE:    0.00 PKD
ROOT
HETATM    1  C   UNL     1      -7.392   9.311  64.169  1.00  0.00    -0.106 C  
HETATM    2  C   UNL     1      -8.660   9.758  64.876  1.00  0.00    -0.167 C  
ENDROOT
BRANCH   2   3
HETATM    3  O   UNL     1      -8.784  11.172  64.684  1.00  0.00    -0.029 OA 
BRANCH   3   4
HETATM    4  C   UNL     1      -8.756  11.898  65.837  1.00  0.00     0.134 C  
HETATM    5  O   UNL     1      -9.707  12.092  66.577  1.00  0.00    -0.212 OA 
BRANCH   4   6
HETATM    6  C   UNL     1      -7.339  12.328  66.100  1.00  0.00     1.169 C  
BRANCH   6   7
HETATM    7  C   UNL     1      -7.075  12.394  67.607  1.00  0.00    -0.133 C  
BRANCH   7   8
HETATM    8  C   UNL     1      -6.945  11.011  68.225  1.00  0.00    -0.069 C  
BRANCH   8   9
HETATM    9  C   UNL     1      -6.420  11.063  69.639  1.00  0.00    -0.123 C  
HETATM   10  C   UNL     1      -6.735  10.198  70.617  1.00  0.00    -0.046 C  
BRANCH  10  11
HETATM   11  C   UNL     1      -7.782   9.141  70.495  1.00  0.00    -0.142 C  
BRANCH  11  12
HETATM   12  C   UNL     1      -9.153   9.547  70.941  1.00  0.00    -0.097 C  
HETATM   13  C   UNL     1     -10.151   9.848  70.090  1.00  0.00    -0.309 C  
BRANCH  13  14
HETATM   14  C   UNL     1     -10.133   9.834  68.578  1.00  0.00    -0.185 C  
BRANCH  14  15
HETATM   15  C   UNL     1      -9.147  10.777  67.937  1.00  0.00    -0.150 C  
HETATM   16  C   UNL     1      -9.182  12.117  67.996  1.00  0.00    -0.194 C  
BRANCH  16  17
HETATM   17  C   UNL     1     -10.311  12.914  68.562  1.00  0.00    -0.239 C  
BRANCH  17  18
HETATM   18  C   UNL     1     -10.418  14.215  67.812  1.00  0.00    -0.246 C  
HETATM   19  C   UNL     1      -9.919  15.383  68.242  1.00  0.00    -0.214 C  
BRANCH  19  20
HETATM   20  C   UNL     1      -9.206  15.571  69.539  1.00  0.00    -0.265 C  
BRANCH  20  21
HETATM   21  C   UNL     1      -9.760  16.717  70.331  1.00  0.00     1.775 C  
HETATM   22  C   UNL     1      -9.705  18.001  69.942  1.00  0.00     0.966 C  
BRANCH  22  23
HETATM   23  C   UNL     1      -9.055  18.506  68.690  1.00  0.00    -0.325 C  
HETATM   24  C   UNL     1      -7.762  19.243  68.987  1.00  0.00    -0.337 C  
ENDBRANCH  22  23
ENDBRANCH  20  21
ENDBRANCH  19  20
ENDBRANCH  17  18
ENDBRANCH  16  17
ENDBRANCH  14  15
ENDBRANCH  13  14
ENDBRANCH  11  12
ENDBRANCH  10  11
ENDBRANCH   8   9
ENDBRANCH   7   8
ENDBRANCH   6   7
ENDBRANCH   4   6
ENDBRANCH   3   4
ENDBRANCH   2   3
TORSDOF 15
ENDMDL
