MODEL        1
REMARK 921   NORMALIZED FREE ENERGY PREDICTED BY IDOCK:   -5.45 KCAL/MOL
REMARK 922        TOTAL FREE ENERGY PREDICTED BY IDOCK:  -11.78 KCAL/MOL
REMARK 923 INTER-LIGAND FREE ENERGY PREDICTED BY IDOCK:   -9.28 KCAL/MOL
REMARK 924 INTRA-LIGAND FREE ENERGY PREDICTED BY IDOCK:   -2.51 KCAL/MOL
REMARK 927      BINDING AFFINITY PREDICTED BY RF-SCORE:    0.00 PKD
ROOT
HETATM    1  C   UNL     1     -12.053  16.196  72.680  1.00  0.00    -0.652 C  
HETATM    2  C   UNL     1     -13.033  15.594  71.685  1.00  0.00    -0.551 C  
ENDROOT
BRANCH   2   3
HETATM    3  C   UNL     1     -14.023  14.680  72.354  1.00  0.00    -0.578 C  
HETATM    4  C   UNL     1     -14.010  13.335  72.293  1.00  0.00    -0.559 C  
BRANCH   4   5
HETATM    5  C   UNL     1     -12.970  12.533  71.567  1.00  0.00    -0.379 C  
BRANCH   5   6
HETATM    6  C   UNL     1     -13.141  11.049  71.741  1.00  0.00    -0.554 C  
HETATM    7  C   UNL     1     -12.389  10.112  71.147  1.00  0.00    -0.488 C  
BRANCH   7   8
HETATM    8  C   UNL     1     -11.189  10.440  70.312  1.00  0.00    -0.395 C  
BRANCH   8   9
HETATM    9  C   UNL     1     -11.395  10.104  68.866  1.00  0.00    -0.176 C  
HETATM   10  C   UNL     1     -11.218  10.946  67.831  1.00  0.00    -0.387 C  
BRANCH  10  11
HETATM   11  C   UNL     1     -10.798  12.389  67.910  1.00  0.00    -0.253 C  
BRANCH  11  12
HETATM   12  C   UNL     1     -11.889  13.393  68.205  1.00  0.00    -0.393 C  
HETATM   13  C   UNL     1     -11.786  14.683  68.578  1.00  0.00    -0.346 C  
BRANCH  13  14
HETATM   14  C   UNL     1     -10.511  15.408  68.875  1.00  0.00    -0.238 C  
BRANCH  14  15
HETATM   15  C   UNL     1     -10.410  16.753  68.218  1.00  0.00    -0.319 C  
HETATM   16  C   UNL     1     -10.101  16.911  66.921  1.00  0.00    -0.289 C  
BRANCH  16  17
HETATM   17  C   UNL     1      -9.762  15.746  66.038  1.00  0.00    -0.377 C  
BRANCH  17  18
HETATM   18  C   UNL     1     -10.789  15.491  64.949  1.00  0.00    -0.447 C  
BRANCH  18  19
HETATM   19  C   UNL     1     -10.718  14.034  64.501  1.00  0.00    -0.355 C  
HETATM   20  C   UNL     1     -12.064  13.355  64.603  1.00  0.00    -0.410 C  
HETATM   21  O   UNL     1     -13.088  13.885  65.002  1.00  0.00    -0.749 OA 
HETATM   22  O   UNL     1     -12.015  12.070  64.194  1.00  0.00    -0.381 OA 
ENDBRANCH  18  19
ENDBRANCH  17  18
ENDBRANCH  16  17
ENDBRANCH  14  15
ENDBRANCH  13  14
ENDBRANCH  11  12
ENDBRANCH  10  11
ENDBRANCH   8   9
ENDBRANCH   7   8
ENDBRANCH   5   6
ENDBRANCH   4   5
ENDBRANCH   2   3
TORSDOF 12
ENDMDL
MODEL        2
REMARK 921   NORMALIZED FREE ENERGY PREDICTED BY IDOCK:   -5.29 KCAL/MOL
REMARK 922        TOTAL FREE ENERGY PREDICTED BY IDOCK:  -11.50 KCAL/MOL
REMARK 923 INTER-LIGAND FREE ENERGY PREDICTED BY IDOCK:   -8.37 KCAL/MOL
REMARK 924 INTRA-LIGAND FREE ENERGY PREDICTED BY IDOCK:   -3.13 KCAL/MOL
REMARK 927      BINDING AFFINITY PREDICTED BY RF-SCORE:    0.00 PKD
ROOT
HETATM    1  C   UNL     1      -9.909  10.465  64.269  1.00  0.00    -0.388 C  
HETATM    2  C   UNL     1     -10.202  11.870  63.767  1.00  0.00    -0.442 C  
ENDROOT
BRANCH   2   3
HETATM    3  C   UNL     1     -11.676  12.103  63.580  1.00  0.00    -0.579 C  
HETATM    4  C   UNL     1     -12.529  12.524  64.534  1.00  0.00    -0.539 C  
BRANCH   4   5
HETATM    5  C   UNL     1     -12.123  12.860  65.939  1.00  0.00    -0.503 C  
BRANCH   5   6
HETATM    6  C   UNL     1     -12.156  14.336  66.225  1.00  0.00    -0.433 C  
HETATM    7  C   UNL     1     -11.076  15.122  66.346  1.00  0.00    -0.312 C  
BRANCH   7   8
HETATM    8  C   UNL     1      -9.682  14.636  66.090  1.00  0.00    -0.344 C  
BRANCH   8   9
HETATM    9  C   UNL     1      -8.897  14.473  67.356  1.00  0.00    -0.207 C  
HETATM   10  C   UNL     1      -8.602  13.303  67.953  1.00  0.00    -0.188 C  
BRANCH  10  11
HETATM   11  C   UNL     1      -9.013  11.931  67.489  1.00  0.00    -0.171 C  
BRANCH  11  12
HETATM   12  C   UNL     1      -9.226  10.892  68.566  1.00  0.00    -0.181 C  
HETATM   13  C   UNL     1     -10.366  10.517  69.178  1.00  0.00    -0.240 C  
BRANCH  13  14
HETATM   14  C   UNL     1     -11.713  11.136  68.974  1.00  0.00    -0.408 C  
BRANCH  14  15
HETATM   15  C   UNL     1     -12.385  11.563  70.245  1.00  0.00    -0.355 C  
HETATM   16  C   UNL     1     -12.396  12.836  70.673  1.00  0.00    -0.381 C  
BRANCH  16  17
HETATM   17  C   UNL     1     -11.669  13.926  69.941  1.00  0.00    -0.358 C  
BRANCH  17  18
HETATM   18  C   UNL     1     -12.336  15.285  70.063  1.00  0.00    -0.366 C  
BRANCH  18  19
HETATM   19  C   UNL     1     -13.288  15.289  71.255  1.00  0.00    -0.586 C  
HETATM   20  C   UNL     1     -12.709  16.046  72.427  1.00  0.00    -0.419 C  
HETATM   21  O   UNL     1     -11.613  16.583  72.441  1.00  0.00    -0.423 OA 
HETATM   22  O   UNL     1     -13.550  16.069  73.481  1.00  0.00    -0.549 OA 
ENDBRANCH  18  19
ENDBRANCH  17  18
ENDBRANCH  16  17
ENDBRANCH  14  15
ENDBRANCH  13  14
ENDBRANCH  11  12
ENDBRANCH  10  11
ENDBRANCH   8   9
ENDBRANCH   7   8
ENDBRANCH   5   6
ENDBRANCH   4   5
ENDBRANCH   2   3
TORSDOF 12
ENDMDL
MODEL        3
REMARK 921   NORMALIZED FREE ENERGY PREDICTED BY IDOCK:   -5.27 KCAL/MOL
REMARK 922        TOTAL FREE ENERGY PREDICTED BY IDOCK:  -11.48 KCAL/MOL
REMARK 923 INTER-LIGAND FREE ENERGY PREDICTED BY IDOCK:   -9.23 KCAL/MOL
REMARK 924 INTRA-LIGAND FREE ENERGY PREDICTED BY IDOCK:   -2.25 KCAL/MOL
REMARK 927      BINDING AFFINITY PREDICTED BY RF-SCORE:    0.00 PKD
ROOT
HETATM    1  C   UNL     1     -12.479  15.728  74.337  1.00  0.00    -0.790 C  
HETATM    2  C   UNL     1     -12.406  16.124  72.871  1.00  0.00    -0.607 C  
ENDROOT
BRANCH   2   3
HETATM    3  C   UNL     1     -13.410  15.377  72.037  1.00  0.00    -0.545 C  
HETATM    4  C   UNL     1     -13.160  14.793  70.850  1.00  0.00    -0.418 C  
BRANCH   4   5
HETATM    5  C   UNL     1     -11.814  14.770  70.188  1.00  0.00    -0.360 C  
BRANCH   5   6
HETATM    6  C   UNL     1     -11.627  15.879  69.190  1.00  0.00    -0.382 C  
HETATM    7  C   UNL     1     -11.276  15.710  67.907  1.00  0.00    -0.328 C  
BRANCH   7   8
HETATM    8  C   UNL     1     -11.138  14.361  67.271  1.00  0.00    -0.318 C  
BRANCH   8   9
HETATM    9  C   UNL     1     -12.384  13.944  66.549  1.00  0.00    -0.447 C  
HETATM   10  C   UNL     1     -12.445  13.495  65.282  1.00  0.00    -0.525 C  
BRANCH  10  11
HETATM   11  C   UNL     1     -11.290  13.337  64.330  1.00  0.00    -0.428 C  
BRANCH  11  12
HETATM   12  C   UNL     1     -10.950  11.924  63.911  1.00  0.00    -0.473 C  
HETATM   13  C   UNL     1     -10.393  10.930  64.628  1.00  0.00    -0.407 C  
BRANCH  13  14
HETATM   14  C   UNL     1      -9.890  11.042  66.033  1.00  0.00    -0.273 C  
BRANCH  14  15
HETATM   15  C   UNL     1     -10.070   9.793  66.844  1.00  0.00    -0.287 C  
HETATM   16  C   UNL     1     -10.833   9.744  67.949  1.00  0.00    -0.298 C  
BRANCH  16  17
HETATM   17  C   UNL     1     -11.511  10.964  68.500  1.00  0.00    -0.380 C  
BRANCH  17  18
HETATM   18  C   UNL     1     -11.328  11.134  69.998  1.00  0.00    -0.326 C  
BRANCH  18  19
HETATM   19  C   UNL     1     -12.598  10.707  70.726  1.00  0.00    -0.479 C  
HETATM   20  C   UNL     1     -12.340   9.551  71.664  1.00  0.00    -0.398 C  
HETATM   21  O   UNL     1     -11.261   9.005  71.824  1.00  0.00    -0.336 OA 
HETATM   22  O   UNL     1     -13.455   9.176  72.325  1.00  0.00    -0.424 OA 
ENDBRANCH  18  19
ENDBRANCH  17  18
ENDBRANCH  16  17
ENDBRANCH  14  15
ENDBRANCH  13  14
ENDBRANCH  11  12
ENDBRANCH  10  11
ENDBRANCH   8   9
ENDBRANCH   7   8
ENDBRANCH   5   6
ENDBRANCH   4   5
ENDBRANCH   2   3
TORSDOF 12
ENDMDL
MODEL        4
REMARK 921   NORMALIZED FREE ENERGY PREDICTED BY IDOCK:   -5.25 KCAL/MOL
REMARK 922        TOTAL FREE ENERGY PREDICTED BY IDOCK:  -11.44 KCAL/MOL
REMARK 923 INTER-LIGAND FREE ENERGY PREDICTED BY IDOCK:   -9.08 KCAL/MOL
REMARK 924 INTRA-LIGAND FREE ENERGY PREDICTED BY IDOCK:   -2.36 KCAL/MOL
REMARK 927      BINDING AFFINITY PREDICTED BY RF-SCORE:    0.00 PKD
ROOT
HETATM    1  C   UNL     1     -10.569  11.638  63.366  1.00  0.00    -0.472 C  
HETATM    2  C   UNL     1     -11.962  12.150  63.697  1.00  0.00    -0.628 C  
ENDROOT
BRANCH   2   3
HETATM    3  C   UNL     1     -11.986  13.644  63.869  1.00  0.00    -0.455 C  
HETATM    4  C   UNL     1     -12.020  14.294  65.047  1.00  0.00    -0.412 C  
BRANCH   4   5
HETATM    5  C   UNL     1     -12.003  13.617  66.386  1.00  0.00    -0.466 C  
BRANCH   5   6
HETATM    6  C   UNL     1     -10.629  13.175  66.807  1.00  0.00    -0.267 C  
HETATM    7  C   UNL     1     -10.356  12.056  67.493  1.00  0.00    -0.217 C  
BRANCH   7   8
HETATM    8  C   UNL     1     -11.396  11.031  67.827  1.00  0.00    -0.365 C  
BRANCH   8   9
HETATM    9  C   UNL     1     -11.178  10.421  69.178  1.00  0.00    -0.301 C  
HETATM   10  C   UNL     1     -11.614  10.924  70.348  1.00  0.00    -0.418 C  
BRANCH  10  11
HETATM   11  C   UNL     1     -12.388  12.200  70.542  1.00  0.00    -0.358 C  
BRANCH  11  12
HETATM   12  C   UNL     1     -13.097  12.362  71.867  1.00  0.00    -0.471 C  
HETATM   13  C   UNL     1     -13.734  13.437  72.370  1.00  0.00    -0.698 C  
BRANCH  13  14
HETATM   14  C   UNL     1     -13.807  14.789  71.731  1.00  0.00    -0.540 C  
BRANCH  14  15
HETATM   15  C   UNL     1     -12.642  15.677  72.054  1.00  0.00    -0.503 C  
HETATM   16  C   UNL     1     -11.740  16.060  71.135  1.00  0.00    -0.487 C  
BRANCH  16  17
HETATM   17  C   UNL     1     -11.790  15.567  69.719  1.00  0.00    -0.376 C  
BRANCH  17  18
HETATM   18  C   UNL     1     -10.525  15.859  68.931  1.00  0.00    -0.233 C  
BRANCH  18  19
HETATM   19  C   UNL     1     -10.759  17.042  67.996  1.00  0.00    -0.365 C  
HETATM   20  C   UNL     1      -9.855  16.983  66.788  1.00  0.00    -0.278 C  
HETATM   21  O   UNL     1      -9.026  16.113  66.574  1.00  0.00    -0.231 OA 
HETATM   22  O   UNL     1     -10.065  18.016  65.946  1.00  0.00    -0.536 OA 
ENDBRANCH  18  19
ENDBRANCH  17  18
ENDBRANCH  16  17
ENDBRANCH  14  15
ENDBRANCH  13  14
ENDBRANCH  11  12
ENDBRANCH  10  11
ENDBRANCH   8   9
ENDBRANCH   7   8
ENDBRANCH   5   6
ENDBRANCH   4   5
ENDBRANCH   2   3
TORSDOF 12
ENDMDL
MODEL        5
REMARK 921   NORMALIZED FREE ENERGY PREDICTED BY IDOCK:   -5.16 KCAL/MOL
REMARK 922        TOTAL FREE ENERGY PREDICTED BY IDOCK:  -11.29 KCAL/MOL
REMARK 923 INTER-LIGAND FREE ENERGY PREDICTED BY IDOCK:   -8.68 KCAL/MOL
REMARK 924 INTRA-LIGAND FREE ENERGY PREDICTED BY IDOCK:   -2.62 KCAL/MOL
REMARK 927      BINDING AFFINITY PREDICTED BY RF-SCORE:    0.00 PKD
ROOT
HETATM    1  C   UNL     1     -11.922  11.192  69.190  1.00  0.00    -0.413 C  
HETATM    2  C   UNL     1     -11.534  11.805  67.854  1.00  0.00    -0.387 C  
ENDROOT
BRANCH   2   3
HETATM    3  C   UNL     1     -10.042  11.871  67.679  1.00  0.00    -0.202 C  
HETATM    4  C   UNL     1      -9.338  11.238  66.721  1.00  0.00    -0.191 C  
BRANCH   4   5
HETATM    5  C   UNL     1      -9.950  10.385  65.649  1.00  0.00    -0.337 C  
BRANCH   5   6
HETATM    6  C   UNL     1      -9.761  10.948  64.267  1.00  0.00    -0.347 C  
HETATM    7  C   UNL     1     -10.693  11.618  63.574  1.00  0.00    -0.495 C  
BRANCH   7   8
HETATM    8  C   UNL     1     -12.023  11.995  64.151  1.00  0.00    -0.461 C  
BRANCH   8   9
HETATM    9  C   UNL     1     -12.418  13.397  63.797  1.00  0.00    -0.318 C  
HETATM   10  C   UNL     1     -12.047  14.509  64.459  1.00  0.00    -0.501 C  
BRANCH  10  11
HETATM   11  C   UNL     1     -11.183  14.573  65.690  1.00  0.00    -0.335 C  
BRANCH  11  12
HETATM   12  C   UNL     1      -9.957  15.454  65.607  1.00  0.00    -0.396 C  
HETATM   13  C   UNL     1      -9.637  16.545  66.328  1.00  0.00    -0.333 C  
BRANCH  13  14
HETATM   14  C   UNL     1     -10.506  17.198  67.357  1.00  0.00    -0.334 C  
BRANCH  14  15
HETATM   15  C   UNL     1     -10.035  16.998  68.766  1.00  0.00    -0.293 C  
HETATM   16  C   UNL     1     -10.566  16.080  69.590  1.00  0.00    -0.311 C  
BRANCH  16  17
HETATM   17  C   UNL     1     -11.730  15.225  69.181  1.00  0.00    -0.355 C  
BRANCH  17  18
HETATM   18  C   UNL     1     -12.526  14.685  70.357  1.00  0.00    -0.410 C  
BRANCH  18  19
HETATM   19  C   UNL     1     -12.529  15.704  71.492  1.00  0.00    -0.499 C  
HETATM   20  C   UNL     1     -13.320  15.210  72.681  1.00  0.00    -0.464 C  
HETATM   21  O   UNL     1     -13.901  14.138  72.740  1.00  0.00    -0.645 OA 
HETATM   22  O   UNL     1     -13.316  16.097  73.697  1.00  0.00    -0.651 OA 
ENDBRANCH  18  19
ENDBRANCH  17  18
ENDBRANCH  16  17
ENDBRANCH  14  15
ENDBRANCH  13  14
ENDBRANCH  11  12
ENDBRANCH  10  11
ENDBRANCH   8   9
ENDBRANCH   7   8
ENDBRANCH   5   6
ENDBRANCH   4   5
ENDBRANCH   2   3
TORSDOF 12
ENDMDL
MODEL        6
REMARK 921   NORMALIZED FREE ENERGY PREDICTED BY IDOCK:   -5.15 KCAL/MOL
REMARK 922        TOTAL FREE ENERGY PREDICTED BY IDOCK:  -11.27 KCAL/MOL
REMARK 923 INTER-LIGAND FREE ENERGY PREDICTED BY IDOCK:   -8.67 KCAL/MOL
REMARK 924 INTRA-LIGAND FREE ENERGY PREDICTED BY IDOCK:   -2.60 KCAL/MOL
REMARK 927      BINDING AFFINITY PREDICTED BY RF-SCORE:    0.00 PKD
ROOT
HETATM    1  C   UNL     1     -13.527  12.978  72.148  1.00  0.00    -0.638 C  
HETATM    2  C   UNL     1     -14.021  14.306  71.598  1.00  0.00    -0.472 C  
ENDROOT
BRANCH   2   3
HETATM    3  C   UNL     1     -13.418  15.476  72.326  1.00  0.00    -0.596 C  
HETATM    4  C   UNL     1     -12.201  16.000  72.091  1.00  0.00    -0.597 C  
BRANCH   4   5
HETATM    5  C   UNL     1     -11.263  15.511  71.027  1.00  0.00    -0.419 C  
BRANCH   5   6
HETATM    6  C   UNL     1     -11.752  15.793  69.633  1.00  0.00    -0.363 C  
HETATM    7  C   UNL     1     -11.416  15.091  68.541  1.00  0.00    -0.335 C  
BRANCH   7   8
HETATM    8  C   UNL     1     -10.586  13.845  68.598  1.00  0.00    -0.265 C  
BRANCH   8   9
HETATM    9  C   UNL     1     -11.423  12.613  68.764  1.00  0.00    -0.349 C  
HETATM   10  C   UNL     1     -11.760  11.754  67.784  1.00  0.00    -0.337 C  
BRANCH  10  11
HETATM   11  C   UNL     1     -11.385  11.860  66.330  1.00  0.00    -0.400 C  
BRANCH  11  12
HETATM   12  C   UNL     1     -12.319  12.659  65.450  1.00  0.00    -0.499 C  
HETATM   13  C   UNL     1     -12.083  13.789  64.757  1.00  0.00    -0.438 C  
BRANCH  13  14
HETATM   14  C   UNL     1     -10.811  14.578  64.776  1.00  0.00    -0.410 C  
BRANCH  14  15
HETATM   15  C   UNL     1     -11.008  16.043  65.026  1.00  0.00    -0.393 C  
HETATM   16  C   UNL     1     -10.087  16.811  65.632  1.00  0.00    -0.214 C  
BRANCH  16  17
HETATM   17  C   UNL     1      -8.809  16.240  66.173  1.00  0.00    -0.362 C  
BRANCH  17  18
HETATM   18  C   UNL     1      -8.011  17.227  67.008  1.00  0.00    -0.242 C  
BRANCH  18  19
HETATM   19  C   UNL     1      -8.832  17.665  68.216  1.00  0.00    -0.276 C  
HETATM   20  C   UNL     1      -9.078  19.156  68.210  1.00  0.00    -0.338 C  
HETATM   21  O   UNL     1      -8.668  19.930  67.360  1.00  0.00    -0.313 OA 
HETATM   22  O   UNL     1      -9.817  19.552  69.267  1.00  0.00    -0.417 OA 
ENDBRANCH  18  19
ENDBRANCH  17  18
ENDBRANCH  16  17
ENDBRANCH  14  15
ENDBRANCH  13  14
ENDBRANCH  11  12
ENDBRANCH  10  11
ENDBRANCH   8   9
ENDBRANCH   7   8
ENDBRANCH   5   6
ENDBRANCH   4   5
ENDBRANCH   2   3
TORSDOF 12
ENDMDL
MODEL        7
REMARK 921   NORMALIZED FREE ENERGY PREDICTED BY IDOCK:   -5.15 KCAL/MOL
REMARK 922        TOTAL FREE ENERGY PREDICTED BY IDOCK:  -11.26 KCAL/MOL
REMARK 923 INTER-LIGAND FREE ENERGY PREDICTED BY IDOCK:   -9.07 KCAL/MOL
REMARK 924 INTRA-LIGAND FREE ENERGY PREDICTED BY IDOCK:   -2.19 KCAL/MOL
REMARK 927      BINDING AFFINITY PREDICTED BY RF-SCORE:    0.00 PKD
ROOT
HETATM    1  C   UNL     1     -10.147  13.926  68.435  1.00  0.00    -0.237 C  
HETATM    2  C   UNL     1     -10.550  14.064  66.976  1.00  0.00    -0.279 C  
ENDROOT
BRANCH   2   3
HETATM    3  C   UNL     1     -12.039  13.962  66.792  1.00  0.00    -0.476 C  
HETATM    4  C   UNL     1     -12.675  13.853  65.610  1.00  0.00    -0.534 C  
BRANCH   4   5
HETATM    5  C   UNL     1     -11.981  13.780  64.282  1.00  0.00    -0.481 C  
BRANCH   5   6
HETATM    6  C   UNL     1     -12.134  12.445  63.608  1.00  0.00    -0.648 C  
HETATM    7  C   UNL     1     -11.209  11.475  63.599  1.00  0.00    -0.451 C  
BRANCH   7   8
HETATM    8  C   UNL     1      -9.930  11.562  64.376  1.00  0.00    -0.311 C  
BRANCH   8   9
HETATM    9  C   UNL     1      -9.375  10.211  64.709  1.00  0.00    -0.324 C  
HETATM   10  C   UNL     1      -9.274   9.685  65.944  1.00  0.00    -0.246 C  
BRANCH  10  11
HETATM   11  C   UNL     1      -9.675  10.346  67.235  1.00  0.00    -0.195 C  
BRANCH  11  12
HETATM   12  C   UNL     1     -11.159  10.471  67.494  1.00  0.00    -0.358 C  
HETATM   13  C   UNL     1     -11.817  10.580  68.665  1.00  0.00    -0.047 C  
BRANCH  13  14
HETATM   14  C   UNL     1     -11.196  10.512  70.025  1.00  0.00    -0.386 C  
BRANCH  14  15
HETATM   15  C   UNL     1     -12.167  10.181  71.120  1.00  0.00    -0.490 C  
HETATM   16  C   UNL     1     -12.939  11.105  71.715  1.00  0.00    -0.526 C  
BRANCH  16  17
HETATM   17  C   UNL     1     -12.838  12.563  71.376  1.00  0.00    -0.359 C  
BRANCH  17  18
HETATM   18  C   UNL     1     -13.756  13.443  72.206  1.00  0.00    -0.705 C  
BRANCH  18  19
HETATM   19  C   UNL     1     -12.944  14.543  72.883  1.00  0.00    -0.582 C  
HETATM   20  C   UNL     1     -12.701  15.708  71.952  1.00  0.00    -0.442 C  
HETATM   21  O   UNL     1     -13.087  15.774  70.797  1.00  0.00    -0.522 OA 
HETATM   22  O   UNL     1     -11.997  16.694  72.547  1.00  0.00    -0.471 OA 
ENDBRANCH  18  19
ENDBRANCH  17  18
ENDBRANCH  16  17
ENDBRANCH  14  15
ENDBRANCH  13  14
ENDBRANCH  11  12
ENDBRANCH  10  11
ENDBRANCH   8   9
ENDBRANCH   7   8
ENDBRANCH   5   6
ENDBRANCH   4   5
ENDBRANCH   2   3
TORSDOF 12
ENDMDL
MODEL        8
REMARK 921   NORMALIZED FREE ENERGY PREDICTED BY IDOCK:   -5.14 KCAL/MOL
REMARK 922        TOTAL FREE ENERGY PREDICTED BY IDOCK:  -11.25 KCAL/MOL
REMARK 923 INTER-LIGAND FREE ENERGY PREDICTED BY IDOCK:   -8.56 KCAL/MOL
REMARK 924 INTRA-LIGAND FREE ENERGY PREDICTED BY IDOCK:   -2.69 KCAL/MOL
REMARK 927      BINDING AFFINITY PREDICTED BY RF-SCORE:    0.00 PKD
ROOT
HETATM    1  C   UNL     1     -10.656   5.494  69.828  1.00  0.00    -0.388 C  
HETATM    2  C   UNL     1     -11.623   6.601  70.220  1.00  0.00    -0.454 C  
ENDROOT
BRANCH   2   3
HETATM    3  C   UNL     1     -11.328   7.145  71.591  1.00  0.00    -0.282 C  
HETATM    4  C   UNL     1     -11.998   8.145  72.195  1.00  0.00    -0.413 C  
BRANCH   4   5
HETATM    5  C   UNL     1     -13.178   8.852  71.597  1.00  0.00    -0.411 C  
BRANCH   5   6
HETATM    6  C   UNL     1     -13.180  10.331  71.871  1.00  0.00    -0.550 C  
HETATM    7  C   UNL     1     -12.682  11.267  71.051  1.00  0.00    -0.457 C  
BRANCH   7   8
HETATM    8  C   UNL     1     -12.158  10.956  69.682  1.00  0.00    -0.400 C  
BRANCH   8   9
HETATM    9  C   UNL     1     -10.686  10.671  69.690  1.00  0.00    -0.290 C  
HETATM   10  C   UNL     1     -10.036   9.871  68.825  1.00  0.00    -0.186 C  
BRANCH  10  11
HETATM   11  C   UNL     1     -10.648   9.089  67.693  1.00  0.00    -0.298 C  
BRANCH  11  12
HETATM   12  C   UNL     1      -9.685   8.461  66.710  1.00  0.00    -0.309 C  
HETATM   13  C   UNL     1      -9.283   8.906  65.505  1.00  0.00    -0.242 C  
BRANCH  13  14
HETATM   14  C   UNL     1      -9.790  10.131  64.811  1.00  0.00    -0.382 C  
BRANCH  14  15
HETATM   15  C   UNL     1      -9.258  11.414  65.377  1.00  0.00    -0.167 C  
HETATM   16  C   UNL     1     -10.051  12.377  65.876  1.00  0.00    -0.272 C  
BRANCH  16  17
HETATM   17  C   UNL     1     -11.547  12.270  65.840  1.00  0.00    -0.450 C  
BRANCH  17  18
HETATM   18  C   UNL     1     -12.255  13.547  66.258  1.00  0.00    -0.468 C  
BRANCH  18  19
HETATM   19  C   UNL     1     -11.399  14.756  65.894  1.00  0.00    -0.331 C  
HETATM   20  C   UNL     1     -11.869  15.406  64.614  1.00  0.00    -0.218 C  
HETATM   21  O   UNL     1     -12.807  15.019  63.935  1.00  0.00    -0.679 OA 
HETATM   22  O   UNL     1     -11.128  16.486  64.291  1.00  0.00    -0.915 OA 
ENDBRANCH  18  19
ENDBRANCH  17  18
ENDBRANCH  16  17
ENDBRANCH  14  15
ENDBRANCH  13  14
ENDBRANCH  11  12
ENDBRANCH  10  11
ENDBRANCH   8   9
ENDBRANCH   7   8
ENDBRANCH   5   6
ENDBRANCH   4   5
ENDBRANCH   2   3
TORSDOF 12
ENDMDL
MODEL        9
REMARK 921   NORMALIZED FREE ENERGY PREDICTED BY IDOCK:   -5.13 KCAL/MOL
REMARK 922        TOTAL FREE ENERGY PREDICTED BY IDOCK:  -11.23 KCAL/MOL
REMARK 923 INTER-LIGAND FREE ENERGY PREDICTED BY IDOCK:   -8.86 KCAL/MOL
REMARK 924 INTRA-LIGAND FREE ENERGY PREDICTED BY IDOCK:   -2.37 KCAL/MOL
REMARK 927      BINDING AFFINITY PREDICTED BY RF-SCORE:    0.00 PKD
ROOT
HETATM    1  C   UNL     1      -8.704  10.502  66.030  1.00  0.00    -0.174 C  
HETATM    2  C   UNL     1      -9.330  11.542  66.945  1.00  0.00    -0.189 C  
ENDROOT
BRANCH   2   3
HETATM    3  C   UNL     1     -10.816  11.349  67.082  1.00  0.00    -0.316 C  
HETATM    4  C   UNL     1     -11.453  10.952  68.199  1.00  0.00    -0.368 C  
BRANCH   4   5
HETATM    5  C   UNL     1     -10.770  10.671  69.505  1.00  0.00    -0.290 C  
BRANCH   5   6
HETATM    6  C   UNL     1     -11.683  10.050  70.527  1.00  0.00    -0.400 C  
HETATM    7  C   UNL     1     -12.515  10.728  71.330  1.00  0.00    -0.504 C  
BRANCH   7   8
HETATM    8  C   UNL     1     -12.726  12.207  71.222  1.00  0.00    -0.363 C  
BRANCH   8   9
HETATM    9  C   UNL     1     -13.615  12.734  72.307  1.00  0.00    -0.563 C  
HETATM   10  C   UNL     1     -14.096  13.988  72.390  1.00  0.00    -0.576 C  
BRANCH  10  11
HETATM   11  C   UNL     1     -13.829  15.116  71.429  1.00  0.00    -0.587 C  
BRANCH  11  12
HETATM   12  C   UNL     1     -12.474  15.779  71.528  1.00  0.00    -0.515 C  
HETATM   13  C   UNL     1     -11.464  15.797  70.637  1.00  0.00    -0.415 C  
BRANCH  13  14
HETATM   14  C   UNL     1     -11.434  15.061  69.334  1.00  0.00    -0.320 C  
BRANCH  14  15
HETATM   15  C   UNL     1     -10.065  14.948  68.732  1.00  0.00    -0.241 C  
HETATM   16  C   UNL     1      -9.842  15.020  67.409  1.00  0.00    -0.224 C  
BRANCH  16  17
HETATM   17  C   UNL     1     -10.963  15.149  66.421  1.00  0.00    -0.329 C  
BRANCH  17  18
HETATM   18  C   UNL     1     -10.674  14.482  65.087  1.00  0.00    -0.422 C  
BRANCH  18  19
HETATM   19  C   UNL     1     -11.970  13.951  64.482  1.00  0.00    -0.464 C  
HETATM   20  C   UNL     1     -11.728  12.719  63.643  1.00  0.00    -0.519 C  
HETATM   21  O   UNL     1     -10.638  12.205  63.451  1.00  0.00    -0.436 OA 
HETATM   22  O   UNL     1     -12.871  12.232  63.116  1.00  0.00    -0.646 OA 
ENDBRANCH  18  19
ENDBRANCH  17  18
ENDBRANCH  16  17
ENDBRANCH  14  15
ENDBRANCH  13  14
ENDBRANCH  11  12
ENDBRANCH  10  11
ENDBRANCH   8   9
ENDBRANCH   7   8
ENDBRANCH   5   6
ENDBRANCH   4   5
ENDBRANCH   2   3
TORSDOF 12
ENDMDL
MODEL       10
REMARK 921   NORMALIZED FREE ENERGY PREDICTED BY IDOCK:   -5.12 KCAL/MOL
REMARK 922        TOTAL FREE ENERGY PREDICTED BY IDOCK:  -11.22 KCAL/MOL
REMARK 923 INTER-LIGAND FREE ENERGY PREDICTED BY IDOCK:   -9.42 KCAL/MOL
REMARK 924 INTRA-LIGAND FREE ENERGY PREDICTED BY IDOCK:   -1.80 KCAL/MOL
REMARK 927      BINDING AFFINITY PREDICTED BY RF-SCORE:    0.00 PKD
ROOT
HETATM    1  C   UNL     1     -12.531  12.175  63.348  1.00  0.00    -0.625 C  
HETATM    2  C   UNL     1     -11.108  11.797  63.725  1.00  0.00    -0.513 C  
ENDROOT
BRANCH   2   3
HETATM    3  C   UNL     1     -10.424  12.886  64.505  1.00  0.00    -0.400 C  
HETATM    4  C   UNL     1     -10.684  13.210  65.786  1.00  0.00    -0.292 C  
BRANCH   4   5
HETATM    5  C   UNL     1     -11.684  12.500  66.650  1.00  0.00    -0.453 C  
BRANCH   5   6
HETATM    6  C   UNL     1     -11.098  11.329  67.392  1.00  0.00    -0.358 C  
HETATM    7  C   UNL     1     -11.174  11.141  68.717  1.00  0.00    -0.314 C  
BRANCH   7   8
HETATM    8  C   UNL     1     -11.967  12.033  69.623  1.00  0.00    -0.360 C  
BRANCH   8   9
HETATM    9  C   UNL     1     -12.320  11.361  70.915  1.00  0.00    -0.483 C  
HETATM   10  C   UNL     1     -13.015  11.915  71.925  1.00  0.00    -0.434 C  
BRANCH  10  11
HETATM   11  C   UNL     1     -13.560  13.317  71.975  1.00  0.00    -0.573 C  
BRANCH  11  12
HETATM   12  C   UNL     1     -12.938  14.246  72.993  1.00  0.00    -0.512 C  
HETATM   13  C   UNL     1     -12.010  15.206  72.821  1.00  0.00    -0.482 C  
BRANCH  13  14
HETATM   14  C   UNL     1     -11.301  15.517  71.540  1.00  0.00    -0.466 C  
BRANCH  14  15
HETATM   15  C   UNL     1     -12.219  15.709  70.369  1.00  0.00    -0.429 C  
HETATM   16  C   UNL     1     -11.783  15.750  69.099  1.00  0.00    -0.398 C  
BRANCH  16  17
HETATM   17  C   UNL     1     -10.324  15.676  68.757  1.00  0.00    -0.218 C  
BRANCH  17  18
HETATM   18  C   UNL     1      -9.661  17.038  68.637  1.00  0.00    -0.275 C  
BRANCH  18  19
HETATM   19  C   UNL     1     -10.471  17.926  67.698  1.00  0.00    -0.406 C  
HETATM   20  C   UNL     1      -9.820  18.039  66.339  1.00  0.00    -0.340 C  
HETATM   21  O   UNL     1      -8.772  17.504  66.018  1.00  0.00    -0.497 OA 
HETATM   22  O   UNL     1     -10.537  18.810  65.496  1.00  0.00    -0.596 OA 
ENDBRANCH  18  19
ENDBRANCH  17  18
ENDBRANCH  16  17
ENDBRANCH  14  15
ENDBRANCH  13  14
ENDBRANCH  11  12
ENDBRANCH  10  11
ENDBRANCH   8   9
ENDBRANCH   7   8
ENDBRANCH   5   6
ENDBRANCH   4   5
ENDBRANCH   2   3
TORSDOF 12
ENDMDL
MODEL       11
REMARK 921   NORMALIZED FREE ENERGY PREDICTED BY IDOCK:   -5.09 KCAL/MOL
REMARK 922        TOTAL FREE ENERGY PREDICTED BY IDOCK:  -11.16 KCAL/MOL
REMARK 923 INTER-LIGAND FREE ENERGY PREDICTED BY IDOCK:   -8.84 KCAL/MOL
REMARK 924 INTRA-LIGAND FREE ENERGY PREDICTED BY IDOCK:   -2.32 KCAL/MOL
REMARK 927      BINDING AFFINITY PREDICTED BY RF-SCORE:    0.00 PKD
ROOT
HETATM    1  C   UNL     1     -12.397   8.891  72.064  1.00  0.00    -0.460 C  
HETATM    2  C   UNL     1     -11.529   9.471  70.959  1.00  0.00    -0.420 C  
ENDROOT
BRANCH   2   3
HETATM    3  C   UNL     1     -11.901  10.893  70.640  1.00  0.00    -0.453 C  
HETATM    4  C   UNL     1     -11.816  11.469  69.426  1.00  0.00    -0.417 C  
BRANCH   4   5
HETATM    5  C   UNL     1     -11.364  10.759  68.184  1.00  0.00    -0.377 C  
BRANCH   5   6
HETATM    6  C   UNL     1      -9.944  11.079  67.804  1.00  0.00    -0.194 C  
HETATM    7  C   UNL     1      -9.380  10.794  66.622  1.00  0.00    -0.188 C  
BRANCH   7   8
HETATM    8  C   UNL     1     -10.146  10.215  65.472  1.00  0.00    -0.338 C  
BRANCH   8   9
HETATM    9  C   UNL     1      -9.728  10.802  64.159  1.00  0.00    -0.364 C  
HETATM   10  C   UNL     1     -10.490  11.576  63.365  1.00  0.00    -0.466 C  
BRANCH  10  11
HETATM   11  C   UNL     1     -11.913  11.994  63.620  1.00  0.00    -0.612 C  
BRANCH  11  12
HETATM   12  C   UNL     1     -12.196  13.479  63.586  1.00  0.00    -0.438 C  
HETATM   13  C   UNL     1     -12.284  14.357  64.604  1.00  0.00    -0.479 C  
BRANCH  13  14
HETATM   14  C   UNL     1     -12.200  14.019  66.059  1.00  0.00    -0.484 C  
BRANCH  14  15
HETATM   15  C   UNL     1     -10.844  14.247  66.659  1.00  0.00    -0.301 C  
HETATM   16  C   UNL     1     -10.665  14.806  67.867  1.00  0.00    -0.259 C  
BRANCH  16  17
HETATM   17  C   UNL     1     -11.815  15.315  68.685  1.00  0.00    -0.329 C  
BRANCH  17  18
HETATM   18  C   UNL     1     -11.871  14.725  70.084  1.00  0.00    -0.360 C  
BRANCH  18  19
HETATM   19  C   UNL     1     -13.032  15.341  70.859  1.00  0.00    -0.522 C  
HETATM   20  C   UNL     1     -12.683  15.544  72.314  1.00  0.00    -0.400 C  
HETATM   21  O   UNL     1     -11.616  15.248  72.828  1.00  0.00    -0.445 OA 
HETATM   22  O   UNL     1     -13.698  16.103  73.006  1.00  0.00    -0.535 OA 
ENDBRANCH  18  19
ENDBRANCH  17  18
ENDBRANCH  16  17
ENDBRANCH  14  15
ENDBRANCH  13  14
ENDBRANCH  11  12
ENDBRANCH  10  11
ENDBRANCH   8   9
ENDBRANCH   7   8
ENDBRANCH   5   6
ENDBRANCH   4   5
ENDBRANCH   2   3
TORSDOF 12
ENDMDL
MODEL       12
REMARK 921   NORMALIZED FREE ENERGY PREDICTED BY IDOCK:   -5.08 KCAL/MOL
REMARK 922        TOTAL FREE ENERGY PREDICTED BY IDOCK:  -11.15 KCAL/MOL
REMARK 923 INTER-LIGAND FREE ENERGY PREDICTED BY IDOCK:   -8.79 KCAL/MOL
REMARK 924 INTRA-LIGAND FREE ENERGY PREDICTED BY IDOCK:   -2.36 KCAL/MOL
REMARK 927      BINDING AFFINITY PREDICTED BY RF-SCORE:    0.00 PKD
ROOT
HETATM    1  C   UNL     1     -11.789  16.055  71.465  1.00  0.00    -0.554 C  
HETATM    2  C   UNL     1     -13.069  15.297  71.150  1.00  0.00    -0.546 C  
ENDROOT
BRANCH   2   3
HETATM    3  C   UNL     1     -13.580  14.537  72.343  1.00  0.00    -0.566 C  
HETATM    4  C   UNL     1     -13.439  13.213  72.546  1.00  0.00    -0.579 C  
BRANCH   4   5
HETATM    5  C   UNL     1     -12.710  12.290  71.615  1.00  0.00    -0.309 C  
BRANCH   5   6
HETATM    6  C   UNL     1     -13.154  10.858  71.735  1.00  0.00    -0.564 C  
HETATM    7  C   UNL     1     -12.390   9.789  71.469  1.00  0.00    -0.495 C  
BRANCH   7   8
HETATM    8  C   UNL     1     -10.935   9.893  71.126  1.00  0.00    -0.298 C  
BRANCH   8   9
HETATM    9  C   UNL     1     -10.322   8.555  70.846  1.00  0.00    -0.245 C  
HETATM   10  C   UNL     1      -9.587   8.238  69.763  1.00  0.00    -0.171 C  
BRANCH  10  11
HETATM   11  C   UNL     1      -9.249   9.147  68.612  1.00  0.00    -0.136 C  
BRANCH  11  12
HETATM   12  C   UNL     1     -10.371   9.460  67.649  1.00  0.00    -0.303 C  
HETATM   13  C   UNL     1     -10.896  10.652  67.305  1.00  0.00    -0.345 C  
BRANCH  13  14
HETATM   14  C   UNL     1     -10.518  11.975  67.893  1.00  0.00    -0.221 C  
BRANCH  14  15
HETATM   15  C   UNL     1     -11.688  12.867  68.184  1.00  0.00    -0.395 C  
HETATM   16  C   UNL     1     -11.814  14.099  67.664  1.00  0.00    -0.427 C  
BRANCH  16  17
HETATM   17  C   UNL     1     -10.749  14.709  66.800  1.00  0.00    -0.301 C  
BRANCH  17  18
HETATM   18  C   UNL     1     -11.155  14.843  65.343  1.00  0.00    -0.366 C  
BRANCH  18  19
HETATM   19  C   UNL     1     -10.726  13.600  64.570  1.00  0.00    -0.420 C  
HETATM   20  C   UNL     1     -11.897  12.687  64.290  1.00  0.00    -0.393 C  
HETATM   21  O   UNL     1     -13.047  12.895  64.641  1.00  0.00    -0.742 OA 
HETATM   22  O   UNL     1     -11.530  11.592  63.593  1.00  0.00    -0.412 OA 
ENDBRANCH  18  19
ENDBRANCH  17  18
ENDBRANCH  16  17
ENDBRANCH  14  15
ENDBRANCH  13  14
ENDBRANCH  11  12
ENDBRANCH  10  11
ENDBRANCH   8   9
ENDBRANCH   7   8
ENDBRANCH   5   6
ENDBRANCH   4   5
ENDBRANCH   2   3
TORSDOF 12
ENDMDL
MODEL       13
REMARK 921   NORMALIZED FREE ENERGY PREDICTED BY IDOCK:   -5.08 KCAL/MOL
REMARK 922        TOTAL FREE ENERGY PREDICTED BY IDOCK:  -11.14 KCAL/MOL
REMARK 923 INTER-LIGAND FREE ENERGY PREDICTED BY IDOCK:   -8.67 KCAL/MOL
REMARK 924 INTRA-LIGAND FREE ENERGY PREDICTED BY IDOCK:   -2.47 KCAL/MOL
REMARK 927      BINDING AFFINITY PREDICTED BY RF-SCORE:    0.00 PKD
ROOT
HETATM    1  C   UNL     1     -13.350  15.815  73.181  1.00  0.00    -0.685 C  
HETATM    2  C   UNL     1     -14.029  14.892  72.182  1.00  0.00    -0.598 C  
ENDROOT
BRANCH   2   3
HETATM    3  C   UNL     1     -13.115  13.790  71.723  1.00  0.00    -0.463 C  
HETATM    4  C   UNL     1     -12.301  13.844  70.652  1.00  0.00    -0.451 C  
BRANCH   4   5
HETATM    5  C   UNL     1     -12.158  15.043  69.761  1.00  0.00    -0.354 C  
BRANCH   5   6
HETATM    6  C   UNL     1     -10.901  15.827  70.024  1.00  0.00    -0.348 C  
HETATM    7  C   UNL     1     -10.153  16.421  69.083  1.00  0.00    -0.278 C  
BRANCH   7   8
HETATM    8  C   UNL     1     -10.551  16.475  67.640  1.00  0.00    -0.321 C  
BRANCH   8   9
HETATM    9  C   UNL     1      -9.551  15.802  66.750  1.00  0.00    -0.253 C  
HETATM   10  C   UNL     1      -9.838  15.077  65.652  1.00  0.00    -0.380 C  
BRANCH  10  11
HETATM   11  C   UNL     1     -11.208  14.780  65.107  1.00  0.00    -0.384 C  
BRANCH  11  12
HETATM   12  C   UNL     1     -12.203  14.179  66.074  1.00  0.00    -0.464 C  
HETATM   13  C   UNL     1     -12.128  13.032  66.775  1.00  0.00    -0.366 C  
BRANCH  13  14
HETATM   14  C   UNL     1     -11.031  12.018  66.678  1.00  0.00    -0.330 C  
BRANCH  14  15
HETATM   15  C   UNL     1     -10.008  12.123  67.770  1.00  0.00    -0.198 C  
HETATM   16  C   UNL     1     -10.104  11.450  68.928  1.00  0.00    -0.166 C  
BRANCH  16  17
HETATM   17  C   UNL     1     -11.290  10.588  69.248  1.00  0.00    -0.325 C  
BRANCH  17  18
HETATM   18  C   UNL     1     -11.383  10.208  70.716  1.00  0.00    -0.436 C  
BRANCH  18  19
HETATM   19  C   UNL     1     -12.848  10.108  71.133  1.00  0.00    -0.494 C  
HETATM   20  C   UNL     1     -13.055   9.045  72.185  1.00  0.00    -0.435 C  
HETATM   21  O   UNL     1     -12.176   8.336  72.649  1.00  0.00    -0.364 OA 
HETATM   22  O   UNL     1     -14.345   8.959  72.572  1.00  0.00    -0.579 OA 
ENDBRANCH  18  19
ENDBRANCH  17  18
ENDBRANCH  16  17
ENDBRANCH  14  15
ENDBRANCH  13  14
ENDBRANCH  11  12
ENDBRANCH  10  11
ENDBRANCH   8   9
ENDBRANCH   7   8
ENDBRANCH   5   6
ENDBRANCH   4   5
ENDBRANCH   2   3
TORSDOF 12
ENDMDL
MODEL       14
REMARK 921   NORMALIZED FREE ENERGY PREDICTED BY IDOCK:   -5.07 KCAL/MOL
REMARK 922        TOTAL FREE ENERGY PREDICTED BY IDOCK:  -11.13 KCAL/MOL
REMARK 923 INTER-LIGAND FREE ENERGY PREDICTED BY IDOCK:   -9.22 KCAL/MOL
REMARK 924 INTRA-LIGAND FREE ENERGY PREDICTED BY IDOCK:   -1.91 KCAL/MOL
REMARK 927      BINDING AFFINITY PREDICTED BY RF-SCORE:    0.00 PKD
ROOT
HETATM    1  C   UNL     1     -12.502  15.925  74.099  1.00  0.00    -0.776 C  
HETATM    2  C   UNL     1     -12.786  15.950  72.606  1.00  0.00    -0.554 C  
ENDROOT
BRANCH   2   3
HETATM    3  C   UNL     1     -14.034  15.187  72.258  1.00  0.00    -0.631 C  
HETATM    4  C   UNL     1     -14.098  13.866  72.004  1.00  0.00    -0.568 C  
BRANCH   4   5
HETATM    5  C   UNL     1     -12.921  12.938  72.066  1.00  0.00    -0.385 C  
BRANCH   5   6
HETATM    6  C   UNL     1     -13.310  11.486  72.004  1.00  0.00    -0.397 C  
HETATM    7  C   UNL     1     -12.755  10.573  71.194  1.00  0.00    -0.518 C  
BRANCH   7   8
HETATM    8  C   UNL     1     -11.576  10.871  70.318  1.00  0.00    -0.426 C  
BRANCH   8   9
HETATM    9  C   UNL     1     -11.986  11.371  68.966  1.00  0.00    -0.387 C  
HETATM   10  C   UNL     1     -11.290  11.211  67.825  1.00  0.00    -0.364 C  
BRANCH  10  11
HETATM   11  C   UNL     1      -9.961  10.521  67.674  1.00  0.00    -0.202 C  
BRANCH  11  12
HETATM   12  C   UNL     1      -9.002  11.118  66.670  1.00  0.00    -0.175 C  
HETATM   13  C   UNL     1      -9.146  11.278  65.340  1.00  0.00    -0.162 C  
BRANCH  13  14
HETATM   14  C   UNL     1     -10.305  10.799  64.523  1.00  0.00    -0.401 C  
BRANCH  14  15
HETATM   15  C   UNL     1     -10.774  11.787  63.497  1.00  0.00    -0.501 C  
HETATM   16  C   UNL     1     -11.744  12.684  63.736  1.00  0.00    -0.566 C  
BRANCH  16  17
HETATM   17  C   UNL     1     -12.489  12.718  65.039  1.00  0.00    -0.572 C  
BRANCH  17  18
HETATM   18  C   UNL     1     -12.488  14.085  65.701  1.00  0.00    -0.531 C  
BRANCH  18  19
HETATM   19  C   UNL     1     -11.080  14.427  66.178  1.00  0.00    -0.330 C  
HETATM   20  C   UNL     1     -11.071  14.844  67.630  1.00  0.00    -0.311 C  
HETATM   21  O   UNL     1     -12.057  14.916  68.345  1.00  0.00    -0.249 OA 
HETATM   22  O   UNL     1      -9.827  15.134  68.067  1.00  0.00    -0.211 OA 
ENDBRANCH  18  19
ENDBRANCH  17  18
ENDBRANCH  16  17
ENDBRANCH  14  15
ENDBRANCH  13  14
ENDBRANCH  11  12
ENDBRANCH  10  11
ENDBRANCH   8   9
ENDBRANCH   7   8
ENDBRANCH   5   6
ENDBRANCH   4   5
ENDBRANCH   2   3
TORSDOF 12
ENDMDL
MODEL       15
REMARK 921   NORMALIZED FREE ENERGY PREDICTED BY IDOCK:   -5.00 KCAL/MOL
REMARK 922        TOTAL FREE ENERGY PREDICTED BY IDOCK:  -11.01 KCAL/MOL
REMARK 923 INTER-LIGAND FREE ENERGY PREDICTED BY IDOCK:   -8.43 KCAL/MOL
REMARK 924 INTRA-LIGAND FREE ENERGY PREDICTED BY IDOCK:   -2.58 KCAL/MOL
REMARK 927      BINDING AFFINITY PREDICTED BY RF-SCORE:    0.00 PKD
ROOT
HETATM    1  C   UNL     1     -13.140   9.993  71.699  1.00  0.00    -0.547 C  
HETATM    2  C   UNL     1     -11.888  10.399  70.938  1.00  0.00    -0.475 C  
ENDROOT
BRANCH   2   3
HETATM    3  C   UNL     1     -12.061  11.716  70.233  1.00  0.00    -0.443 C  
HETATM    4  C   UNL     1     -11.749  11.961  68.946  1.00  0.00    -0.381 C  
BRANCH   4   5
HETATM    5  C   UNL     1     -11.207  10.932  67.999  1.00  0.00    -0.378 C  
BRANCH   5   6
HETATM    6  C   UNL     1      -9.758  11.146  67.660  1.00  0.00    -0.184 C  
HETATM    7  C   UNL     1      -9.161  10.733  66.533  1.00  0.00    -0.181 C  
BRANCH   7   8
HETATM    8  C   UNL     1      -9.909  10.097  65.401  1.00  0.00    -0.375 C  
BRANCH   8   9
HETATM    9  C   UNL     1      -9.557  10.704  64.077  1.00  0.00    -0.351 C  
HETATM   10  C   UNL     1     -10.368  11.470  63.324  1.00  0.00    -0.435 C  
BRANCH  10  11
HETATM   11  C   UNL     1     -11.788  11.857  63.643  1.00  0.00    -0.573 C  
BRANCH  11  12
HETATM   12  C   UNL     1     -12.118  13.330  63.564  1.00  0.00    -0.550 C  
HETATM   13  C   UNL     1     -11.941  14.297  64.484  1.00  0.00    -0.478 C  
BRANCH  13  14
HETATM   14  C   UNL     1     -11.432  14.095  65.877  1.00  0.00    -0.338 C  
BRANCH  14  15
HETATM   15  C   UNL     1      -9.954  14.305  66.020  1.00  0.00    -0.337 C  
HETATM   16  C   UNL     1      -9.391  14.797  67.136  1.00  0.00    -0.233 C  
BRANCH  16  17
HETATM   17  C   UNL     1     -10.213  15.243  68.310  1.00  0.00    -0.226 C  
BRANCH  17  18
HETATM   18  C   UNL     1     -11.028  16.496  68.036  1.00  0.00    -0.320 C  
BRANCH  18  19
HETATM   19  C   UNL     1     -10.110  17.715  68.013  1.00  0.00    -0.343 C  
HETATM   20  C   UNL     1      -9.986  18.290  66.622  1.00  0.00    -0.364 C  
HETATM   21  O   UNL     1     -10.534  17.844  65.627  1.00  0.00    -0.610 OA 
HETATM   22  O   UNL     1      -9.189  19.379  66.592  1.00  0.00    -0.310 OA 
ENDBRANCH  18  19
ENDBRANCH  17  18
ENDBRANCH  16  17
ENDBRANCH  14  15
ENDBRANCH  13  14
ENDBRANCH  11  12
ENDBRANCH  10  11
ENDBRANCH   8   9
ENDBRANCH   7   8
ENDBRANCH   5   6
ENDBRANCH   4   5
ENDBRANCH   2   3
TORSDOF 12
ENDMDL
MODEL       16
REMARK 921   NORMALIZED FREE ENERGY PREDICTED BY IDOCK:   -4.99 KCAL/MOL
REMARK 922        TOTAL FREE ENERGY PREDICTED BY IDOCK:  -10.99 KCAL/MOL
REMARK 923 INTER-LIGAND FREE ENERGY PREDICTED BY IDOCK:   -8.00 KCAL/MOL
REMARK 924 INTRA-LIGAND FREE ENERGY PREDICTED BY IDOCK:   -2.99 KCAL/MOL
REMARK 927      BINDING AFFINITY PREDICTED BY RF-SCORE:    0.00 PKD
ROOT
HETATM    1  C   UNL     1     -10.029  11.864  63.457  1.00  0.00    -0.422 C  
HETATM    2  C   UNL     1     -11.104  11.535  64.481  1.00  0.00    -0.340 C  
ENDROOT
BRANCH   2   3
HETATM    3  C   UNL     1     -12.327  12.393  64.307  1.00  0.00    -0.544 C  
HETATM    4  C   UNL     1     -12.663  13.441  65.082  1.00  0.00    -0.459 C  
BRANCH   4   5
HETATM    5  C   UNL     1     -11.837  13.940  66.230  1.00  0.00    -0.431 C  
BRANCH   5   6
HETATM    6  C   UNL     1     -10.444  14.340  65.827  1.00  0.00    -0.326 C  
HETATM    7  C   UNL     1      -9.344  14.157  66.570  1.00  0.00    -0.285 C  
BRANCH   7   8
HETATM    8  C   UNL     1      -9.353  13.411  67.869  1.00  0.00    -0.216 C  
BRANCH   8   9
HETATM    9  C   UNL     1      -9.138  11.940  67.681  1.00  0.00    -0.179 C  
HETATM   10  C   UNL     1     -10.063  10.980  67.867  1.00  0.00    -0.199 C  
BRANCH  10  11
HETATM   11  C   UNL     1     -11.486  11.180  68.317  1.00  0.00    -0.373 C  
BRANCH  11  12
HETATM   12  C   UNL     1     -11.702  11.370  69.801  1.00  0.00    -0.418 C  
HETATM   13  C   UNL     1     -12.036  12.483  70.482  1.00  0.00    -0.361 C  
BRANCH  13  14
HETATM   14  C   UNL     1     -12.189  13.852  69.897  1.00  0.00    -0.393 C  
BRANCH  14  15
HETATM   15  C   UNL     1     -11.719  14.954  70.798  1.00  0.00    -0.364 C  
HETATM   16  C   UNL     1     -11.273  16.134  70.337  1.00  0.00    -0.394 C  
BRANCH  16  17
HETATM   17  C   UNL     1     -11.144  16.415  68.869  1.00  0.00    -0.328 C  
BRANCH  17  18
HETATM   18  C   UNL     1     -10.524  17.768  68.564  1.00  0.00    -0.332 C  
BRANCH  18  19
HETATM   19  C   UNL     1      -9.177  17.576  67.874  1.00  0.00    -0.265 C  
HETATM   20  C   UNL     1      -9.278  17.800  66.384  1.00  0.00    -0.240 C  
HETATM   21  O   UNL     1     -10.303  18.088  65.786  1.00  0.00    -0.583 OA 
HETATM   22  O   UNL     1      -8.089  17.648  65.765  1.00  0.00    -0.550 OA 
ENDBRANCH  18  19
ENDBRANCH  17  18
ENDBRANCH  16  17
ENDBRANCH  14  15
ENDBRANCH  13  14
ENDBRANCH  11  12
ENDBRANCH  10  11
ENDBRANCH   8   9
ENDBRANCH   7   8
ENDBRANCH   5   6
ENDBRANCH   4   5
ENDBRANCH   2   3
TORSDOF 12
ENDMDL
MODEL       17
REMARK 921   NORMALIZED FREE ENERGY PREDICTED BY IDOCK:   -4.98 KCAL/MOL
REMARK 922        TOTAL FREE ENERGY PREDICTED BY IDOCK:  -10.98 KCAL/MOL
REMARK 923 INTER-LIGAND FREE ENERGY PREDICTED BY IDOCK:   -9.39 KCAL/MOL
REMARK 924 INTRA-LIGAND FREE ENERGY PREDICTED BY IDOCK:   -1.59 KCAL/MOL
REMARK 927      BINDING AFFINITY PREDICTED BY RF-SCORE:    0.00 PKD
ROOT
HETATM    1  C   UNL     1     -10.954   6.310  69.610  1.00  0.00    -0.440 C  
HETATM    2  C   UNL     1     -11.247   6.483  71.092  1.00  0.00    -0.353 C  
ENDROOT
BRANCH   2   3
HETATM    3  C   UNL     1     -10.247   7.385  71.761  1.00  0.00    -0.212 C  
HETATM    4  C   UNL     1     -10.255   8.730  71.716  1.00  0.00    -0.408 C  
BRANCH   4   5
HETATM    5  C   UNL     1     -11.298   9.545  71.009  1.00  0.00    -0.423 C  
BRANCH   5   6
HETATM    6  C   UNL     1     -12.612   9.584  71.740  1.00  0.00    -0.490 C  
HETATM    7  C   UNL     1     -13.337  10.689  71.964  1.00  0.00    -0.409 C  
BRANCH   7   8
HETATM    8  C   UNL     1     -12.974  12.029  71.401  1.00  0.00    -0.362 C  
BRANCH   8   9
HETATM    9  C   UNL     1     -13.482  13.157  72.247  1.00  0.00    -0.665 C  
HETATM   10  C   UNL     1     -12.943  14.388  72.321  1.00  0.00    -0.455 C  
BRANCH  10  11
HETATM   11  C   UNL     1     -11.721  14.878  71.592  1.00  0.00    -0.395 C  
BRANCH  11  12
HETATM   12  C   UNL     1     -11.952  15.499  70.233  1.00  0.00    -0.401 C  
HETATM   13  C   UNL     1     -11.721  14.987  69.008  1.00  0.00    -0.351 C  
BRANCH  13  14
HETATM   14  C   UNL     1     -11.080  13.666  68.720  1.00  0.00    -0.302 C  
BRANCH  14  15
HETATM   15  C   UNL     1     -11.933  12.742  67.903  1.00  0.00    -0.320 C  
HETATM   16  C   UNL     1     -11.655  12.428  66.627  1.00  0.00    -0.447 C  
BRANCH  16  17
HETATM   17  C   UNL     1     -10.497  13.039  65.894  1.00  0.00    -0.293 C  
BRANCH  17  18
HETATM   18  C   UNL     1     -10.875  14.265  65.080  1.00  0.00    -0.387 C  
BRANCH  18  19
HETATM   19  C   UNL     1     -10.282  15.515  65.724  1.00  0.00    -0.390 C  
HETATM   20  C   UNL     1     -10.735  16.771  65.018  1.00  0.00    -0.100 C  
HETATM   21  O   UNL     1     -11.473  16.803  64.047  1.00  0.00    -1.198 OA 
HETATM   22  O   UNL     1     -10.228  17.884  65.589  1.00  0.00    -0.589 OA 
ENDBRANCH  18  19
ENDBRANCH  17  18
ENDBRANCH  16  17
ENDBRANCH  14  15
ENDBRANCH  13  14
ENDBRANCH  11  12
ENDBRANCH  10  11
ENDBRANCH   8   9
ENDBRANCH   7   8
ENDBRANCH   5   6
ENDBRANCH   4   5
ENDBRANCH   2   3
TORSDOF 12
ENDMDL
MODEL       18
REMARK 921   NORMALIZED FREE ENERGY PREDICTED BY IDOCK:   -4.96 KCAL/MOL
REMARK 922        TOTAL FREE ENERGY PREDICTED BY IDOCK:  -10.94 KCAL/MOL
REMARK 923 INTER-LIGAND FREE ENERGY PREDICTED BY IDOCK:   -8.80 KCAL/MOL
REMARK 924 INTRA-LIGAND FREE ENERGY PREDICTED BY IDOCK:   -2.14 KCAL/MOL
REMARK 927      BINDING AFFINITY PREDICTED BY RF-SCORE:    0.00 PKD
ROOT
HETATM    1  C   UNL     1      -9.798  10.953  63.453  1.00  0.00    -0.408 C  
HETATM    2  C   UNL     1     -10.476  10.795  64.804  1.00  0.00    -0.335 C  
ENDROOT
BRANCH   2   3
HETATM    3  C   UNL     1      -9.534  11.075  65.943  1.00  0.00    -0.244 C  
HETATM    4  C   UNL     1      -9.777  10.813  67.241  1.00  0.00    -0.187 C  
BRANCH   4   5
HETATM    5  C   UNL     1     -11.028  10.160  67.750  1.00  0.00    -0.338 C  
BRANCH   5   6
HETATM    6  C   UNL     1     -10.774   8.836  68.415  1.00  0.00    -0.112 C  
HETATM    7  C   UNL     1     -10.628   8.652  69.735  1.00  0.00    -0.224 C  
BRANCH   7   8
HETATM    8  C   UNL     1     -10.818   9.750  70.737  1.00  0.00    -0.403 C  
BRANCH   8   9
HETATM    9  C   UNL     1     -12.058   9.560  71.557  1.00  0.00    -0.468 C  
HETATM   10  C   UNL     1     -12.975  10.508  71.826  1.00  0.00    -0.582 C  
BRANCH  10  11
HETATM   11  C   UNL     1     -12.938  11.945  71.378  1.00  0.00    -0.385 C  
BRANCH  11  12
HETATM   12  C   UNL     1     -13.453  12.970  72.362  1.00  0.00    -0.615 C  
HETATM   13  C   UNL     1     -13.734  14.274  72.171  1.00  0.00    -0.569 C  
BRANCH  13  14
HETATM   14  C   UNL     1     -13.506  15.040  70.906  1.00  0.00    -0.402 C  
BRANCH  14  15
HETATM   15  C   UNL     1     -12.064  15.356  70.638  1.00  0.00    -0.412 C  
HETATM   16  C   UNL     1     -11.434  14.990  69.509  1.00  0.00    -0.317 C  
BRANCH  16  17
HETATM   17  C   UNL     1     -12.112  14.168  68.453  1.00  0.00    -0.308 C  
BRANCH  17  18
HETATM   18  C   UNL     1     -11.318  14.067  67.162  1.00  0.00    -0.348 C  
BRANCH  18  19
HETATM   19  C   UNL     1     -12.259  13.776  65.997  1.00  0.00    -0.495 C  
HETATM   20  C   UNL     1     -11.809  14.469  64.733  1.00  0.00    -0.441 C  
HETATM   21  O   UNL     1     -10.826  15.186  64.638  1.00  0.00    -0.377 OA 
HETATM   22  O   UNL     1     -12.626  14.206  63.692  1.00  0.00    -0.831 OA 
ENDBRANCH  18  19
ENDBRANCH  17  18
ENDBRANCH  16  17
ENDBRANCH  14  15
ENDBRANCH  13  14
ENDBRANCH  11  12
ENDBRANCH  10  11
ENDBRANCH   8   9
ENDBRANCH   7   8
ENDBRANCH   5   6
ENDBRANCH   4   5
ENDBRANCH   2   3
TORSDOF 12
ENDMDL
MODEL       19
REMARK 921   NORMALIZED FREE ENERGY PREDICTED BY IDOCK:   -4.95 KCAL/MOL
REMARK 922        TOTAL FREE ENERGY PREDICTED BY IDOCK:  -10.92 KCAL/MOL
REMARK 923 INTER-LIGAND FREE ENERGY PREDICTED BY IDOCK:   -8.48 KCAL/MOL
REMARK 924 INTRA-LIGAND FREE ENERGY PREDICTED BY IDOCK:   -2.44 KCAL/MOL
REMARK 927      BINDING AFFINITY PREDICTED BY RF-SCORE:    0.00 PKD
ROOT
HETATM    1  C   UNL     1      -9.751   9.805  66.744  1.00  0.00    -0.248 C  
HETATM    2  C   UNL     1     -10.658   8.891  67.553  1.00  0.00    -0.307 C  
ENDROOT
BRANCH   2   3
HETATM    3  C   UNL     1     -10.732   7.509  66.965  1.00  0.00    -0.367 C  
HETATM    4  C   UNL     1     -10.806   6.363  67.668  1.00  0.00    -0.425 C  
BRANCH   4   5
HETATM    5  C   UNL     1     -10.861   6.294  69.166  1.00  0.00    -0.403 C  
BRANCH   5   6
HETATM    6  C   UNL     1      -9.511   6.090  69.797  1.00  0.00    -0.173 C  
HETATM    7  C   UNL     1      -8.856   7.004  70.527  1.00  0.00    -0.154 C  
BRANCH   7   8
HETATM    8  C   UNL     1      -9.454   8.325  70.907  1.00  0.00    -0.192 C  
BRANCH   8   9
HETATM    9  C   UNL     1      -9.980   8.327  72.310  1.00  0.00    -0.366 C  
HETATM   10  C   UNL     1     -11.272   8.458  72.665  1.00  0.00    -0.339 C  
BRANCH  10  11
HETATM   11  C   UNL     1     -12.442   8.646  71.737  1.00  0.00    -0.397 C  
BRANCH  11  12
HETATM   12  C   UNL     1     -13.108  10.003  71.760  1.00  0.00    -0.562 C  
HETATM   13  C   UNL     1     -12.781  11.128  71.096  1.00  0.00    -0.510 C  
BRANCH  13  14
HETATM   14  C   UNL     1     -11.582  11.307  70.218  1.00  0.00    -0.366 C  
BRANCH  14  15
HETATM   15  C   UNL     1     -11.879  11.989  68.916  1.00  0.00    -0.356 C  
HETATM   16  C   UNL     1     -11.778  13.317  68.747  1.00  0.00    -0.366 C  
BRANCH  16  17
HETATM   17  C   UNL     1     -11.426  14.237  69.879  1.00  0.00    -0.301 C  
BRANCH  17  18
HETATM   18  C   UNL     1     -12.629  14.935  70.489  1.00  0.00    -0.414 C  
BRANCH  18  19
HETATM   19  C   UNL     1     -12.230  15.600  71.803  1.00  0.00    -0.494 C  
HETATM   20  C   UNL     1     -12.939  14.974  72.981  1.00  0.00    -0.488 C  
HETATM   21  O   UNL     1     -13.743  14.059  72.910  1.00  0.00    -0.677 OA 
HETATM   22  O   UNL     1     -12.581  15.545  74.150  1.00  0.00    -0.574 OA 
ENDBRANCH  18  19
ENDBRANCH  17  18
ENDBRANCH  16  17
ENDBRANCH  14  15
ENDBRANCH  13  14
ENDBRANCH  11  12
ENDBRANCH  10  11
ENDBRANCH   8   9
ENDBRANCH   7   8
ENDBRANCH   5   6
ENDBRANCH   4   5
ENDBRANCH   2   3
TORSDOF 12
ENDMDL
MODEL       20
REMARK 921   NORMALIZED FREE ENERGY PREDICTED BY IDOCK:   -4.93 KCAL/MOL
REMARK 922        TOTAL FREE ENERGY PREDICTED BY IDOCK:  -10.90 KCAL/MOL
REMARK 923 INTER-LIGAND FREE ENERGY PREDICTED BY IDOCK:   -8.86 KCAL/MOL
REMARK 924 INTRA-LIGAND FREE ENERGY PREDICTED BY IDOCK:   -2.04 KCAL/MOL
REMARK 927      BINDING AFFINITY PREDICTED BY RF-SCORE:    0.00 PKD
ROOT
HETATM    1  C   UNL     1     -10.404   8.441  72.168  1.00  0.00    -0.397 C  
HETATM    2  C   UNL     1     -11.169   9.472  71.354  1.00  0.00    -0.452 C  
ENDROOT
BRANCH   2   3
HETATM    3  C   UNL     1     -12.610   9.564  71.774  1.00  0.00    -0.490 C  
HETATM    4  C   UNL     1     -13.324  10.702  71.872  1.00  0.00    -0.454 C  
BRANCH   4   5
HETATM    5  C   UNL     1     -12.790  12.064  71.540  1.00  0.00    -0.403 C  
BRANCH   5   6
HETATM    6  C   UNL     1     -13.491  13.169  72.282  1.00  0.00    -0.665 C  
HETATM    7  C   UNL     1     -13.055  14.434  72.371  1.00  0.00    -0.500 C  
BRANCH   7   8
HETATM    8  C   UNL     1     -11.853  14.936  71.631  1.00  0.00    -0.429 C  
BRANCH   8   9
HETATM    9  C   UNL     1     -12.216  15.574  70.325  1.00  0.00    -0.432 C  
HETATM   10  C   UNL     1     -11.930  15.084  69.104  1.00  0.00    -0.308 C  
BRANCH  10  11
HETATM   11  C   UNL     1     -11.176  13.817  68.800  1.00  0.00    -0.303 C  
BRANCH  11  12
HETATM   12  C   UNL     1     -11.883  12.806  67.927  1.00  0.00    -0.392 C  
HETATM   13  C   UNL     1     -11.605  12.423  66.666  1.00  0.00    -0.447 C  
BRANCH  13  14
HETATM   14  C   UNL     1     -10.539  13.004  65.790  1.00  0.00    -0.291 C  
BRANCH  14  15
HETATM   15  C   UNL     1     -10.979  14.211  65.016  1.00  0.00    -0.391 C  
HETATM   16  C   UNL     1     -10.402  15.416  65.153  1.00  0.00    -0.405 C  
BRANCH  16  17
HETATM   17  C   UNL     1      -9.310  15.665  66.151  1.00  0.00    -0.382 C  
BRANCH  17  18
HETATM   18  C   UNL     1      -8.867  17.116  66.215  1.00  0.00    -0.266 C  
BRANCH  18  19
HETATM   19  C   UNL     1      -9.416  17.770  67.480  1.00  0.00    -0.257 C  
HETATM   20  C   UNL     1     -10.093  19.085  67.176  1.00  0.00    -0.364 C  
HETATM   21  O   UNL     1     -10.189  19.585  66.067  1.00  0.00    -0.443 OA 
HETATM   22  O   UNL     1     -10.596  19.664  68.287  1.00  0.00    -0.390 OA 
ENDBRANCH  18  19
ENDBRANCH  17  18
ENDBRANCH  16  17
ENDBRANCH  14  15
ENDBRANCH  13  14
ENDBRANCH  11  12
ENDBRANCH  10  11
ENDBRANCH   8   9
ENDBRANCH   7   8
ENDBRANCH   5   6
ENDBRANCH   4   5
ENDBRANCH   2   3
TORSDOF 12
ENDMDL
MODEL       21
REMARK 921   NORMALIZED FREE ENERGY PREDICTED BY IDOCK:   -4.92 KCAL/MOL
REMARK 922        TOTAL FREE ENERGY PREDICTED BY IDOCK:  -10.88 KCAL/MOL
REMARK 923 INTER-LIGAND FREE ENERGY PREDICTED BY IDOCK:   -8.37 KCAL/MOL
REMARK 924 INTRA-LIGAND FREE ENERGY PREDICTED BY IDOCK:   -2.51 KCAL/MOL
REMARK 927      BINDING AFFINITY PREDICTED BY RF-SCORE:    0.00 PKD
ROOT
HETATM    1  C   UNL     1     -13.201  11.728  71.895  1.00  0.00    -0.468 C  
HETATM    2  C   UNL     1     -12.903  10.568  70.958  1.00  0.00    -0.502 C  
ENDROOT
BRANCH   2   3
HETATM    3  C   UNL     1     -11.641   9.845  71.342  1.00  0.00    -0.428 C  
HETATM    4  C   UNL     1     -10.635   9.532  70.505  1.00  0.00    -0.358 C  
BRANCH   4   5
HETATM    5  C   UNL     1     -10.605   9.893  69.049  1.00  0.00    -0.240 C  
BRANCH   5   6
HETATM    6  C   UNL     1      -9.745  11.092  68.756  1.00  0.00    -0.199 C  
HETATM    7  C   UNL     1     -10.148  12.184  68.090  1.00  0.00    -0.206 C  
BRANCH   7   8
HETATM    8  C   UNL     1     -11.565  12.394  67.650  1.00  0.00    -0.421 C  
BRANCH   8   9
HETATM    9  C   UNL     1     -11.784  11.983  66.226  1.00  0.00    -0.319 C  
HETATM   10  C   UNL     1     -12.118  12.804  65.213  1.00  0.00    -0.505 C  
BRANCH  10  11
HETATM   11  C   UNL     1     -12.355  14.288  65.303  1.00  0.00    -0.427 C  
BRANCH  11  12
HETATM   12  C   UNL     1     -11.222  15.180  64.850  1.00  0.00    -0.424 C  
HETATM   13  C   UNL     1     -10.487  16.057  65.561  1.00  0.00    -0.426 C  
BRANCH  13  14
HETATM   14  C   UNL     1     -10.701  16.413  66.998  1.00  0.00    -0.217 C  
BRANCH  14  15
HETATM   15  C   UNL     1      -9.648  15.874  67.921  1.00  0.00    -0.215 C  
HETATM   16  C   UNL     1      -9.847  15.709  69.239  1.00  0.00    -0.269 C  
BRANCH  16  17
HETATM   17  C   UNL     1     -11.126  16.122  69.906  1.00  0.00    -0.357 C  
BRANCH  17  18
HETATM   18  C   UNL     1     -12.011  14.951  70.297  1.00  0.00    -0.365 C  
BRANCH  18  19
HETATM   19  C   UNL     1     -13.203  15.451  71.107  1.00  0.00    -0.583 C  
HETATM   20  C   UNL     1     -12.829  15.702  72.549  1.00  0.00    -0.435 C  
HETATM   21  O   UNL     1     -11.721  15.521  73.028  1.00  0.00    -0.453 OA 
HETATM   22  O   UNL     1     -13.873  16.159  73.271  1.00  0.00    -0.559 OA 
ENDBRANCH  18  19
ENDBRANCH  17  18
ENDBRANCH  16  17
ENDBRANCH  14  15
ENDBRANCH  13  14
ENDBRANCH  11  12
ENDBRANCH  10  11
ENDBRANCH   8   9
ENDBRANCH   7   8
ENDBRANCH   5   6
ENDBRANCH   4   5
ENDBRANCH   2   3
TORSDOF 12
ENDMDL
MODEL       22
REMARK 921   NORMALIZED FREE ENERGY PREDICTED BY IDOCK:   -4.92 KCAL/MOL
REMARK 922        TOTAL FREE ENERGY PREDICTED BY IDOCK:  -10.87 KCAL/MOL
REMARK 923 INTER-LIGAND FREE ENERGY PREDICTED BY IDOCK:   -8.20 KCAL/MOL
REMARK 924 INTRA-LIGAND FREE ENERGY PREDICTED BY IDOCK:   -2.67 KCAL/MOL
REMARK 927      BINDING AFFINITY PREDICTED BY RF-SCORE:    0.00 PKD
ROOT
HETATM    1  C   UNL     1      -9.425   9.768  69.462  1.00  0.00    -0.226 C  
HETATM    2  C   UNL     1     -10.624   9.481  68.572  1.00  0.00    -0.247 C  
ENDROOT
BRANCH   2   3
HETATM    3  C   UNL     1     -10.210   8.986  67.214  1.00  0.00    -0.323 C  
HETATM    4  C   UNL     1     -10.402   7.738  66.745  1.00  0.00    -0.348 C  
BRANCH   4   5
HETATM    5  C   UNL     1     -11.099   6.649  67.506  1.00  0.00    -0.374 C  
BRANCH   5   6
HETATM    6  C   UNL     1     -10.178   5.880  68.413  1.00  0.00    -0.236 C  
HETATM    7  C   UNL     1     -10.329   5.757  69.739  1.00  0.00    -0.332 C  
BRANCH   7   8
HETATM    8  C   UNL     1     -11.522   6.285  70.476  1.00  0.00    -0.407 C  
BRANCH   8   9
HETATM    9  C   UNL     1     -11.138   7.035  71.715  1.00  0.00    -0.270 C  
HETATM   10  C   UNL     1     -11.732   8.152  72.173  1.00  0.00    -0.418 C  
BRANCH  10  11
HETATM   11  C   UNL     1     -12.882   8.883  71.534  1.00  0.00    -0.383 C  
BRANCH  11  12
HETATM   12  C   UNL     1     -13.309  10.175  72.194  1.00  0.00    -0.431 C  
HETATM   13  C   UNL     1     -13.095  11.446  71.803  1.00  0.00    -0.523 C  
BRANCH  13  14
HETATM   14  C   UNL     1     -12.279  11.872  70.623  1.00  0.00    -0.424 C  
BRANCH  14  15
HETATM   15  C   UNL     1     -12.073  13.355  70.530  1.00  0.00    -0.399 C  
HETATM   16  C   UNL     1     -11.428  13.940  69.508  1.00  0.00    -0.332 C  
BRANCH  16  17
HETATM   17  C   UNL     1     -10.796  13.140  68.406  1.00  0.00    -0.283 C  
BRANCH  17  18
HETATM   18  C   UNL     1     -11.704  12.944  67.204  1.00  0.00    -0.437 C  
BRANCH  18  19
HETATM   19  C   UNL     1     -10.862  12.687  65.957  1.00  0.00    -0.306 C  
HETATM   20  C   UNL     1     -11.717  12.619  64.714  1.00  0.00    -0.352 C  
HETATM   21  O   UNL     1     -12.931  12.740  64.690  1.00  0.00    -0.742 OA 
HETATM   22  O   UNL     1     -10.981  12.408  63.603  1.00  0.00    -0.410 OA 
ENDBRANCH  18  19
ENDBRANCH  17  18
ENDBRANCH  16  17
ENDBRANCH  14  15
ENDBRANCH  13  14
ENDBRANCH  11  12
ENDBRANCH  10  11
ENDBRANCH   8   9
ENDBRANCH   7   8
ENDBRANCH   5   6
ENDBRANCH   4   5
ENDBRANCH   2   3
TORSDOF 12
ENDMDL
MODEL       23
REMARK 921   NORMALIZED FREE ENERGY PREDICTED BY IDOCK:   -4.91 KCAL/MOL
REMARK 922        TOTAL FREE ENERGY PREDICTED BY IDOCK:  -10.86 KCAL/MOL
REMARK 923 INTER-LIGAND FREE ENERGY PREDICTED BY IDOCK:   -8.63 KCAL/MOL
REMARK 924 INTRA-LIGAND FREE ENERGY PREDICTED BY IDOCK:   -2.23 KCAL/MOL
REMARK 927      BINDING AFFINITY PREDICTED BY RF-SCORE:    0.00 PKD
ROOT
HETATM    1  C   UNL     1      -9.684   6.379  71.222  1.00  0.00    -0.189 C  
HETATM    2  C   UNL     1      -9.039   7.363  70.258  1.00  0.00    -0.151 C  
ENDROOT
BRANCH   2   3
HETATM    3  C   UNL     1     -10.039   7.946  69.298  1.00  0.00    -0.197 C  
HETATM    4  C   UNL     1     -10.837   9.002  69.546  1.00  0.00    -0.177 C  
BRANCH   4   5
HETATM    5  C   UNL     1     -10.824   9.788  70.824  1.00  0.00    -0.403 C  
BRANCH   5   6
HETATM    6  C   UNL     1     -12.090   9.640  71.622  1.00  0.00    -0.481 C  
HETATM    7  C   UNL     1     -12.932  10.638  71.922  1.00  0.00    -0.542 C  
BRANCH   7   8
HETATM    8  C   UNL     1     -12.770  12.029  71.389  1.00  0.00    -0.380 C  
BRANCH   8   9
HETATM    9  C   UNL     1     -13.583  13.029  72.155  1.00  0.00    -0.618 C  
HETATM   10  C   UNL     1     -13.198  14.280  72.469  1.00  0.00    -0.581 C  
BRANCH  10  11
HETATM   11  C   UNL     1     -11.878  14.922  72.136  1.00  0.00    -0.394 C  
BRANCH  11  12
HETATM   12  C   UNL     1     -11.889  15.948  71.026  1.00  0.00    -0.468 C  
HETATM   13  C   UNL     1     -11.966  15.766  69.694  1.00  0.00    -0.332 C  
BRANCH  13  14
HETATM   14  C   UNL     1     -11.973  14.445  68.991  1.00  0.00    -0.342 C  
BRANCH  14  15
HETATM   15  C   UNL     1     -10.627  13.787  68.922  1.00  0.00    -0.224 C  
HETATM   16  C   UNL     1     -10.404  12.652  68.240  1.00  0.00    -0.246 C  
BRANCH  16  17
HETATM   17  C   UNL     1     -11.510  11.912  67.546  1.00  0.00    -0.396 C  
BRANCH  17  18
HETATM   18  C   UNL     1     -11.242  11.664  66.072  1.00  0.00    -0.299 C  
BRANCH  18  19
HETATM   19  C   UNL     1     -11.232  12.990  65.318  1.00  0.00    -0.316 C  
HETATM   20  C   UNL     1     -12.452  13.138  64.439  1.00  0.00    -0.310 C  
HETATM   21  O   UNL     1     -13.338  12.307  64.324  1.00  0.00    -0.777 OA 
HETATM   22  O   UNL     1     -12.461  14.315  63.779  1.00  0.00    -0.810 OA 
ENDBRANCH  18  19
ENDBRANCH  17  18
ENDBRANCH  16  17
ENDBRANCH  14  15
ENDBRANCH  13  14
ENDBRANCH  11  12
ENDBRANCH  10  11
ENDBRANCH   8   9
ENDBRANCH   7   8
ENDBRANCH   5   6
ENDBRANCH   4   5
ENDBRANCH   2   3
TORSDOF 12
ENDMDL
MODEL       24
REMARK 921   NORMALIZED FREE ENERGY PREDICTED BY IDOCK:   -4.91 KCAL/MOL
REMARK 922        TOTAL FREE ENERGY PREDICTED BY IDOCK:  -10.86 KCAL/MOL
REMARK 923 INTER-LIGAND FREE ENERGY PREDICTED BY IDOCK:   -7.56 KCAL/MOL
REMARK 924 INTRA-LIGAND FREE ENERGY PREDICTED BY IDOCK:   -3.30 KCAL/MOL
REMARK 927      BINDING AFFINITY PREDICTED BY RF-SCORE:    0.00 PKD
ROOT
HETATM    1  C   UNL     1     -12.662  11.840  71.105  1.00  0.00    -0.405 C  
HETATM    2  C   UNL     1     -11.904  12.154  69.825  1.00  0.00    -0.397 C  
ENDROOT
BRANCH   2   3
HETATM    3  C   UNL     1     -12.023  13.604  69.442  1.00  0.00    -0.394 C  
HETATM    4  C   UNL     1     -12.031  14.081  68.183  1.00  0.00    -0.382 C  
BRANCH   4   5
HETATM    5  C   UNL     1     -11.955  13.223  66.955  1.00  0.00    -0.430 C  
BRANCH   5   6
HETATM    6  C   UNL     1     -12.558  13.875  65.741  1.00  0.00    -0.533 C  
HETATM    7  C   UNL     1     -12.002  13.894  64.521  1.00  0.00    -0.464 C  
BRANCH   7   8
HETATM    8  C   UNL     1     -10.743  13.154  64.187  1.00  0.00    -0.399 C  
BRANCH   8   9
HETATM    9  C   UNL     1     -11.006  11.725  63.819  1.00  0.00    -0.500 C  
HETATM   10  C   UNL     1     -10.286  10.663  64.226  1.00  0.00    -0.391 C  
BRANCH  10  11
HETATM   11  C   UNL     1      -9.068  10.691  65.110  1.00  0.00    -0.227 C  
BRANCH  11  12
HETATM   12  C   UNL     1      -9.319  10.705  66.601  1.00  0.00    -0.189 C  
HETATM   13  C   UNL     1      -8.940  11.609  67.524  1.00  0.00    -0.165 C  
BRANCH  13  14
HETATM   14  C   UNL     1      -8.077  12.806  67.272  1.00  0.00    -0.172 C  
BRANCH  14  15
HETATM   15  C   UNL     1      -8.296  13.929  68.242  1.00  0.00    -0.163 C  
HETATM   16  C   UNL     1      -8.546  15.190  67.854  1.00  0.00    -0.154 C  
BRANCH  16  17
HETATM   17  C   UNL     1      -8.555  15.589  66.408  1.00  0.00    -0.292 C  
BRANCH  17  18
HETATM   18  C   UNL     1      -9.834  16.290  65.981  1.00  0.00    -0.371 C  
BRANCH  18  19
HETATM   19  C   UNL     1     -10.242  17.310  67.039  1.00  0.00    -0.320 C  
HETATM   20  C   UNL     1     -10.755  18.585  66.413  1.00  0.00    -0.201 C  
HETATM   21  O   UNL     1     -10.830  18.796  65.213  1.00  0.00    -0.576 OA 
HETATM   22  O   UNL     1     -11.134  19.489  67.340  1.00  0.00    -0.433 OA 
ENDBRANCH  18  19
ENDBRANCH  17  18
ENDBRANCH  16  17
ENDBRANCH  14  15
ENDBRANCH  13  14
ENDBRANCH  11  12
ENDBRANCH  10  11
ENDBRANCH   8   9
ENDBRANCH   7   8
ENDBRANCH   5   6
ENDBRANCH   4   5
ENDBRANCH   2   3
TORSDOF 12
ENDMDL
MODEL       25
REMARK 921   NORMALIZED FREE ENERGY PREDICTED BY IDOCK:   -4.90 KCAL/MOL
REMARK 922        TOTAL FREE ENERGY PREDICTED BY IDOCK:  -10.84 KCAL/MOL
REMARK 923 INTER-LIGAND FREE ENERGY PREDICTED BY IDOCK:   -8.41 KCAL/MOL
REMARK 924 INTRA-LIGAND FREE ENERGY PREDICTED BY IDOCK:   -2.44 KCAL/MOL
REMARK 927      BINDING AFFINITY PREDICTED BY RF-SCORE:    0.00 PKD
ROOT
HETATM    1  C   UNL     1     -11.083   6.305  68.676  1.00  0.00    -0.409 C  
HETATM    2  C   UNL     1     -10.827   7.148  69.915  1.00  0.00    -0.276 C  
ENDROOT
BRANCH   2   3
HETATM    3  C   UNL     1     -11.266   6.448  71.172  1.00  0.00    -0.357 C  
HETATM    4  C   UNL     1     -12.404   6.696  71.847  1.00  0.00    -0.364 C  
BRANCH   4   5
HETATM    5  C   UNL     1     -13.437   7.698  71.422  1.00  0.00    -0.351 C  
BRANCH   5   6
HETATM    6  C   UNL     1     -13.457   8.928  72.287  1.00  0.00    -0.503 C  
HETATM    7  C   UNL     1     -13.101  10.157  71.887  1.00  0.00    -0.571 C  
BRANCH   7   8
HETATM    8  C   UNL     1     -12.744  10.481  70.468  1.00  0.00    -0.385 C  
BRANCH   8   9
HETATM    9  C   UNL     1     -11.287  10.794  70.307  1.00  0.00    -0.374 C  
HETATM   10  C   UNL     1     -10.623  10.865  69.139  1.00  0.00    -0.253 C  
BRANCH  10  11
HETATM   11  C   UNL     1     -11.194  10.629  67.767  1.00  0.00    -0.383 C  
BRANCH  11  12
HETATM   12  C   UNL     1     -10.513   9.573  66.926  1.00  0.00    -0.279 C  
HETATM   13  C   UNL     1      -9.856   9.704  65.757  1.00  0.00    -0.373 C  
BRANCH  13  14
HETATM   14  C   UNL     1      -9.727  10.966  64.963  1.00  0.00    -0.319 C  
BRANCH  14  15
HETATM   15  C   UNL     1     -10.906  11.254  64.083  1.00  0.00    -0.407 C  
HETATM   16  C   UNL     1     -11.345  12.499  63.835  1.00  0.00    -0.504 C  
BRANCH  16  17
HETATM   17  C   UNL     1     -10.726  13.703  64.482  1.00  0.00    -0.420 C  
BRANCH  17  18
HETATM   18  C   UNL     1     -11.732  14.594  65.190  1.00  0.00    -0.364 C  
BRANCH  18  19
HETATM   19  C   UNL     1     -12.252  13.893  66.442  1.00  0.00    -0.487 C  
HETATM   20  C   UNL     1     -11.783  14.583  67.701  1.00  0.00    -0.382 C  
HETATM   21  O   UNL     1     -11.067  15.571  67.734  1.00  0.00    -0.306 OA 
HETATM   22  O   UNL     1     -12.251  13.980  68.814  1.00  0.00    -0.337 OA 
ENDBRANCH  18  19
ENDBRANCH  17  18
ENDBRANCH  16  17
ENDBRANCH  14  15
ENDBRANCH  13  14
ENDBRANCH  11  12
ENDBRANCH  10  11
ENDBRANCH   8   9
ENDBRANCH   7   8
ENDBRANCH   5   6
ENDBRANCH   4   5
ENDBRANCH   2   3
TORSDOF 12
ENDMDL
MODEL       26
REMARK 921   NORMALIZED FREE ENERGY PREDICTED BY IDOCK:   -4.89 KCAL/MOL
REMARK 922        TOTAL FREE ENERGY PREDICTED BY IDOCK:  -10.83 KCAL/MOL
REMARK 923 INTER-LIGAND FREE ENERGY PREDICTED BY IDOCK:   -8.47 KCAL/MOL
REMARK 924 INTRA-LIGAND FREE ENERGY PREDICTED BY IDOCK:   -2.36 KCAL/MOL
REMARK 927      BINDING AFFINITY PREDICTED BY RF-SCORE:    0.00 PKD
ROOT
HETATM    1  C   UNL     1     -12.630  14.006  65.232  1.00  0.00    -0.495 C  
HETATM    2  C   UNL     1     -12.648  12.635  64.576  1.00  0.00    -0.491 C  
ENDROOT
BRANCH   2   3
HETATM    3  C   UNL     1     -11.589  12.505  63.516  1.00  0.00    -0.584 C  
HETATM    4  C   UNL     1     -10.539  11.663  63.559  1.00  0.00    -0.496 C  
BRANCH   4   5
HETATM    5  C   UNL     1     -10.284  10.689  64.671  1.00  0.00    -0.404 C  
BRANCH   5   6
HETATM    6  C   UNL     1      -9.293  11.196  65.684  1.00  0.00    -0.243 C  
HETATM    7  C   UNL     1      -9.543  11.362  66.990  1.00  0.00    -0.192 C  
BRANCH   7   8
HETATM    8  C   UNL     1     -10.831  10.944  67.632  1.00  0.00    -0.317 C  
BRANCH   8   9
HETATM    9  C   UNL     1     -11.682  12.118  68.013  1.00  0.00    -0.409 C  
HETATM   10  C   UNL     1     -12.159  12.376  69.244  1.00  0.00    -0.218 C  
BRANCH  10  11
HETATM   11  C   UNL     1     -11.955  11.540  70.479  1.00  0.00    -0.439 C  
BRANCH  11  12
HETATM   12  C   UNL     1     -13.094  11.517  71.473  1.00  0.00    -0.429 C  
HETATM   13  C   UNL     1     -13.533  12.492  72.292  1.00  0.00    -0.490 C  
BRANCH  13  14
HETATM   14  C   UNL     1     -12.906  13.841  72.461  1.00  0.00    -0.342 C  
BRANCH  14  15
HETATM   15  C   UNL     1     -13.398  14.866  71.483  1.00  0.00    -0.476 C  
HETATM   16  C   UNL     1     -12.574  15.592  70.710  1.00  0.00    -0.505 C  
BRANCH  16  17
HETATM   17  C   UNL     1     -11.082  15.480  70.817  1.00  0.00    -0.383 C  
BRANCH  17  18
HETATM   18  C   UNL     1     -10.382  15.401  69.471  1.00  0.00    -0.269 C  
BRANCH  18  19
HETATM   19  C   UNL     1     -10.878  16.523  68.564  1.00  0.00    -0.349 C  
HETATM   20  C   UNL     1      -9.794  17.539  68.293  1.00  0.00    -0.319 C  
HETATM   21  O   UNL     1      -8.661  17.492  68.744  1.00  0.00    -0.272 OA 
HETATM   22  O   UNL     1     -10.217  18.528  67.479  1.00  0.00    -0.346 OA 
ENDBRANCH  18  19
ENDBRANCH  17  18
ENDBRANCH  16  17
ENDBRANCH  14  15
ENDBRANCH  13  14
ENDBRANCH  11  12
ENDBRANCH  10  11
ENDBRANCH   8   9
ENDBRANCH   7   8
ENDBRANCH   5   6
ENDBRANCH   4   5
ENDBRANCH   2   3
TORSDOF 12
ENDMDL
MODEL       27
REMARK 921   NORMALIZED FREE ENERGY PREDICTED BY IDOCK:   -4.89 KCAL/MOL
REMARK 922        TOTAL FREE ENERGY PREDICTED BY IDOCK:  -10.83 KCAL/MOL
REMARK 923 INTER-LIGAND FREE ENERGY PREDICTED BY IDOCK:   -8.63 KCAL/MOL
REMARK 924 INTRA-LIGAND FREE ENERGY PREDICTED BY IDOCK:   -2.21 KCAL/MOL
REMARK 927      BINDING AFFINITY PREDICTED BY RF-SCORE:    0.00 PKD
ROOT
HETATM    1  C   UNL     1     -10.516   5.651  70.285  1.00  0.00    -0.363 C  
HETATM    2  C   UNL     1     -11.760   6.514  70.425  1.00  0.00    -0.439 C  
ENDROOT
BRANCH   2   3
HETATM    3  C   UNL     1     -12.019   6.899  71.856  1.00  0.00    -0.363 C  
HETATM    4  C   UNL     1     -11.685   8.073  72.423  1.00  0.00    -0.444 C  
BRANCH   4   5
HETATM    5  C   UNL     1     -11.024   9.205  71.692  1.00  0.00    -0.445 C  
BRANCH   5   6
HETATM    6  C   UNL     1     -11.996  10.064  70.931  1.00  0.00    -0.453 C  
HETATM    7  C   UNL     1     -11.744  10.658  69.757  1.00  0.00    -0.385 C  
BRANCH   7   8
HETATM    8  C   UNL     1     -10.476  10.439  68.989  1.00  0.00    -0.240 C  
BRANCH   8   9
HETATM    9  C   UNL     1     -10.624   9.378  67.941  1.00  0.00    -0.293 C  
HETATM   10  C   UNL     1     -10.323   9.515  66.636  1.00  0.00    -0.280 C  
BRANCH  10  11
HETATM   11  C   UNL     1      -9.798  10.754  65.962  1.00  0.00    -0.285 C  
BRANCH  11  12
HETATM   12  C   UNL     1     -10.767  11.498  65.071  1.00  0.00    -0.350 C  
HETATM   13  C   UNL     1     -11.667  12.447  65.392  1.00  0.00    -0.452 C  
BRANCH  13  14
HETATM   14  C   UNL     1     -11.973  12.931  66.774  1.00  0.00    -0.418 C  
BRANCH  14  15
HETATM   15  C   UNL     1     -11.937  14.423  66.918  1.00  0.00    -0.425 C  
HETATM   16  C   UNL     1     -11.693  15.039  68.087  1.00  0.00    -0.335 C  
BRANCH  16  17
HETATM   17  C   UNL     1     -11.504  14.272  69.363  1.00  0.00    -0.337 C  
BRANCH  17  18
HETATM   18  C   UNL     1     -12.755  14.211  70.223  1.00  0.00    -0.287 C  
BRANCH  18  19
HETATM   19  C   UNL     1     -12.558  15.050  71.482  1.00  0.00    -0.410 C  
HETATM   20  C   UNL     1     -13.084  14.342  72.709  1.00  0.00    -0.505 C  
HETATM   21  O   UNL     1     -13.613  13.242  72.711  1.00  0.00    -0.634 OA 
HETATM   22  O   UNL     1     -12.901  15.069  73.831  1.00  0.00    -0.480 OA 
ENDBRANCH  18  19
ENDBRANCH  17  18
ENDBRANCH  16  17
ENDBRANCH  14  15
ENDBRANCH  13  14
ENDBRANCH  11  12
ENDBRANCH  10  11
ENDBRANCH   8   9
ENDBRANCH   7   8
ENDBRANCH   5   6
ENDBRANCH   4   5
ENDBRANCH   2   3
TORSDOF 12
ENDMDL
MODEL       28
REMARK 921   NORMALIZED FREE ENERGY PREDICTED BY IDOCK:   -4.89 KCAL/MOL
REMARK 922        TOTAL FREE ENERGY PREDICTED BY IDOCK:  -10.82 KCAL/MOL
REMARK 923 INTER-LIGAND FREE ENERGY PREDICTED BY IDOCK:   -8.81 KCAL/MOL
REMARK 924 INTRA-LIGAND FREE ENERGY PREDICTED BY IDOCK:   -2.01 KCAL/MOL
REMARK 927      BINDING AFFINITY PREDICTED BY RF-SCORE:    0.00 PKD
ROOT
HETATM    1  C   UNL     1     -12.276  15.390  74.180  1.00  0.00    -0.759 C  
HETATM    2  C   UNL     1     -12.317  15.735  72.700  1.00  0.00    -0.559 C  
ENDROOT
BRANCH   2   3
HETATM    3  C   UNL     1     -13.579  15.247  72.044  1.00  0.00    -0.571 C  
HETATM    4  C   UNL     1     -13.705  14.101  71.347  1.00  0.00    -0.345 C  
BRANCH   4   5
HETATM    5  C   UNL     1     -12.598  13.109  71.148  1.00  0.00    -0.403 C  
BRANCH   5   6
HETATM    6  C   UNL     1     -12.964  11.719  71.591  1.00  0.00    -0.467 C  
HETATM    7  C   UNL     1     -12.380  10.593  71.156  1.00  0.00    -0.505 C  
BRANCH   7   8
HETATM    8  C   UNL     1     -11.192  10.591  70.244  1.00  0.00    -0.391 C  
BRANCH   8   9
HETATM    9  C   UNL     1     -10.694   9.206  69.964  1.00  0.00    -0.254 C  
HETATM   10  C   UNL     1     -10.409   8.704  68.747  1.00  0.00    -0.228 C  
BRANCH  10  11
HETATM   11  C   UNL     1     -10.548   9.417  67.429  1.00  0.00    -0.326 C  
BRANCH  11  12
HETATM   12  C   UNL     1      -9.264   9.733  66.696  1.00  0.00    -0.184 C  
HETATM   13  C   UNL     1      -8.300  10.622  67.003  1.00  0.00    -0.126 C  
BRANCH  13  14
HETATM   14  C   UNL     1      -8.337  11.591  68.143  1.00  0.00    -0.152 C  
BRANCH  14  15
HETATM   15  C   UNL     1      -8.202  13.026  67.726  1.00  0.00    -0.168 C  
HETATM   16  C   UNL     1      -9.258  13.829  67.523  1.00  0.00    -0.216 C  
BRANCH  16  17
HETATM   17  C   UNL     1     -10.669  13.328  67.631  1.00  0.00    -0.250 C  
BRANCH  17  18
HETATM   18  C   UNL     1     -11.500  13.588  66.386  1.00  0.00    -0.356 C  
BRANCH  18  19
HETATM   19  C   UNL     1     -11.113  14.932  65.777  1.00  0.00    -0.342 C  
HETATM   20  C   UNL     1     -11.808  15.164  64.456  1.00  0.00    -0.330 C  
HETATM   21  O   UNL     1     -12.576  14.381  63.921  1.00  0.00    -0.814 OA 
HETATM   22  O   UNL     1     -11.485  16.357  63.915  1.00  0.00    -1.063 OA 
ENDBRANCH  18  19
ENDBRANCH  17  18
ENDBRANCH  16  17
ENDBRANCH  14  15
ENDBRANCH  13  14
ENDBRANCH  11  12
ENDBRANCH  10  11
ENDBRANCH   8   9
ENDBRANCH   7   8
ENDBRANCH   5   6
ENDBRANCH   4   5
ENDBRANCH   2   3
TORSDOF 12
ENDMDL
MODEL       29
REMARK 921   NORMALIZED FREE ENERGY PREDICTED BY IDOCK:   -4.89 KCAL/MOL
REMARK 922        TOTAL FREE ENERGY PREDICTED BY IDOCK:  -10.82 KCAL/MOL
REMARK 923 INTER-LIGAND FREE ENERGY PREDICTED BY IDOCK:   -8.88 KCAL/MOL
REMARK 924 INTRA-LIGAND FREE ENERGY PREDICTED BY IDOCK:   -1.94 KCAL/MOL
REMARK 927      BINDING AFFINITY PREDICTED BY RF-SCORE:    0.00 PKD
ROOT
HETATM    1  C   UNL     1     -10.362  12.080  63.683  1.00  0.00    -0.482 C  
HETATM    2  C   UNL     1     -11.648  11.967  64.485  1.00  0.00    -0.387 C  
ENDROOT
BRANCH   2   3
HETATM    3  C   UNL     1     -11.399  12.067  65.965  1.00  0.00    -0.398 C  
HETATM    4  C   UNL     1     -11.444  13.200  66.691  1.00  0.00    -0.389 C  
BRANCH   4   5
HETATM    5  C   UNL     1     -11.788  14.548  66.130  1.00  0.00    -0.344 C  
BRANCH   5   6
HETATM    6  C   UNL     1     -10.643  15.194  65.399  1.00  0.00    -0.410 C  
HETATM    7  C   UNL     1      -9.928  16.233  65.852  1.00  0.00    -0.366 C  
BRANCH   7   8
HETATM    8  C   UNL     1     -10.112  16.814  67.220  1.00  0.00    -0.281 C  
BRANCH   8   9
HETATM    9  C   UNL     1      -9.352  16.057  68.266  1.00  0.00    -0.199 C  
HETATM   10  C   UNL     1      -9.870  15.539  69.395  1.00  0.00    -0.283 C  
BRANCH  10  11
HETATM   11  C   UNL     1     -11.303  15.629  69.847  1.00  0.00    -0.340 C  
BRANCH  11  12
HETATM   12  C   UNL     1     -11.537  16.168  71.240  1.00  0.00    -0.470 C  
HETATM   13  C   UNL     1     -12.560  15.937  72.085  1.00  0.00    -0.522 C  
BRANCH  13  14
HETATM   14  C   UNL     1     -13.781  15.127  71.780  1.00  0.00    -0.578 C  
BRANCH  14  15
HETATM   15  C   UNL     1     -13.857  13.834  72.537  1.00  0.00    -0.626 C  
HETATM   16  C   UNL     1     -13.312  12.692  72.087  1.00  0.00    -0.570 C  
BRANCH  16  17
HETATM   17  C   UNL     1     -12.641  12.606  70.748  1.00  0.00    -0.302 C  
BRANCH  17  18
HETATM   18  C   UNL     1     -11.980  11.263  70.487  1.00  0.00    -0.467 C  
BRANCH  18  19
HETATM   19  C   UNL     1     -12.503  10.228  71.478  1.00  0.00    -0.524 C  
HETATM   20  C   UNL     1     -11.568   9.047  71.595  1.00  0.00    -0.356 C  
HETATM   21  O   UNL     1     -10.526   8.915  70.974  1.00  0.00    -0.211 OA 
HETATM   22  O   UNL     1     -12.014   8.133  72.481  1.00  0.00    -0.376 OA 
ENDBRANCH  18  19
ENDBRANCH  17  18
ENDBRANCH  16  17
ENDBRANCH  14  15
ENDBRANCH  13  14
ENDBRANCH  11  12
ENDBRANCH  10  11
ENDBRANCH   8   9
ENDBRANCH   7   8
ENDBRANCH   5   6
ENDBRANCH   4   5
ENDBRANCH   2   3
TORSDOF 12
ENDMDL
MODEL       30
REMARK 921   NORMALIZED FREE ENERGY PREDICTED BY IDOCK:   -4.88 KCAL/MOL
REMARK 922        TOTAL FREE ENERGY PREDICTED BY IDOCK:  -10.81 KCAL/MOL
REMARK 923 INTER-LIGAND FREE ENERGY PREDICTED BY IDOCK:   -9.03 KCAL/MOL
REMARK 924 INTRA-LIGAND FREE ENERGY PREDICTED BY IDOCK:   -1.78 KCAL/MOL
REMARK 927      BINDING AFFINITY PREDICTED BY RF-SCORE:    0.00 PKD
ROOT
HETATM    1  C   UNL     1     -12.362  15.650  74.269  1.00  0.00    -0.813 C  
HETATM    2  C   UNL     1     -12.004  15.568  72.794  1.00  0.00    -0.573 C  
ENDROOT
BRANCH   2   3
HETATM    3  C   UNL     1     -13.221  15.390  71.929  1.00  0.00    -0.534 C  
HETATM    4  C   UNL     1     -13.504  14.299  71.193  1.00  0.00    -0.335 C  
BRANCH   4   5
HETATM    5  C   UNL     1     -12.653  13.064  71.153  1.00  0.00    -0.388 C  
BRANCH   5   6
HETATM    6  C   UNL     1     -13.238  11.919  71.933  1.00  0.00    -0.467 C  
HETATM    7  C   UNL     1     -13.000  10.621  71.693  1.00  0.00    -0.582 C  
BRANCH   7   8
HETATM    8  C   UNL     1     -12.011  10.151  70.670  1.00  0.00    -0.423 C  
BRANCH   8   9
HETATM    9  C   UNL     1     -10.818   9.494  71.294  1.00  0.00    -0.413 C  
HETATM   10  C   UNL     1     -10.457   8.207  71.137  1.00  0.00    -0.238 C  
BRANCH  10  11
HETATM   11  C   UNL     1     -11.180   7.166  70.326  1.00  0.00    -0.309 C  
BRANCH  11  12
HETATM   12  C   UNL     1     -10.451   6.629  69.115  1.00  0.00    -0.250 C  
HETATM   13  C   UNL     1     -10.135   7.251  67.962  1.00  0.00    -0.207 C  
BRANCH  13  14
HETATM   14  C   UNL     1     -10.530   8.643  67.583  1.00  0.00    -0.311 C  
BRANCH  14  15
HETATM   15  C   UNL     1      -9.503   9.681  67.925  1.00  0.00    -0.148 C  
HETATM   16  C   UNL     1      -9.662  10.985  67.646  1.00  0.00    -0.184 C  
BRANCH  16  17
HETATM   17  C   UNL     1     -10.860  11.497  66.901  1.00  0.00    -0.331 C  
BRANCH  17  18
HETATM   18  C   UNL     1     -10.691  11.472  65.392  1.00  0.00    -0.335 C  
BRANCH  18  19
HETATM   19  C   UNL     1     -10.843  12.882  64.830  1.00  0.00    -0.350 C  
HETATM   20  C   UNL     1     -12.166  13.059  64.123  1.00  0.00    -0.401 C  
HETATM   21  O   UNL     1     -13.015  12.192  63.997  1.00  0.00    -0.696 OA 
HETATM   22  O   UNL     1     -12.318  14.308  63.636  1.00  0.00    -0.741 OA 
ENDBRANCH  18  19
ENDBRANCH  17  18
ENDBRANCH  16  17
ENDBRANCH  14  15
ENDBRANCH  13  14
ENDBRANCH  11  12
ENDBRANCH  10  11
ENDBRANCH   8   9
ENDBRANCH   7   8
ENDBRANCH   5   6
ENDBRANCH   4   5
ENDBRANCH   2   3
TORSDOF 12
ENDMDL
MODEL       31
REMARK 921   NORMALIZED FREE ENERGY PREDICTED BY IDOCK:   -4.87 KCAL/MOL
REMARK 922        TOTAL FREE ENERGY PREDICTED BY IDOCK:  -10.79 KCAL/MOL
REMARK 923 INTER-LIGAND FREE ENERGY PREDICTED BY IDOCK:   -8.34 KCAL/MOL
REMARK 924 INTRA-LIGAND FREE ENERGY PREDICTED BY IDOCK:   -2.45 KCAL/MOL
REMARK 927      BINDING AFFINITY PREDICTED BY RF-SCORE:    0.00 PKD
ROOT
HETATM    1  C   UNL     1     -11.172   7.891  72.686  1.00  0.00    -0.459 C  
HETATM    2  C   UNL     1     -12.018   8.335  71.503  1.00  0.00    -0.335 C  
ENDROOT
BRANCH   2   3
HETATM    3  C   UNL     1     -12.980   9.428  71.879  1.00  0.00    -0.502 C  
HETATM    4  C   UNL     1     -12.879  10.719  71.511  1.00  0.00    -0.567 C  
BRANCH   4   5
HETATM    5  C   UNL     1     -11.793  11.262  70.629  1.00  0.00    -0.368 C  
BRANCH   5   6
HETATM    6  C   UNL     1     -12.283  11.651  69.261  1.00  0.00    -0.228 C  
HETATM    7  C   UNL     1     -11.585  11.512  68.125  1.00  0.00    -0.378 C  
BRANCH   7   8
HETATM    8  C   UNL     1     -10.252  10.831  68.065  1.00  0.00    -0.203 C  
BRANCH   8   9
HETATM    9  C   UNL     1     -10.248   9.673  67.114  1.00  0.00    -0.305 C  
HETATM   10  C   UNL     1     -10.003   9.742  65.793  1.00  0.00    -0.349 C  
BRANCH  10  11
HETATM   11  C   UNL     1      -9.703  10.986  65.000  1.00  0.00    -0.303 C  
BRANCH  11  12
HETATM   12  C   UNL     1     -10.559  11.228  63.777  1.00  0.00    -0.455 C  
HETATM   13  C   UNL     1     -11.626  12.035  63.626  1.00  0.00    -0.578 C  
BRANCH  13  14
HETATM   14  C   UNL     1     -12.275  12.838  64.710  1.00  0.00    -0.517 C  
BRANCH  14  15
HETATM   15  C   UNL     1     -12.108  14.320  64.552  1.00  0.00    -0.499 C  
HETATM   16  C   UNL     1     -11.194  15.028  65.236  1.00  0.00    -0.368 C  
BRANCH  16  17
HETATM   17  C   UNL     1     -10.311  14.395  66.271  1.00  0.00    -0.300 C  
BRANCH  17  18
HETATM   18  C   UNL     1     -10.276  15.158  67.584  1.00  0.00    -0.241 C  
BRANCH  18  19
HETATM   19  C   UNL     1     -11.631  15.055  68.279  1.00  0.00    -0.355 C  
HETATM   20  C   UNL     1     -11.542  15.454  69.733  1.00  0.00    -0.323 C  
HETATM   21  O   UNL     1     -10.522  15.806  70.302  1.00  0.00    -0.308 OA 
HETATM   22  O   UNL     1     -12.739  15.382  70.352  1.00  0.00    -0.404 OA 
ENDBRANCH  18  19
ENDBRANCH  17  18
ENDBRANCH  16  17
ENDBRANCH  14  15
ENDBRANCH  13  14
ENDBRANCH  11  12
ENDBRANCH  10  11
ENDBRANCH   8   9
ENDBRANCH   7   8
ENDBRANCH   5   6
ENDBRANCH   4   5
ENDBRANCH   2   3
TORSDOF 12
ENDMDL
MODEL       32
REMARK 921   NORMALIZED FREE ENERGY PREDICTED BY IDOCK:   -4.86 KCAL/MOL
REMARK 922        TOTAL FREE ENERGY PREDICTED BY IDOCK:  -10.78 KCAL/MOL
REMARK 923 INTER-LIGAND FREE ENERGY PREDICTED BY IDOCK:   -8.65 KCAL/MOL
REMARK 924 INTRA-LIGAND FREE ENERGY PREDICTED BY IDOCK:   -2.13 KCAL/MOL
REMARK 927      BINDING AFFINITY PREDICTED BY RF-SCORE:    0.00 PKD
ROOT
HETATM    1  C   UNL     1      -9.975  19.995  66.072  1.00  0.00    -0.542 C  
HETATM    2  C   UNL     1     -10.789  19.494  67.254  1.00  0.00    -0.557 C  
ENDROOT
BRANCH   2   3
HETATM    3  C   UNL     1      -9.923  19.200  68.448  1.00  0.00    -0.493 C  
HETATM    4  C   UNL     1      -9.347  18.014  68.723  1.00  0.00    -0.251 C  
BRANCH   4   5
HETATM    5  C   UNL     1      -9.455  16.801  67.847  1.00  0.00    -0.230 C  
BRANCH   5   6
HETATM    6  C   UNL     1     -10.686  15.981  68.123  1.00  0.00    -0.311 C  
HETATM    7  C   UNL     1     -11.252  15.126  67.260  1.00  0.00    -0.324 C  
BRANCH   7   8
HETATM    8  C   UNL     1     -10.647  14.791  65.931  1.00  0.00    -0.322 C  
BRANCH   8   9
HETATM    9  C   UNL     1     -11.623  14.953  64.806  1.00  0.00    -0.410 C  
HETATM   10  C   UNL     1     -12.351  13.967  64.249  1.00  0.00    -0.393 C  
BRANCH  10  11
HETATM   11  C   UNL     1     -12.323  12.510  64.624  1.00  0.00    -0.547 C  
BRANCH  11  12
HETATM   12  C   UNL     1     -11.286  11.656  63.932  1.00  0.00    -0.457 C  
HETATM   13  C   UNL     1     -10.203  11.041  64.445  1.00  0.00    -0.409 C  
BRANCH  13  14
HETATM   14  C   UNL     1      -9.728  11.146  65.860  1.00  0.00    -0.268 C  
BRANCH  14  15
HETATM   15  C   UNL     1     -10.247  10.062  66.758  1.00  0.00    -0.295 C  
HETATM   16  C   UNL     1     -11.129  10.292  67.745  1.00  0.00    -0.335 C  
BRANCH  16  17
HETATM   17  C   UNL     1     -11.610  11.675  68.073  1.00  0.00    -0.383 C  
BRANCH  17  18
HETATM   18  C   UNL     1     -11.704  11.946  69.564  1.00  0.00    -0.410 C  
BRANCH  18  19
HETATM   19  C   UNL     1     -11.643  10.630  70.334  1.00  0.00    -0.441 C  
HETATM   20  C   UNL     1     -12.573  10.638  71.524  1.00  0.00    -0.412 C  
HETATM   21  O   UNL     1     -13.283  11.574  71.853  1.00  0.00    -0.485 OA 
HETATM   22  O   UNL     1     -12.538   9.472  72.203  1.00  0.00    -0.370 OA 
ENDBRANCH  18  19
ENDBRANCH  17  18
ENDBRANCH  16  17
ENDBRANCH  14  15
ENDBRANCH  13  14
ENDBRANCH  11  12
ENDBRANCH  10  11
ENDBRANCH   8   9
ENDBRANCH   7   8
ENDBRANCH   5   6
ENDBRANCH   4   5
ENDBRANCH   2   3
TORSDOF 12
ENDMDL
MODEL       33
REMARK 921   NORMALIZED FREE ENERGY PREDICTED BY IDOCK:   -4.86 KCAL/MOL
REMARK 922        TOTAL FREE ENERGY PREDICTED BY IDOCK:  -10.78 KCAL/MOL
REMARK 923 INTER-LIGAND FREE ENERGY PREDICTED BY IDOCK:   -8.97 KCAL/MOL
REMARK 924 INTRA-LIGAND FREE ENERGY PREDICTED BY IDOCK:   -1.81 KCAL/MOL
REMARK 927      BINDING AFFINITY PREDICTED BY RF-SCORE:    0.00 PKD
ROOT
HETATM    1  C   UNL     1     -12.407  15.991  72.456  1.00  0.00    -0.584 C  
HETATM    2  C   UNL     1     -13.604  15.301  71.821  1.00  0.00    -0.581 C  
ENDROOT
BRANCH   2   3
HETATM    3  C   UNL     1     -13.827  13.926  72.387  1.00  0.00    -0.668 C  
HETATM    4  C   UNL     1     -13.304  12.785  71.899  1.00  0.00    -0.510 C  
BRANCH   4   5
HETATM    5  C   UNL     1     -12.380  12.718  70.719  1.00  0.00    -0.375 C  
BRANCH   5   6
HETATM    6  C   UNL     1     -12.034  11.310  70.319  1.00  0.00    -0.466 C  
HETATM    7  C   UNL     1     -11.695  10.922  69.082  1.00  0.00    -0.397 C  
BRANCH   7   8
HETATM    8  C   UNL     1     -11.502  11.884  67.950  1.00  0.00    -0.385 C  
BRANCH   8   9
HETATM    9  C   UNL     1     -10.072  11.964  67.510  1.00  0.00    -0.206 C  
HETATM   10  C   UNL     1      -9.549  11.364  66.424  1.00  0.00    -0.228 C  
BRANCH  10  11
HETATM   11  C   UNL     1     -10.280  10.482  65.448  1.00  0.00    -0.340 C  
BRANCH  11  12
HETATM   12  C   UNL     1     -10.606  11.091  64.103  1.00  0.00    -0.412 C  
HETATM   13  C   UNL     1     -11.426  12.116  63.805  1.00  0.00    -0.548 C  
BRANCH  13  14
HETATM   14  C   UNL     1     -12.295  12.851  64.777  1.00  0.00    -0.516 C  
BRANCH  14  15
HETATM   15  C   UNL     1     -12.453  14.310  64.468  1.00  0.00    -0.357 C  
HETATM   16  C   UNL     1     -11.454  15.198  64.607  1.00  0.00    -0.363 C  
BRANCH  16  17
HETATM   17  C   UNL     1     -10.114  14.806  65.155  1.00  0.00    -0.358 C  
BRANCH  17  18
HETATM   18  C   UNL     1      -9.772  15.490  66.468  1.00  0.00    -0.290 C  
BRANCH  18  19
HETATM   19  C   UNL     1     -10.614  16.752  66.627  1.00  0.00    -0.198 C  
HETATM   20  C   UNL     1      -9.791  18.000  66.414  1.00  0.00    -0.340 C  
HETATM   21  O   UNL     1      -8.598  18.018  66.157  1.00  0.00    -0.454 OA 
HETATM   22  O   UNL     1     -10.529  19.123  66.538  1.00  0.00    -0.395 OA 
ENDBRANCH  18  19
ENDBRANCH  17  18
ENDBRANCH  16  17
ENDBRANCH  14  15
ENDBRANCH  13  14
ENDBRANCH  11  12
ENDBRANCH  10  11
ENDBRANCH   8   9
ENDBRANCH   7   8
ENDBRANCH   5   6
ENDBRANCH   4   5
ENDBRANCH   2   3
TORSDOF 12
ENDMDL
MODEL       34
REMARK 921   NORMALIZED FREE ENERGY PREDICTED BY IDOCK:   -4.84 KCAL/MOL
REMARK 922        TOTAL FREE ENERGY PREDICTED BY IDOCK:  -10.75 KCAL/MOL
REMARK 923 INTER-LIGAND FREE ENERGY PREDICTED BY IDOCK:   -8.53 KCAL/MOL
REMARK 924 INTRA-LIGAND FREE ENERGY PREDICTED BY IDOCK:   -2.22 KCAL/MOL
REMARK 927      BINDING AFFINITY PREDICTED BY RF-SCORE:    0.00 PKD
ROOT
HETATM    1  C   UNL     1     -11.267   6.025  69.710  1.00  0.00    -0.440 C  
HETATM    2  C   UNL     1     -11.257   6.728  71.058  1.00  0.00    -0.335 C  
ENDROOT
BRANCH   2   3
HETATM    3  C   UNL     1     -12.614   7.264  71.423  1.00  0.00    -0.423 C  
HETATM    4  C   UNL     1     -12.898   8.552  71.696  1.00  0.00    -0.366 C  
BRANCH   4   5
HETATM    5  C   UNL     1     -11.896   9.667  71.642  1.00  0.00    -0.457 C  
BRANCH   5   6
HETATM    6  C   UNL     1     -12.266  10.746  70.662  1.00  0.00    -0.474 C  
HETATM    7  C   UNL     1     -11.558  11.072  69.571  1.00  0.00    -0.384 C  
BRANCH   7   8
HETATM    8  C   UNL     1     -10.350  10.305  69.125  1.00  0.00    -0.241 C  
BRANCH   8   9
HETATM    9  C   UNL     1     -10.658   9.367  67.998  1.00  0.00    -0.278 C  
HETATM   10  C   UNL     1     -10.484   9.628  66.689  1.00  0.00    -0.233 C  
BRANCH  10  11
HETATM   11  C   UNL     1      -9.967  10.908  66.091  1.00  0.00    -0.282 C  
BRANCH  11  12
HETATM   12  C   UNL     1      -9.686  10.893  64.605  1.00  0.00    -0.333 C  
HETATM   13  C   UNL     1     -10.445  11.340  63.587  1.00  0.00    -0.464 C  
BRANCH  13  14
HETATM   14  C   UNL     1     -11.829  11.897  63.707  1.00  0.00    -0.558 C  
BRANCH  14  15
HETATM   15  C   UNL     1     -11.918  13.369  63.434  1.00  0.00    -0.406 C  
HETATM   16  C   UNL     1     -12.149  14.277  64.396  1.00  0.00    -0.490 C  
BRANCH  16  17
HETATM   17  C   UNL     1     -12.409  13.878  65.819  1.00  0.00    -0.518 C  
BRANCH  17  18
HETATM   18  C   UNL     1     -11.315  14.311  66.779  1.00  0.00    -0.357 C  
BRANCH  18  19
HETATM   19  C   UNL     1     -11.846  14.296  68.209  1.00  0.00    -0.370 C  
HETATM   20  C   UNL     1     -11.721  15.652  68.863  1.00  0.00    -0.384 C  
HETATM   21  O   UNL     1     -11.248  16.645  68.333  1.00  0.00    -0.357 OA 
HETATM   22  O   UNL     1     -12.203  15.654  70.123  1.00  0.00    -0.379 OA 
ENDBRANCH  18  19
ENDBRANCH  17  18
ENDBRANCH  16  17
ENDBRANCH  14  15
ENDBRANCH  13  14
ENDBRANCH  11  12
ENDBRANCH  10  11
ENDBRANCH   8   9
ENDBRANCH   7   8
ENDBRANCH   5   6
ENDBRANCH   4   5
ENDBRANCH   2   3
TORSDOF 12
ENDMDL
MODEL       35
REMARK 921   NORMALIZED FREE ENERGY PREDICTED BY IDOCK:   -4.81 KCAL/MOL
REMARK 922        TOTAL FREE ENERGY PREDICTED BY IDOCK:  -10.70 KCAL/MOL
REMARK 923 INTER-LIGAND FREE ENERGY PREDICTED BY IDOCK:   -8.31 KCAL/MOL
REMARK 924 INTRA-LIGAND FREE ENERGY PREDICTED BY IDOCK:   -2.39 KCAL/MOL
REMARK 927      BINDING AFFINITY PREDICTED BY RF-SCORE:    0.00 PKD
ROOT
HETATM    1  C   UNL     1      -9.777   9.694  69.973  1.00  0.00    -0.280 C  
HETATM    2  C   UNL     1     -11.146  10.098  69.450  1.00  0.00    -0.288 C  
ENDROOT
BRANCH   2   3
HETATM    3  C   UNL     1     -11.796  11.138  70.320  1.00  0.00    -0.455 C  
HETATM    4  C   UNL     1     -12.806  10.915  71.183  1.00  0.00    -0.508 C  
BRANCH   4   5
HETATM    5  C   UNL     1     -13.420   9.569  71.433  1.00  0.00    -0.405 C  
BRANCH   5   6
HETATM    6  C   UNL     1     -12.652   8.745  72.429  1.00  0.00    -0.430 C  
HETATM    7  C   UNL     1     -12.142   7.528  72.193  1.00  0.00    -0.305 C  
BRANCH   7   8
HETATM    8  C   UNL     1     -12.178   6.878  70.843  1.00  0.00    -0.404 C  
BRANCH   8   9
HETATM    9  C   UNL     1     -10.931   6.098  70.556  1.00  0.00    -0.384 C  
HETATM   10  C   UNL     1     -10.330   5.992  69.356  1.00  0.00    -0.298 C  
BRANCH  10  11
HETATM   11  C   UNL     1     -10.791   6.611  68.064  1.00  0.00    -0.345 C  
BRANCH  11  12
HETATM   12  C   UNL     1      -9.829   6.535  66.900  1.00  0.00    -0.211 C  
HETATM   13  C   UNL     1      -9.208   7.530  66.238  1.00  0.00    -0.194 C  
BRANCH  13  14
HETATM   14  C   UNL     1      -9.411   8.994  66.469  1.00  0.00    -0.266 C  
BRANCH  14  15
HETATM   15  C   UNL     1      -9.456   9.808  65.210  1.00  0.00    -0.343 C  
HETATM   16  C   UNL     1      -9.789  11.109  65.193  1.00  0.00    -0.307 C  
BRANCH  16  17
HETATM   17  C   UNL     1     -10.213  11.836  66.435  1.00  0.00    -0.248 C  
BRANCH  17  18
HETATM   18  C   UNL     1     -10.430  13.324  66.221  1.00  0.00    -0.289 C  
BRANCH  18  19
HETATM   19  C   UNL     1     -10.757  13.594  64.755  1.00  0.00    -0.420 C  
HETATM   20  C   UNL     1     -12.237  13.811  64.546  1.00  0.00    -0.403 C  
HETATM   21  O   UNL     1     -13.083  13.769  65.425  1.00  0.00    -0.727 OA 
HETATM   22  O   UNL     1     -12.535  14.066  63.255  1.00  0.00    -0.795 OA 
ENDBRANCH  18  19
ENDBRANCH  17  18
ENDBRANCH  16  17
ENDBRANCH  14  15
ENDBRANCH  13  14
ENDBRANCH  11  12
ENDBRANCH  10  11
ENDBRANCH   8   9
ENDBRANCH   7   8
ENDBRANCH   5   6
ENDBRANCH   4   5
ENDBRANCH   2   3
TORSDOF 12
ENDMDL
MODEL       36
REMARK 921   NORMALIZED FREE ENERGY PREDICTED BY IDOCK:   -4.79 KCAL/MOL
REMARK 922        TOTAL FREE ENERGY PREDICTED BY IDOCK:  -10.66 KCAL/MOL
REMARK 923 INTER-LIGAND FREE ENERGY PREDICTED BY IDOCK:   -8.84 KCAL/MOL
REMARK 924 INTRA-LIGAND FREE ENERGY PREDICTED BY IDOCK:   -1.81 KCAL/MOL
REMARK 927      BINDING AFFINITY PREDICTED BY RF-SCORE:    0.00 PKD
ROOT
HETATM    1  C   UNL     1     -12.792  16.030  73.546  1.00  0.00    -0.701 C  
HETATM    2  C   UNL     1     -13.150  15.756  72.095  1.00  0.00    -0.517 C  
ENDROOT
BRANCH   2   3
HETATM    3  C   UNL     1     -14.374  14.890  71.971  1.00  0.00    -0.651 C  
HETATM    4  C   UNL     1     -14.401  13.550  72.107  1.00  0.00    -0.299 C  
BRANCH   4   5
HETATM    5  C   UNL     1     -13.202  12.712  72.440  1.00  0.00    -0.348 C  
BRANCH   5   6
HETATM    6  C   UNL     1     -12.993  11.573  71.480  1.00  0.00    -0.485 C  
HETATM    7  C   UNL     1     -12.493  11.690  70.242  1.00  0.00    -0.261 C  
BRANCH   7   8
HETATM    8  C   UNL     1     -11.963  12.981  69.696  1.00  0.00    -0.367 C  
BRANCH   8   9
HETATM    9  C   UNL     1     -11.751  12.926  68.214  1.00  0.00    -0.390 C  
HETATM   10  C   UNL     1     -10.592  12.635  67.596  1.00  0.00    -0.232 C  
BRANCH  10  11
HETATM   11  C   UNL     1      -9.276  12.326  68.257  1.00  0.00    -0.189 C  
BRANCH  11  12
HETATM   12  C   UNL     1      -9.169  10.988  68.952  1.00  0.00    -0.139 C  
HETATM   13  C   UNL     1      -9.582   9.774  68.538  1.00  0.00    -0.155 C  
BRANCH  13  14
HETATM   14  C   UNL     1     -10.344   9.492  67.282  1.00  0.00    -0.319 C  
BRANCH  14  15
HETATM   15  C   UNL     1      -9.550   8.762  66.240  1.00  0.00    -0.328 C  
HETATM   16  C   UNL     1      -9.068   9.359  65.138  1.00  0.00    -0.280 C  
BRANCH  16  17
HETATM   17  C   UNL     1      -9.350  10.800  64.829  1.00  0.00    -0.264 C  
BRANCH  17  18
HETATM   18  C   UNL     1     -10.570  11.002  63.946  1.00  0.00    -0.382 C  
BRANCH  18  19
HETATM   19  C   UNL     1     -10.809  12.493  63.728  1.00  0.00    -0.489 C  
HETATM   20  C   UNL     1     -12.278  12.801  63.559  1.00  0.00    -0.525 C  
HETATM   21  O   UNL     1     -13.175  11.974  63.579  1.00  0.00    -0.724 OA 
HETATM   22  O   UNL     1     -12.503  14.120  63.381  1.00  0.00    -0.797 OA 
ENDBRANCH  18  19
ENDBRANCH  17  18
ENDBRANCH  16  17
ENDBRANCH  14  15
ENDBRANCH  13  14
ENDBRANCH  11  12
ENDBRANCH  10  11
ENDBRANCH   8   9
ENDBRANCH   7   8
ENDBRANCH   5   6
ENDBRANCH   4   5
ENDBRANCH   2   3
TORSDOF 12
ENDMDL
MODEL       37
REMARK 921   NORMALIZED FREE ENERGY PREDICTED BY IDOCK:   -4.78 KCAL/MOL
REMARK 922        TOTAL FREE ENERGY PREDICTED BY IDOCK:  -10.63 KCAL/MOL
REMARK 923 INTER-LIGAND FREE ENERGY PREDICTED BY IDOCK:   -7.85 KCAL/MOL
REMARK 924 INTRA-LIGAND FREE ENERGY PREDICTED BY IDOCK:   -2.78 KCAL/MOL
REMARK 927      BINDING AFFINITY PREDICTED BY RF-SCORE:    0.00 PKD
ROOT
HETATM    1  C   UNL     1     -13.477  15.394  71.449  1.00  0.00    -0.607 C  
HETATM    2  C   UNL     1     -13.353  13.956  70.971  1.00  0.00    -0.192 C  
ENDROOT
BRANCH   2   3
HETATM    3  C   UNL     1     -13.366  12.981  72.116  1.00  0.00    -0.622 C  
HETATM    4  C   UNL     1     -13.235  11.645  72.006  1.00  0.00    -0.443 C  
BRANCH   4   5
HETATM    5  C   UNL     1     -13.019  10.922  70.709  1.00  0.00    -0.308 C  
BRANCH   5   6
HETATM    6  C   UNL     1     -11.566  10.757  70.360  1.00  0.00    -0.431 C  
HETATM    7  C   UNL     1     -10.976  11.250  69.262  1.00  0.00    -0.297 C  
BRANCH   7   8
HETATM    8  C   UNL     1     -11.682  12.144  68.290  1.00  0.00    -0.401 C  
BRANCH   8   9
HETATM    9  C   UNL     1     -11.246  13.572  68.410  1.00  0.00    -0.309 C  
HETATM   10  C   UNL     1     -10.197  14.130  67.776  1.00  0.00    -0.242 C  
BRANCH  10  11
HETATM   11  C   UNL     1      -9.245  13.438  66.838  1.00  0.00    -0.251 C  
BRANCH  11  12
HETATM   12  C   UNL     1      -8.065  12.738  67.472  1.00  0.00    -0.180 C  
HETATM   13  C   UNL     1      -7.472  11.579  67.128  1.00  0.00    -0.142 C  
BRANCH  13  14
HETATM   14  C   UNL     1      -7.929  10.651  66.046  1.00  0.00    -0.159 C  
BRANCH  14  15
HETATM   15  C   UNL     1      -9.367  10.242  66.163  1.00  0.00    -0.211 C  
HETATM   16  C   UNL     1     -10.245  10.361  65.154  1.00  0.00    -0.326 C  
BRANCH  16  17
HETATM   17  C   UNL     1      -9.866  10.984  63.842  1.00  0.00    -0.368 C  
BRANCH  17  18
HETATM   18  C   UNL     1     -10.552  12.314  63.583  1.00  0.00    -0.501 C  
BRANCH  18  19
HETATM   19  C   UNL     1     -11.801  12.430  64.453  1.00  0.00    -0.461 C  
HETATM   20  C   UNL     1     -12.160  13.873  64.720  1.00  0.00    -0.419 C  
HETATM   21  O   UNL     1     -11.536  14.838  64.311  1.00  0.00    -0.271 OA 
HETATM   22  O   UNL     1     -13.272  13.987  65.476  1.00  0.00    -0.710 OA 
ENDBRANCH  18  19
ENDBRANCH  17  18
ENDBRANCH  16  17
ENDBRANCH  14  15
ENDBRANCH  13  14
ENDBRANCH  11  12
ENDBRANCH  10  11
ENDBRANCH   8   9
ENDBRANCH   7   8
ENDBRANCH   5   6
ENDBRANCH   4   5
ENDBRANCH   2   3
TORSDOF 12
ENDMDL
MODEL       38
REMARK 921   NORMALIZED FREE ENERGY PREDICTED BY IDOCK:   -4.76 KCAL/MOL
REMARK 922        TOTAL FREE ENERGY PREDICTED BY IDOCK:  -10.61 KCAL/MOL
REMARK 923 INTER-LIGAND FREE ENERGY PREDICTED BY IDOCK:   -8.93 KCAL/MOL
REMARK 924 INTRA-LIGAND FREE ENERGY PREDICTED BY IDOCK:   -1.68 KCAL/MOL
REMARK 927      BINDING AFFINITY PREDICTED BY RF-SCORE:    0.00 PKD
ROOT
HETATM    1  C   UNL     1     -12.431  15.647  74.562  1.00  0.00    -0.749 C  
HETATM    2  C   UNL     1     -12.575  15.943  73.078  1.00  0.00    -0.606 C  
ENDROOT
BRANCH   2   3
HETATM    3  C   UNL     1     -13.891  15.458  72.533  1.00  0.00    -0.651 C  
HETATM    4  C   UNL     1     -14.090  14.289  71.896  1.00  0.00    -0.586 C  
BRANCH   4   5
HETATM    5  C   UNL     1     -13.021  13.263  71.662  1.00  0.00    -0.441 C  
BRANCH   5   6
HETATM    6  C   UNL     1     -13.480  11.857  71.937  1.00  0.00    -0.289 C  
HETATM    7  C   UNL     1     -12.918  10.750  71.432  1.00  0.00    -0.535 C  
BRANCH   7   8
HETATM    8  C   UNL     1     -11.666  10.775  70.609  1.00  0.00    -0.442 C  
BRANCH   8   9
HETATM    9  C   UNL     1     -10.806   9.571  70.847  1.00  0.00    -0.407 C  
HETATM   10  C   UNL     1     -10.232   8.814  69.894  1.00  0.00    -0.206 C  
BRANCH  10  11
HETATM   11  C   UNL     1     -10.348   9.006  68.405  1.00  0.00    -0.242 C  
BRANCH  11  12
HETATM   12  C   UNL     1      -9.539  10.134  67.806  1.00  0.00    -0.168 C  
HETATM   13  C   UNL     1      -9.960  11.284  67.244  1.00  0.00    -0.208 C  
BRANCH  13  14
HETATM   14  C   UNL     1     -11.386  11.669  67.005  1.00  0.00    -0.373 C  
BRANCH  14  15
HETATM   15  C   UNL     1     -11.816  12.898  67.750  1.00  0.00    -0.391 C  
HETATM   16  C   UNL     1     -12.304  13.989  67.139  1.00  0.00    -0.234 C  
BRANCH  16  17
HETATM   17  C   UNL     1     -12.390  14.090  65.644  1.00  0.00    -0.502 C  
BRANCH  17  18
HETATM   18  C   UNL     1     -11.073  14.463  64.986  1.00  0.00    -0.385 C  
BRANCH  18  19
HETATM   19  C   UNL     1     -10.832  15.964  65.125  1.00  0.00    -0.438 C  
HETATM   20  C   UNL     1      -9.596  16.255  65.943  1.00  0.00    -0.301 C  
HETATM   21  O   UNL     1      -8.875  15.410  66.448  1.00  0.00    -0.290 OA 
HETATM   22  O   UNL     1      -9.366  17.579  66.059  1.00  0.00    -0.482 OA 
ENDBRANCH  18  19
ENDBRANCH  17  18
ENDBRANCH  16  17
ENDBRANCH  14  15
ENDBRANCH  13  14
ENDBRANCH  11  12
ENDBRANCH  10  11
ENDBRANCH   8   9
ENDBRANCH   7   8
ENDBRANCH   5   6
ENDBRANCH   4   5
ENDBRANCH   2   3
TORSDOF 12
ENDMDL
MODEL       39
REMARK 921   NORMALIZED FREE ENERGY PREDICTED BY IDOCK:   -4.76 KCAL/MOL
REMARK 922        TOTAL FREE ENERGY PREDICTED BY IDOCK:  -10.60 KCAL/MOL
REMARK 923 INTER-LIGAND FREE ENERGY PREDICTED BY IDOCK:   -7.92 KCAL/MOL
REMARK 924 INTRA-LIGAND FREE ENERGY PREDICTED BY IDOCK:   -2.68 KCAL/MOL
REMARK 927      BINDING AFFINITY PREDICTED BY RF-SCORE:    0.00 PKD
ROOT
HETATM    1  C   UNL     1     -10.756   7.083  67.237  1.00  0.00    -0.412 C  
HETATM    2  C   UNL     1     -10.643   7.454  68.707  1.00  0.00    -0.189 C  
ENDROOT
BRANCH   2   3
HETATM    3  C   UNL     1     -11.275   6.420  69.598  1.00  0.00    -0.483 C  
HETATM    4  C   UNL     1     -11.522   6.567  70.913  1.00  0.00    -0.408 C  
BRANCH   4   5
HETATM    5  C   UNL     1     -11.229   7.816  71.692  1.00  0.00    -0.286 C  
BRANCH   5   6
HETATM    6  C   UNL     1     -12.414   8.735  71.801  1.00  0.00    -0.407 C  
HETATM    7  C   UNL     1     -12.488   9.964  71.270  1.00  0.00    -0.479 C  
BRANCH   7   8
HETATM    8  C   UNL     1     -11.420  10.535  70.387  1.00  0.00    -0.427 C  
BRANCH   8   9
HETATM    9  C   UNL     1     -11.899  10.747  68.983  1.00  0.00    -0.325 C  
HETATM   10  C   UNL     1     -11.134  11.117  67.939  1.00  0.00    -0.331 C  
BRANCH  10  11
HETATM   11  C   UNL     1      -9.658  11.410  67.969  1.00  0.00    -0.184 C  
BRANCH  11  12
HETATM   12  C   UNL     1      -9.145  12.393  66.941  1.00  0.00    -0.211 C  
HETATM   13  C   UNL     1      -9.124  13.739  66.981  1.00  0.00    -0.253 C  
BRANCH  13  14
HETATM   14  C   UNL     1      -9.705  14.590  68.066  1.00  0.00    -0.218 C  
BRANCH  14  15
HETATM   15  C   UNL     1     -11.181  14.823  67.931  1.00  0.00    -0.318 C  
HETATM   16  C   UNL     1     -12.037  14.691  68.957  1.00  0.00    -0.270 C  
BRANCH  16  17
HETATM   17  C   UNL     1     -11.588  14.229  70.312  1.00  0.00    -0.289 C  
BRANCH  17  18
HETATM   18  C   UNL     1     -12.735  13.862  71.238  1.00  0.00    -0.444 C  
BRANCH  18  19
HETATM   19  C   UNL     1     -13.372  15.130  71.799  1.00  0.00    -0.506 C  
HETATM   20  C   UNL     1     -13.021  15.331  73.254  1.00  0.00    -0.527 C  
HETATM   21  O   UNL     1     -12.326  14.579  73.919  1.00  0.00    -0.403 OA 
HETATM   22  O   UNL     1     -13.568  16.458  73.757  1.00  0.00    -0.547 OA 
ENDBRANCH  18  19
ENDBRANCH  17  18
ENDBRANCH  16  17
ENDBRANCH  14  15
ENDBRANCH  13  14
ENDBRANCH  11  12
ENDBRANCH  10  11
ENDBRANCH   8   9
ENDBRANCH   7   8
ENDBRANCH   5   6
ENDBRANCH   4   5
ENDBRANCH   2   3
TORSDOF 12
ENDMDL
MODEL       40
REMARK 921   NORMALIZED FREE ENERGY PREDICTED BY IDOCK:   -4.75 KCAL/MOL
REMARK 922        TOTAL FREE ENERGY PREDICTED BY IDOCK:  -10.59 KCAL/MOL
REMARK 923 INTER-LIGAND FREE ENERGY PREDICTED BY IDOCK:   -8.20 KCAL/MOL
REMARK 924 INTRA-LIGAND FREE ENERGY PREDICTED BY IDOCK:   -2.40 KCAL/MOL
REMARK 927      BINDING AFFINITY PREDICTED BY RF-SCORE:    0.00 PKD
ROOT
HETATM    1  C   UNL     1     -13.231  14.232  71.933  1.00  0.00    -0.456 C  
HETATM    2  C   UNL     1     -13.220  12.750  72.270  1.00  0.00    -0.491 C  
ENDROOT
BRANCH   2   3
HETATM    3  C   UNL     1     -13.031  11.896  71.046  1.00  0.00    -0.180 C  
HETATM    4  C   UNL     1     -12.961  10.552  71.033  1.00  0.00    -0.475 C  
BRANCH   4   5
HETATM    5  C   UNL     1     -13.097   9.689  72.253  1.00  0.00    -0.468 C  
BRANCH   5   6
HETATM    6  C   UNL     1     -14.068   8.555  72.068  1.00  0.00    -0.516 C  
HETATM    7  C   UNL     1     -13.769   7.364  71.531  1.00  0.00    -0.467 C  
BRANCH   7   8
HETATM    8  C   UNL     1     -12.374   6.970  71.148  1.00  0.00    -0.423 C  
BRANCH   8   9
HETATM    9  C   UNL     1     -11.698   6.169  72.219  1.00  0.00    -0.352 C  
HETATM   10  C   UNL     1     -10.786   6.636  73.092  1.00  0.00    -0.298 C  
BRANCH  10  11
HETATM   11  C   UNL     1     -10.250   8.040  73.164  1.00  0.00    -0.287 C  
BRANCH  11  12
HETATM   12  C   UNL     1      -8.929   8.292  72.473  1.00  0.00    -0.305 C  
HETATM   13  C   UNL     1      -8.677   8.933  71.316  1.00  0.00    -0.279 C  
BRANCH  13  14
HETATM   14  C   UNL     1      -9.707   9.484  70.380  1.00  0.00    -0.328 C  
BRANCH  14  15
HETATM   15  C   UNL     1      -9.964   8.620  69.181  1.00  0.00    -0.193 C  
HETATM   16  C   UNL     1     -10.525   9.085  68.053  1.00  0.00    -0.270 C  
BRANCH  16  17
HETATM   17  C   UNL     1     -11.007  10.501  67.931  1.00  0.00    -0.352 C  
BRANCH  17  18
HETATM   18  C   UNL     1     -10.685  11.136  66.589  1.00  0.00    -0.322 C  
BRANCH  18  19
HETATM   19  C   UNL     1     -10.794  12.654  66.697  1.00  0.00    -0.286 C  
HETATM   20  C   UNL     1     -11.964  13.185  65.902  1.00  0.00    -0.427 C  
HETATM   21  O   UNL     1     -12.730  12.502  65.241  1.00  0.00    -0.654 OA 
HETATM   22  O   UNL     1     -12.079  14.526  66.003  1.00  0.00    -0.364 OA 
ENDBRANCH  18  19
ENDBRANCH  17  18
ENDBRANCH  16  17
ENDBRANCH  14  15
ENDBRANCH  13  14
ENDBRANCH  11  12
ENDBRANCH  10  11
ENDBRANCH   8   9
ENDBRANCH   7   8
ENDBRANCH   5   6
ENDBRANCH   4   5
ENDBRANCH   2   3
TORSDOF 12
ENDMDL
MODEL       41
REMARK 921   NORMALIZED FREE ENERGY PREDICTED BY IDOCK:   -4.74 KCAL/MOL
REMARK 922        TOTAL FREE ENERGY PREDICTED BY IDOCK:  -10.57 KCAL/MOL
REMARK 923 INTER-LIGAND FREE ENERGY PREDICTED BY IDOCK:   -7.49 KCAL/MOL
REMARK 924 INTRA-LIGAND FREE ENERGY PREDICTED BY IDOCK:   -3.07 KCAL/MOL
REMARK 927      BINDING AFFINITY PREDICTED BY RF-SCORE:    0.00 PKD
ROOT
HETATM    1  C   UNL     1     -12.653  15.979  73.921  1.00  0.00    -0.730 C  
HETATM    2  C   UNL     1     -13.729  15.480  72.969  1.00  0.00    -0.518 C  
ENDROOT
BRANCH   2   3
HETATM    3  C   UNL     1     -13.448  14.084  72.486  1.00  0.00    -0.661 C  
HETATM    4  C   UNL     1     -12.886  13.764  71.305  1.00  0.00    -0.434 C  
BRANCH   4   5
HETATM    5  C   UNL     1     -12.416  14.768  70.294  1.00  0.00    -0.393 C  
BRANCH   5   6
HETATM    6  C   UNL     1     -10.963  15.125  70.448  1.00  0.00    -0.268 C  
HETATM    7  C   UNL     1     -10.213  15.721  69.510  1.00  0.00    -0.271 C  
BRANCH   7   8
HETATM    8  C   UNL     1     -10.774  16.218  68.212  1.00  0.00    -0.322 C  
BRANCH   8   9
HETATM    9  C   UNL     1      -9.737  16.894  67.368  1.00  0.00    -0.247 C  
HETATM   10  C   UNL     1      -9.294  16.463  66.172  1.00  0.00    -0.360 C  
BRANCH  10  11
HETATM   11  C   UNL     1      -9.730  15.216  65.450  1.00  0.00    -0.239 C  
BRANCH  11  12
HETATM   12  C   UNL     1     -11.120  15.233  64.857  1.00  0.00    -0.435 C  
HETATM   13  C   UNL     1     -12.074  14.283  64.887  1.00  0.00    -0.442 C  
BRANCH  13  14
HETATM   14  C   UNL     1     -11.925  12.912  65.471  1.00  0.00    -0.482 C  
BRANCH  14  15
HETATM   15  C   UNL     1     -12.138  12.857  66.954  1.00  0.00    -0.313 C  
HETATM   16  C   UNL     1     -11.183  12.467  67.814  1.00  0.00    -0.327 C  
BRANCH  16  17
HETATM   17  C   UNL     1      -9.841  11.985  67.346  1.00  0.00    -0.191 C  
BRANCH  17  18
HETATM   18  C   UNL     1      -8.684  12.522  68.171  1.00  0.00    -0.190 C  
BRANCH  18  19
HETATM   19  C   UNL     1      -7.682  13.225  67.260  1.00  0.00    -0.100 C  
HETATM   20  C   UNL     1      -6.895  14.277  68.006  1.00  0.00    -0.144 C  
HETATM   21  O   UNL     1      -7.037  14.552  69.186  1.00  0.00    -0.117 OA 
HETATM   22  O   UNL     1      -5.995  14.894  67.213  1.00  0.00    -0.312 OA 
ENDBRANCH  18  19
ENDBRANCH  17  18
ENDBRANCH  16  17
ENDBRANCH  14  15
ENDBRANCH  13  14
ENDBRANCH  11  12
ENDBRANCH  10  11
ENDBRANCH   8   9
ENDBRANCH   7   8
ENDBRANCH   5   6
ENDBRANCH   4   5
ENDBRANCH   2   3
TORSDOF 12
ENDMDL
MODEL       42
REMARK 921   NORMALIZED FREE ENERGY PREDICTED BY IDOCK:   -4.73 KCAL/MOL
REMARK 922        TOTAL FREE ENERGY PREDICTED BY IDOCK:  -10.56 KCAL/MOL
REMARK 923 INTER-LIGAND FREE ENERGY PREDICTED BY IDOCK:   -8.02 KCAL/MOL
REMARK 924 INTRA-LIGAND FREE ENERGY PREDICTED BY IDOCK:   -2.54 KCAL/MOL
REMARK 927      BINDING AFFINITY PREDICTED BY RF-SCORE:    0.00 PKD
ROOT
HETATM    1  C   UNL     1      -9.626  10.290  64.371  1.00  0.00    -0.378 C  
HETATM    2  C   UNL     1     -10.057  11.748  64.358  1.00  0.00    -0.319 C  
ENDROOT
BRANCH   2   3
HETATM    3  C   UNL     1     -11.361  11.943  63.635  1.00  0.00    -0.536 C  
HETATM    4  C   UNL     1     -12.329  12.810  63.987  1.00  0.00    -0.492 C  
BRANCH   4   5
HETATM    5  C   UNL     1     -12.236  13.751  65.152  1.00  0.00    -0.453 C  
BRANCH   5   6
HETATM    6  C   UNL     1     -11.639  15.083  64.789  1.00  0.00    -0.395 C  
HETATM    7  C   UNL     1     -10.545  15.615  65.351  1.00  0.00    -0.436 C  
BRANCH   7   8
HETATM    8  C   UNL     1      -9.700  14.881  66.347  1.00  0.00    -0.306 C  
BRANCH   8   9
HETATM    9  C   UNL     1      -9.242  15.766  67.466  1.00  0.00    -0.207 C  
HETATM   10  C   UNL     1     -10.012  16.228  68.468  1.00  0.00    -0.234 C  
BRANCH  10  11
HETATM   11  C   UNL     1     -11.482  15.968  68.663  1.00  0.00    -0.377 C  
BRANCH  11  12
HETATM   12  C   UNL     1     -11.865  15.118  69.853  1.00  0.00    -0.363 C  
HETATM   13  C   UNL     1     -12.021  13.783  69.935  1.00  0.00    -0.412 C  
BRANCH  13  14
HETATM   14  C   UNL     1     -11.927  12.820  68.793  1.00  0.00    -0.278 C  
BRANCH  14  15
HETATM   15  C   UNL     1     -10.557  12.243  68.596  1.00  0.00    -0.249 C  
HETATM   16  C   UNL     1     -10.279  10.942  68.784  1.00  0.00    -0.210 C  
BRANCH  16  17
HETATM   17  C   UNL     1     -11.312   9.973  69.278  1.00  0.00    -0.169 C  
BRANCH  17  18
HETATM   18  C   UNL     1     -11.161   9.626  70.749  1.00  0.00    -0.403 C  
BRANCH  18  19
HETATM   19  C   UNL     1     -12.444   9.977  71.497  1.00  0.00    -0.516 C  
HETATM   20  C   UNL     1     -13.242   8.742  71.843  1.00  0.00    -0.381 C  
HETATM   21  O   UNL     1     -12.923   7.599  71.558  1.00  0.00    -0.336 OA 
HETATM   22  O   UNL     1     -14.371   9.040  72.519  1.00  0.00    -0.570 OA 
ENDBRANCH  18  19
ENDBRANCH  17  18
ENDBRANCH  16  17
ENDBRANCH  14  15
ENDBRANCH  13  14
ENDBRANCH  11  12
ENDBRANCH  10  11
ENDBRANCH   8   9
ENDBRANCH   7   8
ENDBRANCH   5   6
ENDBRANCH   4   5
ENDBRANCH   2   3
TORSDOF 12
ENDMDL
MODEL       43
REMARK 921   NORMALIZED FREE ENERGY PREDICTED BY IDOCK:   -4.73 KCAL/MOL
REMARK 922        TOTAL FREE ENERGY PREDICTED BY IDOCK:  -10.55 KCAL/MOL
REMARK 923 INTER-LIGAND FREE ENERGY PREDICTED BY IDOCK:   -7.93 KCAL/MOL
REMARK 924 INTRA-LIGAND FREE ENERGY PREDICTED BY IDOCK:   -2.62 KCAL/MOL
REMARK 927      BINDING AFFINITY PREDICTED BY RF-SCORE:    0.00 PKD
ROOT
HETATM    1  C   UNL     1     -10.973   7.923  72.514  1.00  0.00    -0.412 C  
HETATM    2  C   UNL     1     -12.070   8.390  71.570  1.00  0.00    -0.342 C  
ENDROOT
BRANCH   2   3
HETATM    3  C   UNL     1     -12.903   9.487  72.174  1.00  0.00    -0.471 C  
HETATM    4  C   UNL     1     -13.064  10.720  71.658  1.00  0.00    -0.551 C  
BRANCH   4   5
HETATM    5  C   UNL     1     -12.456  11.180  70.366  1.00  0.00    -0.382 C  
BRANCH   5   6
HETATM    6  C   UNL     1     -12.052  12.628  70.386  1.00  0.00    -0.381 C  
HETATM    7  C   UNL     1     -11.812  13.376  69.300  1.00  0.00    -0.385 C  
BRANCH   7   8
HETATM    8  C   UNL     1     -12.034  12.880  67.904  1.00  0.00    -0.333 C  
BRANCH   8   9
HETATM    9  C   UNL     1     -12.237  14.000  66.929  1.00  0.00    -0.415 C  
HETATM   10  C   UNL     1     -12.442  13.863  65.606  1.00  0.00    -0.538 C  
BRANCH  10  11
HETATM   11  C   UNL     1     -12.491  12.572  64.835  1.00  0.00    -0.524 C  
BRANCH  11  12
HETATM   12  C   UNL     1     -11.564  12.461  63.646  1.00  0.00    -0.580 C  
HETATM   13  C   UNL     1     -10.551  11.601  63.428  1.00  0.00    -0.472 C  
BRANCH  13  14
HETATM   14  C   UNL     1     -10.049  10.579  64.399  1.00  0.00    -0.395 C  
BRANCH  14  15
HETATM   15  C   UNL     1      -9.269  11.157  65.542  1.00  0.00    -0.236 C  
HETATM   16  C   UNL     1      -9.427  10.751  66.813  1.00  0.00    -0.198 C  
BRANCH  16  17
HETATM   17  C   UNL     1     -10.456   9.729  67.197  1.00  0.00    -0.316 C  
BRANCH  17  18
HETATM   18  C   UNL     1     -10.104   8.961  68.460  1.00  0.00    -0.209 C  
BRANCH  18  19
HETATM   19  C   UNL     1      -9.276   9.844  69.388  1.00  0.00    -0.225 C  
HETATM   20  C   UNL     1      -8.274   9.035  70.179  1.00  0.00    -0.136 C  
HETATM   21  O   UNL     1      -8.138   7.824  70.106  1.00  0.00    -0.113 OA 
HETATM   22  O   UNL     1      -7.526   9.809  70.992  1.00  0.00    -0.318 OA 
ENDBRANCH  18  19
ENDBRANCH  17  18
ENDBRANCH  16  17
ENDBRANCH  14  15
ENDBRANCH  13  14
ENDBRANCH  11  12
ENDBRANCH  10  11
ENDBRANCH   8   9
ENDBRANCH   7   8
ENDBRANCH   5   6
ENDBRANCH   4   5
ENDBRANCH   2   3
TORSDOF 12
ENDMDL
MODEL       44
REMARK 921   NORMALIZED FREE ENERGY PREDICTED BY IDOCK:   -4.71 KCAL/MOL
REMARK 922        TOTAL FREE ENERGY PREDICTED BY IDOCK:  -10.52 KCAL/MOL
REMARK 923 INTER-LIGAND FREE ENERGY PREDICTED BY IDOCK:   -9.02 KCAL/MOL
REMARK 924 INTRA-LIGAND FREE ENERGY PREDICTED BY IDOCK:   -1.49 KCAL/MOL
REMARK 927      BINDING AFFINITY PREDICTED BY RF-SCORE:    0.00 PKD
ROOT
HETATM    1  C   UNL     1      -7.894   9.359  64.097  1.00  0.00    -0.124 C  
HETATM    2  C   UNL     1      -9.328   9.771  64.388  1.00  0.00    -0.278 C  
ENDROOT
BRANCH   2   3
HETATM    3  C   UNL     1      -9.860  10.726  63.355  1.00  0.00    -0.400 C  
HETATM    4  C   UNL     1     -10.760  11.701  63.582  1.00  0.00    -0.500 C  
BRANCH   4   5
HETATM    5  C   UNL     1     -11.350  12.009  64.927  1.00  0.00    -0.366 C  
BRANCH   5   6
HETATM    6  C   UNL     1     -12.427  13.058  64.873  1.00  0.00    -0.512 C  
HETATM    7  C   UNL     1     -12.734  13.898  65.872  1.00  0.00    -0.466 C  
BRANCH   7   8
HETATM    8  C   UNL     1     -11.948  13.973  67.145  1.00  0.00    -0.465 C  
BRANCH   8   9
HETATM    9  C   UNL     1     -11.247  15.288  67.302  1.00  0.00    -0.306 C  
HETATM   10  C   UNL     1     -10.763  15.787  68.455  1.00  0.00    -0.274 C  
BRANCH  10  11
HETATM   11  C   UNL     1     -10.842  15.145  69.814  1.00  0.00    -0.298 C  
BRANCH  11  12
HETATM   12  C   UNL     1     -11.458  15.975  70.917  1.00  0.00    -0.451 C  
HETATM   13  C   UNL     1     -12.639  15.820  71.546  1.00  0.00    -0.517 C  
BRANCH  13  14
HETATM   14  C   UNL     1     -13.678  14.796  71.215  1.00  0.00    -0.476 C  
BRANCH  14  15
HETATM   15  C   UNL     1     -13.823  13.720  72.249  1.00  0.00    -0.679 C  
HETATM   16  C   UNL     1     -13.246  12.512  72.133  1.00  0.00    -0.508 C  
BRANCH  16  17
HETATM   17  C   UNL     1     -12.464  12.121  70.914  1.00  0.00    -0.374 C  
BRANCH  17  18
HETATM   18  C   UNL     1     -12.730  10.697  70.455  1.00  0.00    -0.340 C  
BRANCH  18  19
HETATM   19  C   UNL     1     -11.787   9.737  71.174  1.00  0.00    -0.466 C  
HETATM   20  C   UNL     1     -12.532   8.844  72.138  1.00  0.00    -0.389 C  
HETATM   21  O   UNL     1     -13.735   8.879  72.340  1.00  0.00    -0.438 OA 
HETATM   22  O   UNL     1     -11.708   7.980  72.768  1.00  0.00    -0.396 OA 
ENDBRANCH  18  19
ENDBRANCH  17  18
ENDBRANCH  16  17
ENDBRANCH  14  15
ENDBRANCH  13  14
ENDBRANCH  11  12
ENDBRANCH  10  11
ENDBRANCH   8   9
ENDBRANCH   7   8
ENDBRANCH   5   6
ENDBRANCH   4   5
ENDBRANCH   2   3
TORSDOF 12
ENDMDL
MODEL       45
REMARK 921   NORMALIZED FREE ENERGY PREDICTED BY IDOCK:   -4.70 KCAL/MOL
REMARK 922        TOTAL FREE ENERGY PREDICTED BY IDOCK:  -10.51 KCAL/MOL
REMARK 923 INTER-LIGAND FREE ENERGY PREDICTED BY IDOCK:   -8.12 KCAL/MOL
REMARK 924 INTRA-LIGAND FREE ENERGY PREDICTED BY IDOCK:   -2.38 KCAL/MOL
REMARK 927      BINDING AFFINITY PREDICTED BY RF-SCORE:    0.00 PKD
ROOT
HETATM    1  C   UNL     1     -12.507  15.784  74.243  1.00  0.00    -0.800 C  
HETATM    2  C   UNL     1     -12.478  15.875  72.726  1.00  0.00    -0.565 C  
ENDROOT
BRANCH   2   3
HETATM    3  C   UNL     1     -13.749  15.361  72.107  1.00  0.00    -0.618 C  
HETATM    4  C   UNL     1     -13.943  14.112  71.644  1.00  0.00    -0.434 C  
BRANCH   4   5
HETATM    5  C   UNL     1     -12.917  13.019  71.707  1.00  0.00    -0.420 C  
BRANCH   5   6
HETATM    6  C   UNL     1     -13.503  11.676  72.044  1.00  0.00    -0.304 C  
HETATM    7  C   UNL     1     -13.006  10.496  71.647  1.00  0.00    -0.581 C  
BRANCH   7   8
HETATM    8  C   UNL     1     -11.713  10.367  70.901  1.00  0.00    -0.455 C  
BRANCH   8   9
HETATM    9  C   UNL     1     -10.791   9.368  71.532  1.00  0.00    -0.398 C  
HETATM   10  C   UNL     1     -10.193   8.341  70.899  1.00  0.00    -0.224 C  
BRANCH  10  11
HETATM   11  C   UNL     1     -10.338   7.977  69.446  1.00  0.00    -0.217 C  
BRANCH  11  12
HETATM   12  C   UNL     1      -9.140   8.240  68.563  1.00  0.00    -0.136 C  
HETATM   13  C   UNL     1      -8.689   9.404  68.057  1.00  0.00    -0.124 C  
BRANCH  13  14
HETATM   14  C   UNL     1      -9.358  10.736  68.198  1.00  0.00    -0.155 C  
BRANCH  14  15
HETATM   15  C   UNL     1     -10.577  10.898  67.341  1.00  0.00    -0.285 C  
HETATM   16  C   UNL     1     -11.418  11.939  67.457  1.00  0.00    -0.396 C  
BRANCH  16  17
HETATM   17  C   UNL     1     -11.238  12.991  68.512  1.00  0.00    -0.309 C  
BRANCH  17  18
HETATM   18  C   UNL     1     -11.998  14.274  68.222  1.00  0.00    -0.346 C  
BRANCH  18  19
HETATM   19  C   UNL     1     -11.474  15.397  69.112  1.00  0.00    -0.344 C  
HETATM   20  C   UNL     1     -10.811  16.485  68.301  1.00  0.00    -0.352 C  
HETATM   21  O   UNL     1     -10.689  16.479  67.087  1.00  0.00    -0.303 OA 
HETATM   22  O   UNL     1     -10.357  17.491  69.077  1.00  0.00    -0.356 OA 
ENDBRANCH  18  19
ENDBRANCH  17  18
ENDBRANCH  16  17
ENDBRANCH  14  15
ENDBRANCH  13  14
ENDBRANCH  11  12
ENDBRANCH  10  11
ENDBRANCH   8   9
ENDBRANCH   7   8
ENDBRANCH   5   6
ENDBRANCH   4   5
ENDBRANCH   2   3
TORSDOF 12
ENDMDL
MODEL       46
REMARK 921   NORMALIZED FREE ENERGY PREDICTED BY IDOCK:   -4.70 KCAL/MOL
REMARK 922        TOTAL FREE ENERGY PREDICTED BY IDOCK:  -10.50 KCAL/MOL
REMARK 923 INTER-LIGAND FREE ENERGY PREDICTED BY IDOCK:   -8.31 KCAL/MOL
REMARK 924 INTRA-LIGAND FREE ENERGY PREDICTED BY IDOCK:   -2.19 KCAL/MOL
REMARK 927      BINDING AFFINITY PREDICTED BY RF-SCORE:    0.00 PKD
ROOT
HETATM    1  C   UNL     1     -14.299   7.307  71.446  1.00  0.00    -0.484 C  
HETATM    2  C   UNL     1     -13.046   8.127  71.707  1.00  0.00    -0.367 C  
ENDROOT
BRANCH   2   3
HETATM    3  C   UNL     1     -13.371   9.542  72.100  1.00  0.00    -0.545 C  
HETATM    4  C   UNL     1     -12.833  10.648  71.554  1.00  0.00    -0.567 C  
BRANCH   4   5
HETATM    5  C   UNL     1     -11.838  10.637  70.431  1.00  0.00    -0.441 C  
BRANCH   5   6
HETATM    6  C   UNL     1     -12.022  11.776  69.467  1.00  0.00    -0.364 C  
HETATM    7  C   UNL     1     -11.609  11.781  68.192  1.00  0.00    -0.391 C  
BRANCH   7   8
HETATM    8  C   UNL     1     -11.005  10.582  67.527  1.00  0.00    -0.365 C  
BRANCH   8   9
HETATM    9  C   UNL     1      -9.619  10.850  67.024  1.00  0.00    -0.197 C  
HETATM   10  C   UNL     1      -9.203  10.706  65.752  1.00  0.00    -0.218 C  
BRANCH  10  11
HETATM   11  C   UNL     1     -10.029  10.235  64.586  1.00  0.00    -0.377 C  
BRANCH  11  12
HETATM   12  C   UNL     1     -10.251  11.232  63.471  1.00  0.00    -0.456 C  
HETATM   13  C   UNL     1     -11.037  12.325  63.446  1.00  0.00    -0.487 C  
BRANCH  13  14
HETATM   14  C   UNL     1     -11.965  12.760  64.536  1.00  0.00    -0.454 C  
BRANCH  14  15
HETATM   15  C   UNL     1     -12.086  14.249  64.673  1.00  0.00    -0.478 C  
HETATM   16  C   UNL     1     -11.234  14.987  65.405  1.00  0.00    -0.356 C  
BRANCH  16  17
HETATM   17  C   UNL     1     -10.129  14.363  66.205  1.00  0.00    -0.323 C  
BRANCH  17  18
HETATM   18  C   UNL     1      -9.900  15.035  67.548  1.00  0.00    -0.217 C  
BRANCH  18  19
HETATM   19  C   UNL     1     -10.733  16.310  67.637  1.00  0.00    -0.311 C  
HETATM   20  C   UNL     1      -9.861  17.542  67.672  1.00  0.00    -0.291 C  
HETATM   21  O   UNL     1      -8.641  17.539  67.646  1.00  0.00    -0.216 OA 
HETATM   22  O   UNL     1     -10.589  18.677  67.735  1.00  0.00    -0.406 OA 
ENDBRANCH  18  19
ENDBRANCH  17  18
ENDBRANCH  16  17
ENDBRANCH  14  15
ENDBRANCH  13  14
ENDBRANCH  11  12
ENDBRANCH  10  11
ENDBRANCH   8   9
ENDBRANCH   7   8
ENDBRANCH   5   6
ENDBRANCH   4   5
ENDBRANCH   2   3
TORSDOF 12
ENDMDL
MODEL       47
REMARK 921   NORMALIZED FREE ENERGY PREDICTED BY IDOCK:   -4.70 KCAL/MOL
REMARK 922        TOTAL FREE ENERGY PREDICTED BY IDOCK:  -10.50 KCAL/MOL
REMARK 923 INTER-LIGAND FREE ENERGY PREDICTED BY IDOCK:   -8.35 KCAL/MOL
REMARK 924 INTRA-LIGAND FREE ENERGY PREDICTED BY IDOCK:   -2.14 KCAL/MOL
REMARK 927      BINDING AFFINITY PREDICTED BY RF-SCORE:    0.00 PKD
ROOT
HETATM    1  C   UNL     1      -9.443  10.982  66.796  1.00  0.00    -0.203 C  
HETATM    2  C   UNL     1     -10.900  11.375  66.608  1.00  0.00    -0.339 C  
ENDROOT
BRANCH   2   3
HETATM    3  C   UNL     1     -11.517  11.873  67.885  1.00  0.00    -0.385 C  
HETATM    4  C   UNL     1     -11.978  13.121  68.096  1.00  0.00    -0.333 C  
BRANCH   4   5
HETATM    5  C   UNL     1     -11.976  14.207  67.061  1.00  0.00    -0.471 C  
BRANCH   5   6
HETATM    6  C   UNL     1     -10.648  14.903  66.939  1.00  0.00    -0.300 C  
HETATM    7  C   UNL     1     -10.268  15.969  67.657  1.00  0.00    -0.262 C  
BRANCH   7   8
HETATM    8  C   UNL     1     -11.092  16.535  68.773  1.00  0.00    -0.309 C  
BRANCH   8   9
HETATM    9  C   UNL     1     -10.695  15.983  70.108  1.00  0.00    -0.316 C  
HETATM   10  C   UNL     1     -11.531  15.449  71.018  1.00  0.00    -0.407 C  
BRANCH  10  11
HETATM   11  C   UNL     1     -13.025  15.315  70.893  1.00  0.00    -0.522 C  
BRANCH  11  12
HETATM   12  C   UNL     1     -13.727  14.549  71.992  1.00  0.00    -0.528 C  
HETATM   13  C   UNL     1     -13.670  13.237  72.291  1.00  0.00    -0.686 C  
BRANCH  13  14
HETATM   14  C   UNL     1     -12.930  12.194  71.512  1.00  0.00    -0.398 C  
BRANCH  14  15
HETATM   15  C   UNL     1     -13.346  10.789  71.830  1.00  0.00    -0.445 C  
HETATM   16  C   UNL     1     -12.562   9.724  71.593  1.00  0.00    -0.509 C  
BRANCH  16  17
HETATM   17  C   UNL     1     -11.228   9.855  70.919  1.00  0.00    -0.433 C  
BRANCH  17  18
HETATM   18  C   UNL     1     -10.412   8.574  70.937  1.00  0.00    -0.248 C  
BRANCH  18  19
HETATM   19  C   UNL     1      -9.353   8.651  72.032  1.00  0.00    -0.362 C  
HETATM   20  C   UNL     1      -9.731   7.814  73.232  1.00  0.00    -0.294 C  
HETATM   21  O   UNL     1     -10.756   7.161  73.336  1.00  0.00    -0.347 OA 
HETATM   22  O   UNL     1      -8.792   7.863  74.200  1.00  0.00    -0.258 OA 
ENDBRANCH  18  19
ENDBRANCH  17  18
ENDBRANCH  16  17
ENDBRANCH  14  15
ENDBRANCH  13  14
ENDBRANCH  11  12
ENDBRANCH  10  11
ENDBRANCH   8   9
ENDBRANCH   7   8
ENDBRANCH   5   6
ENDBRANCH   4   5
ENDBRANCH   2   3
TORSDOF 12
ENDMDL
MODEL       48
REMARK 921   NORMALIZED FREE ENERGY PREDICTED BY IDOCK:   -4.68 KCAL/MOL
REMARK 922        TOTAL FREE ENERGY PREDICTED BY IDOCK:  -10.47 KCAL/MOL
REMARK 923 INTER-LIGAND FREE ENERGY PREDICTED BY IDOCK:   -8.37 KCAL/MOL
REMARK 924 INTRA-LIGAND FREE ENERGY PREDICTED BY IDOCK:   -2.11 KCAL/MOL
REMARK 927      BINDING AFFINITY PREDICTED BY RF-SCORE:    0.00 PKD
ROOT
HETATM    1  C   UNL     1     -12.461  15.713  74.444  1.00  0.00    -0.790 C  
HETATM    2  C   UNL     1     -12.611  15.951  72.950  1.00  0.00    -0.581 C  
ENDROOT
BRANCH   2   3
HETATM    3  C   UNL     1     -13.797  15.223  72.380  1.00  0.00    -0.641 C  
HETATM    4  C   UNL     1     -13.749  14.282  71.419  1.00  0.00    -0.382 C  
BRANCH   4   5
HETATM    5  C   UNL     1     -12.482  13.786  70.786  1.00  0.00    -0.441 C  
BRANCH   5   6
HETATM    6  C   UNL     1     -12.421  12.287  70.682  1.00  0.00    -0.323 C  
HETATM    7  C   UNL     1     -11.795  11.607  69.711  1.00  0.00    -0.428 C  
BRANCH   7   8
HETATM    8  C   UNL     1     -10.966  12.272  68.655  1.00  0.00    -0.276 C  
BRANCH   8   9
HETATM    9  C   UNL     1     -11.596  12.183  67.298  1.00  0.00    -0.404 C  
HETATM   10  C   UNL     1     -11.935  13.226  66.519  1.00  0.00    -0.448 C  
BRANCH  10  11
HETATM   11  C   UNL     1     -11.771  14.685  66.852  1.00  0.00    -0.366 C  
BRANCH  11  12
HETATM   12  C   UNL     1     -10.782  15.460  66.011  1.00  0.00    -0.326 C  
HETATM   13  C   UNL     1      -9.436  15.466  66.060  1.00  0.00    -0.381 C  
BRANCH  13  14
HETATM   14  C   UNL     1      -8.595  14.735  67.060  1.00  0.00    -0.260 C  
BRANCH  14  15
HETATM   15  C   UNL     1      -8.645  15.321  68.440  1.00  0.00    -0.160 C  
HETATM   16  C   UNL     1      -7.893  16.369  68.816  1.00  0.00    -0.220 C  
BRANCH  16  17
HETATM   17  C   UNL     1      -6.886  16.994  67.896  1.00  0.00    -0.162 C  
BRANCH  17  18
HETATM   18  C   UNL     1      -7.206  18.434  67.537  1.00  0.00    -0.211 C  
BRANCH  18  19
HETATM   19  C   UNL     1      -8.559  18.825  68.122  1.00  0.00    -0.338 C  
HETATM   20  C   UNL     1      -9.576  19.096  67.039  1.00  0.00    -0.322 C  
HETATM   21  O   UNL     1      -9.359  19.028  65.840  1.00  0.00    -0.445 OA 
HETATM   22  O   UNL     1     -10.782  19.427  67.547  1.00  0.00    -0.459 OA 
ENDBRANCH  18  19
ENDBRANCH  17  18
ENDBRANCH  16  17
ENDBRANCH  14  15
ENDBRANCH  13  14
ENDBRANCH  11  12
ENDBRANCH  10  11
ENDBRANCH   8   9
ENDBRANCH   7   8
ENDBRANCH   5   6
ENDBRANCH   4   5
ENDBRANCH   2   3
TORSDOF 12
ENDMDL
MODEL       49
REMARK 921   NORMALIZED FREE ENERGY PREDICTED BY IDOCK:   -4.68 KCAL/MOL
REMARK 922        TOTAL FREE ENERGY PREDICTED BY IDOCK:  -10.47 KCAL/MOL
REMARK 923 INTER-LIGAND FREE ENERGY PREDICTED BY IDOCK:   -7.37 KCAL/MOL
REMARK 924 INTRA-LIGAND FREE ENERGY PREDICTED BY IDOCK:   -3.10 KCAL/MOL
REMARK 927      BINDING AFFINITY PREDICTED BY RF-SCORE:    0.00 PKD
ROOT
HETATM    1  C   UNL     1      -8.200  13.459  67.216  1.00  0.00    -0.162 C  
HETATM    2  C   UNL     1      -9.517  12.747  67.478  1.00  0.00    -0.187 C  
ENDROOT
BRANCH   2   3
HETATM    3  C   UNL     1      -9.310  11.382  68.074  1.00  0.00    -0.171 C  
HETATM    4  C   UNL     1     -10.266  10.626  68.647  1.00  0.00    -0.196 C  
BRANCH   4   5
HETATM    5  C   UNL     1     -11.709  11.023  68.746  1.00  0.00    -0.383 C  
BRANCH   5   6
HETATM    6  C   UNL     1     -12.133  11.362  70.149  1.00  0.00    -0.439 C  
HETATM    7  C   UNL     1     -12.350  12.602  70.610  1.00  0.00    -0.375 C  
BRANCH   7   8
HETATM    8  C   UNL     1     -12.309  13.816  69.733  1.00  0.00    -0.311 C  
BRANCH   8   9
HETATM    9  C   UNL     1     -12.175  15.082  70.523  1.00  0.00    -0.391 C  
HETATM   10  C   UNL     1     -11.105  15.899  70.525  1.00  0.00    -0.381 C  
BRANCH  10  11
HETATM   11  C   UNL     1      -9.827  15.703  69.756  1.00  0.00    -0.260 C  
BRANCH  11  12
HETATM   12  C   UNL     1      -9.480  16.769  68.741  1.00  0.00    -0.259 C  
HETATM   13  C   UNL     1     -10.003  16.989  67.520  1.00  0.00    -0.274 C  
BRANCH  13  14
HETATM   14  C   UNL     1     -11.027  16.136  66.840  1.00  0.00    -0.094 C  
BRANCH  14  15
HETATM   15  C   UNL     1     -10.714  15.837  65.405  1.00  0.00    -0.420 C  
HETATM   16  C   UNL     1     -11.314  14.851  64.716  1.00  0.00    -0.400 C  
BRANCH  16  17
HETATM   17  C   UNL     1     -12.301  13.921  65.359  1.00  0.00    -0.494 C  
BRANCH  17  18
HETATM   18  C   UNL     1     -12.295  12.525  64.761  1.00  0.00    -0.544 C  
BRANCH  18  19
HETATM   19  C   UNL     1     -11.334  12.474  63.576  1.00  0.00    -0.556 C  
HETATM   20  C   UNL     1     -10.333  11.352  63.721  1.00  0.00    -0.393 C  
HETATM   21  O   UNL     1     -10.276  10.581  64.664  1.00  0.00    -0.345 OA 
HETATM   22  O   UNL     1      -9.488  11.288  62.671  1.00  0.00    -0.337 OA 
ENDBRANCH  18  19
ENDBRANCH  17  18
ENDBRANCH  16  17
ENDBRANCH  14  15
ENDBRANCH  13  14
ENDBRANCH  11  12
ENDBRANCH  10  11
ENDBRANCH   8   9
ENDBRANCH   7   8
ENDBRANCH   5   6
ENDBRANCH   4   5
ENDBRANCH   2   3
TORSDOF 12
ENDMDL
MODEL       50
REMARK 921   NORMALIZED FREE ENERGY PREDICTED BY IDOCK:   -4.67 KCAL/MOL
REMARK 922        TOTAL FREE ENERGY PREDICTED BY IDOCK:  -10.46 KCAL/MOL
REMARK 923 INTER-LIGAND FREE ENERGY PREDICTED BY IDOCK:   -7.95 KCAL/MOL
REMARK 924 INTRA-LIGAND FREE ENERGY PREDICTED BY IDOCK:   -2.51 KCAL/MOL
REMARK 927      BINDING AFFINITY PREDICTED BY RF-SCORE:    0.00 PKD
ROOT
HETATM    1  C   UNL     1     -13.697  15.187  71.353  1.00  0.00    -0.577 C  
HETATM    2  C   UNL     1     -12.991  13.859  71.131  1.00  0.00    -0.388 C  
ENDROOT
BRANCH   2   3
HETATM    3  C   UNL     1     -13.400  12.828  72.147  1.00  0.00    -0.593 C  
HETATM    4  C   UNL     1     -13.259  11.496  72.009  1.00  0.00    -0.443 C  
BRANCH   4   5
HETATM    5  C   UNL     1     -12.633  10.833  70.818  1.00  0.00    -0.476 C  
BRANCH   5   6
HETATM    6  C   UNL     1     -11.473   9.946  71.179  1.00  0.00    -0.459 C  
HETATM    7  C   UNL     1     -10.550   9.495  70.317  1.00  0.00    -0.317 C  
BRANCH   7   8
HETATM    8  C   UNL     1     -10.497   9.925  68.882  1.00  0.00    -0.229 C  
BRANCH   8   9
HETATM    9  C   UNL     1      -9.697  11.178  68.695  1.00  0.00    -0.202 C  
HETATM   10  C   UNL     1     -10.166  12.344  68.212  1.00  0.00    -0.230 C  
BRANCH  10  11
HETATM   11  C   UNL     1     -11.570  12.624  67.748  1.00  0.00    -0.403 C  
BRANCH  11  12
HETATM   12  C   UNL     1     -11.894  14.061  67.410  1.00  0.00    -0.445 C  
HETATM   13  C   UNL     1     -11.729  14.726  66.251  1.00  0.00    -0.260 C  
BRANCH  13  14
HETATM   14  C   UNL     1     -11.081  14.181  65.016  1.00  0.00    -0.372 C  
BRANCH  14  15
HETATM   15  C   UNL     1     -12.006  13.384  64.145  1.00  0.00    -0.505 C  
HETATM   16  C   UNL     1     -11.654  12.215  63.585  1.00  0.00    -0.575 C  
BRANCH  16  17
HETATM   17  C   UNL     1     -10.273  11.648  63.732  1.00  0.00    -0.430 C  
BRANCH  17  18
HETATM   18  C   UNL     1     -10.162  10.598  64.824  1.00  0.00    -0.401 C  
BRANCH  18  19
HETATM   19  C   UNL     1      -8.695  10.262  65.071  1.00  0.00    -0.195 C  
HETATM   20  C   UNL     1      -8.541   8.959  65.821  1.00  0.00    -0.160 C  
HETATM   21  O   UNL     1      -9.464   8.256  66.199  1.00  0.00    -0.209 OA 
HETATM   22  O   UNL     1      -7.246   8.645  66.031  1.00  0.00    -0.082 OA 
ENDBRANCH  18  19
ENDBRANCH  17  18
ENDBRANCH  16  17
ENDBRANCH  14  15
ENDBRANCH  13  14
ENDBRANCH  11  12
ENDBRANCH  10  11
ENDBRANCH   8   9
ENDBRANCH   7   8
ENDBRANCH   5   6
ENDBRANCH   4   5
ENDBRANCH   2   3
TORSDOF 12
ENDMDL
MODEL       51
REMARK 921   NORMALIZED FREE ENERGY PREDICTED BY IDOCK:   -4.67 KCAL/MOL
REMARK 922        TOTAL FREE ENERGY PREDICTED BY IDOCK:  -10.46 KCAL/MOL
REMARK 923 INTER-LIGAND FREE ENERGY PREDICTED BY IDOCK:   -7.74 KCAL/MOL
REMARK 924 INTRA-LIGAND FREE ENERGY PREDICTED BY IDOCK:   -2.72 KCAL/MOL
REMARK 927      BINDING AFFINITY PREDICTED BY RF-SCORE:    0.00 PKD
ROOT
HETATM    1  C   UNL     1     -11.273   6.093  69.211  1.00  0.00    -0.438 C  
HETATM    2  C   UNL     1     -10.166   6.165  68.171  1.00  0.00    -0.208 C  
ENDROOT
BRANCH   2   3
HETATM    3  C   UNL     1     -10.434   7.224  67.137  1.00  0.00    -0.394 C  
HETATM    4  C   UNL     1      -9.628   8.266  66.859  1.00  0.00    -0.269 C  
BRANCH   4   5
HETATM    5  C   UNL     1      -8.307   8.513  67.525  1.00  0.00    -0.128 C  
BRANCH   5   6
HETATM    6  C   UNL     1      -8.318   9.712  68.433  1.00  0.00    -0.117 C  
HETATM    7  C   UNL     1      -8.561   9.678  69.751  1.00  0.00    -0.211 C  
BRANCH   7   8
HETATM    8  C   UNL     1      -8.738   8.400  70.514  1.00  0.00    -0.152 C  
BRANCH   8   9
HETATM    9  C   UNL     1      -9.215   8.638  71.915  1.00  0.00    -0.345 C  
HETATM   10  C   UNL     1     -10.485   8.892  72.281  1.00  0.00    -0.215 C  
BRANCH  10  11
HETATM   11  C   UNL     1     -11.675   9.008  71.366  1.00  0.00    -0.392 C  
BRANCH  11  12
HETATM   12  C   UNL     1     -12.309  10.376  71.257  1.00  0.00    -0.507 C  
HETATM   13  C   UNL     1     -12.354  11.216  70.205  1.00  0.00    -0.397 C  
BRANCH  13  14
HETATM   14  C   UNL     1     -11.681  11.001  68.886  1.00  0.00    -0.400 C  
BRANCH  14  15
HETATM   15  C   UNL     1     -11.067  12.241  68.307  1.00  0.00    -0.282 C  
HETATM   16  C   UNL     1     -10.736  12.355  67.011  1.00  0.00    -0.268 C  
BRANCH  16  17
HETATM   17  C   UNL     1     -10.891  11.214  66.048  1.00  0.00    -0.230 C  
BRANCH  17  18
HETATM   18  C   UNL     1     -10.461  11.555  64.632  1.00  0.00    -0.356 C  
BRANCH  18  19
HETATM   19  C   UNL     1     -10.910  12.970  64.281  1.00  0.00    -0.430 C  
HETATM   20  C   UNL     1     -12.229  12.968  63.543  1.00  0.00    -0.501 C  
HETATM   21  O   UNL     1     -12.864  11.969  63.245  1.00  0.00    -0.732 OA 
HETATM   22  O   UNL     1     -12.643  14.216  63.241  1.00  0.00    -0.766 OA 
ENDBRANCH  18  19
ENDBRANCH  17  18
ENDBRANCH  16  17
ENDBRANCH  14  15
ENDBRANCH  13  14
ENDBRANCH  11  12
ENDBRANCH  10  11
ENDBRANCH   8   9
ENDBRANCH   7   8
ENDBRANCH   5   6
ENDBRANCH   4   5
ENDBRANCH   2   3
TORSDOF 12
ENDMDL
MODEL       52
REMARK 921   NORMALIZED FREE ENERGY PREDICTED BY IDOCK:   -4.67 KCAL/MOL
REMARK 922        TOTAL FREE ENERGY PREDICTED BY IDOCK:  -10.45 KCAL/MOL
REMARK 923 INTER-LIGAND FREE ENERGY PREDICTED BY IDOCK:   -8.00 KCAL/MOL
REMARK 924 INTRA-LIGAND FREE ENERGY PREDICTED BY IDOCK:   -2.44 KCAL/MOL
REMARK 927      BINDING AFFINITY PREDICTED BY RF-SCORE:    0.00 PKD
ROOT
HETATM    1  C   UNL     1      -9.398   8.739  65.832  1.00  0.00    -0.284 C  
HETATM    2  C   UNL     1     -10.134  10.020  65.473  1.00  0.00    -0.325 C  
ENDROOT
BRANCH   2   3
HETATM    3  C   UNL     1      -9.556  10.677  64.249  1.00  0.00    -0.350 C  
HETATM    4  C   UNL     1     -10.245  11.412  63.356  1.00  0.00    -0.457 C  
BRANCH   4   5
HETATM    5  C   UNL     1     -11.710  11.719  63.468  1.00  0.00    -0.485 C  
BRANCH   5   6
HETATM    6  C   UNL     1     -12.016  13.187  63.351  1.00  0.00    -0.552 C  
HETATM    7  C   UNL     1     -12.427  13.970  64.358  1.00  0.00    -0.326 C  
BRANCH   7   8
HETATM    8  C   UNL     1     -12.521  13.494  65.775  1.00  0.00    -0.514 C  
BRANCH   8   9
HETATM    9  C   UNL     1     -11.204  13.565  66.487  1.00  0.00    -0.322 C  
HETATM   10  C   UNL     1     -10.855  12.843  67.568  1.00  0.00    -0.256 C  
BRANCH  10  11
HETATM   11  C   UNL     1     -11.713  11.840  68.292  1.00  0.00    -0.377 C  
BRANCH  11  12
HETATM   12  C   UNL     1     -11.698  11.906  69.802  1.00  0.00    -0.403 C  
HETATM   13  C   UNL     1     -12.169  12.866  70.621  1.00  0.00    -0.386 C  
BRANCH  13  14
HETATM   14  C   UNL     1     -12.760  14.171  70.189  1.00  0.00    -0.227 C  
BRANCH  14  15
HETATM   15  C   UNL     1     -12.266  15.351  70.971  1.00  0.00    -0.431 C  
HETATM   16  C   UNL     1     -11.354  16.214  70.494  1.00  0.00    -0.392 C  
BRANCH  16  17
HETATM   17  C   UNL     1     -10.702  16.019  69.156  1.00  0.00    -0.272 C  
BRANCH  17  18
HETATM   18  C   UNL     1     -10.651  17.285  68.318  1.00  0.00    -0.383 C  
BRANCH  18  19
HETATM   19  C   UNL     1      -9.901  17.014  67.017  1.00  0.00    -0.270 C  
HETATM   20  C   UNL     1      -8.485  17.537  67.073  1.00  0.00    -0.234 C  
HETATM   21  O   UNL     1      -7.988  18.116  68.025  1.00  0.00    -0.249 OA 
HETATM   22  O   UNL     1      -7.808  17.288  65.932  1.00  0.00    -0.505 OA 
ENDBRANCH  18  19
ENDBRANCH  17  18
ENDBRANCH  16  17
ENDBRANCH  14  15
ENDBRANCH  13  14
ENDBRANCH  11  12
ENDBRANCH  10  11
ENDBRANCH   8   9
ENDBRANCH   7   8
ENDBRANCH   5   6
ENDBRANCH   4   5
ENDBRANCH   2   3
TORSDOF 12
ENDMDL
MODEL       53
REMARK 921   NORMALIZED FREE ENERGY PREDICTED BY IDOCK:   -4.67 KCAL/MOL
REMARK 922        TOTAL FREE ENERGY PREDICTED BY IDOCK:  -10.44 KCAL/MOL
REMARK 923 INTER-LIGAND FREE ENERGY PREDICTED BY IDOCK:   -7.78 KCAL/MOL
REMARK 924 INTRA-LIGAND FREE ENERGY PREDICTED BY IDOCK:   -2.66 KCAL/MOL
REMARK 927      BINDING AFFINITY PREDICTED BY RF-SCORE:    0.00 PKD
ROOT
HETATM    1  C   UNL     1     -10.812  10.025  70.550  1.00  0.00    -0.380 C  
HETATM    2  C   UNL     1     -12.318  10.181  70.409  1.00  0.00    -0.268 C  
ENDROOT
BRANCH   2   3
HETATM    3  C   UNL     1     -13.023  10.056  71.732  1.00  0.00    -0.560 C  
HETATM    4  C   UNL     1     -13.542   8.921  72.237  1.00  0.00    -0.513 C  
BRANCH   4   5
HETATM    5  C   UNL     1     -13.465   7.584  71.560  1.00  0.00    -0.426 C  
BRANCH   5   6
HETATM    6  C   UNL     1     -12.212   6.823  71.897  1.00  0.00    -0.377 C  
HETATM    7  C   UNL     1     -11.366   6.297  71.000  1.00  0.00    -0.378 C  
BRANCH   7   8
HETATM    8  C   UNL     1     -11.509   6.508  69.523  1.00  0.00    -0.384 C  
BRANCH   8   9
HETATM    9  C   UNL     1     -10.199   6.401  68.805  1.00  0.00    -0.206 C  
HETATM   10  C   UNL     1      -9.770   7.219  67.825  1.00  0.00    -0.167 C  
BRANCH  10  11
HETATM   11  C   UNL     1     -10.519   8.387  67.241  1.00  0.00    -0.373 C  
BRANCH  11  12
HETATM   12  C   UNL     1      -9.767   9.236  66.241  1.00  0.00    -0.340 C  
HETATM   13  C   UNL     1      -8.910  10.252  66.455  1.00  0.00    -0.158 C  
BRANCH  13  14
HETATM   14  C   UNL     1      -8.565  10.839  67.788  1.00  0.00    -0.127 C  
BRANCH  14  15
HETATM   15  C   UNL     1      -8.330  12.320  67.757  1.00  0.00    -0.162 C  
HETATM   16  C   UNL     1      -9.291  13.218  68.029  1.00  0.00    -0.218 C  
BRANCH  16  17
HETATM   17  C   UNL     1     -10.704  12.804  68.318  1.00  0.00    -0.257 C  
BRANCH  17  18
HETATM   18  C   UNL     1     -11.709  13.339  67.312  1.00  0.00    -0.424 C  
BRANCH  18  19
HETATM   19  C   UNL     1     -11.673  12.490  66.045  1.00  0.00    -0.472 C  
HETATM   20  C   UNL     1     -12.349  13.188  64.889  1.00  0.00    -0.441 C  
HETATM   21  O   UNL     1     -12.875  14.288  64.944  1.00  0.00    -0.680 OA 
HETATM   22  O   UNL     1     -12.309  12.452  63.758  1.00  0.00    -0.473 OA 
ENDBRANCH  18  19
ENDBRANCH  17  18
ENDBRANCH  16  17
ENDBRANCH  14  15
ENDBRANCH  13  14
ENDBRANCH  11  12
ENDBRANCH  10  11
ENDBRANCH   8   9
ENDBRANCH   7   8
ENDBRANCH   5   6
ENDBRANCH   4   5
ENDBRANCH   2   3
TORSDOF 12
ENDMDL
MODEL       54
REMARK 921   NORMALIZED FREE ENERGY PREDICTED BY IDOCK:   -4.66 KCAL/MOL
REMARK 922        TOTAL FREE ENERGY PREDICTED BY IDOCK:  -10.43 KCAL/MOL
REMARK 923 INTER-LIGAND FREE ENERGY PREDICTED BY IDOCK:   -8.93 KCAL/MOL
REMARK 924 INTRA-LIGAND FREE ENERGY PREDICTED BY IDOCK:   -1.51 KCAL/MOL
REMARK 927      BINDING AFFINITY PREDICTED BY RF-SCORE:    0.00 PKD
ROOT
HETATM    1  C   UNL     1      -9.635   9.231  71.081  1.00  0.00    -0.305 C  
HETATM    2  C   UNL     1      -9.605   7.927  71.861  1.00  0.00    -0.226 C  
ENDROOT
BRANCH   2   3
HETATM    3  C   UNL     1     -10.163   6.781  71.062  1.00  0.00    -0.217 C  
HETATM    4  C   UNL     1     -11.410   6.285  71.172  1.00  0.00    -0.364 C  
BRANCH   4   5
HETATM    5  C   UNL     1     -12.457   6.832  72.097  1.00  0.00    -0.198 C  
BRANCH   5   6
HETATM    6  C   UNL     1     -13.655   7.383  71.373  1.00  0.00    -0.410 C  
HETATM    7  C   UNL     1     -14.054   8.663  71.407  1.00  0.00    -0.337 C  
BRANCH   7   8
HETATM    8  C   UNL     1     -13.271   9.743  72.090  1.00  0.00    -0.530 C  
BRANCH   8   9
HETATM    9  C   UNL     1     -12.760  10.769  71.126  1.00  0.00    -0.532 C  
HETATM   10  C   UNL     1     -12.941  12.099  71.225  1.00  0.00    -0.303 C  
BRANCH  10  11
HETATM   11  C   UNL     1     -13.702  12.823  72.303  1.00  0.00    -0.495 C  
BRANCH  11  12
HETATM   12  C   UNL     1     -14.139  14.235  71.987  1.00  0.00    -0.618 C  
HETATM   13  C   UNL     1     -13.430  15.253  71.462  1.00  0.00    -0.577 C  
BRANCH  13  14
HETATM   14  C   UNL     1     -11.968  15.226  71.143  1.00  0.00    -0.400 C  
BRANCH  14  15
HETATM   15  C   UNL     1     -11.588  16.069  69.963  1.00  0.00    -0.316 C  
HETATM   16  C   UNL     1     -11.574  15.599  68.704  1.00  0.00    -0.391 C  
BRANCH  16  17
HETATM   17  C   UNL     1     -11.874  14.163  68.390  1.00  0.00    -0.388 C  
BRANCH  17  18
HETATM   18  C   UNL     1     -11.357  13.720  67.032  1.00  0.00    -0.345 C  
BRANCH  18  19
HETATM   19  C   UNL     1     -12.523  13.572  66.059  1.00  0.00    -0.456 C  
HETATM   20  C   UNL     1     -12.211  12.578  64.964  1.00  0.00    -0.456 C  
HETATM   21  O   UNL     1     -11.159  11.970  64.849  1.00  0.00    -0.302 OA 
HETATM   22  O   UNL     1     -13.241  12.428  64.107  1.00  0.00    -0.761 OA 
ENDBRANCH  18  19
ENDBRANCH  17  18
ENDBRANCH  16  17
ENDBRANCH  14  15
ENDBRANCH  13  14
ENDBRANCH  11  12
ENDBRANCH  10  11
ENDBRANCH   8   9
ENDBRANCH   7   8
ENDBRANCH   5   6
ENDBRANCH   4   5
ENDBRANCH   2   3
TORSDOF 12
ENDMDL
MODEL       55
REMARK 921   NORMALIZED FREE ENERGY PREDICTED BY IDOCK:   -4.66 KCAL/MOL
REMARK 922        TOTAL FREE ENERGY PREDICTED BY IDOCK:  -10.43 KCAL/MOL
REMARK 923 INTER-LIGAND FREE ENERGY PREDICTED BY IDOCK:   -7.50 KCAL/MOL
REMARK 924 INTRA-LIGAND FREE ENERGY PREDICTED BY IDOCK:   -2.93 KCAL/MOL
REMARK 927      BINDING AFFINITY PREDICTED BY RF-SCORE:    0.00 PKD
ROOT
HETATM    1  C   UNL     1     -13.881  14.108  72.180  1.00  0.00    -0.613 C  
HETATM    2  C   UNL     1     -13.811  15.208  71.134  1.00  0.00    -0.495 C  
ENDROOT
BRANCH   2   3
HETATM    3  C   UNL     1     -12.416  15.745  70.974  1.00  0.00    -0.473 C  
HETATM    4  C   UNL     1     -11.474  15.243  70.153  1.00  0.00    -0.319 C  
BRANCH   4   5
HETATM    5  C   UNL     1     -11.691  14.076  69.235  1.00  0.00    -0.372 C  
BRANCH   5   6
HETATM    6  C   UNL     1     -12.034  14.486  67.829  1.00  0.00    -0.345 C  
HETATM    7  C   UNL     1     -11.981  13.683  66.757  1.00  0.00    -0.458 C  
BRANCH   7   8
HETATM    8  C   UNL     1     -11.680  12.218  66.852  1.00  0.00    -0.404 C  
BRANCH   8   9
HETATM    9  C   UNL     1     -10.486  11.830  66.033  1.00  0.00    -0.286 C  
HETATM   10  C   UNL     1      -9.200  11.958  66.410  1.00  0.00    -0.218 C  
BRANCH  10  11
HETATM   11  C   UNL     1      -8.699  12.528  67.710  1.00  0.00    -0.178 C  
BRANCH  11  12
HETATM   12  C   UNL     1      -7.492  13.435  67.627  1.00  0.00    -0.182 C  
HETATM   13  C   UNL     1      -7.425  14.778  67.705  1.00  0.00    -0.203 C  
BRANCH  13  14
HETATM   14  C   UNL     1      -8.593  15.707  67.811  1.00  0.00    -0.168 C  
BRANCH  14  15
HETATM   15  C   UNL     1      -9.066  16.243  66.493  1.00  0.00    -0.302 C  
HETATM   16  C   UNL     1      -9.995  17.207  66.387  1.00  0.00    -0.315 C  
BRANCH  16  17
HETATM   17  C   UNL     1     -10.688  17.777  67.590  1.00  0.00    -0.330 C  
BRANCH  17  18
HETATM   18  C   UNL     1     -10.319  19.222  67.873  1.00  0.00    -0.518 C  
BRANCH  18  19
HETATM   19  C   UNL     1      -9.128  19.275  68.825  1.00  0.00    -0.409 C  
HETATM   20  C   UNL     1      -7.876  19.750  68.125  1.00  0.00    -0.308 C  
HETATM   21  O   UNL     1      -7.804  20.047  66.944  1.00  0.00    -0.282 OA 
HETATM   22  O   UNL     1      -6.820  19.815  68.963  1.00  0.00    -0.320 OA 
ENDBRANCH  18  19
ENDBRANCH  17  18
ENDBRANCH  16  17
ENDBRANCH  14  15
ENDBRANCH  13  14
ENDBRANCH  11  12
ENDBRANCH  10  11
ENDBRANCH   8   9
ENDBRANCH   7   8
ENDBRANCH   5   6
ENDBRANCH   4   5
ENDBRANCH   2   3
TORSDOF 12
ENDMDL
MODEL       56
REMARK 921   NORMALIZED FREE ENERGY PREDICTED BY IDOCK:   -4.65 KCAL/MOL
REMARK 922        TOTAL FREE ENERGY PREDICTED BY IDOCK:  -10.42 KCAL/MOL
REMARK 923 INTER-LIGAND FREE ENERGY PREDICTED BY IDOCK:   -7.56 KCAL/MOL
REMARK 924 INTRA-LIGAND FREE ENERGY PREDICTED BY IDOCK:   -2.86 KCAL/MOL
REMARK 927      BINDING AFFINITY PREDICTED BY RF-SCORE:    0.00 PKD
ROOT
HETATM    1  C   UNL     1     -10.847   6.312  68.359  1.00  0.00    -0.394 C  
HETATM    2  C   UNL     1      -9.947   7.131  67.448  1.00  0.00    -0.224 C  
ENDROOT
BRANCH   2   3
HETATM    3  C   UNL     1     -10.656   8.336  66.893  1.00  0.00    -0.302 C  
HETATM    4  C   UNL     1     -10.093   9.537  66.661  1.00  0.00    -0.321 C  
BRANCH   4   5
HETATM    5  C   UNL     1      -8.644   9.848  66.894  1.00  0.00    -0.131 C  
BRANCH   5   6
HETATM    6  C   UNL     1      -8.421  10.817  68.023  1.00  0.00    -0.124 C  
HETATM    7  C   UNL     1      -8.244  10.475  69.307  1.00  0.00    -0.151 C  
BRANCH   7   8
HETATM    8  C   UNL     1      -8.127   9.053  69.763  1.00  0.00    -0.109 C  
BRANCH   8   9
HETATM    9  C   UNL     1      -8.529   8.882  71.197  1.00  0.00    -0.250 C  
HETATM   10  C   UNL     1      -9.790   8.903  71.668  1.00  0.00    -0.387 C  
BRANCH  10  11
HETATM   11  C   UNL     1     -11.044   9.118  70.864  1.00  0.00    -0.356 C  
BRANCH  11  12
HETATM   12  C   UNL     1     -11.913  10.286  71.270  1.00  0.00    -0.457 C  
HETATM   13  C   UNL     1     -12.274  11.371  70.559  1.00  0.00    -0.478 C  
BRANCH  13  14
HETATM   14  C   UNL     1     -11.804  11.708  69.178  1.00  0.00    -0.390 C  
BRANCH  14  15
HETATM   15  C   UNL     1     -11.129  13.044  69.076  1.00  0.00    -0.281 C  
HETATM   16  C   UNL     1     -11.090  13.756  67.938  1.00  0.00    -0.285 C  
BRANCH  16  17
HETATM   17  C   UNL     1     -11.663  13.233  66.653  1.00  0.00    -0.425 C  
BRANCH  17  18
HETATM   18  C   UNL     1     -11.154  13.962  65.422  1.00  0.00    -0.310 C  
BRANCH  18  19
HETATM   19  C   UNL     1     -10.734  15.380  65.797  1.00  0.00    -0.360 C  
HETATM   20  C   UNL     1     -11.149  16.380  64.744  1.00  0.00    -0.235 C  
HETATM   21  O   UNL     1     -11.737  16.105  63.710  1.00  0.00    -0.828 OA 
HETATM   22  O   UNL     1     -10.796  17.640  65.073  1.00  0.00    -0.758 OA 
ENDBRANCH  18  19
ENDBRANCH  17  18
ENDBRANCH  16  17
ENDBRANCH  14  15
ENDBRANCH  13  14
ENDBRANCH  11  12
ENDBRANCH  10  11
ENDBRANCH   8   9
ENDBRANCH   7   8
ENDBRANCH   5   6
ENDBRANCH   4   5
ENDBRANCH   2   3
TORSDOF 12
ENDMDL
MODEL       57
REMARK 921   NORMALIZED FREE ENERGY PREDICTED BY IDOCK:   -4.64 KCAL/MOL
REMARK 922        TOTAL FREE ENERGY PREDICTED BY IDOCK:  -10.40 KCAL/MOL
REMARK 923 INTER-LIGAND FREE ENERGY PREDICTED BY IDOCK:   -7.75 KCAL/MOL
REMARK 924 INTRA-LIGAND FREE ENERGY PREDICTED BY IDOCK:   -2.65 KCAL/MOL
REMARK 927      BINDING AFFINITY PREDICTED BY RF-SCORE:    0.00 PKD
ROOT
HETATM    1  C   UNL     1      -8.044  15.054  68.447  1.00  0.00    -0.141 C  
HETATM    2  C   UNL     1      -9.263  14.342  67.883  1.00  0.00    -0.194 C  
ENDROOT
BRANCH   2   3
HETATM    3  C   UNL     1     -10.508  15.178  68.000  1.00  0.00    -0.247 C  
HETATM    4  C   UNL     1     -11.733  14.821  67.571  1.00  0.00    -0.370 C  
BRANCH   4   5
HETATM    5  C   UNL     1     -12.052  13.501  66.933  1.00  0.00    -0.417 C  
BRANCH   5   6
HETATM    6  C   UNL     1     -12.626  13.638  65.549  1.00  0.00    -0.541 C  
HETATM    7  C   UNL     1     -11.947  13.445  64.410  1.00  0.00    -0.460 C  
BRANCH   7   8
HETATM    8  C   UNL     1     -10.534  12.947  64.379  1.00  0.00    -0.419 C  
BRANCH   8   9
HETATM    9  C   UNL     1     -10.337  11.861  63.365  1.00  0.00    -0.481 C  
HETATM   10  C   UNL     1      -9.550  10.780  63.514  1.00  0.00    -0.359 C  
BRANCH  10  11
HETATM   11  C   UNL     1      -8.698  10.448  64.709  1.00  0.00    -0.198 C  
BRANCH  11  12
HETATM   12  C   UNL     1      -9.012   9.152  65.421  1.00  0.00    -0.255 C  
HETATM   13  C   UNL     1      -9.853   8.922  66.448  1.00  0.00    -0.353 C  
BRANCH  13  14
HETATM   14  C   UNL     1     -10.630   9.963  67.192  1.00  0.00    -0.295 C  
BRANCH  14  15
HETATM   15  C   UNL     1      -9.888  10.565  68.348  1.00  0.00    -0.171 C  
HETATM   16  C   UNL     1     -10.502  11.019  69.453  1.00  0.00    -0.177 C  
BRANCH  16  17
HETATM   17  C   UNL     1     -11.997  11.023  69.585  1.00  0.00    -0.424 C  
BRANCH  17  18
HETATM   18  C   UNL     1     -12.489  11.658  70.874  1.00  0.00    -0.440 C  
BRANCH  18  19
HETATM   19  C   UNL     1     -12.431  13.178  70.757  1.00  0.00    -0.389 C  
HETATM   20  C   UNL     1     -13.234  13.851  71.845  1.00  0.00    -0.397 C  
HETATM   21  O   UNL     1     -13.867  13.268  72.711  1.00  0.00    -0.690 OA 
HETATM   22  O   UNL     1     -13.177  15.196  71.760  1.00  0.00    -0.337 OA 
ENDBRANCH  18  19
ENDBRANCH  17  18
ENDBRANCH  16  17
ENDBRANCH  14  15
ENDBRANCH  13  14
ENDBRANCH  11  12
ENDBRANCH  10  11
ENDBRANCH   8   9
ENDBRANCH   7   8
ENDBRANCH   5   6
ENDBRANCH   4   5
ENDBRANCH   2   3
TORSDOF 12
ENDMDL
MODEL       58
REMARK 921   NORMALIZED FREE ENERGY PREDICTED BY IDOCK:   -4.63 KCAL/MOL
REMARK 922        TOTAL FREE ENERGY PREDICTED BY IDOCK:  -10.39 KCAL/MOL
REMARK 923 INTER-LIGAND FREE ENERGY PREDICTED BY IDOCK:   -7.81 KCAL/MOL
REMARK 924 INTRA-LIGAND FREE ENERGY PREDICTED BY IDOCK:   -2.58 KCAL/MOL
REMARK 927      BINDING AFFINITY PREDICTED BY RF-SCORE:    0.00 PKD
ROOT
HETATM    1  C   UNL     1     -11.356  14.669  66.783  1.00  0.00    -0.360 C  
HETATM    2  C   UNL     1     -12.419  13.913  66.001  1.00  0.00    -0.501 C  
ENDROOT
BRANCH   2   3
HETATM    3  C   UNL     1     -12.301  14.148  64.521  1.00  0.00    -0.419 C  
HETATM    4  C   UNL     1     -11.983  13.214  63.604  1.00  0.00    -0.580 C  
BRANCH   4   5
HETATM    5  C   UNL     1     -11.727  11.771  63.923  1.00  0.00    -0.461 C  
BRANCH   5   6
HETATM    6  C   UNL     1     -10.385  11.289  63.445  1.00  0.00    -0.449 C  
HETATM    7  C   UNL     1      -9.549  10.514  64.150  1.00  0.00    -0.369 C  
BRANCH   7   8
HETATM    8  C   UNL     1      -9.909   9.927  65.481  1.00  0.00    -0.381 C  
BRANCH   8   9
HETATM    9  C   UNL     1      -9.239  10.641  66.616  1.00  0.00    -0.184 C  
HETATM   10  C   UNL     1      -9.859  11.164  67.690  1.00  0.00    -0.191 C  
BRANCH  10  11
HETATM   11  C   UNL     1     -11.339  11.159  67.962  1.00  0.00    -0.380 C  
BRANCH  11  12
HETATM   12  C   UNL     1     -11.784  11.762  69.275  1.00  0.00    -0.398 C  
HETATM   13  C   UNL     1     -11.926  11.177  70.480  1.00  0.00    -0.475 C  
BRANCH  13  14
HETATM   14  C   UNL     1     -11.743   9.721  70.772  1.00  0.00    -0.407 C  
BRANCH  14  15
HETATM   15  C   UNL     1     -10.315   9.319  70.991  1.00  0.00    -0.388 C  
HETATM   16  C   UNL     1      -9.675   8.441  70.201  1.00  0.00    -0.175 C  
BRANCH  16  17
HETATM   17  C   UNL     1     -10.368   7.737  69.072  1.00  0.00    -0.219 C  
BRANCH  17  18
HETATM   18  C   UNL     1     -11.071   6.459  69.496  1.00  0.00    -0.460 C  
BRANCH  18  19
HETATM   19  C   UNL     1     -10.190   5.684  70.472  1.00  0.00    -0.297 C  
HETATM   20  C   UNL     1     -10.801   5.633  71.853  1.00  0.00    -0.242 C  
HETATM   21  O   UNL     1     -11.860   6.151  72.170  1.00  0.00    -0.317 OA 
HETATM   22  O   UNL     1     -10.038   4.936  72.720  1.00  0.00    -0.159 OA 
ENDBRANCH  18  19
ENDBRANCH  17  18
ENDBRANCH  16  17
ENDBRANCH  14  15
ENDBRANCH  13  14
ENDBRANCH  11  12
ENDBRANCH  10  11
ENDBRANCH   8   9
ENDBRANCH   7   8
ENDBRANCH   5   6
ENDBRANCH   4   5
ENDBRANCH   2   3
TORSDOF 12
ENDMDL
MODEL       59
REMARK 921   NORMALIZED FREE ENERGY PREDICTED BY IDOCK:   -4.63 KCAL/MOL
REMARK 922        TOTAL FREE ENERGY PREDICTED BY IDOCK:  -10.39 KCAL/MOL
REMARK 923 INTER-LIGAND FREE ENERGY PREDICTED BY IDOCK:   -7.79 KCAL/MOL
REMARK 924 INTRA-LIGAND FREE ENERGY PREDICTED BY IDOCK:   -2.59 KCAL/MOL
REMARK 927      BINDING AFFINITY PREDICTED BY RF-SCORE:    0.00 PKD
ROOT
HETATM    1  C   UNL     1      -9.857  11.209  63.439  1.00  0.00    -0.397 C  
HETATM    2  C   UNL     1     -11.074  12.117  63.366  1.00  0.00    -0.495 C  
ENDROOT
BRANCH   2   3
HETATM    3  C   UNL     1     -11.734  12.283  64.707  1.00  0.00    -0.419 C  
HETATM    4  C   UNL     1     -11.974  13.457  65.320  1.00  0.00    -0.409 C  
BRANCH   4   5
HETATM    5  C   UNL     1     -11.647  14.798  64.731  1.00  0.00    -0.418 C  
BRANCH   5   6
HETATM    6  C   UNL     1     -10.234  15.234  65.005  1.00  0.00    -0.324 C  
HETATM    7  C   UNL     1      -9.882  16.398  65.569  1.00  0.00    -0.108 C  
BRANCH   7   8
HETATM    8  C   UNL     1     -10.880  17.375  66.113  1.00  0.00     0.040 C  
BRANCH   8   9
HETATM    9  C   UNL     1     -10.329  18.766  66.191  1.00  0.00    -0.494 C  
HETATM   10  C   UNL     1      -9.605  19.268  67.209  1.00  0.00    -0.394 C  
BRANCH  10  11
HETATM   11  C   UNL     1      -9.219  18.551  68.474  1.00  0.00    -0.360 C  
BRANCH  11  12
HETATM   12  C   UNL     1      -8.039  17.611  68.382  1.00  0.00    -0.285 C  
HETATM   13  C   UNL     1      -7.924  16.337  68.806  1.00  0.00    -0.221 C  
BRANCH  13  14
HETATM   14  C   UNL     1      -8.961  15.574  69.569  1.00  0.00    -0.244 C  
BRANCH  14  15
HETATM   15  C   UNL     1      -9.717  14.580  68.738  1.00  0.00    -0.210 C  
HETATM   16  C   UNL     1     -11.052  14.615  68.593  1.00  0.00    -0.276 C  
BRANCH  16  17
HETATM   17  C   UNL     1     -11.903  15.618  69.315  1.00  0.00    -0.378 C  
BRANCH  17  18
HETATM   18  C   UNL     1     -12.475  15.097  70.622  1.00  0.00    -0.442 C  
BRANCH  18  19
HETATM   19  C   UNL     1     -12.511  13.572  70.600  1.00  0.00    -0.405 C  
HETATM   20  C   UNL     1     -13.185  13.013  71.831  1.00  0.00    -0.430 C  
HETATM   21  O   UNL     1     -13.639  13.681  72.746  1.00  0.00    -0.672 OA 
HETATM   22  O   UNL     1     -13.236  11.665  71.814  1.00  0.00    -0.453 OA 
ENDBRANCH  18  19
ENDBRANCH  17  18
ENDBRANCH  16  17
ENDBRANCH  14  15
ENDBRANCH  13  14
ENDBRANCH  11  12
ENDBRANCH  10  11
ENDBRANCH   8   9
ENDBRANCH   7   8
ENDBRANCH   5   6
ENDBRANCH   4   5
ENDBRANCH   2   3
TORSDOF 12
ENDMDL
MODEL       60
REMARK 921   NORMALIZED FREE ENERGY PREDICTED BY IDOCK:   -4.63 KCAL/MOL
REMARK 922        TOTAL FREE ENERGY PREDICTED BY IDOCK:  -10.38 KCAL/MOL
REMARK 923 INTER-LIGAND FREE ENERGY PREDICTED BY IDOCK:   -8.15 KCAL/MOL
REMARK 924 INTRA-LIGAND FREE ENERGY PREDICTED BY IDOCK:   -2.23 KCAL/MOL
REMARK 927      BINDING AFFINITY PREDICTED BY RF-SCORE:    0.00 PKD
ROOT
HETATM    1  C   UNL     1     -13.181  15.920  73.308  1.00  0.00    -0.698 C  
HETATM    2  C   UNL     1     -13.961  15.094  72.298  1.00  0.00    -0.631 C  
ENDROOT
BRANCH   2   3
HETATM    3  C   UNL     1     -13.451  13.682  72.213  1.00  0.00    -0.652 C  
HETATM    4  C   UNL     1     -12.760  13.161  71.181  1.00  0.00    -0.386 C  
BRANCH   4   5
HETATM    5  C   UNL     1     -12.361  13.933  69.959  1.00  0.00    -0.378 C  
BRANCH   5   6
HETATM    6  C   UNL     1     -11.124  14.765  70.163  1.00  0.00    -0.208 C  
HETATM    7  C   UNL     1     -10.490  15.451  69.202  1.00  0.00    -0.239 C  
BRANCH   7   8
HETATM    8  C   UNL     1     -11.013  15.568  67.803  1.00  0.00    -0.317 C  
BRANCH   8   9
HETATM    9  C   UNL     1      -9.942  15.357  66.777  1.00  0.00    -0.256 C  
HETATM   10  C   UNL     1     -10.131  15.298  65.445  1.00  0.00    -0.397 C  
BRANCH  10  11
HETATM   11  C   UNL     1     -11.445  15.411  64.720  1.00  0.00    -0.337 C  
BRANCH  11  12
HETATM   12  C   UNL     1     -12.346  14.198  64.765  1.00  0.00    -0.436 C  
HETATM   13  C   UNL     1     -12.099  12.934  64.370  1.00  0.00    -0.474 C  
BRANCH  13  14
HETATM   14  C   UNL     1     -10.852  12.457  63.695  1.00  0.00    -0.509 C  
BRANCH  14  15
HETATM   15  C   UNL     1     -10.488  11.039  64.021  1.00  0.00    -0.433 C  
HETATM   16  C   UNL     1      -9.896  10.683  65.173  1.00  0.00    -0.344 C  
BRANCH  16  17
HETATM   17  C   UNL     1      -9.485  11.697  66.200  1.00  0.00    -0.240 C  
BRANCH  17  18
HETATM   18  C   UNL     1     -10.411  11.751  67.402  1.00  0.00    -0.238 C  
BRANCH  18  19
HETATM   19  C   UNL     1     -10.951  10.355  67.702  1.00  0.00    -0.374 C  
HETATM   20  C   UNL     1     -10.203   9.702  68.840  1.00  0.00    -0.201 C  
HETATM   21  O   UNL     1      -9.273  10.206  69.448  1.00  0.00    -0.197 OA 
HETATM   22  O   UNL     1     -10.682   8.473  69.123  1.00  0.00    -0.202 OA 
ENDBRANCH  18  19
ENDBRANCH  17  18
ENDBRANCH  16  17
ENDBRANCH  14  15
ENDBRANCH  13  14
ENDBRANCH  11  12
ENDBRANCH  10  11
ENDBRANCH   8   9
ENDBRANCH   7   8
ENDBRANCH   5   6
ENDBRANCH   4   5
ENDBRANCH   2   3
TORSDOF 12
ENDMDL
MODEL       61
REMARK 921   NORMALIZED FREE ENERGY PREDICTED BY IDOCK:   -4.63 KCAL/MOL
REMARK 922        TOTAL FREE ENERGY PREDICTED BY IDOCK:  -10.38 KCAL/MOL
REMARK 923 INTER-LIGAND FREE ENERGY PREDICTED BY IDOCK:   -8.38 KCAL/MOL
REMARK 924 INTRA-LIGAND FREE ENERGY PREDICTED BY IDOCK:   -2.00 KCAL/MOL
REMARK 927      BINDING AFFINITY PREDICTED BY RF-SCORE:    0.00 PKD
ROOT
HETATM    1  C   UNL     1     -10.499   5.865  66.906  1.00  0.00    -0.349 C  
HETATM    2  C   UNL     1     -10.991   6.224  68.299  1.00  0.00    -0.408 C  
ENDROOT
BRANCH   2   3
HETATM    3  C   UNL     1     -10.408   5.321  69.351  1.00  0.00    -0.313 C  
HETATM    4  C   UNL     1     -10.348   5.592  70.668  1.00  0.00    -0.332 C  
BRANCH   4   5
HETATM    5  C   UNL     1     -10.894   6.839  71.298  1.00  0.00    -0.266 C  
BRANCH   5   6
HETATM    6  C   UNL     1     -12.393   6.830  71.423  1.00  0.00    -0.403 C  
HETATM    7  C   UNL     1     -13.131   7.832  71.922  1.00  0.00    -0.300 C  
BRANCH   7   8
HETATM    8  C   UNL     1     -12.548   9.155  72.316  1.00  0.00    -0.425 C  
BRANCH   8   9
HETATM    9  C   UNL     1     -13.054  10.276  71.459  1.00  0.00    -0.534 C  
HETATM   10  C   UNL     1     -12.368  10.884  70.474  1.00  0.00    -0.463 C  
BRANCH  10  11
HETATM   11  C   UNL     1     -10.958  10.581  70.044  1.00  0.00    -0.351 C  
BRANCH  11  12
HETATM   12  C   UNL     1     -10.798   9.788  68.767  1.00  0.00    -0.219 C  
HETATM   13  C   UNL     1     -10.728  10.223  67.494  1.00  0.00    -0.348 C  
BRANCH  13  14
HETATM   14  C   UNL     1     -10.884  11.642  67.045  1.00  0.00    -0.311 C  
BRANCH  14  15
HETATM   15  C   UNL     1      -9.612  12.436  67.089  1.00  0.00    -0.206 C  
HETATM   16  C   UNL     1      -9.567  13.755  66.840  1.00  0.00    -0.263 C  
BRANCH  16  17
HETATM   17  C   UNL     1     -10.785  14.528  66.425  1.00  0.00    -0.309 C  
BRANCH  17  18
HETATM   18  C   UNL     1     -10.940  14.653  64.920  1.00  0.00    -0.419 C  
BRANCH  18  19
HETATM   19  C   UNL     1     -12.212  13.942  64.469  1.00  0.00    -0.451 C  
HETATM   20  C   UNL     1     -11.901  12.680  63.699  1.00  0.00    -0.530 C  
HETATM   21  O   UNL     1     -10.779  12.271  63.448  1.00  0.00    -0.446 OA 
HETATM   22  O   UNL     1     -13.021  12.035  63.309  1.00  0.00    -0.736 OA 
ENDBRANCH  18  19
ENDBRANCH  17  18
ENDBRANCH  16  17
ENDBRANCH  14  15
ENDBRANCH  13  14
ENDBRANCH  11  12
ENDBRANCH  10  11
ENDBRANCH   8   9
ENDBRANCH   7   8
ENDBRANCH   5   6
ENDBRANCH   4   5
ENDBRANCH   2   3
TORSDOF 12
ENDMDL
MODEL       62
REMARK 921   NORMALIZED FREE ENERGY PREDICTED BY IDOCK:   -4.63 KCAL/MOL
REMARK 922        TOTAL FREE ENERGY PREDICTED BY IDOCK:  -10.38 KCAL/MOL
REMARK 923 INTER-LIGAND FREE ENERGY PREDICTED BY IDOCK:   -8.19 KCAL/MOL
REMARK 924 INTRA-LIGAND FREE ENERGY PREDICTED BY IDOCK:   -2.19 KCAL/MOL
REMARK 927      BINDING AFFINITY PREDICTED BY RF-SCORE:    0.00 PKD
ROOT
HETATM    1  C   UNL     1     -10.942   6.158  66.920  1.00  0.00    -0.384 C  
HETATM    2  C   UNL     1     -10.086   7.408  66.787  1.00  0.00    -0.305 C  
ENDROOT
BRANCH   2   3
HETATM    3  C   UNL     1      -9.786   8.028  68.124  1.00  0.00    -0.179 C  
HETATM    4  C   UNL     1      -9.856   9.343  68.409  1.00  0.00    -0.177 C  
BRANCH   4   5
HETATM    5  C   UNL     1     -10.283  10.397  67.430  1.00  0.00    -0.259 C  
BRANCH   5   6
HETATM    6  C   UNL     1      -9.136  10.980  66.652  1.00  0.00    -0.177 C  
HETATM    7  C   UNL     1      -9.003  10.925  65.319  1.00  0.00    -0.202 C  
BRANCH   7   8
HETATM    8  C   UNL     1     -10.061  10.367  64.417  1.00  0.00    -0.342 C  
BRANCH   8   9
HETATM    9  C   UNL     1     -10.652  11.413  63.521  1.00  0.00    -0.468 C  
HETATM   10  C   UNL     1     -11.549  12.347  63.888  1.00  0.00    -0.518 C  
BRANCH  10  11
HETATM   11  C   UNL     1     -12.153  12.521  65.255  1.00  0.00    -0.500 C  
BRANCH  11  12
HETATM   12  C   UNL     1     -12.263  13.940  65.767  1.00  0.00    -0.488 C  
HETATM   13  C   UNL     1     -11.953  14.438  66.979  1.00  0.00    -0.424 C  
BRANCH  13  14
HETATM   14  C   UNL     1     -11.490  13.642  68.159  1.00  0.00    -0.348 C  
BRANCH  14  15
HETATM   15  C   UNL     1     -12.056  14.109  69.467  1.00  0.00    -0.388 C  
HETATM   16  C   UNL     1     -12.338  13.274  70.480  1.00  0.00    -0.389 C  
BRANCH  16  17
HETATM   17  C   UNL     1     -12.173  11.788  70.354  1.00  0.00    -0.416 C  
BRANCH  17  18
HETATM   18  C   UNL     1     -12.666  11.019  71.567  1.00  0.00    -0.521 C  
BRANCH  18  19
HETATM   19  C   UNL     1     -12.211   9.565  71.477  1.00  0.00    -0.468 C  
HETATM   20  C   UNL     1     -13.247   8.623  72.044  1.00  0.00    -0.386 C  
HETATM   21  O   UNL     1     -14.314   8.963  72.528  1.00  0.00    -0.579 OA 
HETATM   22  O   UNL     1     -12.861   7.333  71.955  1.00  0.00    -0.270 OA 
ENDBRANCH  18  19
ENDBRANCH  17  18
ENDBRANCH  16  17
ENDBRANCH  14  15
ENDBRANCH  13  14
ENDBRANCH  11  12
ENDBRANCH  10  11
ENDBRANCH   8   9
ENDBRANCH   7   8
ENDBRANCH   5   6
ENDBRANCH   4   5
ENDBRANCH   2   3
TORSDOF 12
ENDMDL
MODEL       63
REMARK 921   NORMALIZED FREE ENERGY PREDICTED BY IDOCK:   -4.63 KCAL/MOL
REMARK 922        TOTAL FREE ENERGY PREDICTED BY IDOCK:  -10.38 KCAL/MOL
REMARK 923 INTER-LIGAND FREE ENERGY PREDICTED BY IDOCK:   -8.71 KCAL/MOL
REMARK 924 INTRA-LIGAND FREE ENERGY PREDICTED BY IDOCK:   -1.67 KCAL/MOL
REMARK 927      BINDING AFFINITY PREDICTED BY RF-SCORE:    0.00 PKD
ROOT
HETATM    1  C   UNL     1      -8.683   7.885  73.354  1.00  0.00    -0.309 C  
HETATM    2  C   UNL     1     -10.129   7.884  72.884  1.00  0.00    -0.376 C  
ENDROOT
BRANCH   2   3
HETATM    3  C   UNL     1     -10.738   6.510  72.943  1.00  0.00    -0.280 C  
HETATM    4  C   UNL     1     -11.743   6.068  72.164  1.00  0.00    -0.335 C  
BRANCH   4   5
HETATM    5  C   UNL     1     -12.393   6.879  71.082  1.00  0.00    -0.419 C  
BRANCH   5   6
HETATM    6  C   UNL     1     -13.777   7.343  71.442  1.00  0.00    -0.419 C  
HETATM    7  C   UNL     1     -14.068   8.508  72.038  1.00  0.00    -0.516 C  
BRANCH   7   8
HETATM    8  C   UNL     1     -13.038   9.560  72.318  1.00  0.00    -0.492 C  
BRANCH   8   9
HETATM    9  C   UNL     1     -13.155  10.730  71.389  1.00  0.00    -0.469 C  
HETATM   10  C   UNL     1     -12.338  10.996  70.353  1.00  0.00    -0.442 C  
BRANCH  10  11
HETATM   11  C   UNL     1     -11.138  10.192  69.928  1.00  0.00    -0.346 C  
BRANCH  11  12
HETATM   12  C   UNL     1     -10.772  10.251  68.463  1.00  0.00    -0.262 C  
HETATM   13  C   UNL     1     -10.459  11.317  67.701  1.00  0.00    -0.225 C  
BRANCH  13  14
HETATM   14  C   UNL     1     -10.489  12.746  68.144  1.00  0.00    -0.244 C  
BRANCH  14  15
HETATM   15  C   UNL     1     -11.815  13.418  67.941  1.00  0.00    -0.392 C  
HETATM   16  C   UNL     1     -11.973  14.502  67.164  1.00  0.00    -0.373 C  
BRANCH  16  17
HETATM   17  C   UNL     1     -10.811  15.171  66.490  1.00  0.00    -0.317 C  
BRANCH  17  18
HETATM   18  C   UNL     1     -10.893  15.142  64.973  1.00  0.00    -0.457 C  
BRANCH  18  19
HETATM   19  C   UNL     1     -12.159  14.411  64.537  1.00  0.00    -0.498 C  
HETATM   20  C   UNL     1     -11.860  12.998  64.095  1.00  0.00    -0.416 C  
HETATM   21  O   UNL     1     -10.751  12.490  64.072  1.00  0.00    -0.352 OA 
HETATM   22  O   UNL     1     -12.976  12.337  63.722  1.00  0.00    -0.766 OA 
ENDBRANCH  18  19
ENDBRANCH  17  18
ENDBRANCH  16  17
ENDBRANCH  14  15
ENDBRANCH  13  14
ENDBRANCH  11  12
ENDBRANCH  10  11
ENDBRANCH   8   9
ENDBRANCH   7   8
ENDBRANCH   5   6
ENDBRANCH   4   5
ENDBRANCH   2   3
TORSDOF 12
ENDMDL
MODEL       64
REMARK 921   NORMALIZED FREE ENERGY PREDICTED BY IDOCK:   -4.62 KCAL/MOL
REMARK 922        TOTAL FREE ENERGY PREDICTED BY IDOCK:  -10.36 KCAL/MOL
REMARK 923 INTER-LIGAND FREE ENERGY PREDICTED BY IDOCK:   -7.60 KCAL/MOL
REMARK 924 INTRA-LIGAND FREE ENERGY PREDICTED BY IDOCK:   -2.76 KCAL/MOL
REMARK 927      BINDING AFFINITY PREDICTED BY RF-SCORE:    0.00 PKD
ROOT
HETATM    1  C   UNL     1     -10.873  11.438  63.360  1.00  0.00    -0.375 C  
HETATM    2  C   UNL     1     -12.184  12.049  63.829  1.00  0.00    -0.600 C  
ENDROOT
BRANCH   2   3
HETATM    3  C   UNL     1     -11.973  13.361  64.532  1.00  0.00    -0.452 C  
HETATM    4  C   UNL     1     -11.764  13.516  65.853  1.00  0.00    -0.380 C  
BRANCH   4   5
HETATM    5  C   UNL     1     -11.675  12.382  66.832  1.00  0.00    -0.432 C  
BRANCH   5   6
HETATM    6  C   UNL     1     -10.351  11.669  66.790  1.00  0.00    -0.257 C  
HETATM    7  C   UNL     1      -9.233  12.084  67.402  1.00  0.00    -0.180 C  
BRANCH   7   8
HETATM    8  C   UNL     1      -9.196  13.272  68.314  1.00  0.00    -0.197 C  
BRANCH   8   9
HETATM    9  C   UNL     1      -8.016  14.156  68.049  1.00  0.00    -0.149 C  
HETATM   10  C   UNL     1      -7.965  15.147  67.140  1.00  0.00    -0.248 C  
BRANCH  10  11
HETATM   11  C   UNL     1      -9.065  15.558  66.199  1.00  0.00    -0.359 C  
BRANCH  11  12
HETATM   12  C   UNL     1      -9.724  16.891  66.474  1.00  0.00    -0.295 C  
HETATM   13  C   UNL     1     -10.652  17.212  67.395  1.00  0.00    -0.297 C  
BRANCH  13  14
HETATM   14  C   UNL     1     -11.322  16.255  68.331  1.00  0.00    -0.312 C  
BRANCH  14  15
HETATM   15  C   UNL     1     -10.669  16.166  69.678  1.00  0.00    -0.325 C  
HETATM   16  C   UNL     1     -11.316  15.743  70.777  1.00  0.00    -0.419 C  
BRANCH  16  17
HETATM   17  C   UNL     1     -12.775  15.392  70.753  1.00  0.00    -0.516 C  
BRANCH  17  18
HETATM   18  C   UNL     1     -13.069  13.992  71.263  1.00  0.00    -0.399 C  
BRANCH  18  19
HETATM   19  C   UNL     1     -12.222  12.976  70.503  1.00  0.00    -0.392 C  
HETATM   20  C   UNL     1     -12.558  11.559  70.905  1.00  0.00    -0.341 C  
HETATM   21  O   UNL     1     -13.391  11.247  71.741  1.00  0.00    -0.391 OA 
HETATM   22  O   UNL     1     -11.825  10.651  70.227  1.00  0.00    -0.283 OA 
ENDBRANCH  18  19
ENDBRANCH  17  18
ENDBRANCH  16  17
ENDBRANCH  14  15
ENDBRANCH  13  14
ENDBRANCH  11  12
ENDBRANCH  10  11
ENDBRANCH   8   9
ENDBRANCH   7   8
ENDBRANCH   5   6
ENDBRANCH   4   5
ENDBRANCH   2   3
TORSDOF 12
ENDMDL
MODEL       65
REMARK 921   NORMALIZED FREE ENERGY PREDICTED BY IDOCK:   -4.61 KCAL/MOL
REMARK 922        TOTAL FREE ENERGY PREDICTED BY IDOCK:  -10.35 KCAL/MOL
REMARK 923 INTER-LIGAND FREE ENERGY PREDICTED BY IDOCK:   -8.40 KCAL/MOL
REMARK 924 INTRA-LIGAND FREE ENERGY PREDICTED BY IDOCK:   -1.95 KCAL/MOL
REMARK 927      BINDING AFFINITY PREDICTED BY RF-SCORE:    0.00 PKD
ROOT
HETATM    1  C   UNL     1      -7.277  19.189  65.926  1.00  0.00    -0.293 C  
HETATM    2  C   UNL     1      -8.272  18.868  67.030  1.00  0.00    -0.281 C  
ENDROOT
BRANCH   2   3
HETATM    3  C   UNL     1      -9.694  18.980  66.555  1.00  0.00    -0.396 C  
HETATM    4  C   UNL     1     -10.422  17.980  66.022  1.00  0.00    -0.317 C  
BRANCH   4   5
HETATM    5  C   UNL     1      -9.926  16.574  65.851  1.00  0.00    -0.342 C  
BRANCH   5   6
HETATM    6  C   UNL     1     -10.740  15.565  66.614  1.00  0.00    -0.306 C  
HETATM    7  C   UNL     1     -11.614  14.709  66.068  1.00  0.00    -0.328 C  
BRANCH   7   8
HETATM    8  C   UNL     1     -11.805  14.573  64.588  1.00  0.00    -0.462 C  
BRANCH   8   9
HETATM    9  C   UNL     1     -12.551  13.325  64.224  1.00  0.00    -0.253 C  
HETATM   10  C   UNL     1     -11.996  12.166  63.823  1.00  0.00    -0.607 C  
BRANCH  10  11
HETATM   11  C   UNL     1     -10.527  11.891  63.641  1.00  0.00    -0.493 C  
BRANCH  11  12
HETATM   12  C   UNL     1      -9.974  10.682  64.360  1.00  0.00    -0.415 C  
HETATM   13  C   UNL     1      -9.866  10.448  65.682  1.00  0.00    -0.321 C  
BRANCH  13  14
HETATM   14  C   UNL     1     -10.209  11.415  66.771  1.00  0.00    -0.258 C  
BRANCH  14  15
HETATM   15  C   UNL     1     -11.301  10.941  67.683  1.00  0.00    -0.345 C  
HETATM   16  C   UNL     1     -11.766  11.674  68.709  1.00  0.00    -0.392 C  
BRANCH  16  17
HETATM   17  C   UNL     1     -11.173  13.005  69.066  1.00  0.00    -0.316 C  
BRANCH  17  18
HETATM   18  C   UNL     1     -12.194  14.003  69.585  1.00  0.00    -0.383 C  
BRANCH  18  19
HETATM   19  C   UNL     1     -11.572  14.851  70.690  1.00  0.00    -0.341 C  
HETATM   20  C   UNL     1     -12.610  15.691  71.397  1.00  0.00    -0.457 C  
HETATM   21  O   UNL     1     -13.800  15.712  71.124  1.00  0.00    -0.583 OA 
HETATM   22  O   UNL     1     -12.073  16.434  72.387  1.00  0.00    -0.509 OA 
ENDBRANCH  18  19
ENDBRANCH  17  18
ENDBRANCH  16  17
ENDBRANCH  14  15
ENDBRANCH  13  14
ENDBRANCH  11  12
ENDBRANCH  10  11
ENDBRANCH   8   9
ENDBRANCH   7   8
ENDBRANCH   5   6
ENDBRANCH   4   5
ENDBRANCH   2   3
TORSDOF 12
ENDMDL
MODEL       66
REMARK 921   NORMALIZED FREE ENERGY PREDICTED BY IDOCK:   -4.61 KCAL/MOL
REMARK 922        TOTAL FREE ENERGY PREDICTED BY IDOCK:  -10.35 KCAL/MOL
REMARK 923 INTER-LIGAND FREE ENERGY PREDICTED BY IDOCK:   -8.05 KCAL/MOL
REMARK 924 INTRA-LIGAND FREE ENERGY PREDICTED BY IDOCK:   -2.30 KCAL/MOL
REMARK 927      BINDING AFFINITY PREDICTED BY RF-SCORE:    0.00 PKD
ROOT
HETATM    1  C   UNL     1      -7.808   8.067  70.020  1.00  0.00    -0.104 C  
HETATM    2  C   UNL     1      -8.916   7.463  69.174  1.00  0.00    -0.135 C  
ENDROOT
BRANCH   2   3
HETATM    3  C   UNL     1      -9.239   6.055  69.592  1.00  0.00    -0.148 C  
HETATM    4  C   UNL     1     -10.427   5.632  70.065  1.00  0.00    -0.367 C  
BRANCH   4   5
HETATM    5  C   UNL     1     -11.634   6.510  70.217  1.00  0.00    -0.473 C  
BRANCH   5   6
HETATM    6  C   UNL     1     -12.045   6.707  71.650  1.00  0.00    -0.404 C  
HETATM    7  C   UNL     1     -11.724   7.769  72.404  1.00  0.00    -0.394 C  
BRANCH   7   8
HETATM    8  C   UNL     1     -11.002   8.964  71.862  1.00  0.00    -0.439 C  
BRANCH   8   9
HETATM    9  C   UNL     1     -11.940   9.984  71.293  1.00  0.00    -0.483 C  
HETATM   10  C   UNL     1     -11.800  10.606  70.108  1.00  0.00    -0.421 C  
BRANCH  10  11
HETATM   11  C   UNL     1     -10.674  10.422  69.126  1.00  0.00    -0.266 C  
BRANCH  11  12
HETATM   12  C   UNL     1     -11.017  10.610  67.665  1.00  0.00    -0.370 C  
HETATM   13  C   UNL     1     -10.812  11.677  66.869  1.00  0.00    -0.322 C  
BRANCH  13  14
HETATM   14  C   UNL     1     -10.252  12.995  67.302  1.00  0.00    -0.239 C  
BRANCH  14  15
HETATM   15  C   UNL     1     -11.221  14.134  67.189  1.00  0.00    -0.330 C  
HETATM   16  C   UNL     1     -11.771  14.734  68.257  1.00  0.00    -0.340 C  
BRANCH  16  17
HETATM   17  C   UNL     1     -11.508  14.260  69.657  1.00  0.00    -0.334 C  
BRANCH  17  18
HETATM   18  C   UNL     1     -12.642  14.560  70.621  1.00  0.00    -0.416 C  
BRANCH  18  19
HETATM   19  C   UNL     1     -12.088  15.211  71.885  1.00  0.00    -0.448 C  
HETATM   20  C   UNL     1     -13.195  15.689  72.795  1.00  0.00    -0.516 C  
HETATM   21  O   UNL     1     -14.388  15.587  72.561  1.00  0.00    -0.523 OA 
HETATM   22  O   UNL     1     -12.715  16.252  73.924  1.00  0.00    -0.581 OA 
ENDBRANCH  18  19
ENDBRANCH  17  18
ENDBRANCH  16  17
ENDBRANCH  14  15
ENDBRANCH  13  14
ENDBRANCH  11  12
ENDBRANCH  10  11
ENDBRANCH   8   9
ENDBRANCH   7   8
ENDBRANCH   5   6
ENDBRANCH   4   5
ENDBRANCH   2   3
TORSDOF 12
ENDMDL
MODEL       67
REMARK 921   NORMALIZED FREE ENERGY PREDICTED BY IDOCK:   -4.60 KCAL/MOL
REMARK 922        TOTAL FREE ENERGY PREDICTED BY IDOCK:  -10.34 KCAL/MOL
REMARK 923 INTER-LIGAND FREE ENERGY PREDICTED BY IDOCK:   -8.05 KCAL/MOL
REMARK 924 INTRA-LIGAND FREE ENERGY PREDICTED BY IDOCK:   -2.29 KCAL/MOL
REMARK 927      BINDING AFFINITY PREDICTED BY RF-SCORE:    0.00 PKD
ROOT
HETATM    1  C   UNL     1     -10.449   5.846  67.012  1.00  0.00    -0.341 C  
HETATM    2  C   UNL     1     -11.241   6.612  68.059  1.00  0.00    -0.217 C  
ENDROOT
BRANCH   2   3
HETATM    3  C   UNL     1     -10.846   6.224  69.458  1.00  0.00    -0.404 C  
HETATM    4  C   UNL     1     -10.289   7.045  70.369  1.00  0.00    -0.219 C  
BRANCH   4   5
HETATM    5  C   UNL     1     -10.006   8.499  70.134  1.00  0.00    -0.187 C  
BRANCH   5   6
HETATM    6  C   UNL     1     -10.947   9.411  70.873  1.00  0.00    -0.391 C  
HETATM    7  C   UNL     1     -11.724  10.342  70.303  1.00  0.00    -0.406 C  
BRANCH   7   8
HETATM    8  C   UNL     1     -11.837  10.512  68.819  1.00  0.00    -0.093 C  
BRANCH   8   9
HETATM    9  C   UNL     1     -10.699  11.304  68.250  1.00  0.00    -0.231 C  
HETATM   10  C   UNL     1      -9.997  10.987  67.146  1.00  0.00    -0.218 C  
BRANCH  10  11
HETATM   11  C   UNL     1     -10.194   9.777  66.274  1.00  0.00    -0.282 C  
BRANCH  11  12
HETATM   12  C   UNL     1      -9.351   9.705  65.021  1.00  0.00    -0.319 C  
HETATM   13  C   UNL     1      -9.259  10.580  64.001  1.00  0.00    -0.286 C  
BRANCH  13  14
HETATM   14  C   UNL     1     -10.070  11.827  63.843  1.00  0.00    -0.399 C  
BRANCH  14  15
HETATM   15  C   UNL     1     -11.416  11.602  63.219  1.00  0.00    -0.266 C  
HETATM   16  C   UNL     1     -12.560  12.031  63.778  1.00  0.00    -0.567 C  
BRANCH  16  17
HETATM   17  C   UNL     1     -12.585  12.711  65.115  1.00  0.00    -0.459 C  
BRANCH  17  18
HETATM   18  C   UNL     1     -12.563  14.227  65.023  1.00  0.00    -0.360 C  
BRANCH  18  19
HETATM   19  C   UNL     1     -11.239  14.759  65.565  1.00  0.00    -0.346 C  
HETATM   20  C   UNL     1     -10.863  16.073  64.921  1.00  0.00    -0.372 C  
HETATM   21  O   UNL     1     -11.517  16.647  64.065  1.00  0.00    -1.192 OA 
HETATM   22  O   UNL     1      -9.702  16.560  65.404  1.00  0.00    -0.496 OA 
ENDBRANCH  18  19
ENDBRANCH  17  18
ENDBRANCH  16  17
ENDBRANCH  14  15
ENDBRANCH  13  14
ENDBRANCH  11  12
ENDBRANCH  10  11
ENDBRANCH   8   9
ENDBRANCH   7   8
ENDBRANCH   5   6
ENDBRANCH   4   5
ENDBRANCH   2   3
TORSDOF 12
ENDMDL
MODEL       68
REMARK 921   NORMALIZED FREE ENERGY PREDICTED BY IDOCK:   -4.60 KCAL/MOL
REMARK 922        TOTAL FREE ENERGY PREDICTED BY IDOCK:  -10.33 KCAL/MOL
REMARK 923 INTER-LIGAND FREE ENERGY PREDICTED BY IDOCK:   -8.22 KCAL/MOL
REMARK 924 INTRA-LIGAND FREE ENERGY PREDICTED BY IDOCK:   -2.11 KCAL/MOL
REMARK 927      BINDING AFFINITY PREDICTED BY RF-SCORE:    0.00 PKD
ROOT
HETATM    1  C   UNL     1      -7.722  19.970  66.025  1.00  0.00    -0.318 C  
HETATM    2  C   UNL     1      -8.436  20.131  67.358  1.00  0.00    -0.398 C  
ENDROOT
BRANCH   2   3
HETATM    3  C   UNL     1      -9.927  20.229  67.188  1.00  0.00    -0.593 C  
HETATM    4  C   UNL     1     -10.785  19.192  67.202  1.00  0.00    -0.567 C  
BRANCH   4   5
HETATM    5  C   UNL     1     -10.381  17.764  67.426  1.00  0.00    -0.370 C  
BRANCH   5   6
HETATM    6  C   UNL     1     -10.349  17.381  68.880  1.00  0.00    -0.340 C  
HETATM    7  C   UNL     1     -10.933  16.293  69.402  1.00  0.00    -0.337 C  
BRANCH   7   8
HETATM    8  C   UNL     1     -11.601  15.246  68.565  1.00  0.00    -0.368 C  
BRANCH   8   9
HETATM    9  C   UNL     1     -10.711  14.067  68.313  1.00  0.00    -0.262 C  
HETATM   10  C   UNL     1     -10.067  13.801  67.161  1.00  0.00    -0.241 C  
BRANCH  10  11
HETATM   11  C   UNL     1     -10.122  14.613  65.895  1.00  0.00    -0.341 C  
BRANCH  11  12
HETATM   12  C   UNL     1     -11.499  14.928  65.356  1.00  0.00    -0.320 C  
HETATM   13  C   UNL     1     -12.475  14.089  64.958  1.00  0.00    -0.446 C  
BRANCH  13  14
HETATM   14  C   UNL     1     -12.368  12.598  64.880  1.00  0.00    -0.563 C  
BRANCH  14  15
HETATM   15  C   UNL     1     -11.800  12.096  63.587  1.00  0.00    -0.608 C  
HETATM   16  C   UNL     1     -10.623  11.453  63.507  1.00  0.00    -0.468 C  
BRANCH  16  17
HETATM   17  C   UNL     1      -9.746  11.250  64.708  1.00  0.00    -0.298 C  
BRANCH  17  18
HETATM   18  C   UNL     1      -9.961   9.913  65.395  1.00  0.00    -0.349 C  
BRANCH  18  19
HETATM   19  C   UNL     1      -9.405   9.965  66.815  1.00  0.00    -0.187 C  
HETATM   20  C   UNL     1     -10.480  10.302  67.821  1.00  0.00    -0.226 C  
HETATM   21  O   UNL     1     -11.650  10.520  67.551  1.00  0.00    -0.421 OA 
HETATM   22  O   UNL     1     -10.001  10.335  69.082  1.00  0.00    -0.199 OA 
ENDBRANCH  18  19
ENDBRANCH  17  18
ENDBRANCH  16  17
ENDBRANCH  14  15
ENDBRANCH  13  14
ENDBRANCH  11  12
ENDBRANCH  10  11
ENDBRANCH   8   9
ENDBRANCH   7   8
ENDBRANCH   5   6
ENDBRANCH   4   5
ENDBRANCH   2   3
TORSDOF 12
ENDMDL
MODEL       69
REMARK 921   NORMALIZED FREE ENERGY PREDICTED BY IDOCK:   -4.59 KCAL/MOL
REMARK 922        TOTAL FREE ENERGY PREDICTED BY IDOCK:  -10.32 KCAL/MOL
REMARK 923 INTER-LIGAND FREE ENERGY PREDICTED BY IDOCK:   -8.38 KCAL/MOL
REMARK 924 INTRA-LIGAND FREE ENERGY PREDICTED BY IDOCK:   -1.94 KCAL/MOL
REMARK 927      BINDING AFFINITY PREDICTED BY RF-SCORE:    0.00 PKD
ROOT
HETATM    1  C   UNL     1     -11.011   7.562  71.448  1.00  0.00    -0.254 C  
HETATM    2  C   UNL     1     -11.697   6.577  70.515  1.00  0.00    -0.438 C  
ENDROOT
BRANCH   2   3
HETATM    3  C   UNL     1     -10.711   5.662  69.841  1.00  0.00    -0.399 C  
HETATM    4  C   UNL     1     -10.431   5.649  68.524  1.00  0.00    -0.273 C  
BRANCH   4   5
HETATM    5  C   UNL     1     -11.043   6.583  67.522  1.00  0.00    -0.396 C  
BRANCH   5   6
HETATM    6  C   UNL     1     -10.038   7.496  66.875  1.00  0.00    -0.336 C  
HETATM    7  C   UNL     1      -9.781   8.755  67.257  1.00  0.00    -0.238 C  
BRANCH   7   8
HETATM    8  C   UNL     1     -10.395   9.377  68.474  1.00  0.00    -0.236 C  
BRANCH   8   9
HETATM    9  C   UNL     1     -11.341  10.487  68.129  1.00  0.00    -0.324 C  
HETATM   10  C   UNL     1     -12.019  11.245  69.010  1.00  0.00    -0.393 C  
BRANCH  10  11
HETATM   11  C   UNL     1     -11.982  11.126  70.510  1.00  0.00    -0.475 C  
BRANCH  11  12
HETATM   12  C   UNL     1     -12.884  12.061  71.283  1.00  0.00    -0.364 C  
HETATM   13  C   UNL     1     -12.809  13.398  71.424  1.00  0.00    -0.420 C  
BRANCH  13  14
HETATM   14  C   UNL     1     -11.719  14.274  70.890  1.00  0.00    -0.242 C  
BRANCH  14  15
HETATM   15  C   UNL     1     -12.216  15.468  70.129  1.00  0.00    -0.404 C  
HETATM   16  C   UNL     1     -11.783  15.780  68.897  1.00  0.00    -0.404 C  
BRANCH  16  17
HETATM   17  C   UNL     1     -10.707  14.990  68.210  1.00  0.00    -0.253 C  
BRANCH  17  18
HETATM   18  C   UNL     1     -10.913  14.865  66.710  1.00  0.00    -0.326 C  
BRANCH  18  19
HETATM   19  C   UNL     1     -11.625  13.553  66.394  1.00  0.00    -0.381 C  
HETATM   20  C   UNL     1     -12.550  13.694  65.208  1.00  0.00    -0.469 C  
HETATM   21  O   UNL     1     -12.728  14.723  64.577  1.00  0.00    -0.569 OA 
HETATM   22  O   UNL     1     -13.173  12.535  64.910  1.00  0.00    -0.787 OA 
ENDBRANCH  18  19
ENDBRANCH  17  18
ENDBRANCH  16  17
ENDBRANCH  14  15
ENDBRANCH  13  14
ENDBRANCH  11  12
ENDBRANCH  10  11
ENDBRANCH   8   9
ENDBRANCH   7   8
ENDBRANCH   5   6
ENDBRANCH   4   5
ENDBRANCH   2   3
TORSDOF 12
ENDMDL
MODEL       70
REMARK 921   NORMALIZED FREE ENERGY PREDICTED BY IDOCK:   -4.59 KCAL/MOL
REMARK 922        TOTAL FREE ENERGY PREDICTED BY IDOCK:  -10.32 KCAL/MOL
REMARK 923 INTER-LIGAND FREE ENERGY PREDICTED BY IDOCK:   -7.93 KCAL/MOL
REMARK 924 INTRA-LIGAND FREE ENERGY PREDICTED BY IDOCK:   -2.39 KCAL/MOL
REMARK 927      BINDING AFFINITY PREDICTED BY RF-SCORE:    0.00 PKD
ROOT
HETATM    1  C   UNL     1     -12.025  14.603  70.569  1.00  0.00    -0.376 C  
HETATM    2  C   UNL     1     -12.241  13.102  70.465  1.00  0.00    -0.405 C  
ENDROOT
BRANCH   2   3
HETATM    3  C   UNL     1     -13.011  12.562  71.639  1.00  0.00    -0.405 C  
HETATM    4  C   UNL     1     -13.231  11.259  71.897  1.00  0.00    -0.491 C  
BRANCH   4   5
HETATM    5  C   UNL     1     -12.704  10.132  71.058  1.00  0.00    -0.481 C  
BRANCH   5   6
HETATM    6  C   UNL     1     -13.014   8.776  71.629  1.00  0.00    -0.390 C  
HETATM    7  C   UNL     1     -12.320   7.657  71.376  1.00  0.00    -0.358 C  
BRANCH   7   8
HETATM    8  C   UNL     1     -11.058   7.646  70.570  1.00  0.00    -0.267 C  
BRANCH   8   9
HETATM    9  C   UNL     1     -10.694   6.269  70.103  1.00  0.00    -0.346 C  
HETATM   10  C   UNL     1     -10.683   5.849  68.825  1.00  0.00    -0.354 C  
BRANCH  10  11
HETATM   11  C   UNL     1     -11.047   6.662  67.611  1.00  0.00    -0.357 C  
BRANCH  11  12
HETATM   12  C   UNL     1      -9.940   7.488  66.996  1.00  0.00    -0.304 C  
HETATM   13  C   UNL     1      -9.715   8.813  67.079  1.00  0.00    -0.258 C  
BRANCH  13  14
HETATM   14  C   UNL     1     -10.600   9.809  67.760  1.00  0.00    -0.320 C  
BRANCH  14  15
HETATM   15  C   UNL     1      -9.877  10.717  68.709  1.00  0.00    -0.200 C  
HETATM   16  C   UNL     1      -9.473  11.953  68.372  1.00  0.00    -0.189 C  
BRANCH  16  17
HETATM   17  C   UNL     1      -9.654  12.497  66.986  1.00  0.00    -0.216 C  
BRANCH  17  18
HETATM   18  C   UNL     1     -10.780  13.512  66.876  1.00  0.00    -0.274 C  
BRANCH  18  19
HETATM   19  C   UNL     1     -11.981  12.878  66.181  1.00  0.00    -0.491 C  
HETATM   20  C   UNL     1     -11.908  13.046  64.681  1.00  0.00    -0.372 C  
HETATM   21  O   UNL     1     -11.015  13.624  64.083  1.00  0.00    -0.345 OA 
HETATM   22  O   UNL     1     -12.959  12.476  64.056  1.00  0.00    -0.733 OA 
ENDBRANCH  18  19
ENDBRANCH  17  18
ENDBRANCH  16  17
ENDBRANCH  14  15
ENDBRANCH  13  14
ENDBRANCH  11  12
ENDBRANCH  10  11
ENDBRANCH   8   9
ENDBRANCH   7   8
ENDBRANCH   5   6
ENDBRANCH   4   5
ENDBRANCH   2   3
TORSDOF 12
ENDMDL
MODEL       71
REMARK 921   NORMALIZED FREE ENERGY PREDICTED BY IDOCK:   -4.59 KCAL/MOL
REMARK 922        TOTAL FREE ENERGY PREDICTED BY IDOCK:  -10.31 KCAL/MOL
REMARK 923 INTER-LIGAND FREE ENERGY PREDICTED BY IDOCK:   -7.73 KCAL/MOL
REMARK 924 INTRA-LIGAND FREE ENERGY PREDICTED BY IDOCK:   -2.57 KCAL/MOL
REMARK 927      BINDING AFFINITY PREDICTED BY RF-SCORE:    0.00 PKD
ROOT
HETATM    1  C   UNL     1     -13.230  12.146  71.812  1.00  0.00    -0.423 C  
HETATM    2  C   UNL     1     -12.672  10.766  71.503  1.00  0.00    -0.536 C  
ENDROOT
BRANCH   2   3
HETATM    3  C   UNL     1     -13.559   9.671  72.027  1.00  0.00    -0.467 C  
HETATM    4  C   UNL     1     -13.222   8.370  72.121  1.00  0.00    -0.346 C  
BRANCH   4   5
HETATM    5  C   UNL     1     -11.880   7.817  71.744  1.00  0.00    -0.328 C  
BRANCH   5   6
HETATM    6  C   UNL     1     -10.825   8.063  72.788  1.00  0.00    -0.438 C  
HETATM    7  C   UNL     1      -9.505   8.095  72.556  1.00  0.00    -0.339 C  
BRANCH   7   8
HETATM    8  C   UNL     1      -8.916   8.005  71.181  1.00  0.00    -0.162 C  
BRANCH   8   9
HETATM    9  C   UNL     1      -8.679   9.355  70.576  1.00  0.00    -0.276 C  
HETATM   10  C   UNL     1      -9.394   9.905  69.577  1.00  0.00    -0.236 C  
BRANCH  10  11
HETATM   11  C   UNL     1     -10.558   9.278  68.857  1.00  0.00    -0.222 C  
BRANCH  11  12
HETATM   12  C   UNL     1     -10.220   8.298  67.756  1.00  0.00    -0.282 C  
HETATM   13  C   UNL     1      -9.960   8.529  66.455  1.00  0.00    -0.350 C  
BRANCH  13  14
HETATM   14  C   UNL     1     -10.037   9.858  65.771  1.00  0.00    -0.317 C  
BRANCH  14  15
HETATM   15  C   UNL     1      -8.820  10.714  65.968  1.00  0.00    -0.187 C  
HETATM   16  C   UNL     1      -8.870  11.936  66.522  1.00  0.00    -0.178 C  
BRANCH  16  17
HETATM   17  C   UNL     1     -10.167  12.574  66.925  1.00  0.00    -0.237 C  
BRANCH  17  18
HETATM   18  C   UNL     1     -10.703  13.557  65.899  1.00  0.00    -0.279 C  
BRANCH  18  19
HETATM   19  C   UNL     1     -12.018  13.040  65.325  1.00  0.00    -0.446 C  
HETATM   20  C   UNL     1     -11.832  12.459  63.943  1.00  0.00    -0.466 C  
HETATM   21  O   UNL     1     -10.772  12.412  63.340  1.00  0.00    -0.446 OA 
HETATM   22  O   UNL     1     -12.987  11.984  63.432  1.00  0.00    -0.772 OA 
ENDBRANCH  18  19
ENDBRANCH  17  18
ENDBRANCH  16  17
ENDBRANCH  14  15
ENDBRANCH  13  14
ENDBRANCH  11  12
ENDBRANCH  10  11
ENDBRANCH   8   9
ENDBRANCH   7   8
ENDBRANCH   5   6
ENDBRANCH   4   5
ENDBRANCH   2   3
TORSDOF 12
ENDMDL
MODEL       72
REMARK 921   NORMALIZED FREE ENERGY PREDICTED BY IDOCK:   -4.58 KCAL/MOL
REMARK 922        TOTAL FREE ENERGY PREDICTED BY IDOCK:  -10.31 KCAL/MOL
REMARK 923 INTER-LIGAND FREE ENERGY PREDICTED BY IDOCK:   -8.78 KCAL/MOL
REMARK 924 INTRA-LIGAND FREE ENERGY PREDICTED BY IDOCK:   -1.52 KCAL/MOL
REMARK 927      BINDING AFFINITY PREDICTED BY RF-SCORE:    0.00 PKD
ROOT
HETATM    1  C   UNL     1     -10.204   6.975  66.936  1.00  0.00    -0.318 C  
HETATM    2  C   UNL     1     -10.930   6.904  68.270  1.00  0.00    -0.208 C  
ENDROOT
BRANCH   2   3
HETATM    3  C   UNL     1     -10.465   5.740  69.101  1.00  0.00    -0.346 C  
HETATM    4  C   UNL     1     -10.690   5.581  70.419  1.00  0.00    -0.321 C  
BRANCH   4   5
HETATM    5  C   UNL     1     -11.480   6.540  71.261  1.00  0.00    -0.371 C  
BRANCH   5   6
HETATM    6  C   UNL     1     -10.621   7.361  72.184  1.00  0.00    -0.256 C  
HETATM    7  C   UNL     1     -10.519   8.697  72.154  1.00  0.00    -0.411 C  
BRANCH   7   8
HETATM    8  C   UNL     1     -11.353   9.559  71.256  1.00  0.00    -0.446 C  
BRANCH   8   9
HETATM    9  C   UNL     1     -12.729   9.785  71.806  1.00  0.00    -0.519 C  
HETATM   10  C   UNL     1     -13.356  10.974  71.890  1.00  0.00    -0.423 C  
BRANCH  10  11
HETATM   11  C   UNL     1     -12.804  12.310  71.472  1.00  0.00    -0.384 C  
BRANCH  11  12
HETATM   12  C   UNL     1     -13.171  13.492  72.341  1.00  0.00    -0.577 C  
HETATM   13  C   UNL     1     -12.713  14.758  72.300  1.00  0.00    -0.411 C  
BRANCH  13  14
HETATM   14  C   UNL     1     -11.632  15.268  71.399  1.00  0.00    -0.446 C  
BRANCH  14  15
HETATM   15  C   UNL     1     -12.127  15.742  70.065  1.00  0.00    -0.344 C  
HETATM   16  C   UNL     1     -11.687  15.237  68.901  1.00  0.00    -0.362 C  
BRANCH  16  17
HETATM   17  C   UNL     1     -10.604  14.199  68.845  1.00  0.00    -0.249 C  
BRANCH  17  18
HETATM   18  C   UNL     1     -10.229  13.790  67.431  1.00  0.00    -0.252 C  
BRANCH  18  19
HETATM   19  C   UNL     1     -11.232  14.375  66.441  1.00  0.00    -0.345 C  
HETATM   20  C   UNL     1     -12.115  13.303  65.846  1.00  0.00    -0.441 C  
HETATM   21  O   UNL     1     -12.042  12.112  66.103  1.00  0.00    -0.621 OA 
HETATM   22  O   UNL     1     -13.016  13.812  64.980  1.00  0.00    -0.732 OA 
ENDBRANCH  18  19
ENDBRANCH  17  18
ENDBRANCH  16  17
ENDBRANCH  14  15
ENDBRANCH  13  14
ENDBRANCH  11  12
ENDBRANCH  10  11
ENDBRANCH   8   9
ENDBRANCH   7   8
ENDBRANCH   5   6
ENDBRANCH   4   5
ENDBRANCH   2   3
TORSDOF 12
ENDMDL
MODEL       73
REMARK 921   NORMALIZED FREE ENERGY PREDICTED BY IDOCK:   -4.57 KCAL/MOL
REMARK 922        TOTAL FREE ENERGY PREDICTED BY IDOCK:  -10.29 KCAL/MOL
REMARK 923 INTER-LIGAND FREE ENERGY PREDICTED BY IDOCK:   -7.57 KCAL/MOL
REMARK 924 INTRA-LIGAND FREE ENERGY PREDICTED BY IDOCK:   -2.72 KCAL/MOL
REMARK 927      BINDING AFFINITY PREDICTED BY RF-SCORE:    0.00 PKD
ROOT
HETATM    1  C   UNL     1      -8.853   8.423  65.499  1.00  0.00    -0.172 C  
HETATM    2  C   UNL     1      -9.759   8.203  66.700  1.00  0.00    -0.318 C  
ENDROOT
BRANCH   2   3
HETATM    3  C   UNL     1      -9.055   8.494  67.997  1.00  0.00    -0.144 C  
HETATM    4  C   UNL     1      -9.155   9.638  68.701  1.00  0.00    -0.132 C  
BRANCH   4   5
HETATM    5  C   UNL     1     -10.024  10.797  68.309  1.00  0.00    -0.182 C  
BRANCH   5   6
HETATM    6  C   UNL     1      -9.370  11.714  67.313  1.00  0.00    -0.170 C  
HETATM    7  C   UNL     1      -9.826  11.960  66.076  1.00  0.00    -0.258 C  
BRANCH   7   8
HETATM    8  C   UNL     1     -11.132  11.429  65.569  1.00  0.00    -0.203 C  
BRANCH   8   9
HETATM    9  C   UNL     1     -11.420  11.874  64.168  1.00  0.00    -0.449 C  
HETATM   10  C   UNL     1     -11.934  13.067  63.812  1.00  0.00    -0.585 C  
BRANCH  10  11
HETATM   11  C   UNL     1     -12.338  14.181  64.738  1.00  0.00    -0.436 C  
BRANCH  11  12
HETATM   12  C   UNL     1     -11.575  15.480  64.604  1.00  0.00    -0.281 C  
HETATM   13  C   UNL     1     -10.649  16.016  65.421  1.00  0.00    -0.428 C  
BRANCH  13  14
HETATM   14  C   UNL     1     -10.218  15.456  66.740  1.00  0.00    -0.273 C  
BRANCH  14  15
HETATM   15  C   UNL     1     -10.892  16.091  67.920  1.00  0.00    -0.333 C  
HETATM   16  C   UNL     1     -11.621  15.394  68.807  1.00  0.00    -0.382 C  
BRANCH  16  17
HETATM   17  C   UNL     1     -11.877  13.925  68.644  1.00  0.00    -0.407 C  
BRANCH  17  18
HETATM   18  C   UNL     1     -12.028  13.187  69.963  1.00  0.00    -0.391 C  
BRANCH  18  19
HETATM   19  C   UNL     1     -12.401  14.171  71.067  1.00  0.00    -0.438 C  
HETATM   20  C   UNL     1     -13.196  13.502  72.164  1.00  0.00    -0.458 C  
HETATM   21  O   UNL     1     -13.518  12.326  72.178  1.00  0.00    -0.509 OA 
HETATM   22  O   UNL     1     -13.517  14.362  73.153  1.00  0.00    -0.625 OA 
ENDBRANCH  18  19
ENDBRANCH  17  18
ENDBRANCH  16  17
ENDBRANCH  14  15
ENDBRANCH  13  14
ENDBRANCH  11  12
ENDBRANCH  10  11
ENDBRANCH   8   9
ENDBRANCH   7   8
ENDBRANCH   5   6
ENDBRANCH   4   5
ENDBRANCH   2   3
TORSDOF 12
ENDMDL
MODEL       74
REMARK 921   NORMALIZED FREE ENERGY PREDICTED BY IDOCK:   -4.57 KCAL/MOL
REMARK 922        TOTAL FREE ENERGY PREDICTED BY IDOCK:  -10.28 KCAL/MOL
REMARK 923 INTER-LIGAND FREE ENERGY PREDICTED BY IDOCK:   -8.17 KCAL/MOL
REMARK 924 INTRA-LIGAND FREE ENERGY PREDICTED BY IDOCK:   -2.11 KCAL/MOL
REMARK 927      BINDING AFFINITY PREDICTED BY RF-SCORE:    0.00 PKD
ROOT
HETATM    1  C   UNL     1      -8.361   9.922  69.794  1.00  0.00    -0.196 C  
HETATM    2  C   UNL     1      -9.744  10.016  69.171  1.00  0.00    -0.217 C  
ENDROOT
BRANCH   2   3
HETATM    3  C   UNL     1      -9.677  10.260  67.688  1.00  0.00    -0.189 C  
HETATM    4  C   UNL     1     -10.564  10.978  66.973  1.00  0.00    -0.303 C  
BRANCH   4   5
HETATM    5  C   UNL     1     -11.751  11.682  67.563  1.00  0.00    -0.288 C  
BRANCH   5   6
HETATM    6  C   UNL     1     -12.003  13.031  66.949  1.00  0.00    -0.415 C  
HETATM    7  C   UNL     1     -11.829  14.206  67.571  1.00  0.00    -0.437 C  
BRANCH   7   8
HETATM    8  C   UNL     1     -11.239  14.321  68.944  1.00  0.00    -0.289 C  
BRANCH   8   9
HETATM    9  C   UNL     1     -11.042  15.747  69.359  1.00  0.00    -0.314 C  
HETATM   10  C   UNL     1     -11.340  16.262  70.566  1.00  0.00    -0.318 C  
BRANCH  10  11
HETATM   11  C   UNL     1     -11.943  15.526  71.732  1.00  0.00    -0.494 C  
BRANCH  11  12
HETATM   12  C   UNL     1     -13.442  15.330  71.702  1.00  0.00    -0.573 C  
HETATM   13  C   UNL     1     -14.166  14.227  71.973  1.00  0.00    -0.631 C  
BRANCH  13  14
HETATM   14  C   UNL     1     -13.611  12.875  72.297  1.00  0.00    -0.611 C  
BRANCH  14  15
HETATM   15  C   UNL     1     -12.830  12.255  71.177  1.00  0.00    -0.302 C  
HETATM   16  C   UNL     1     -12.711  10.926  71.018  1.00  0.00    -0.505 C  
BRANCH  16  17
HETATM   17  C   UNL     1     -13.298   9.954  71.999  1.00  0.00    -0.532 C  
BRANCH  17  18
HETATM   18  C   UNL     1     -12.413   8.746  72.257  1.00  0.00    -0.455 C  
BRANCH  18  19
HETATM   19  C   UNL     1     -12.539   7.756  71.104  1.00  0.00    -0.221 C  
HETATM   20  C   UNL     1     -11.238   7.034  70.845  1.00  0.00    -0.282 C  
HETATM   21  O   UNL     1     -10.201   7.216  71.463  1.00  0.00    -0.198 OA 
HETATM   22  O   UNL     1     -11.343   6.144  69.836  1.00  0.00    -0.405 OA 
ENDBRANCH  18  19
ENDBRANCH  17  18
ENDBRANCH  16  17
ENDBRANCH  14  15
ENDBRANCH  13  14
ENDBRANCH  11  12
ENDBRANCH  10  11
ENDBRANCH   8   9
ENDBRANCH   7   8
ENDBRANCH   5   6
ENDBRANCH   4   5
ENDBRANCH   2   3
TORSDOF 12
ENDMDL
MODEL       75
REMARK 921   NORMALIZED FREE ENERGY PREDICTED BY IDOCK:   -4.57 KCAL/MOL
REMARK 922        TOTAL FREE ENERGY PREDICTED BY IDOCK:  -10.28 KCAL/MOL
REMARK 923 INTER-LIGAND FREE ENERGY PREDICTED BY IDOCK:   -8.25 KCAL/MOL
REMARK 924 INTRA-LIGAND FREE ENERGY PREDICTED BY IDOCK:   -2.03 KCAL/MOL
REMARK 927      BINDING AFFINITY PREDICTED BY RF-SCORE:    0.00 PKD
ROOT
HETATM    1  C   UNL     1     -12.047  13.639  64.891  1.00  0.00    -0.426 C  
HETATM    2  C   UNL     1     -12.270  14.219  66.279  1.00  0.00    -0.433 C  
ENDROOT
BRANCH   2   3
HETATM    3  C   UNL     1     -11.130  13.905  67.209  1.00  0.00    -0.312 C  
HETATM    4  C   UNL     1     -10.907  14.496  68.398  1.00  0.00    -0.250 C  
BRANCH   4   5
HETATM    5  C   UNL     1     -11.795  15.547  68.998  1.00  0.00    -0.373 C  
BRANCH   5   6
HETATM    6  C   UNL     1     -11.402  15.921  70.401  1.00  0.00    -0.399 C  
HETATM    7  C   UNL     1     -12.200  15.833  71.474  1.00  0.00    -0.513 C  
BRANCH   7   8
HETATM    8  C   UNL     1     -13.571  15.229  71.423  1.00  0.00    -0.598 C  
BRANCH   8   9
HETATM    9  C   UNL     1     -13.746  14.132  72.429  1.00  0.00    -0.645 C  
HETATM   10  C   UNL     1     -13.346  12.856  72.278  1.00  0.00    -0.597 C  
BRANCH  10  11
HETATM   11  C   UNL     1     -12.663  12.267  71.073  1.00  0.00    -0.319 C  
BRANCH  11  12
HETATM   12  C   UNL     1     -12.294  10.803  71.156  1.00  0.00    -0.498 C  
HETATM   13  C   UNL     1     -11.364  10.115  70.467  1.00  0.00    -0.416 C  
BRANCH  13  14
HETATM   14  C   UNL     1     -10.514  10.659  69.362  1.00  0.00    -0.252 C  
BRANCH  14  15
HETATM   15  C   UNL     1     -11.184  10.652  68.020  1.00  0.00    -0.373 C  
HETATM   16  C   UNL     1     -10.685   9.998  66.958  1.00  0.00    -0.248 C  
BRANCH  16  17
HETATM   17  C   UNL     1      -9.370   9.278  67.016  1.00  0.00    -0.183 C  
BRANCH  17  18
HETATM   18  C   UNL     1      -9.469   7.807  66.649  1.00  0.00    -0.263 C  
BRANCH  18  19
HETATM   19  C   UNL     1     -10.689   7.187  67.322  1.00  0.00    -0.399 C  
HETATM   20  C   UNL     1     -10.371   6.711  68.720  1.00  0.00    -0.194 C  
HETATM   21  O   UNL     1      -9.278   6.792  69.257  1.00  0.00    -0.142 OA 
HETATM   22  O   UNL     1     -11.449   6.175  69.331  1.00  0.00    -0.423 OA 
ENDBRANCH  18  19
ENDBRANCH  17  18
ENDBRANCH  16  17
ENDBRANCH  14  15
ENDBRANCH  13  14
ENDBRANCH  11  12
ENDBRANCH  10  11
ENDBRANCH   8   9
ENDBRANCH   7   8
ENDBRANCH   5   6
ENDBRANCH   4   5
ENDBRANCH   2   3
TORSDOF 12
ENDMDL
MODEL       76
REMARK 921   NORMALIZED FREE ENERGY PREDICTED BY IDOCK:   -4.56 KCAL/MOL
REMARK 922        TOTAL FREE ENERGY PREDICTED BY IDOCK:  -10.27 KCAL/MOL
REMARK 923 INTER-LIGAND FREE ENERGY PREDICTED BY IDOCK:   -7.75 KCAL/MOL
REMARK 924 INTRA-LIGAND FREE ENERGY PREDICTED BY IDOCK:   -2.53 KCAL/MOL
REMARK 927      BINDING AFFINITY PREDICTED BY RF-SCORE:    0.00 PKD
ROOT
HETATM    1  C   UNL     1     -10.594  11.611  63.104  1.00  0.00    -0.341 C  
HETATM    2  C   UNL     1     -11.833  12.284  63.671  1.00  0.00    -0.610 C  
ENDROOT
BRANCH   2   3
HETATM    3  C   UNL     1     -11.524  13.638  64.248  1.00  0.00    -0.393 C  
HETATM    4  C   UNL     1     -11.141  13.878  65.516  1.00  0.00    -0.304 C  
BRANCH   4   5
HETATM    5  C   UNL     1     -10.928  12.811  66.550  1.00  0.00    -0.291 C  
BRANCH   5   6
HETATM    6  C   UNL     1      -9.548  12.214  66.507  1.00  0.00    -0.235 C  
HETATM    7  C   UNL     1      -8.455  12.760  67.059  1.00  0.00    -0.154 C  
BRANCH   7   8
HETATM    8  C   UNL     1      -8.500  13.997  67.902  1.00  0.00    -0.170 C  
BRANCH   8   9
HETATM    9  C   UNL     1      -7.445  14.988  67.513  1.00  0.00    -0.226 C  
HETATM   10  C   UNL     1      -7.657  16.148  66.864  1.00  0.00    -0.275 C  
BRANCH  10  11
HETATM   11  C   UNL     1      -8.981  16.678  66.384  1.00  0.00    -0.326 C  
BRANCH  11  12
HETATM   12  C   UNL     1      -9.521  17.894  67.102  1.00  0.00    -0.263 C  
HETATM   13  C   UNL     1     -10.161  17.974  68.284  1.00  0.00    -0.402 C  
BRANCH  13  14
HETATM   14  C   UNL     1     -10.569  16.815  69.139  1.00  0.00    -0.343 C  
BRANCH  14  15
HETATM   15  C   UNL     1     -11.632  15.953  68.526  1.00  0.00    -0.351 C  
HETATM   16  C   UNL     1     -12.111  14.849  69.124  1.00  0.00    -0.267 C  
BRANCH  16  17
HETATM   17  C   UNL     1     -11.562  14.351  70.428  1.00  0.00    -0.288 C  
BRANCH  17  18
HETATM   18  C   UNL     1     -12.637  13.985  71.437  1.00  0.00    -0.451 C  
BRANCH  18  19
HETATM   19  C   UNL     1     -13.286  15.253  71.984  1.00  0.00    -0.522 C  
HETATM   20  C   UNL     1     -12.976  15.450  73.449  1.00  0.00    -0.538 C  
HETATM   21  O   UNL     1     -12.301  14.695  74.130  1.00  0.00    -0.482 OA 
HETATM   22  O   UNL     1     -13.533  16.577  73.938  1.00  0.00    -0.513 OA 
ENDBRANCH  18  19
ENDBRANCH  17  18
ENDBRANCH  16  17
ENDBRANCH  14  15
ENDBRANCH  13  14
ENDBRANCH  11  12
ENDBRANCH  10  11
ENDBRANCH   8   9
ENDBRANCH   7   8
ENDBRANCH   5   6
ENDBRANCH   4   5
ENDBRANCH   2   3
TORSDOF 12
ENDMDL
MODEL       77
REMARK 921   NORMALIZED FREE ENERGY PREDICTED BY IDOCK:   -4.56 KCAL/MOL
REMARK 922        TOTAL FREE ENERGY PREDICTED BY IDOCK:  -10.27 KCAL/MOL
REMARK 923 INTER-LIGAND FREE ENERGY PREDICTED BY IDOCK:   -8.53 KCAL/MOL
REMARK 924 INTRA-LIGAND FREE ENERGY PREDICTED BY IDOCK:   -1.74 KCAL/MOL
REMARK 927      BINDING AFFINITY PREDICTED BY RF-SCORE:    0.00 PKD
ROOT
HETATM    1  C   UNL     1     -10.889  16.569  68.591  1.00  0.00    -0.345 C  
HETATM    2  C   UNL     1     -10.923  15.500  69.672  1.00  0.00    -0.288 C  
ENDROOT
BRANCH   2   3
HETATM    3  C   UNL     1     -12.052  15.717  70.641  1.00  0.00    -0.443 C  
HETATM    4  C   UNL     1     -12.818  14.748  71.179  1.00  0.00    -0.406 C  
BRANCH   4   5
HETATM    5  C   UNL     1     -12.633  13.283  70.914  1.00  0.00    -0.386 C  
BRANCH   5   6
HETATM    6  C   UNL     1     -13.250  12.410  71.972  1.00  0.00    -0.514 C  
HETATM    7  C   UNL     1     -13.292  11.070  71.937  1.00  0.00    -0.423 C  
BRANCH   7   8
HETATM    8  C   UNL     1     -12.613  10.261  70.874  1.00  0.00    -0.465 C  
BRANCH   8   9
HETATM    9  C   UNL     1     -12.205   8.906  71.367  1.00  0.00    -0.374 C  
HETATM   10  C   UNL     1     -11.138   8.204  70.941  1.00  0.00    -0.280 C  
BRANCH  10  11
HETATM   11  C   UNL     1     -10.155   8.621  69.881  1.00  0.00    -0.197 C  
BRANCH  11  12
HETATM   12  C   UNL     1     -10.601   8.456  68.446  1.00  0.00    -0.155 C  
HETATM   13  C   UNL     1     -10.449   9.293  67.402  1.00  0.00    -0.340 C  
BRANCH  13  14
HETATM   14  C   UNL     1      -9.853  10.664  67.460  1.00  0.00    -0.194 C  
BRANCH  14  15
HETATM   15  C   UNL     1     -10.726  11.679  68.137  1.00  0.00    -0.248 C  
HETATM   16  C   UNL     1     -11.624  12.427  67.475  1.00  0.00    -0.431 C  
BRANCH  16  17
HETATM   17  C   UNL     1     -11.773  12.353  65.983  1.00  0.00    -0.469 C  
BRANCH  17  18
HETATM   18  C   UNL     1     -10.658  13.056  65.228  1.00  0.00    -0.320 C  
BRANCH  18  19
HETATM   19  C   UNL     1     -11.000  14.533  65.057  1.00  0.00    -0.408 C  
HETATM   20  C   UNL     1     -12.040  14.742  63.982  1.00  0.00    -0.161 C  
HETATM   21  O   UNL     1     -12.547  13.854  63.315  1.00  0.00    -0.824 OA 
HETATM   22  O   UNL     1     -12.361  16.044  63.833  1.00  0.00    -0.855 OA 
ENDBRANCH  18  19
ENDBRANCH  17  18
ENDBRANCH  16  17
ENDBRANCH  14  15
ENDBRANCH  13  14
ENDBRANCH  11  12
ENDBRANCH  10  11
ENDBRANCH   8   9
ENDBRANCH   7   8
ENDBRANCH   5   6
ENDBRANCH   4   5
ENDBRANCH   2   3
TORSDOF 12
ENDMDL
MODEL       78
REMARK 921   NORMALIZED FREE ENERGY PREDICTED BY IDOCK:   -4.56 KCAL/MOL
REMARK 922        TOTAL FREE ENERGY PREDICTED BY IDOCK:  -10.27 KCAL/MOL
REMARK 923 INTER-LIGAND FREE ENERGY PREDICTED BY IDOCK:   -7.60 KCAL/MOL
REMARK 924 INTRA-LIGAND FREE ENERGY PREDICTED BY IDOCK:   -2.67 KCAL/MOL
REMARK 927      BINDING AFFINITY PREDICTED BY RF-SCORE:    0.00 PKD
ROOT
HETATM    1  C   UNL     1     -11.700  12.349  64.826  1.00  0.00    -0.425 C  
HETATM    2  C   UNL     1     -12.399  13.090  65.954  1.00  0.00    -0.432 C  
ENDROOT
BRANCH   2   3
HETATM    3  C   UNL     1     -11.794  14.445  66.197  1.00  0.00    -0.391 C  
HETATM    4  C   UNL     1     -11.596  15.008  67.404  1.00  0.00    -0.304 C  
BRANCH   4   5
HETATM    5  C   UNL     1     -11.923  14.343  68.709  1.00  0.00    -0.331 C  
BRANCH   5   6
HETATM    6  C   UNL     1     -11.517  15.159  69.905  1.00  0.00    -0.315 C  
HETATM    7  C   UNL     1     -12.339  15.537  70.895  1.00  0.00    -0.474 C  
BRANCH   7   8
HETATM    8  C   UNL     1     -13.764  15.083  70.988  1.00  0.00    -0.417 C  
BRANCH   8   9
HETATM    9  C   UNL     1     -14.005  14.214  72.185  1.00  0.00    -0.626 C  
HETATM   10  C   UNL     1     -13.645  12.923  72.304  1.00  0.00    -0.611 C  
BRANCH  10  11
HETATM   11  C   UNL     1     -12.948  12.087  71.264  1.00  0.00    -0.315 C  
BRANCH  11  12
HETATM   12  C   UNL     1     -12.812  10.612  71.567  1.00  0.00    -0.567 C  
HETATM   13  C   UNL     1     -11.853   9.746  71.187  1.00  0.00    -0.466 C  
BRANCH  13  14
HETATM   14  C   UNL     1     -10.709  10.055  70.273  1.00  0.00    -0.367 C  
BRANCH  14  15
HETATM   15  C   UNL     1     -11.121  10.359  68.863  1.00  0.00    -0.296 C  
HETATM   16  C   UNL     1     -10.343  11.038  68.005  1.00  0.00    -0.209 C  
BRANCH  16  17
HETATM   17  C   UNL     1      -9.018  11.611  68.417  1.00  0.00    -0.176 C  
BRANCH  17  18
HETATM   18  C   UNL     1      -8.614  12.837  67.617  1.00  0.00    -0.181 C  
BRANCH  18  19
HETATM   19  C   UNL     1      -8.232  13.970  68.565  1.00  0.00    -0.136 C  
HETATM   20  C   UNL     1      -8.110  15.287  67.837  1.00  0.00    -0.138 C  
HETATM   21  O   UNL     1      -8.280  15.444  66.638  1.00  0.00    -0.248 OA 
HETATM   22  O   UNL     1      -7.789  16.300  68.669  1.00  0.00    -0.178 OA 
ENDBRANCH  18  19
ENDBRANCH  17  18
ENDBRANCH  16  17
ENDBRANCH  14  15
ENDBRANCH  13  14
ENDBRANCH  11  12
ENDBRANCH  10  11
ENDBRANCH   8   9
ENDBRANCH   7   8
ENDBRANCH   5   6
ENDBRANCH   4   5
ENDBRANCH   2   3
TORSDOF 12
ENDMDL
MODEL       79
REMARK 921   NORMALIZED FREE ENERGY PREDICTED BY IDOCK:   -4.56 KCAL/MOL
REMARK 922        TOTAL FREE ENERGY PREDICTED BY IDOCK:  -10.26 KCAL/MOL
REMARK 923 INTER-LIGAND FREE ENERGY PREDICTED BY IDOCK:   -7.53 KCAL/MOL
REMARK 924 INTRA-LIGAND FREE ENERGY PREDICTED BY IDOCK:   -2.73 KCAL/MOL
REMARK 927      BINDING AFFINITY PREDICTED BY RF-SCORE:    0.00 PKD
ROOT
HETATM    1  C   UNL     1      -8.902  11.127  65.831  1.00  0.00    -0.193 C  
HETATM    2  C   UNL     1     -10.127  10.481  65.204  1.00  0.00    -0.383 C  
ENDROOT
BRANCH   2   3
HETATM    3  C   UNL     1     -10.487  11.117  63.890  1.00  0.00    -0.445 C  
HETATM    4  C   UNL     1     -11.441  12.051  63.709  1.00  0.00    -0.547 C  
BRANCH   4   5
HETATM    5  C   UNL     1     -12.275  12.629  64.814  1.00  0.00    -0.528 C  
BRANCH   5   6
HETATM    6  C   UNL     1     -12.326  14.132  64.790  1.00  0.00    -0.436 C  
HETATM    7  C   UNL     1     -11.397  14.943  65.317  1.00  0.00    -0.358 C  
BRANCH   7   8
HETATM    8  C   UNL     1     -10.113  14.439  65.901  1.00  0.00    -0.344 C  
BRANCH   8   9
HETATM    9  C   UNL     1      -9.061  15.505  65.963  1.00  0.00    -0.316 C  
HETATM   10  C   UNL     1      -8.402  15.894  67.070  1.00  0.00    -0.255 C  
BRANCH  10  11
HETATM   11  C   UNL     1      -8.594  15.360  68.463  1.00  0.00    -0.172 C  
BRANCH  11  12
HETATM   12  C   UNL     1      -9.408  16.216  69.407  1.00  0.00    -0.186 C  
HETATM   13  C   UNL     1     -10.728  16.178  69.672  1.00  0.00    -0.325 C  
BRANCH  13  14
HETATM   14  C   UNL     1     -11.731  15.296  68.997  1.00  0.00    -0.368 C  
BRANCH  14  15
HETATM   15  C   UNL     1     -12.369  14.291  69.910  1.00  0.00    -0.377 C  
HETATM   16  C   UNL     1     -12.081  12.980  69.867  1.00  0.00    -0.347 C  
BRANCH  16  17
HETATM   17  C   UNL     1     -11.143  12.406  68.845  1.00  0.00    -0.307 C  
BRANCH  17  18
HETATM   18  C   UNL     1     -10.962  10.903  68.966  1.00  0.00    -0.285 C  
BRANCH  18  19
HETATM   19  C   UNL     1     -11.736  10.385  70.175  1.00  0.00    -0.394 C  
HETATM   20  C   UNL     1     -10.873   9.510  71.054  1.00  0.00    -0.353 C  
HETATM   21  O   UNL     1      -9.705   9.231  70.835  1.00  0.00    -0.256 OA 
HETATM   22  O   UNL     1     -11.543   9.059  72.135  1.00  0.00    -0.355 OA 
ENDBRANCH  18  19
ENDBRANCH  17  18
ENDBRANCH  16  17
ENDBRANCH  14  15
ENDBRANCH  13  14
ENDBRANCH  11  12
ENDBRANCH  10  11
ENDBRANCH   8   9
ENDBRANCH   7   8
ENDBRANCH   5   6
ENDBRANCH   4   5
ENDBRANCH   2   3
TORSDOF 12
ENDMDL
MODEL       80
REMARK 921   NORMALIZED FREE ENERGY PREDICTED BY IDOCK:   -4.55 KCAL/MOL
REMARK 922        TOTAL FREE ENERGY PREDICTED BY IDOCK:  -10.25 KCAL/MOL
REMARK 923 INTER-LIGAND FREE ENERGY PREDICTED BY IDOCK:   -8.17 KCAL/MOL
REMARK 924 INTRA-LIGAND FREE ENERGY PREDICTED BY IDOCK:   -2.07 KCAL/MOL
REMARK 927      BINDING AFFINITY PREDICTED BY RF-SCORE:    0.00 PKD
ROOT
HETATM    1  C   UNL     1      -8.161  15.181  67.475  1.00  0.00    -0.196 C  
HETATM    2  C   UNL     1      -9.640  15.195  67.122  1.00  0.00    -0.224 C  
ENDROOT
BRANCH   2   3
HETATM    3  C   UNL     1     -10.289  16.505  67.471  1.00  0.00    -0.294 C  
HETATM    4  C   UNL     1     -11.205  16.690  68.441  1.00  0.00    -0.239 C  
BRANCH   4   5
HETATM    5  C   UNL     1     -11.695  15.607  69.356  1.00  0.00    -0.395 C  
BRANCH   5   6
HETATM    6  C   UNL     1     -11.575  15.964  70.812  1.00  0.00    -0.441 C  
HETATM    7  C   UNL     1     -12.551  15.828  71.721  1.00  0.00    -0.524 C  
BRANCH   7   8
HETATM    8  C   UNL     1     -13.868  15.183  71.414  1.00  0.00    -0.587 C  
BRANCH   8   9
HETATM    9  C   UNL     1     -14.092  13.939  72.218  1.00  0.00    -0.632 C  
HETATM   10  C   UNL     1     -13.426  12.778  72.071  1.00  0.00    -0.540 C  
BRANCH  10  11
HETATM   11  C   UNL     1     -12.343  12.486  71.068  1.00  0.00    -0.307 C  
BRANCH  11  12
HETATM   12  C   UNL     1     -12.331  11.096  70.475  1.00  0.00    -0.454 C  
HETATM   13  C   UNL     1     -11.946  10.692  69.249  1.00  0.00    -0.269 C  
BRANCH  13  14
HETATM   14  C   UNL     1     -11.506  11.587  68.132  1.00  0.00    -0.385 C  
BRANCH  14  15
HETATM   15  C   UNL     1     -10.054  11.957  68.187  1.00  0.00    -0.200 C  
HETATM   16  C   UNL     1      -9.171  11.590  67.244  1.00  0.00    -0.168 C  
BRANCH  16  17
HETATM   17  C   UNL     1      -9.560  10.714  66.090  1.00  0.00    -0.232 C  
BRANCH  17  18
HETATM   18  C   UNL     1      -9.696  11.466  64.777  1.00  0.00    -0.280 C  
BRANCH  18  19
HETATM   19  C   UNL     1     -11.080  11.225  64.184  1.00  0.00    -0.306 C  
HETATM   20  C   UNL     1     -11.980  12.425  64.368  1.00  0.00    -0.407 C  
HETATM   21  O   UNL     1     -11.661  13.461  64.929  1.00  0.00    -0.328 OA 
HETATM   22  O   UNL     1     -13.203  12.228  63.833  1.00  0.00    -0.766 OA 
ENDBRANCH  18  19
ENDBRANCH  17  18
ENDBRANCH  16  17
ENDBRANCH  14  15
ENDBRANCH  13  14
ENDBRANCH  11  12
ENDBRANCH  10  11
ENDBRANCH   8   9
ENDBRANCH   7   8
ENDBRANCH   5   6
ENDBRANCH   4   5
ENDBRANCH   2   3
TORSDOF 12
ENDMDL
MODEL       81
REMARK 921   NORMALIZED FREE ENERGY PREDICTED BY IDOCK:   -4.55 KCAL/MOL
REMARK 922        TOTAL FREE ENERGY PREDICTED BY IDOCK:  -10.24 KCAL/MOL
REMARK 923 INTER-LIGAND FREE ENERGY PREDICTED BY IDOCK:   -7.10 KCAL/MOL
REMARK 924 INTRA-LIGAND FREE ENERGY PREDICTED BY IDOCK:   -3.14 KCAL/MOL
REMARK 927      BINDING AFFINITY PREDICTED BY RF-SCORE:    0.00 PKD
ROOT
HETATM    1  C   UNL     1     -11.882  12.268  63.561  1.00  0.00    -0.601 C  
HETATM    2  C   UNL     1     -11.863  13.231  64.737  1.00  0.00    -0.411 C  
ENDROOT
BRANCH   2   3
HETATM    3  C   UNL     1     -10.515  13.872  64.917  1.00  0.00    -0.446 C  
HETATM    4  C   UNL     1     -10.174  14.709  65.916  1.00  0.00    -0.344 C  
BRANCH   4   5
HETATM    5  C   UNL     1     -11.092  15.106  67.034  1.00  0.00    -0.328 C  
BRANCH   5   6
HETATM    6  C   UNL     1     -10.407  15.154  68.372  1.00  0.00    -0.229 C  
HETATM    7  C   UNL     1     -10.937  14.721  69.525  1.00  0.00    -0.287 C  
BRANCH   7   8
HETATM    8  C   UNL     1     -12.257  14.018  69.602  1.00  0.00    -0.383 C  
BRANCH   8   9
HETATM    9  C   UNL     1     -12.159  12.702  70.313  1.00  0.00    -0.372 C  
HETATM   10  C   UNL     1     -11.833  11.525  69.747  1.00  0.00    -0.429 C  
BRANCH  10  11
HETATM   11  C   UNL     1     -11.522  11.284  68.295  1.00  0.00    -0.378 C  
BRANCH  11  12
HETATM   12  C   UNL     1     -10.093  11.523  67.863  1.00  0.00    -0.202 C  
HETATM   13  C   UNL     1      -9.396  10.955  66.860  1.00  0.00    -0.186 C  
BRANCH  13  14
HETATM   14  C   UNL     1      -9.884   9.855  65.970  1.00  0.00    -0.330 C  
BRANCH  14  15
HETATM   15  C   UNL     1      -9.043   8.614  66.021  1.00  0.00    -0.255 C  
HETATM   16  C   UNL     1      -9.460   7.473  66.592  1.00  0.00    -0.246 C  
BRANCH  16  17
HETATM   17  C   UNL     1     -10.784   7.372  67.292  1.00  0.00    -0.379 C  
BRANCH  17  18
HETATM   18  C   UNL     1     -10.672   6.915  68.736  1.00  0.00    -0.255 C  
BRANCH  18  19
HETATM   19  C   UNL     1     -10.133   8.052  69.598  1.00  0.00    -0.198 C  
HETATM   20  C   UNL     1     -10.825   8.109  70.940  1.00  0.00    -0.230 C  
HETATM   21  O   UNL     1     -11.715   7.356  71.302  1.00  0.00    -0.270 OA 
HETATM   22  O   UNL     1     -10.344   9.102  71.717  1.00  0.00    -0.344 OA 
ENDBRANCH  18  19
ENDBRANCH  17  18
ENDBRANCH  16  17
ENDBRANCH  14  15
ENDBRANCH  13  14
ENDBRANCH  11  12
ENDBRANCH  10  11
ENDBRANCH   8   9
ENDBRANCH   7   8
ENDBRANCH   5   6
ENDBRANCH   4   5
ENDBRANCH   2   3
TORSDOF 12
ENDMDL
MODEL       82
REMARK 921   NORMALIZED FREE ENERGY PREDICTED BY IDOCK:   -4.54 KCAL/MOL
REMARK 922        TOTAL FREE ENERGY PREDICTED BY IDOCK:  -10.23 KCAL/MOL
REMARK 923 INTER-LIGAND FREE ENERGY PREDICTED BY IDOCK:   -8.50 KCAL/MOL
REMARK 924 INTRA-LIGAND FREE ENERGY PREDICTED BY IDOCK:   -1.73 KCAL/MOL
REMARK 927      BINDING AFFINITY PREDICTED BY RF-SCORE:    0.00 PKD
ROOT
HETATM    1  C   UNL     1      -9.206   9.857  63.387  1.00  0.00    -0.278 C  
HETATM    2  C   UNL     1     -10.213  10.719  64.132  1.00  0.00    -0.412 C  
ENDROOT
BRANCH   2   3
HETATM    3  C   UNL     1     -10.519  11.992  63.393  1.00  0.00    -0.474 C  
HETATM    4  C   UNL     1     -11.573  12.798  63.626  1.00  0.00    -0.572 C  
BRANCH   4   5
HETATM    5  C   UNL     1     -12.595  12.560  64.698  1.00  0.00    -0.507 C  
BRANCH   5   6
HETATM    6  C   UNL     1     -12.594  13.623  65.762  1.00  0.00    -0.511 C  
HETATM    7  C   UNL     1     -11.850  13.597  66.876  1.00  0.00    -0.451 C  
BRANCH   7   8
HETATM    8  C   UNL     1     -10.822  12.540  67.144  1.00  0.00    -0.282 C  
BRANCH   8   9
HETATM    9  C   UNL     1     -11.437  11.254  67.606  1.00  0.00    -0.341 C  
HETATM   10  C   UNL     1     -11.860  10.990  68.856  1.00  0.00    -0.378 C  
BRANCH  10  11
HETATM   11  C   UNL     1     -11.788  11.914  70.042  1.00  0.00    -0.407 C  
BRANCH  11  12
HETATM   12  C   UNL     1     -12.816  11.698  71.129  1.00  0.00    -0.392 C  
HETATM   13  C   UNL     1     -12.980  10.646  71.954  1.00  0.00    -0.542 C  
BRANCH  13  14
HETATM   14  C   UNL     1     -12.194   9.373  71.914  1.00  0.00    -0.440 C  
BRANCH  14  15
HETATM   15  C   UNL     1     -13.042   8.138  71.845  1.00  0.00    -0.349 C  
HETATM   16  C   UNL     1     -12.572   6.953  71.421  1.00  0.00    -0.400 C  
BRANCH  16  17
HETATM   17  C   UNL     1     -11.169   6.791  70.914  1.00  0.00    -0.338 C  
BRANCH  17  18
HETATM   18  C   UNL     1     -11.098   6.308  69.475  1.00  0.00    -0.476 C  
BRANCH  18  19
HETATM   19  C   UNL     1     -10.356   7.332  68.622  1.00  0.00    -0.208 C  
HETATM   20  C   UNL     1     -10.639   7.139  67.151  1.00  0.00    -0.347 C  
HETATM   21  O   UNL     1     -11.358   6.271  66.683  1.00  0.00    -0.165 OA 
HETATM   22  O   UNL     1     -10.000   8.050  66.388  1.00  0.00    -0.229 OA 
ENDBRANCH  18  19
ENDBRANCH  17  18
ENDBRANCH  16  17
ENDBRANCH  14  15
ENDBRANCH  13  14
ENDBRANCH  11  12
ENDBRANCH  10  11
ENDBRANCH   8   9
ENDBRANCH   7   8
ENDBRANCH   5   6
ENDBRANCH   4   5
ENDBRANCH   2   3
TORSDOF 12
ENDMDL
MODEL       83
REMARK 921   NORMALIZED FREE ENERGY PREDICTED BY IDOCK:   -4.54 KCAL/MOL
REMARK 922        TOTAL FREE ENERGY PREDICTED BY IDOCK:  -10.22 KCAL/MOL
REMARK 923 INTER-LIGAND FREE ENERGY PREDICTED BY IDOCK:   -8.32 KCAL/MOL
REMARK 924 INTRA-LIGAND FREE ENERGY PREDICTED BY IDOCK:   -1.91 KCAL/MOL
REMARK 927      BINDING AFFINITY PREDICTED BY RF-SCORE:    0.00 PKD
ROOT
HETATM    1  C   UNL     1      -8.097  20.216  67.344  1.00  0.00    -0.372 C  
HETATM    2  C   UNL     1      -9.596  20.343  67.560  1.00  0.00    -0.560 C  
ENDROOT
BRANCH   2   3
HETATM    3  C   UNL     1     -10.369  19.345  66.742  1.00  0.00    -0.545 C  
HETATM    4  C   UNL     1     -10.783  18.137  67.170  1.00  0.00    -0.309 C  
BRANCH   4   5
HETATM    5  C   UNL     1     -10.564  17.613  68.559  1.00  0.00    -0.281 C  
BRANCH   5   6
HETATM    6  C   UNL     1     -10.562  16.111  68.630  1.00  0.00    -0.283 C  
HETATM    7  C   UNL     1     -10.989  15.389  69.676  1.00  0.00    -0.288 C  
BRANCH   7   8
HETATM    8  C   UNL     1     -11.640  16.002  70.878  1.00  0.00    -0.453 C  
BRANCH   8   9
HETATM    9  C   UNL     1     -13.104  15.688  70.952  1.00  0.00    -0.425 C  
HETATM   10  C   UNL     1     -13.656  14.674  71.643  1.00  0.00    -0.475 C  
BRANCH  10  11
HETATM   11  C   UNL     1     -12.925  13.644  72.462  1.00  0.00    -0.396 C  
BRANCH  11  12
HETATM   12  C   UNL     1     -13.190  12.197  72.115  1.00  0.00    -0.438 C  
HETATM   13  C   UNL     1     -12.653  11.440  71.138  1.00  0.00    -0.490 C  
BRANCH  13  14
HETATM   14  C   UNL     1     -11.700  11.916  70.087  1.00  0.00    -0.337 C  
BRANCH  14  15
HETATM   15  C   UNL     1     -10.902  10.818  69.449  1.00  0.00    -0.289 C  
HETATM   16  C   UNL     1      -9.861  11.052  68.632  1.00  0.00    -0.197 C  
BRANCH  16  17
HETATM   17  C   UNL     1      -9.459  12.443  68.237  1.00  0.00    -0.203 C  
BRANCH  17  18
HETATM   18  C   UNL     1      -9.434  12.662  66.735  1.00  0.00    -0.237 C  
BRANCH  18  19
HETATM   19  C   UNL     1     -10.424  13.758  66.355  1.00  0.00    -0.284 C  
HETATM   20  C   UNL     1     -11.784  13.189  66.026  1.00  0.00    -0.379 C  
HETATM   21  O   UNL     1     -12.071  12.003  66.043  1.00  0.00    -0.561 OA 
HETATM   22  O   UNL     1     -12.673  14.153  65.704  1.00  0.00    -0.514 OA 
ENDBRANCH  18  19
ENDBRANCH  17  18
ENDBRANCH  16  17
ENDBRANCH  14  15
ENDBRANCH  13  14
ENDBRANCH  11  12
ENDBRANCH  10  11
ENDBRANCH   8   9
ENDBRANCH   7   8
ENDBRANCH   5   6
ENDBRANCH   4   5
ENDBRANCH   2   3
TORSDOF 12
ENDMDL
MODEL       84
REMARK 921   NORMALIZED FREE ENERGY PREDICTED BY IDOCK:   -4.53 KCAL/MOL
REMARK 922        TOTAL FREE ENERGY PREDICTED BY IDOCK:  -10.22 KCAL/MOL
REMARK 923 INTER-LIGAND FREE ENERGY PREDICTED BY IDOCK:   -7.27 KCAL/MOL
REMARK 924 INTRA-LIGAND FREE ENERGY PREDICTED BY IDOCK:   -2.96 KCAL/MOL
REMARK 927      BINDING AFFINITY PREDICTED BY RF-SCORE:    0.00 PKD
ROOT
HETATM    1  C   UNL     1     -10.342  14.675  68.625  1.00  0.00    -0.246 C  
HETATM    2  C   UNL     1     -10.623  14.219  67.202  1.00  0.00    -0.279 C  
ENDROOT
BRANCH   2   3
HETATM    3  C   UNL     1     -12.096  14.077  66.938  1.00  0.00    -0.465 C  
HETATM    4  C   UNL     1     -12.658  13.871  65.731  1.00  0.00    -0.533 C  
BRANCH   4   5
HETATM    5  C   UNL     1     -11.884  13.715  64.456  1.00  0.00    -0.445 C  
BRANCH   5   6
HETATM    6  C   UNL     1     -12.148  12.408  63.760  1.00  0.00    -0.618 C  
HETATM    7  C   UNL     1     -11.218  11.484  63.478  1.00  0.00    -0.412 C  
BRANCH   7   8
HETATM    8  C   UNL     1      -9.796  11.594  63.935  1.00  0.00    -0.306 C  
BRANCH   8   9
HETATM    9  C   UNL     1      -9.250  10.282  64.412  1.00  0.00    -0.296 C  
HETATM   10  C   UNL     1      -9.201   9.870  65.692  1.00  0.00    -0.245 C  
BRANCH  10  11
HETATM   11  C   UNL     1      -9.663  10.640  66.900  1.00  0.00    -0.213 C  
BRANCH  11  12
HETATM   12  C   UNL     1     -11.143  10.595  67.203  1.00  0.00    -0.267 C  
HETATM   13  C   UNL     1     -11.783  10.783  68.373  1.00  0.00    -0.232 C  
BRANCH  13  14
HETATM   14  C   UNL     1     -11.129  11.005  69.701  1.00  0.00    -0.320 C  
BRANCH  14  15
HETATM   15  C   UNL     1     -11.839  10.345  70.845  1.00  0.00    -0.475 C  
HETATM   16  C   UNL     1     -11.341   9.281  71.496  1.00  0.00    -0.455 C  
BRANCH  16  17
HETATM   17  C   UNL     1     -10.060   8.622  71.078  1.00  0.00    -0.273 C  
BRANCH  17  18
HETATM   18  C   UNL     1     -10.205   7.135  70.802  1.00  0.00    -0.208 C  
BRANCH  18  19
HETATM   19  C   UNL     1     -11.134   6.918  69.611  1.00  0.00    -0.302 C  
HETATM   20  C   UNL     1     -10.381   6.971  68.303  1.00  0.00    -0.194 C  
HETATM   21  O   UNL     1      -9.183   7.173  68.191  1.00  0.00    -0.133 OA 
HETATM   22  O   UNL     1     -11.191   6.765  67.243  1.00  0.00    -0.348 OA 
ENDBRANCH  18  19
ENDBRANCH  17  18
ENDBRANCH  16  17
ENDBRANCH  14  15
ENDBRANCH  13  14
ENDBRANCH  11  12
ENDBRANCH  10  11
ENDBRANCH   8   9
ENDBRANCH   7   8
ENDBRANCH   5   6
ENDBRANCH   4   5
ENDBRANCH   2   3
TORSDOF 12
ENDMDL
MODEL       85
REMARK 921   NORMALIZED FREE ENERGY PREDICTED BY IDOCK:   -4.53 KCAL/MOL
REMARK 922        TOTAL FREE ENERGY PREDICTED BY IDOCK:  -10.22 KCAL/MOL
REMARK 923 INTER-LIGAND FREE ENERGY PREDICTED BY IDOCK:   -8.40 KCAL/MOL
REMARK 924 INTRA-LIGAND FREE ENERGY PREDICTED BY IDOCK:   -1.82 KCAL/MOL
REMARK 927      BINDING AFFINITY PREDICTED BY RF-SCORE:    0.00 PKD
ROOT
HETATM    1  C   UNL     1     -10.256   6.935  73.817  1.00  0.00    -0.396 C  
HETATM    2  C   UNL     1     -11.082   5.926  73.036  1.00  0.00    -0.289 C  
ENDROOT
BRANCH   2   3
HETATM    3  C   UNL     1     -10.315   5.346  71.880  1.00  0.00    -0.270 C  
HETATM    4  C   UNL     1     -10.501   5.657  70.583  1.00  0.00    -0.340 C  
BRANCH   4   5
HETATM    5  C   UNL     1     -11.492   6.670  70.092  1.00  0.00    -0.444 C  
BRANCH   5   6
HETATM    6  C   UNL     1     -10.853   7.959  69.655  1.00  0.00    -0.177 C  
HETATM    7  C   UNL     1     -10.897   9.111  70.338  1.00  0.00    -0.285 C  
BRANCH   7   8
HETATM    8  C   UNL     1     -11.503   9.226  71.704  1.00  0.00    -0.468 C  
BRANCH   8   9
HETATM    9  C   UNL     1     -12.973   9.514  71.650  1.00  0.00    -0.483 C  
HETATM   10  C   UNL     1     -13.534  10.737  71.632  1.00  0.00    -0.246 C  
BRANCH  10  11
HETATM   11  C   UNL     1     -12.811  12.056  71.679  1.00  0.00    -0.399 C  
BRANCH  11  12
HETATM   12  C   UNL     1     -13.435  13.135  72.535  1.00  0.00    -0.579 C  
HETATM   13  C   UNL     1     -13.153  14.451  72.592  1.00  0.00    -0.564 C  
BRANCH  13  14
HETATM   14  C   UNL     1     -12.055  15.143  71.846  1.00  0.00    -0.448 C  
BRANCH  14  15
HETATM   15  C   UNL     1     -12.447  15.599  70.472  1.00  0.00    -0.440 C  
HETATM   16  C   UNL     1     -11.894  15.102  69.353  1.00  0.00    -0.357 C  
BRANCH  16  17
HETATM   17  C   UNL     1     -10.782  14.095  69.396  1.00  0.00    -0.119 C  
BRANCH  17  18
HETATM   18  C   UNL     1     -10.660  13.273  68.124  1.00  0.00    -0.259 C  
BRANCH  18  19
HETATM   19  C   UNL     1     -11.788  13.637  67.163  1.00  0.00    -0.435 C  
HETATM   20  C   UNL     1     -11.861  12.675  66.001  1.00  0.00    -0.436 C  
HETATM   21  O   UNL     1     -11.113  11.726  65.829  1.00  0.00    -0.311 OA 
HETATM   22  O   UNL     1     -12.866  12.979  65.153  1.00  0.00    -0.656 OA 
ENDBRANCH  18  19
ENDBRANCH  17  18
ENDBRANCH  16  17
ENDBRANCH  14  15
ENDBRANCH  13  14
ENDBRANCH  11  12
ENDBRANCH  10  11
ENDBRANCH   8   9
ENDBRANCH   7   8
ENDBRANCH   5   6
ENDBRANCH   4   5
ENDBRANCH   2   3
TORSDOF 12
ENDMDL
MODEL       86
REMARK 921   NORMALIZED FREE ENERGY PREDICTED BY IDOCK:   -4.52 KCAL/MOL
REMARK 922        TOTAL FREE ENERGY PREDICTED BY IDOCK:  -10.20 KCAL/MOL
REMARK 923 INTER-LIGAND FREE ENERGY PREDICTED BY IDOCK:   -8.46 KCAL/MOL
REMARK 924 INTRA-LIGAND FREE ENERGY PREDICTED BY IDOCK:   -1.74 KCAL/MOL
REMARK 927      BINDING AFFINITY PREDICTED BY RF-SCORE:    0.00 PKD
ROOT
HETATM    1  C   UNL     1      -8.400   8.127  73.249  1.00  0.00    -0.277 C  
HETATM    2  C   UNL     1      -9.605   7.876  72.356  1.00  0.00    -0.270 C  
ENDROOT
BRANCH   2   3
HETATM    3  C   UNL     1     -10.441   6.727  72.849  1.00  0.00    -0.260 C  
HETATM    4  C   UNL     1     -11.608   6.323  72.314  1.00  0.00    -0.355 C  
BRANCH   4   5
HETATM    5  C   UNL     1     -12.243   6.947  71.106  1.00  0.00    -0.428 C  
BRANCH   5   6
HETATM    6  C   UNL     1     -13.649   7.419  71.355  1.00  0.00    -0.410 C  
HETATM    7  C   UNL     1     -13.981   8.558  71.979  1.00  0.00    -0.494 C  
BRANCH   7   8
HETATM    8  C   UNL     1     -12.968   9.575  72.410  1.00  0.00    -0.396 C  
BRANCH   8   9
HETATM    9  C   UNL     1     -12.999  10.804  71.553  1.00  0.00    -0.562 C  
HETATM   10  C   UNL     1     -12.288  10.994  70.426  1.00  0.00    -0.442 C  
BRANCH  10  11
HETATM   11  C   UNL     1     -11.311  10.031  69.809  1.00  0.00    -0.281 C  
BRANCH  11  12
HETATM   12  C   UNL     1      -9.956  10.590  69.437  1.00  0.00    -0.220 C  
HETATM   13  C   UNL     1      -9.458  10.888  68.221  1.00  0.00    -0.168 C  
BRANCH  13  14
HETATM   14  C   UNL     1     -10.140  10.639  66.913  1.00  0.00    -0.260 C  
BRANCH  14  15
HETATM   15  C   UNL     1      -9.495  11.332  65.749  1.00  0.00    -0.252 C  
HETATM   16  C   UNL     1     -10.175  12.119  64.900  1.00  0.00    -0.309 C  
BRANCH  16  17
HETATM   17  C   UNL     1     -11.659  12.311  65.010  1.00  0.00    -0.394 C  
BRANCH  17  18
HETATM   18  C   UNL     1     -12.057  13.409  65.981  1.00  0.00    -0.487 C  
BRANCH  18  19
HETATM   19  C   UNL     1     -11.193  14.645  65.747  1.00  0.00    -0.336 C  
HETATM   20  C   UNL     1     -11.747  15.507  64.637  1.00  0.00    -0.226 C  
HETATM   21  O   UNL     1     -12.751  15.258  63.990  1.00  0.00    -0.710 OA 
HETATM   22  O   UNL     1     -10.998  16.611  64.432  1.00  0.00    -0.924 OA 
ENDBRANCH  18  19
ENDBRANCH  17  18
ENDBRANCH  16  17
ENDBRANCH  14  15
ENDBRANCH  13  14
ENDBRANCH  11  12
ENDBRANCH  10  11
ENDBRANCH   8   9
ENDBRANCH   7   8
ENDBRANCH   5   6
ENDBRANCH   4   5
ENDBRANCH   2   3
TORSDOF 12
ENDMDL
MODEL       87
REMARK 921   NORMALIZED FREE ENERGY PREDICTED BY IDOCK:   -4.52 KCAL/MOL
REMARK 922        TOTAL FREE ENERGY PREDICTED BY IDOCK:  -10.19 KCAL/MOL
REMARK 923 INTER-LIGAND FREE ENERGY PREDICTED BY IDOCK:   -7.76 KCAL/MOL
REMARK 924 INTRA-LIGAND FREE ENERGY PREDICTED BY IDOCK:   -2.43 KCAL/MOL
REMARK 927      BINDING AFFINITY PREDICTED BY RF-SCORE:    0.00 PKD
ROOT
HETATM    1  C   UNL     1     -10.284  10.976  63.885  1.00  0.00    -0.425 C  
HETATM    2  C   UNL     1     -11.599  11.610  64.310  1.00  0.00    -0.306 C  
ENDROOT
BRANCH   2   3
HETATM    3  C   UNL     1     -11.795  12.966  63.689  1.00  0.00    -0.599 C  
HETATM    4  C   UNL     1     -12.163  14.081  64.349  1.00  0.00    -0.457 C  
BRANCH   4   5
HETATM    5  C   UNL     1     -12.401  14.146  65.828  1.00  0.00    -0.481 C  
BRANCH   5   6
HETATM    6  C   UNL     1     -11.266  14.783  66.582  1.00  0.00    -0.346 C  
HETATM    7  C   UNL     1     -10.641  14.240  67.637  1.00  0.00    -0.253 C  
BRANCH   7   8
HETATM    8  C   UNL     1     -10.928  12.854  68.129  1.00  0.00    -0.273 C  
BRANCH   8   9
HETATM    9  C   UNL     1      -9.688  12.020  68.232  1.00  0.00    -0.205 C  
HETATM   10  C   UNL     1      -9.626  10.683  68.096  1.00  0.00    -0.165 C  
BRANCH  10  11
HETATM   11  C   UNL     1     -10.781   9.754  67.832  1.00  0.00    -0.312 C  
BRANCH  11  12
HETATM   12  C   UNL     1     -10.526   8.621  66.864  1.00  0.00    -0.329 C  
HETATM   13  C   UNL     1     -10.247   7.328  67.115  1.00  0.00    -0.339 C  
BRANCH  13  14
HETATM   14  C   UNL     1     -10.038   6.726  68.469  1.00  0.00    -0.166 C  
BRANCH  14  15
HETATM   15  C   UNL     1     -11.303   6.277  69.138  1.00  0.00    -0.358 C  
HETATM   16  C   UNL     1     -11.536   6.447  70.450  1.00  0.00    -0.458 C  
BRANCH  16  17
HETATM   17  C   UNL     1     -10.508   7.041  71.368  1.00  0.00    -0.225 C  
BRANCH  17  18
HETATM   18  C   UNL     1     -11.050   8.160  72.240  1.00  0.00    -0.410 C  
BRANCH  18  19
HETATM   19  C   UNL     1     -11.089   9.462  71.445  1.00  0.00    -0.450 C  
HETATM   20  C   UNL     1     -12.454  10.107  71.500  1.00  0.00    -0.427 C  
HETATM   21  O   UNL     1     -13.420   9.653  72.091  1.00  0.00    -0.424 OA 
HETATM   22  O   UNL     1     -12.495  11.268  70.813  1.00  0.00    -0.353 OA 
ENDBRANCH  18  19
ENDBRANCH  17  18
ENDBRANCH  16  17
ENDBRANCH  14  15
ENDBRANCH  13  14
ENDBRANCH  11  12
ENDBRANCH  10  11
ENDBRANCH   8   9
ENDBRANCH   7   8
ENDBRANCH   5   6
ENDBRANCH   4   5
ENDBRANCH   2   3
TORSDOF 12
ENDMDL
MODEL       88
REMARK 921   NORMALIZED FREE ENERGY PREDICTED BY IDOCK:   -4.51 KCAL/MOL
REMARK 922        TOTAL FREE ENERGY PREDICTED BY IDOCK:  -10.18 KCAL/MOL
REMARK 923 INTER-LIGAND FREE ENERGY PREDICTED BY IDOCK:   -6.97 KCAL/MOL
REMARK 924 INTRA-LIGAND FREE ENERGY PREDICTED BY IDOCK:   -3.21 KCAL/MOL
REMARK 927      BINDING AFFINITY PREDICTED BY RF-SCORE:    0.00 PKD
ROOT
HETATM    1  C   UNL     1      -6.641   9.631  66.277  1.00  0.00    -0.071 C  
HETATM    2  C   UNL     1      -7.912  10.199  66.889  1.00  0.00    -0.114 C  
ENDROOT
BRANCH   2   3
HETATM    3  C   UNL     1      -9.139   9.472  66.411  1.00  0.00    -0.195 C  
HETATM    4  C   UNL     1      -9.917   9.847  65.378  1.00  0.00    -0.349 C  
BRANCH   4   5
HETATM    5  C   UNL     1      -9.652  11.045  64.514  1.00  0.00    -0.299 C  
BRANCH   5   6
HETATM    6  C   UNL     1     -10.775  11.345  63.560  1.00  0.00    -0.453 C  
HETATM    7  C   UNL     1     -11.497  12.474  63.551  1.00  0.00    -0.570 C  
BRANCH   7   8
HETATM    8  C   UNL     1     -11.190  13.645  64.433  1.00  0.00    -0.382 C  
BRANCH   8   9
HETATM    9  C   UNL     1     -12.307  13.948  65.384  1.00  0.00    -0.494 C  
HETATM   10  C   UNL     1     -12.478  13.393  66.598  1.00  0.00    -0.212 C  
BRANCH  10  11
HETATM   11  C   UNL     1     -11.603  12.349  67.239  1.00  0.00    -0.435 C  
BRANCH  11  12
HETATM   12  C   UNL     1     -10.711  12.818  68.366  1.00  0.00    -0.269 C  
HETATM   13  C   UNL     1      -9.503  13.410  68.311  1.00  0.00    -0.209 C  
BRANCH  13  14
HETATM   14  C   UNL     1      -8.710  13.666  67.068  1.00  0.00    -0.204 C  
BRANCH  14  15
HETATM   15  C   UNL     1      -7.799  14.853  67.162  1.00  0.00    -0.203 C  
HETATM   16  C   UNL     1      -8.140  16.072  66.713  1.00  0.00    -0.302 C  
BRANCH  16  17
HETATM   17  C   UNL     1      -9.443  16.325  66.014  1.00  0.00    -0.369 C  
BRANCH  17  18
HETATM   18  C   UNL     1     -10.576  16.689  66.958  1.00  0.00    -0.247 C  
BRANCH  18  19
HETATM   19  C   UNL     1     -10.057  17.610  68.057  1.00  0.00    -0.343 C  
HETATM   20  C   UNL     1     -10.415  19.053  67.788  1.00  0.00    -0.417 C  
HETATM   21  O   UNL     1     -11.031  19.453  66.813  1.00  0.00    -0.421 OA 
HETATM   22  O   UNL     1      -9.974  19.875  68.763  1.00  0.00    -0.413 OA 
ENDBRANCH  18  19
ENDBRANCH  17  18
ENDBRANCH  16  17
ENDBRANCH  14  15
ENDBRANCH  13  14
ENDBRANCH  11  12
ENDBRANCH  10  11
ENDBRANCH   8   9
ENDBRANCH   7   8
ENDBRANCH   5   6
ENDBRANCH   4   5
ENDBRANCH   2   3
TORSDOF 12
ENDMDL
MODEL       89
REMARK 921   NORMALIZED FREE ENERGY PREDICTED BY IDOCK:   -4.51 KCAL/MOL
REMARK 922        TOTAL FREE ENERGY PREDICTED BY IDOCK:  -10.18 KCAL/MOL
REMARK 923 INTER-LIGAND FREE ENERGY PREDICTED BY IDOCK:   -8.16 KCAL/MOL
REMARK 924 INTRA-LIGAND FREE ENERGY PREDICTED BY IDOCK:   -2.02 KCAL/MOL
REMARK 927      BINDING AFFINITY PREDICTED BY RF-SCORE:    0.00 PKD
ROOT
HETATM    1  C   UNL     1     -13.062  10.507  70.826  1.00  0.00    -0.335 C  
HETATM    2  C   UNL     1     -13.100   9.664  72.091  1.00  0.00    -0.520 C  
ENDROOT
BRANCH   2   3
HETATM    3  C   UNL     1     -14.062   8.514  71.973  1.00  0.00    -0.516 C  
HETATM    4  C   UNL     1     -13.745   7.268  71.572  1.00  0.00    -0.451 C  
BRANCH   4   5
HETATM    5  C   UNL     1     -12.357   6.826  71.211  1.00  0.00    -0.395 C  
BRANCH   5   6
HETATM    6  C   UNL     1     -11.730   5.940  72.252  1.00  0.00    -0.309 C  
HETATM    7  C   UNL     1     -10.784   6.323  73.121  1.00  0.00    -0.286 C  
BRANCH   7   8
HETATM    8  C   UNL     1     -10.311   7.740  73.237  1.00  0.00    -0.364 C  
BRANCH   8   9
HETATM    9  C   UNL     1      -8.926   7.922  72.694  1.00  0.00    -0.251 C  
HETATM   10  C   UNL     1      -8.596   8.649  71.610  1.00  0.00    -0.254 C  
BRANCH  10  11
HETATM   11  C   UNL     1      -9.542   9.407  70.717  1.00  0.00    -0.322 C  
BRANCH  11  12
HETATM   12  C   UNL     1     -10.212   8.613  69.619  1.00  0.00    -0.208 C  
HETATM   13  C   UNL     1     -10.564   8.999  68.377  1.00  0.00    -0.200 C  
BRANCH  13  14
HETATM   14  C   UNL     1     -10.435  10.384  67.823  1.00  0.00    -0.268 C  
BRANCH  14  15
HETATM   15  C   UNL     1      -9.388  10.518  66.758  1.00  0.00    -0.180 C  
HETATM   16  C   UNL     1      -9.502  11.368  65.725  1.00  0.00    -0.256 C  
BRANCH  16  17
HETATM   17  C   UNL     1     -10.730  12.205  65.518  1.00  0.00    -0.321 C  
BRANCH  17  18
HETATM   18  C   UNL     1     -10.492  13.691  65.722  1.00  0.00    -0.296 C  
BRANCH  18  19
HETATM   19  C   UNL     1     -11.368  14.493  64.765  1.00  0.00    -0.397 C  
HETATM   20  C   UNL     1     -11.017  15.962  64.787  1.00  0.00    -0.375 C  
HETATM   21  O   UNL     1     -10.152  16.465  65.486  1.00  0.00    -0.508 OA 
HETATM   22  O   UNL     1     -11.777  16.678  63.932  1.00  0.00    -1.153 OA 
ENDBRANCH  18  19
ENDBRANCH  17  18
ENDBRANCH  16  17
ENDBRANCH  14  15
ENDBRANCH  13  14
ENDBRANCH  11  12
ENDBRANCH  10  11
ENDBRANCH   8   9
ENDBRANCH   7   8
ENDBRANCH   5   6
ENDBRANCH   4   5
ENDBRANCH   2   3
TORSDOF 12
ENDMDL
MODEL       90
REMARK 921   NORMALIZED FREE ENERGY PREDICTED BY IDOCK:   -4.51 KCAL/MOL
REMARK 922        TOTAL FREE ENERGY PREDICTED BY IDOCK:  -10.18 KCAL/MOL
REMARK 923 INTER-LIGAND FREE ENERGY PREDICTED BY IDOCK:   -8.48 KCAL/MOL
REMARK 924 INTRA-LIGAND FREE ENERGY PREDICTED BY IDOCK:   -1.70 KCAL/MOL
REMARK 927      BINDING AFFINITY PREDICTED BY RF-SCORE:    0.00 PKD
ROOT
HETATM    1  C   UNL     1      -8.555   8.741  66.425  1.00  0.00    -0.138 C  
HETATM    2  C   UNL     1     -10.028   8.666  66.796  1.00  0.00    -0.343 C  
ENDROOT
BRANCH   2   3
HETATM    3  C   UNL     1     -10.526   7.247  66.835  1.00  0.00    -0.369 C  
HETATM    4  C   UNL     1     -10.818   6.552  67.951  1.00  0.00    -0.383 C  
BRANCH   4   5
HETATM    5  C   UNL     1     -10.722   7.109  69.341  1.00  0.00    -0.246 C  
BRANCH   5   6
HETATM    6  C   UNL     1     -11.529   6.332  70.345  1.00  0.00    -0.414 C  
HETATM    7  C   UNL     1     -11.826   6.750  71.583  1.00  0.00    -0.370 C  
BRANCH   7   8
HETATM    8  C   UNL     1     -11.482   8.118  72.086  1.00  0.00    -0.412 C  
BRANCH   8   9
HETATM    9  C   UNL     1     -12.688   8.865  72.571  1.00  0.00    -0.382 C  
HETATM   10  C   UNL     1     -13.349   9.817  71.888  1.00  0.00    -0.530 C  
BRANCH  10  11
HETATM   11  C   UNL     1     -13.009  10.339  70.518  1.00  0.00    -0.251 C  
BRANCH  11  12
HETATM   12  C   UNL     1     -11.539  10.507  70.207  1.00  0.00    -0.417 C  
HETATM   13  C   UNL     1     -10.949  11.208  69.220  1.00  0.00    -0.300 C  
BRANCH  13  14
HETATM   14  C   UNL     1     -11.656  11.936  68.121  1.00  0.00    -0.400 C  
BRANCH  14  15
HETATM   15  C   UNL     1     -11.628  13.428  68.263  1.00  0.00    -0.379 C  
HETATM   16  C   UNL     1     -10.883  14.223  67.477  1.00  0.00    -0.284 C  
BRANCH  16  17
HETATM   17  C   UNL     1      -9.960  13.666  66.433  1.00  0.00    -0.299 C  
BRANCH  17  18
HETATM   18  C   UNL     1     -10.386  13.992  65.012  1.00  0.00    -0.432 C  
BRANCH  18  19
HETATM   19  C   UNL     1     -11.155  12.815  64.419  1.00  0.00    -0.386 C  
HETATM   20  C   UNL     1     -12.648  13.013  64.535  1.00  0.00    -0.320 C  
HETATM   21  O   UNL     1     -13.190  13.980  65.045  1.00  0.00    -0.720 OA 
HETATM   22  O   UNL     1     -13.339  11.985  64.000  1.00  0.00    -0.703 OA 
ENDBRANCH  18  19
ENDBRANCH  17  18
ENDBRANCH  16  17
ENDBRANCH  14  15
ENDBRANCH  13  14
ENDBRANCH  11  12
ENDBRANCH  10  11
ENDBRANCH   8   9
ENDBRANCH   7   8
ENDBRANCH   5   6
ENDBRANCH   4   5
ENDBRANCH   2   3
TORSDOF 12
ENDMDL
MODEL       91
REMARK 921   NORMALIZED FREE ENERGY PREDICTED BY IDOCK:   -4.51 KCAL/MOL
REMARK 922        TOTAL FREE ENERGY PREDICTED BY IDOCK:  -10.17 KCAL/MOL
REMARK 923 INTER-LIGAND FREE ENERGY PREDICTED BY IDOCK:   -7.76 KCAL/MOL
REMARK 924 INTRA-LIGAND FREE ENERGY PREDICTED BY IDOCK:   -2.41 KCAL/MOL
REMARK 927      BINDING AFFINITY PREDICTED BY RF-SCORE:    0.00 PKD
ROOT
HETATM    1  C   UNL     1     -12.675  14.089  65.475  1.00  0.00    -0.517 C  
HETATM    2  C   UNL     1     -12.515  12.604  65.189  1.00  0.00    -0.531 C  
ENDROOT
BRANCH   2   3
HETATM    3  C   UNL     1     -12.038  12.350  63.786  1.00  0.00    -0.618 C  
HETATM    4  C   UNL     1     -10.805  11.930  63.444  1.00  0.00    -0.469 C  
BRANCH   4   5
HETATM    5  C   UNL     1      -9.718  11.615  64.428  1.00  0.00    -0.199 C  
BRANCH   5   6
HETATM    6  C   UNL     1      -9.414  10.145  64.523  1.00  0.00    -0.364 C  
HETATM    7  C   UNL     1      -9.593   9.391  65.617  1.00  0.00    -0.345 C  
BRANCH   7   8
HETATM    8  C   UNL     1     -10.240   9.907  66.866  1.00  0.00    -0.302 C  
BRANCH   8   9
HETATM    9  C   UNL     1     -10.453   8.827  67.883  1.00  0.00    -0.275 C  
HETATM   10  C   UNL     1     -10.593   9.013  69.208  1.00  0.00    -0.226 C  
BRANCH  10  11
HETATM   11  C   UNL     1     -10.546  10.327  69.940  1.00  0.00    -0.324 C  
BRANCH  11  12
HETATM   12  C   UNL     1     -11.809  11.158  69.914  1.00  0.00    -0.439 C  
HETATM   13  C   UNL     1     -12.032  12.358  69.344  1.00  0.00    -0.319 C  
BRANCH  13  14
HETATM   14  C   UNL     1     -11.007  13.202  68.654  1.00  0.00    -0.296 C  
BRANCH  14  15
HETATM   15  C   UNL     1     -11.130  14.668  68.946  1.00  0.00    -0.268 C  
HETATM   16  C   UNL     1     -10.479  15.609  68.244  1.00  0.00    -0.252 C  
BRANCH  16  17
HETATM   17  C   UNL     1      -9.514  15.258  67.150  1.00  0.00    -0.223 C  
BRANCH  17  18
HETATM   18  C   UNL     1      -9.672  16.115  65.906  1.00  0.00    -0.374 C  
BRANCH  18  19
HETATM   19  C   UNL     1     -10.602  17.288  66.200  1.00  0.00    -0.204 C  
HETATM   20  C   UNL     1      -9.869  18.607  66.141  1.00  0.00    -0.287 C  
HETATM   21  O   UNL     1      -8.680  18.738  65.901  1.00  0.00    -0.471 OA 
HETATM   22  O   UNL     1     -10.686  19.653  66.384  1.00  0.00    -0.458 OA 
ENDBRANCH  18  19
ENDBRANCH  17  18
ENDBRANCH  16  17
ENDBRANCH  14  15
ENDBRANCH  13  14
ENDBRANCH  11  12
ENDBRANCH  10  11
ENDBRANCH   8   9
ENDBRANCH   7   8
ENDBRANCH   5   6
ENDBRANCH   4   5
ENDBRANCH   2   3
TORSDOF 12
ENDMDL
MODEL       92
REMARK 921   NORMALIZED FREE ENERGY PREDICTED BY IDOCK:   -4.49 KCAL/MOL
REMARK 922        TOTAL FREE ENERGY PREDICTED BY IDOCK:  -10.15 KCAL/MOL
REMARK 923 INTER-LIGAND FREE ENERGY PREDICTED BY IDOCK:   -7.83 KCAL/MOL
REMARK 924 INTRA-LIGAND FREE ENERGY PREDICTED BY IDOCK:   -2.31 KCAL/MOL
REMARK 927      BINDING AFFINITY PREDICTED BY RF-SCORE:    0.00 PKD
ROOT
HETATM    1  C   UNL     1     -11.170   4.752  73.401  1.00  0.00    -0.425 C  
HETATM    2  C   UNL     1      -9.736   4.638  72.909  1.00  0.00    -0.168 C  
ENDROOT
BRANCH   2   3
HETATM    3  C   UNL     1      -9.614   3.687  71.750  1.00  0.00    -0.221 C  
HETATM    4  C   UNL     1      -9.545   4.040  70.452  1.00  0.00    -0.265 C  
BRANCH   4   5
HETATM    5  C   UNL     1      -9.544   5.459  69.964  1.00  0.00    -0.227 C  
BRANCH   5   6
HETATM    6  C   UNL     1     -10.914   5.955  69.588  1.00  0.00    -0.447 C  
HETATM    7  C   UNL     1     -11.530   7.009  70.140  1.00  0.00    -0.302 C  
BRANCH   7   8
HETATM    8  C   UNL     1     -10.866   7.910  71.137  1.00  0.00    -0.257 C  
BRANCH   8   9
HETATM    9  C   UNL     1     -11.680   8.072  72.384  1.00  0.00    -0.444 C  
HETATM   10  C   UNL     1     -12.754   8.872  72.524  1.00  0.00    -0.382 C  
BRANCH  10  11
HETATM   11  C   UNL     1     -13.344   9.773  71.472  1.00  0.00    -0.468 C  
BRANCH  11  12
HETATM   12  C   UNL     1     -12.816  11.188  71.425  1.00  0.00    -0.544 C  
HETATM   13  C   UNL     1     -12.305  11.876  70.386  1.00  0.00    -0.334 C  
BRANCH  13  14
HETATM   14  C   UNL     1     -12.063  11.333  69.013  1.00  0.00    -0.325 C  
BRANCH  14  15
HETATM   15  C   UNL     1     -10.674  10.807  68.803  1.00  0.00    -0.243 C  
HETATM   16  C   UNL     1      -9.656  11.577  68.387  1.00  0.00    -0.195 C  
BRANCH  16  17
HETATM   17  C   UNL     1      -9.848  13.022  68.029  1.00  0.00    -0.224 C  
BRANCH  17  18
HETATM   18  C   UNL     1      -9.847  13.279  66.532  1.00  0.00    -0.281 C  
BRANCH  18  19
HETATM   19  C   UNL     1     -11.019  14.184  66.162  1.00  0.00    -0.309 C  
HETATM   20  C   UNL     1     -12.188  13.390  65.631  1.00  0.00    -0.463 C  
HETATM   21  O   UNL     1     -12.209  12.177  65.497  1.00  0.00    -0.549 OA 
HETATM   22  O   UNL     1     -13.236  14.179  65.316  1.00  0.00    -0.760 OA 
ENDBRANCH  18  19
ENDBRANCH  17  18
ENDBRANCH  16  17
ENDBRANCH  14  15
ENDBRANCH  13  14
ENDBRANCH  11  12
ENDBRANCH  10  11
ENDBRANCH   8   9
ENDBRANCH   7   8
ENDBRANCH   5   6
ENDBRANCH   4   5
ENDBRANCH   2   3
TORSDOF 12
ENDMDL
MODEL       93
REMARK 921   NORMALIZED FREE ENERGY PREDICTED BY IDOCK:   -4.48 KCAL/MOL
REMARK 922        TOTAL FREE ENERGY PREDICTED BY IDOCK:  -10.13 KCAL/MOL
REMARK 923 INTER-LIGAND FREE ENERGY PREDICTED BY IDOCK:   -8.21 KCAL/MOL
REMARK 924 INTRA-LIGAND FREE ENERGY PREDICTED BY IDOCK:   -1.92 KCAL/MOL
REMARK 927      BINDING AFFINITY PREDICTED BY RF-SCORE:    0.00 PKD
ROOT
HETATM    1  C   UNL     1     -10.857   9.845  67.455  1.00  0.00    -0.293 C  
HETATM    2  C   UNL     1      -9.618  10.264  66.680  1.00  0.00    -0.220 C  
ENDROOT
BRANCH   2   3
HETATM    3  C   UNL     1      -9.557   9.617  65.324  1.00  0.00    -0.347 C  
HETATM    4  C   UNL     1      -9.592  10.267  64.145  1.00  0.00    -0.376 C  
BRANCH   4   5
HETATM    5  C   UNL     1      -9.663  11.759  64.006  1.00  0.00    -0.202 C  
BRANCH   5   6
HETATM    6  C   UNL     1     -10.861  12.223  63.225  1.00  0.00    -0.359 C  
HETATM    7  C   UNL     1     -12.062  12.504  63.751  1.00  0.00    -0.615 C  
BRANCH   7   8
HETATM    8  C   UNL     1     -12.327  12.500  65.225  1.00  0.00    -0.469 C  
BRANCH   8   9
HETATM    9  C   UNL     1     -12.521  13.882  65.771  1.00  0.00    -0.530 C  
HETATM   10  C   UNL     1     -12.146  14.305  66.992  1.00  0.00    -0.424 C  
BRANCH  10  11
HETATM   11  C   UNL     1     -11.477  13.482  68.060  1.00  0.00    -0.342 C  
BRANCH  11  12
HETATM   12  C   UNL     1     -11.933  13.724  69.481  1.00  0.00    -0.399 C  
HETATM   13  C   UNL     1     -12.234  12.834  70.446  1.00  0.00    -0.371 C  
BRANCH  13  14
HETATM   14  C   UNL     1     -12.263  11.346  70.285  1.00  0.00    -0.433 C  
BRANCH  14  15
HETATM   15  C   UNL     1     -12.956  10.627  71.404  1.00  0.00    -0.545 C  
HETATM   16  C   UNL     1     -12.685   9.353  71.731  1.00  0.00    -0.476 C  
BRANCH  16  17
HETATM   17  C   UNL     1     -11.710   8.523  70.949  1.00  0.00    -0.274 C  
BRANCH  17  18
HETATM   18  C   UNL     1     -12.043   7.041  70.946  1.00  0.00    -0.403 C  
BRANCH  18  19
HETATM   19  C   UNL     1     -11.259   6.337  69.842  1.00  0.00    -0.498 C  
HETATM   20  C   UNL     1     -10.410   5.215  70.393  1.00  0.00    -0.256 C  
HETATM   21  O   UNL     1     -10.337   4.904  71.570  1.00  0.00    -0.200 OA 
HETATM   22  O   UNL     1      -9.724   4.576  69.423  1.00  0.00    -0.179 OA 
ENDBRANCH  18  19
ENDBRANCH  17  18
ENDBRANCH  16  17
ENDBRANCH  14  15
ENDBRANCH  13  14
ENDBRANCH  11  12
ENDBRANCH  10  11
ENDBRANCH   8   9
ENDBRANCH   7   8
ENDBRANCH   5   6
ENDBRANCH   4   5
ENDBRANCH   2   3
TORSDOF 12
ENDMDL
MODEL       94
REMARK 921   NORMALIZED FREE ENERGY PREDICTED BY IDOCK:   -4.48 KCAL/MOL
REMARK 922        TOTAL FREE ENERGY PREDICTED BY IDOCK:  -10.12 KCAL/MOL
REMARK 923 INTER-LIGAND FREE ENERGY PREDICTED BY IDOCK:   -8.22 KCAL/MOL
REMARK 924 INTRA-LIGAND FREE ENERGY PREDICTED BY IDOCK:   -1.90 KCAL/MOL
REMARK 927      BINDING AFFINITY PREDICTED BY RF-SCORE:    0.00 PKD
ROOT
HETATM    1  C   UNL     1     -11.940  12.173  63.390  1.00  0.00    -0.578 C  
HETATM    2  C   UNL     1     -11.075  12.650  64.546  1.00  0.00    -0.365 C  
ENDROOT
BRANCH   2   3
HETATM    3  C   UNL     1     -11.569  12.132  65.869  1.00  0.00    -0.425 C  
HETATM    4  C   UNL     1     -11.978  12.892  66.902  1.00  0.00    -0.402 C  
BRANCH   4   5
HETATM    5  C   UNL     1     -12.035  14.391  66.876  1.00  0.00    -0.425 C  
BRANCH   5   6
HETATM    6  C   UNL     1     -10.729  15.038  67.245  1.00  0.00    -0.298 C  
HETATM    7  C   UNL     1     -10.352  15.357  68.492  1.00  0.00    -0.226 C  
BRANCH   7   8
HETATM    8  C   UNL     1     -11.154  14.992  69.704  1.00  0.00    -0.291 C  
BRANCH   8   9
HETATM    9  C   UNL     1     -11.398  16.169  70.598  1.00  0.00    -0.394 C  
HETATM   10  C   UNL     1     -11.824  16.112  71.874  1.00  0.00    -0.605 C  
BRANCH  10  11
HETATM   11  C   UNL     1     -12.159  14.868  72.653  1.00  0.00    -0.372 C  
BRANCH  11  12
HETATM   12  C   UNL     1     -13.575  14.355  72.527  1.00  0.00    -0.598 C  
HETATM   13  C   UNL     1     -14.014  13.110  72.261  1.00  0.00    -0.490 C  
BRANCH  13  14
HETATM   14  C   UNL     1     -13.151  11.931  71.936  1.00  0.00    -0.474 C  
BRANCH  14  15
HETATM   15  C   UNL     1     -12.600  11.947  70.541  1.00  0.00    -0.212 C  
HETATM   16  C   UNL     1     -11.827  10.965  70.050  1.00  0.00    -0.428 C  
BRANCH  16  17
HETATM   17  C   UNL     1     -11.393   9.800  70.891  1.00  0.00    -0.439 C  
BRANCH  17  18
HETATM   18  C   UNL     1     -10.873   8.627  70.078  1.00  0.00    -0.226 C  
BRANCH  18  19
HETATM   19  C   UNL     1     -10.449   9.106  68.693  1.00  0.00    -0.235 C  
HETATM   20  C   UNL     1     -10.508   7.989  67.677  1.00  0.00    -0.232 C  
HETATM   21  O   UNL     1     -10.839   6.839  67.917  1.00  0.00    -0.238 OA 
HETATM   22  O   UNL     1     -10.150   8.406  66.444  1.00  0.00    -0.265 OA 
ENDBRANCH  18  19
ENDBRANCH  17  18
ENDBRANCH  16  17
ENDBRANCH  14  15
ENDBRANCH  13  14
ENDBRANCH  11  12
ENDBRANCH  10  11
ENDBRANCH   8   9
ENDBRANCH   7   8
ENDBRANCH   5   6
ENDBRANCH   4   5
ENDBRANCH   2   3
TORSDOF 12
ENDMDL
MODEL       95
REMARK 921   NORMALIZED FREE ENERGY PREDICTED BY IDOCK:   -4.47 KCAL/MOL
REMARK 922        TOTAL FREE ENERGY PREDICTED BY IDOCK:  -10.11 KCAL/MOL
REMARK 923 INTER-LIGAND FREE ENERGY PREDICTED BY IDOCK:   -7.61 KCAL/MOL
REMARK 924 INTRA-LIGAND FREE ENERGY PREDICTED BY IDOCK:   -2.50 KCAL/MOL
REMARK 927      BINDING AFFINITY PREDICTED BY RF-SCORE:    0.00 PKD
ROOT
HETATM    1  C   UNL     1     -13.873   7.317  71.570  1.00  0.00    -0.463 C  
HETATM    2  C   UNL     1     -13.139   8.648  71.616  1.00  0.00    -0.381 C  
ENDROOT
BRANCH   2   3
HETATM    3  C   UNL     1     -11.717   8.491  72.081  1.00  0.00    -0.448 C  
HETATM    4  C   UNL     1     -10.673   8.154  71.301  1.00  0.00    -0.270 C  
BRANCH   4   5
HETATM    5  C   UNL     1     -10.766   7.916  69.822  1.00  0.00    -0.233 C  
BRANCH   5   6
HETATM    6  C   UNL     1      -9.424   7.886  69.143  1.00  0.00    -0.155 C  
HETATM    7  C   UNL     1      -9.074   8.645  68.096  1.00  0.00    -0.142 C  
BRANCH   7   8
HETATM    8  C   UNL     1      -9.955   9.721  67.538  1.00  0.00    -0.230 C  
BRANCH   8   9
HETATM    9  C   UNL     1      -9.506  11.091  67.946  1.00  0.00    -0.170 C  
HETATM   10  C   UNL     1     -10.287  12.047  68.482  1.00  0.00    -0.228 C  
BRANCH  10  11
HETATM   11  C   UNL     1     -11.763  11.946  68.763  1.00  0.00    -0.379 C  
BRANCH  11  12
HETATM   12  C   UNL     1     -12.171  11.935  70.219  1.00  0.00    -0.353 C  
HETATM   13  C   UNL     1     -12.529  12.961  71.014  1.00  0.00    -0.374 C  
BRANCH  13  14
HETATM   14  C   UNL     1     -12.518  14.408  70.633  1.00  0.00    -0.419 C  
BRANCH  14  15
HETATM   15  C   UNL     1     -11.147  15.015  70.592  1.00  0.00    -0.238 C  
HETATM   16  C   UNL     1     -10.681  15.694  69.531  1.00  0.00    -0.271 C  
BRANCH  16  17
HETATM   17  C   UNL     1     -11.478  15.838  68.268  1.00  0.00    -0.338 C  
BRANCH  17  18
HETATM   18  C   UNL     1     -10.714  15.428  67.020  1.00  0.00    -0.321 C  
BRANCH  18  19
HETATM   19  C   UNL     1     -11.645  14.687  66.065  1.00  0.00    -0.328 C  
HETATM   20  C   UNL     1     -11.763  15.400  64.739  1.00  0.00    -0.232 C  
HETATM   21  O   UNL     1     -11.202  16.446  64.453  1.00  0.00    -0.807 OA 
HETATM   22  O   UNL     1     -12.572  14.744  63.880  1.00  0.00    -0.834 OA 
ENDBRANCH  18  19
ENDBRANCH  17  18
ENDBRANCH  16  17
ENDBRANCH  14  15
ENDBRANCH  13  14
ENDBRANCH  11  12
ENDBRANCH  10  11
ENDBRANCH   8   9
ENDBRANCH   7   8
ENDBRANCH   5   6
ENDBRANCH   4   5
ENDBRANCH   2   3
TORSDOF 12
ENDMDL
MODEL       96
REMARK 921   NORMALIZED FREE ENERGY PREDICTED BY IDOCK:   -4.47 KCAL/MOL
REMARK 922        TOTAL FREE ENERGY PREDICTED BY IDOCK:  -10.11 KCAL/MOL
REMARK 923 INTER-LIGAND FREE ENERGY PREDICTED BY IDOCK:   -8.20 KCAL/MOL
REMARK 924 INTRA-LIGAND FREE ENERGY PREDICTED BY IDOCK:   -1.91 KCAL/MOL
REMARK 927      BINDING AFFINITY PREDICTED BY RF-SCORE:    0.00 PKD
ROOT
HETATM    1  C   UNL     1     -11.932  12.449  63.516  1.00  0.00    -0.627 C  
HETATM    2  C   UNL     1     -12.512  12.547  64.918  1.00  0.00    -0.524 C  
ENDROOT
BRANCH   2   3
HETATM    3  C   UNL     1     -12.320  13.915  65.512  1.00  0.00    -0.506 C  
HETATM    4  C   UNL     1     -11.992  14.172  66.792  1.00  0.00    -0.475 C  
BRANCH   4   5
HETATM    5  C   UNL     1     -11.732  13.115  67.825  1.00  0.00    -0.401 C  
BRANCH   5   6
HETATM    6  C   UNL     1     -11.998  13.584  69.229  1.00  0.00    -0.378 C  
HETATM    7  C   UNL     1     -12.177  12.782  70.288  1.00  0.00    -0.351 C  
BRANCH   7   8
HETATM    8  C   UNL     1     -12.013  11.294  70.220  1.00  0.00    -0.466 C  
BRANCH   8   9
HETATM    9  C   UNL     1     -12.951  10.577  71.143  1.00  0.00    -0.506 C  
HETATM   10  C   UNL     1     -12.630   9.542  71.941  1.00  0.00    -0.479 C  
BRANCH  10  11
HETATM   11  C   UNL     1     -11.282   8.883  72.057  1.00  0.00    -0.422 C  
BRANCH  11  12
HETATM   12  C   UNL     1     -11.277   7.419  72.431  1.00  0.00    -0.337 C  
HETATM   13  C   UNL     1     -11.364   6.333  71.638  1.00  0.00    -0.347 C  
BRANCH  13  14
HETATM   14  C   UNL     1     -11.577   6.348  70.157  1.00  0.00    -0.449 C  
BRANCH  14  15
HETATM   15  C   UNL     1     -10.332   6.091  69.361  1.00  0.00    -0.298 C  
HETATM   16  C   UNL     1      -9.763   7.021  68.576  1.00  0.00    -0.141 C  
BRANCH  16  17
HETATM   17  C   UNL     1     -10.375   8.377  68.380  1.00  0.00    -0.239 C  
BRANCH  17  18
HETATM   18  C   UNL     1      -9.500   9.326  67.580  1.00  0.00    -0.160 C  
BRANCH  18  19
HETATM   19  C   UNL     1      -9.663   9.047  66.089  1.00  0.00    -0.354 C  
HETATM   20  C   UNL     1      -9.489  10.302  65.266  1.00  0.00    -0.240 C  
HETATM   21  O   UNL     1      -9.258  11.411  65.720  1.00  0.00    -0.214 OA 
HETATM   22  O   UNL     1      -9.616  10.064  63.944  1.00  0.00    -0.283 OA 
ENDBRANCH  18  19
ENDBRANCH  17  18
ENDBRANCH  16  17
ENDBRANCH  14  15
ENDBRANCH  13  14
ENDBRANCH  11  12
ENDBRANCH  10  11
ENDBRANCH   8   9
ENDBRANCH   7   8
ENDBRANCH   5   6
ENDBRANCH   4   5
ENDBRANCH   2   3
TORSDOF 12
ENDMDL
MODEL       97
REMARK 921   NORMALIZED FREE ENERGY PREDICTED BY IDOCK:   -4.47 KCAL/MOL
REMARK 922        TOTAL FREE ENERGY PREDICTED BY IDOCK:  -10.11 KCAL/MOL
REMARK 923 INTER-LIGAND FREE ENERGY PREDICTED BY IDOCK:   -8.68 KCAL/MOL
REMARK 924 INTRA-LIGAND FREE ENERGY PREDICTED BY IDOCK:   -1.43 KCAL/MOL
REMARK 927      BINDING AFFINITY PREDICTED BY RF-SCORE:    0.00 PKD
ROOT
HETATM    1  C   UNL     1      -8.540   8.643  71.366  1.00  0.00    -0.247 C  
HETATM    2  C   UNL     1      -9.937   8.168  71.735  1.00  0.00    -0.264 C  
ENDROOT
BRANCH   2   3
HETATM    3  C   UNL     1     -10.448   7.127  70.777  1.00  0.00    -0.227 C  
HETATM    4  C   UNL     1     -11.621   6.475  70.884  1.00  0.00    -0.417 C  
BRANCH   4   5
HETATM    5  C   UNL     1     -12.625   6.719  71.972  1.00  0.00    -0.259 C  
BRANCH   5   6
HETATM    6  C   UNL     1     -13.918   7.296  71.464  1.00  0.00    -0.486 C  
HETATM    7  C   UNL     1     -14.311   8.567  71.627  1.00  0.00    -0.497 C  
BRANCH   7   8
HETATM    8  C   UNL     1     -13.440   9.616  72.247  1.00  0.00    -0.488 C  
BRANCH   8   9
HETATM    9  C   UNL     1     -12.846  10.538  71.225  1.00  0.00    -0.532 C  
HETATM   10  C   UNL     1     -12.822  11.881  71.299  1.00  0.00    -0.391 C  
BRANCH  10  11
HETATM   11  C   UNL     1     -13.395  12.730  72.402  1.00  0.00    -0.479 C  
BRANCH  11  12
HETATM   12  C   UNL     1     -14.198  13.938  71.975  1.00  0.00    -0.536 C  
HETATM   13  C   UNL     1     -13.820  14.999  71.237  1.00  0.00    -0.528 C  
BRANCH  13  14
HETATM   14  C   UNL     1     -12.436  15.262  70.729  1.00  0.00    -0.457 C  
BRANCH  14  15
HETATM   15  C   UNL     1     -12.325  15.249  69.234  1.00  0.00    -0.128 C  
HETATM   16  C   UNL     1     -11.297  15.806  68.573  1.00  0.00    -0.374 C  
BRANCH  16  17
HETATM   17  C   UNL     1     -10.207  16.552  69.285  1.00  0.00    -0.290 C  
BRANCH  17  18
HETATM   18  C   UNL     1      -9.680  17.744  68.504  1.00  0.00    -0.343 C  
BRANCH  18  19
HETATM   19  C   UNL     1     -10.688  18.146  67.432  1.00  0.00    -0.355 C  
HETATM   20  C   UNL     1     -10.081  18.088  66.049  1.00  0.00    -0.266 C  
HETATM   21  O   UNL     1      -8.929  17.774  65.802  1.00  0.00    -0.509 OA 
HETATM   22  O   UNL     1     -10.969  18.427  65.092  1.00  0.00    -0.604 OA 
ENDBRANCH  18  19
ENDBRANCH  17  18
ENDBRANCH  16  17
ENDBRANCH  14  15
ENDBRANCH  13  14
ENDBRANCH  11  12
ENDBRANCH  10  11
ENDBRANCH   8   9
ENDBRANCH   7   8
ENDBRANCH   5   6
ENDBRANCH   4   5
ENDBRANCH   2   3
TORSDOF 12
ENDMDL
MODEL       98
REMARK 921   NORMALIZED FREE ENERGY PREDICTED BY IDOCK:   -4.47 KCAL/MOL
REMARK 922        TOTAL FREE ENERGY PREDICTED BY IDOCK:  -10.11 KCAL/MOL
REMARK 923 INTER-LIGAND FREE ENERGY PREDICTED BY IDOCK:   -7.54 KCAL/MOL
REMARK 924 INTRA-LIGAND FREE ENERGY PREDICTED BY IDOCK:   -2.57 KCAL/MOL
REMARK 927      BINDING AFFINITY PREDICTED BY RF-SCORE:    0.00 PKD
ROOT
HETATM    1  C   UNL     1      -9.892  10.502  63.586  1.00  0.00    -0.354 C  
HETATM    2  C   UNL     1     -10.193  11.990  63.668  1.00  0.00    -0.470 C  
ENDROOT
BRANCH   2   3
HETATM    3  C   UNL     1     -11.671  12.266  63.650  1.00  0.00    -0.591 C  
HETATM    4  C   UNL     1     -12.398  12.701  64.696  1.00  0.00    -0.546 C  
BRANCH   4   5
HETATM    5  C   UNL     1     -11.828  13.013  66.048  1.00  0.00    -0.471 C  
BRANCH   5   6
HETATM    6  C   UNL     1     -10.609  13.892  65.987  1.00  0.00    -0.293 C  
HETATM    7  C   UNL     1      -9.529  13.768  66.772  1.00  0.00    -0.281 C  
BRANCH   7   8
HETATM    8  C   UNL     1      -9.354  12.643  67.745  1.00  0.00    -0.198 C  
BRANCH   8   9
HETATM    9  C   UNL     1      -8.800  11.412  67.095  1.00  0.00    -0.156 C  
HETATM   10  C   UNL     1      -9.381  10.197  67.089  1.00  0.00    -0.176 C  
BRANCH  10  11
HETATM   11  C   UNL     1     -10.685   9.823  67.742  1.00  0.00    -0.329 C  
BRANCH  11  12
HETATM   12  C   UNL     1     -10.657   9.633  69.241  1.00  0.00    -0.236 C  
HETATM   13  C   UNL     1     -11.423  10.204  70.190  1.00  0.00    -0.368 C  
BRANCH  13  14
HETATM   14  C   UNL     1     -12.458  11.260  69.959  1.00  0.00    -0.251 C  
BRANCH  14  15
HETATM   15  C   UNL     1     -12.527  12.291  71.046  1.00  0.00    -0.361 C  
HETATM   16  C   UNL     1     -12.354  13.604  70.819  1.00  0.00    -0.446 C  
BRANCH  16  17
HETATM   17  C   UNL     1     -12.006  14.135  69.459  1.00  0.00    -0.389 C  
BRANCH  17  18
HETATM   18  C   UNL     1     -11.848  15.645  69.422  1.00  0.00    -0.391 C  
BRANCH  18  19
HETATM   19  C   UNL     1     -10.370  16.014  69.506  1.00  0.00    -0.278 C  
HETATM   20  C   UNL     1     -10.022  17.135  68.555  1.00  0.00    -0.309 C  
HETATM   21  O   UNL     1     -10.807  17.682  67.799  1.00  0.00    -0.367 OA 
HETATM   22  O   UNL     1      -8.719  17.479  68.633  1.00  0.00    -0.279 OA 
ENDBRANCH  18  19
ENDBRANCH  17  18
ENDBRANCH  16  17
ENDBRANCH  14  15
ENDBRANCH  13  14
ENDBRANCH  11  12
ENDBRANCH  10  11
ENDBRANCH   8   9
ENDBRANCH   7   8
ENDBRANCH   5   6
ENDBRANCH   4   5
ENDBRANCH   2   3
TORSDOF 12
ENDMDL
MODEL       99
REMARK 921   NORMALIZED FREE ENERGY PREDICTED BY IDOCK:   -4.47 KCAL/MOL
REMARK 922        TOTAL FREE ENERGY PREDICTED BY IDOCK:  -10.11 KCAL/MOL
REMARK 923 INTER-LIGAND FREE ENERGY PREDICTED BY IDOCK:   -8.17 KCAL/MOL
REMARK 924 INTRA-LIGAND FREE ENERGY PREDICTED BY IDOCK:   -1.94 KCAL/MOL
REMARK 927      BINDING AFFINITY PREDICTED BY RF-SCORE:    0.00 PKD
ROOT
HETATM    1  C   UNL     1     -13.193   9.127  72.200  1.00  0.00    -0.524 C  
HETATM    2  C   UNL     1     -11.750   8.654  72.128  1.00  0.00    -0.442 C  
ENDROOT
BRANCH   2   3
HETATM    3  C   UNL     1     -11.611   7.212  72.531  1.00  0.00    -0.265 C  
HETATM    4  C   UNL     1     -11.519   6.169  71.683  1.00  0.00    -0.331 C  
BRANCH   4   5
HETATM    5  C   UNL     1     -11.508   6.296  70.188  1.00  0.00    -0.452 C  
BRANCH   5   6
HETATM    6  C   UNL     1     -10.278   5.705  69.555  1.00  0.00    -0.320 C  
HETATM    7  C   UNL     1      -9.916   5.872  68.275  1.00  0.00    -0.177 C  
BRANCH   7   8
HETATM    8  C   UNL     1     -10.645   6.780  67.333  1.00  0.00    -0.372 C  
BRANCH   8   9
HETATM    9  C   UNL     1      -9.746   7.821  66.738  1.00  0.00    -0.296 C  
HETATM   10  C   UNL     1      -9.848   9.149  66.929  1.00  0.00    -0.280 C  
BRANCH  10  11
HETATM   11  C   UNL     1     -10.887   9.860  67.755  1.00  0.00    -0.321 C  
BRANCH  11  12
HETATM   12  C   UNL     1     -10.478  10.256  69.155  1.00  0.00    -0.246 C  
HETATM   13  C   UNL     1     -11.022  11.174  69.977  1.00  0.00    -0.079 C  
BRANCH  13  14
HETATM   14  C   UNL     1     -12.147  12.098  69.633  1.00  0.00    -0.283 C  
BRANCH  14  15
HETATM   15  C   UNL     1     -11.724  13.523  69.432  1.00  0.00    -0.381 C  
HETATM   16  C   UNL     1     -11.685  14.110  68.225  1.00  0.00    -0.383 C  
BRANCH  16  17
HETATM   17  C   UNL     1     -11.997  13.357  66.965  1.00  0.00    -0.429 C  
BRANCH  17  18
HETATM   18  C   UNL     1     -11.062  13.687  65.815  1.00  0.00    -0.292 C  
BRANCH  18  19
HETATM   19  C   UNL     1     -11.730  14.688  64.877  1.00  0.00    -0.403 C  
HETATM   20  C   UNL     1     -10.893  15.934  64.705  1.00  0.00    -0.324 C  
HETATM   21  O   UNL     1      -9.820  16.137  65.250  1.00  0.00    -0.452 OA 
HETATM   22  O   UNL     1     -11.467  16.820  63.865  1.00  0.00    -1.116 OA 
ENDBRANCH  18  19
ENDBRANCH  17  18
ENDBRANCH  16  17
ENDBRANCH  14  15
ENDBRANCH  13  14
ENDBRANCH  11  12
ENDBRANCH  10  11
ENDBRANCH   8   9
ENDBRANCH   7   8
ENDBRANCH   5   6
ENDBRANCH   4   5
ENDBRANCH   2   3
TORSDOF 12
ENDMDL
MODEL      100
REMARK 921   NORMALIZED FREE ENERGY PREDICTED BY IDOCK:   -4.46 KCAL/MOL
REMARK 922        TOTAL FREE ENERGY PREDICTED BY IDOCK:  -10.09 KCAL/MOL
REMARK 923 INTER-LIGAND FREE ENERGY PREDICTED BY IDOCK:   -7.68 KCAL/MOL
REMARK 924 INTRA-LIGAND FREE ENERGY PREDICTED BY IDOCK:   -2.42 KCAL/MOL
REMARK 927      BINDING AFFINITY PREDICTED BY RF-SCORE:    0.00 PKD
ROOT
HETATM    1  C   UNL     1     -11.320   7.805  72.697  1.00  0.00    -0.449 C  
HETATM    2  C   UNL     1     -12.520   8.089  71.808  1.00  0.00    -0.355 C  
ENDROOT
BRANCH   2   3
HETATM    3  C   UNL     1     -13.180   9.396  72.154  1.00  0.00    -0.541 C  
HETATM    4  C   UNL     1     -12.815  10.604  71.684  1.00  0.00    -0.570 C  
BRANCH   4   5
HETATM    5  C   UNL     1     -11.701  10.827  70.704  1.00  0.00    -0.442 C  
BRANCH   5   6
HETATM    6  C   UNL     1     -11.906  12.043  69.843  1.00  0.00    -0.405 C  
HETATM    7  C   UNL     1     -11.709  12.091  68.518  1.00  0.00    -0.387 C  
BRANCH   7   8
HETATM    8  C   UNL     1     -11.366  10.883  67.701  1.00  0.00    -0.345 C  
BRANCH   8   9
HETATM    9  C   UNL     1     -11.038  11.233  66.281  1.00  0.00    -0.229 C  
HETATM   10  C   UNL     1      -9.917  10.883  65.624  1.00  0.00    -0.305 C  
BRANCH  10  11
HETATM   11  C   UNL     1      -8.762  10.093  66.179  1.00  0.00    -0.154 C  
BRANCH  11  12
HETATM   12  C   UNL     1      -7.460  10.839  66.359  1.00  0.00    -0.142 C  
HETATM   13  C   UNL     1      -7.114  11.743  67.296  1.00  0.00    -0.140 C  
BRANCH  13  14
HETATM   14  C   UNL     1      -8.016  12.288  68.359  1.00  0.00    -0.152 C  
BRANCH  14  15
HETATM   15  C   UNL     1      -7.884  13.767  68.567  1.00  0.00    -0.132 C  
HETATM   16  C   UNL     1      -8.421  14.673  67.734  1.00  0.00    -0.178 C  
BRANCH  16  17
HETATM   17  C   UNL     1      -9.141  14.270  66.481  1.00  0.00    -0.212 C  
BRANCH  17  18
HETATM   18  C   UNL     1     -10.458  15.000  66.278  1.00  0.00    -0.309 C  
BRANCH  18  19
HETATM   19  C   UNL     1     -10.856  14.949  64.806  1.00  0.00    -0.382 C  
HETATM   20  C   UNL     1     -12.274  14.460  64.630  1.00  0.00    -0.464 C  
HETATM   21  O   UNL     1     -13.020  14.131  65.538  1.00  0.00    -0.657 OA 
HETATM   22  O   UNL     1     -12.641  14.426  63.332  1.00  0.00    -0.729 OA 
ENDBRANCH  18  19
ENDBRANCH  17  18
ENDBRANCH  16  17
ENDBRANCH  14  15
ENDBRANCH  13  14
ENDBRANCH  11  12
ENDBRANCH  10  11
ENDBRANCH   8   9
ENDBRANCH   7   8
ENDBRANCH   5   6
ENDBRANCH   4   5
ENDBRANCH   2   3
TORSDOF 12
ENDMDL
MODEL      101
REMARK 921   NORMALIZED FREE ENERGY PREDICTED BY IDOCK:   -4.45 KCAL/MOL
REMARK 922        TOTAL FREE ENERGY PREDICTED BY IDOCK:  -10.08 KCAL/MOL
REMARK 923 INTER-LIGAND FREE ENERGY PREDICTED BY IDOCK:   -7.46 KCAL/MOL
REMARK 924 INTRA-LIGAND FREE ENERGY PREDICTED BY IDOCK:   -2.62 KCAL/MOL
REMARK 927      BINDING AFFINITY PREDICTED BY RF-SCORE:    0.00 PKD
ROOT
HETATM    1  C   UNL     1     -12.686  14.004  65.364  1.00  0.00    -0.499 C  
HETATM    2  C   UNL     1     -12.607  12.619  64.742  1.00  0.00    -0.530 C  
ENDROOT
BRANCH   2   3
HETATM    3  C   UNL     1     -11.441  12.491  63.801  1.00  0.00    -0.542 C  
HETATM    4  C   UNL     1     -10.415  11.630  63.941  1.00  0.00    -0.433 C  
BRANCH   4   5
HETATM    5  C   UNL     1     -10.297  10.632  65.055  1.00  0.00    -0.341 C  
BRANCH   5   6
HETATM    6  C   UNL     1      -8.957  10.666  65.739  1.00  0.00    -0.200 C  
HETATM    7  C   UNL     1      -8.594  11.551  66.678  1.00  0.00    -0.176 C  
BRANCH   7   8
HETATM    8  C   UNL     1      -9.538  12.561  67.254  1.00  0.00    -0.205 C  
BRANCH   8   9
HETATM    9  C   UNL     1      -9.315  13.933  66.693  1.00  0.00    -0.282 C  
HETATM   10  C   UNL     1      -9.231  15.070  67.408  1.00  0.00    -0.200 C  
BRANCH  10  11
HETATM   11  C   UNL     1      -9.362  15.203  68.901  1.00  0.00    -0.207 C  
BRANCH  11  12
HETATM   12  C   UNL     1     -10.626  15.858  69.411  1.00  0.00    -0.263 C  
HETATM   13  C   UNL     1     -11.824  15.308  69.685  1.00  0.00    -0.363 C  
BRANCH  13  14
HETATM   14  C   UNL     1     -12.203  13.879  69.452  1.00  0.00    -0.338 C  
BRANCH  14  15
HETATM   15  C   UNL     1     -12.317  13.068  70.709  1.00  0.00    -0.394 C  
HETATM   16  C   UNL     1     -12.172  11.733  70.731  1.00  0.00    -0.424 C  
BRANCH  16  17
HETATM   17  C   UNL     1     -11.955  10.936  69.478  1.00  0.00    -0.401 C  
BRANCH  17  18
HETATM   18  C   UNL     1     -11.065   9.722  69.680  1.00  0.00    -0.251 C  
BRANCH  18  19
HETATM   19  C   UNL     1     -10.863   9.470  71.171  1.00  0.00    -0.425 C  
HETATM   20  C   UNL     1     -11.516   8.181  71.611  1.00  0.00    -0.274 C  
HETATM   21  O   UNL     1     -12.141   7.427  70.882  1.00  0.00    -0.307 OA 
HETATM   22  O   UNL     1     -11.330   7.941  72.926  1.00  0.00    -0.406 OA 
ENDBRANCH  18  19
ENDBRANCH  17  18
ENDBRANCH  16  17
ENDBRANCH  14  15
ENDBRANCH  13  14
ENDBRANCH  11  12
ENDBRANCH  10  11
ENDBRANCH   8   9
ENDBRANCH   7   8
ENDBRANCH   5   6
ENDBRANCH   4   5
ENDBRANCH   2   3
TORSDOF 12
ENDMDL
MODEL      102
REMARK 921   NORMALIZED FREE ENERGY PREDICTED BY IDOCK:   -4.45 KCAL/MOL
REMARK 922        TOTAL FREE ENERGY PREDICTED BY IDOCK:  -10.08 KCAL/MOL
REMARK 923 INTER-LIGAND FREE ENERGY PREDICTED BY IDOCK:   -7.89 KCAL/MOL
REMARK 924 INTRA-LIGAND FREE ENERGY PREDICTED BY IDOCK:   -2.19 KCAL/MOL
REMARK 927      BINDING AFFINITY PREDICTED BY RF-SCORE:    0.00 PKD
ROOT
HETATM    1  C   UNL     1      -8.336   8.204  72.038  1.00  0.00    -0.199 C  
HETATM    2  C   UNL     1      -9.810   8.554  71.908  1.00  0.00    -0.358 C  
ENDROOT
BRANCH   2   3
HETATM    3  C   UNL     1     -10.682   7.615  72.694  1.00  0.00    -0.377 C  
HETATM    4  C   UNL     1     -11.609   6.789  72.174  1.00  0.00    -0.324 C  
BRANCH   4   5
HETATM    5  C   UNL     1     -11.891   6.654  70.706  1.00  0.00    -0.441 C  
BRANCH   5   6
HETATM    6  C   UNL     1     -10.857   5.840  69.979  1.00  0.00    -0.403 C  
HETATM    7  C   UNL     1     -10.429   6.076  68.730  1.00  0.00    -0.307 C  
BRANCH   7   8
HETATM    8  C   UNL     1     -10.854   7.273  67.936  1.00  0.00    -0.184 C  
BRANCH   8   9
HETATM    9  C   UNL     1      -9.722   8.224  67.693  1.00  0.00    -0.201 C  
HETATM   10  C   UNL     1      -9.821   9.565  67.637  1.00  0.00    -0.206 C  
BRANCH  10  11
HETATM   11  C   UNL     1     -11.078  10.379  67.787  1.00  0.00    -0.365 C  
BRANCH  11  12
HETATM   12  C   UNL     1     -11.290  11.053  69.123  1.00  0.00    -0.348 C  
HETATM   13  C   UNL     1     -11.626  12.328  69.394  1.00  0.00    -0.378 C  
BRANCH  13  14
HETATM   14  C   UNL     1     -11.788  13.423  68.386  1.00  0.00    -0.401 C  
BRANCH  14  15
HETATM   15  C   UNL     1     -10.658  14.409  68.373  1.00  0.00    -0.248 C  
HETATM   16  C   UNL     1      -9.727  14.440  67.406  1.00  0.00    -0.220 C  
BRANCH  16  17
HETATM   17  C   UNL     1      -9.706  13.435  66.291  1.00  0.00    -0.280 C  
BRANCH  17  18
HETATM   18  C   UNL     1     -10.243  13.976  64.978  1.00  0.00    -0.395 C  
BRANCH  18  19
HETATM   19  C   UNL     1     -11.019  12.885  64.247  1.00  0.00    -0.419 C  
HETATM   20  C   UNL     1     -12.508  13.028  64.452  1.00  0.00    -0.337 C  
HETATM   21  O   UNL     1     -13.043  13.895  65.124  1.00  0.00    -0.773 OA 
HETATM   22  O   UNL     1     -13.205  12.077  63.796  1.00  0.00    -0.723 OA 
ENDBRANCH  18  19
ENDBRANCH  17  18
ENDBRANCH  16  17
ENDBRANCH  14  15
ENDBRANCH  13  14
ENDBRANCH  11  12
ENDBRANCH  10  11
ENDBRANCH   8   9
ENDBRANCH   7   8
ENDBRANCH   5   6
ENDBRANCH   4   5
ENDBRANCH   2   3
TORSDOF 12
ENDMDL
MODEL      103
REMARK 921   NORMALIZED FREE ENERGY PREDICTED BY IDOCK:   -4.45 KCAL/MOL
REMARK 922        TOTAL FREE ENERGY PREDICTED BY IDOCK:  -10.07 KCAL/MOL
REMARK 923 INTER-LIGAND FREE ENERGY PREDICTED BY IDOCK:   -7.83 KCAL/MOL
REMARK 924 INTRA-LIGAND FREE ENERGY PREDICTED BY IDOCK:   -2.25 KCAL/MOL
REMARK 927      BINDING AFFINITY PREDICTED BY RF-SCORE:    0.00 PKD
ROOT
HETATM    1  C   UNL     1     -12.565  13.726  65.250  1.00  0.00    -0.510 C  
HETATM    2  C   UNL     1     -12.637  12.406  64.499  1.00  0.00    -0.477 C  
ENDROOT
BRANCH   2   3
HETATM    3  C   UNL     1     -11.432  12.190  63.625  1.00  0.00    -0.566 C  
HETATM    4  C   UNL     1     -10.350  11.458  63.952  1.00  0.00    -0.434 C  
BRANCH   4   5
HETATM    5  C   UNL     1     -10.197  10.709  65.244  1.00  0.00    -0.351 C  
BRANCH   5   6
HETATM    6  C   UNL     1      -9.340   9.480  65.116  1.00  0.00    -0.316 C  
HETATM    7  C   UNL     1      -9.262   8.497  66.023  1.00  0.00    -0.262 C  
BRANCH   7   8
HETATM    8  C   UNL     1     -10.127   8.447  67.246  1.00  0.00    -0.321 C  
BRANCH   8   9
HETATM    9  C   UNL     1      -9.359   8.047  68.469  1.00  0.00    -0.142 C  
HETATM   10  C   UNL     1      -9.839   7.323  69.497  1.00  0.00    -0.163 C  
BRANCH  10  11
HETATM   11  C   UNL     1     -11.237   6.785  69.639  1.00  0.00    -0.345 C  
BRANCH  11  12
HETATM   12  C   UNL     1     -11.685   6.435  71.040  1.00  0.00    -0.358 C  
HETATM   13  C   UNL     1     -11.843   7.234  72.112  1.00  0.00    -0.324 C  
BRANCH  13  14
HETATM   14  C   UNL     1     -11.513   8.693  72.171  1.00  0.00    -0.443 C  
BRANCH  14  15
HETATM   15  C   UNL     1     -12.667   9.591  71.841  1.00  0.00    -0.496 C  
HETATM   16  C   UNL     1     -12.635  10.481  70.836  1.00  0.00    -0.493 C  
BRANCH  16  17
HETATM   17  C   UNL     1     -11.404  10.696  70.005  1.00  0.00    -0.400 C  
BRANCH  17  18
HETATM   18  C   UNL     1     -11.696  11.262  68.626  1.00  0.00    -0.391 C  
BRANCH  18  19
HETATM   19  C   UNL     1     -11.761  12.785  68.694  1.00  0.00    -0.360 C  
HETATM   20  C   UNL     1     -10.457  13.417  68.269  1.00  0.00    -0.250 C  
HETATM   21  O   UNL     1      -9.461  12.803  67.921  1.00  0.00    -0.194 OA 
HETATM   22  O   UNL     1     -10.509  14.765  68.311  1.00  0.00    -0.233 OA 
ENDBRANCH  18  19
ENDBRANCH  17  18
ENDBRANCH  16  17
ENDBRANCH  14  15
ENDBRANCH  13  14
ENDBRANCH  11  12
ENDBRANCH  10  11
ENDBRANCH   8   9
ENDBRANCH   7   8
ENDBRANCH   5   6
ENDBRANCH   4   5
ENDBRANCH   2   3
TORSDOF 12
ENDMDL
MODEL      104
REMARK 921   NORMALIZED FREE ENERGY PREDICTED BY IDOCK:   -4.44 KCAL/MOL
REMARK 922        TOTAL FREE ENERGY PREDICTED BY IDOCK:  -10.06 KCAL/MOL
REMARK 923 INTER-LIGAND FREE ENERGY PREDICTED BY IDOCK:   -7.52 KCAL/MOL
REMARK 924 INTRA-LIGAND FREE ENERGY PREDICTED BY IDOCK:   -2.54 KCAL/MOL
REMARK 927      BINDING AFFINITY PREDICTED BY RF-SCORE:    0.00 PKD
ROOT
HETATM    1  C   UNL     1     -10.620  12.109  64.502  1.00  0.00    -0.350 C  
HETATM    2  C   UNL     1     -12.030  12.334  65.025  1.00  0.00    -0.413 C  
ENDROOT
BRANCH   2   3
HETATM    3  C   UNL     1     -12.163  13.654  65.732  1.00  0.00    -0.503 C  
HETATM    4  C   UNL     1     -12.069  13.842  67.061  1.00  0.00    -0.451 C  
BRANCH   4   5
HETATM    5  C   UNL     1     -11.777  12.751  68.049  1.00  0.00    -0.405 C  
BRANCH   5   6
HETATM    6  C   UNL     1     -11.907  13.199  69.479  1.00  0.00    -0.383 C  
HETATM    7  C   UNL     1     -12.244  12.407  70.507  1.00  0.00    -0.382 C  
BRANCH   7   8
HETATM    8  C   UNL     1     -12.423  10.925  70.369  1.00  0.00    -0.411 C  
BRANCH   8   9
HETATM    9  C   UNL     1     -13.265  10.351  71.468  1.00  0.00    -0.485 C  
HETATM   10  C   UNL     1     -13.011   9.213  72.140  1.00  0.00    -0.498 C  
BRANCH  10  11
HETATM   11  C   UNL     1     -11.850   8.281  71.919  1.00  0.00    -0.380 C  
BRANCH  11  12
HETATM   12  C   UNL     1     -12.138   7.020  71.137  1.00  0.00    -0.412 C  
HETATM   13  C   UNL     1     -11.534   6.543  70.032  1.00  0.00    -0.476 C  
BRANCH  13  14
HETATM   14  C   UNL     1     -10.454   7.232  69.258  1.00  0.00    -0.221 C  
BRANCH  14  15
HETATM   15  C   UNL     1     -10.577   7.076  67.772  1.00  0.00    -0.298 C  
HETATM   16  C   UNL     1     -10.615   8.121  66.929  1.00  0.00    -0.311 C  
BRANCH  16  17
HETATM   17  C   UNL     1     -10.609   9.539  67.421  1.00  0.00    -0.337 C  
BRANCH  17  18
HETATM   18  C   UNL     1      -9.230  10.175  67.418  1.00  0.00    -0.156 C  
BRANCH  18  19
HETATM   19  C   UNL     1      -8.835  10.560  68.841  1.00  0.00    -0.166 C  
HETATM   20  C   UNL     1      -7.729   9.677  69.369  1.00  0.00    -0.101 C  
HETATM   21  O   UNL     1      -7.212   8.758  68.756  1.00  0.00    -0.072 OA 
HETATM   22  O   UNL     1      -7.361  10.020  70.622  1.00  0.00    -0.308 OA 
ENDBRANCH  18  19
ENDBRANCH  17  18
ENDBRANCH  16  17
ENDBRANCH  14  15
ENDBRANCH  13  14
ENDBRANCH  11  12
ENDBRANCH  10  11
ENDBRANCH   8   9
ENDBRANCH   7   8
ENDBRANCH   5   6
ENDBRANCH   4   5
ENDBRANCH   2   3
TORSDOF 12
ENDMDL
MODEL      105
REMARK 921   NORMALIZED FREE ENERGY PREDICTED BY IDOCK:   -4.43 KCAL/MOL
REMARK 922        TOTAL FREE ENERGY PREDICTED BY IDOCK:  -10.05 KCAL/MOL
REMARK 923 INTER-LIGAND FREE ENERGY PREDICTED BY IDOCK:   -8.38 KCAL/MOL
REMARK 924 INTRA-LIGAND FREE ENERGY PREDICTED BY IDOCK:   -1.67 KCAL/MOL
REMARK 927      BINDING AFFINITY PREDICTED BY RF-SCORE:    0.00 PKD
ROOT
HETATM    1  C   UNL     1      -8.133  20.342  66.959  1.00  0.00    -0.365 C  
HETATM    2  C   UNL     1      -9.614  20.008  67.048  1.00  0.00    -0.542 C  
ENDROOT
BRANCH   2   3
HETATM    3  C   UNL     1     -10.031  19.667  68.452  1.00  0.00    -0.543 C  
HETATM    4  C   UNL     1     -10.202  18.422  68.936  1.00  0.00    -0.284 C  
BRANCH   4   5
HETATM    5  C   UNL     1      -9.966  17.169  68.144  1.00  0.00    -0.297 C  
BRANCH   5   6
HETATM    6  C   UNL     1     -11.159  16.254  68.117  1.00  0.00    -0.329 C  
HETATM    7  C   UNL     1     -11.180  15.031  67.570  1.00  0.00    -0.333 C  
BRANCH   7   8
HETATM    8  C   UNL     1      -9.958  14.368  67.010  1.00  0.00    -0.257 C  
BRANCH   8   9
HETATM    9  C   UNL     1     -10.038  14.193  65.524  1.00  0.00    -0.360 C  
HETATM   10  C   UNL     1     -10.645  13.176  64.884  1.00  0.00    -0.366 C  
BRANCH  10  11
HETATM   11  C   UNL     1     -11.346  12.006  65.522  1.00  0.00    -0.381 C  
BRANCH  11  12
HETATM   12  C   UNL     1     -10.518  11.149  66.451  1.00  0.00    -0.311 C  
HETATM   13  C   UNL     1     -10.745  10.814  67.736  1.00  0.00    -0.296 C  
BRANCH  13  14
HETATM   14  C   UNL     1     -11.875  11.311  68.582  1.00  0.00    -0.369 C  
BRANCH  14  15
HETATM   15  C   UNL     1     -11.681  11.082  70.051  1.00  0.00    -0.437 C  
HETATM   16  C   UNL     1     -12.167  11.910  70.990  1.00  0.00    -0.275 C  
BRANCH  16  17
HETATM   17  C   UNL     1     -12.888  13.177  70.633  1.00  0.00    -0.100 C  
BRANCH  17  18
HETATM   18  C   UNL     1     -12.265  14.421  71.244  1.00  0.00    -0.429 C  
BRANCH  18  19
HETATM   19  C   UNL     1     -12.669  14.535  72.711  1.00  0.00    -0.461 C  
HETATM   20  C   UNL     1     -12.379  15.911  73.262  1.00  0.00    -0.523 C  
HETATM   21  O   UNL     1     -11.874  16.826  72.633  1.00  0.00    -0.442 OA 
HETATM   22  O   UNL     1     -12.747  16.027  74.555  1.00  0.00    -0.683 OA 
ENDBRANCH  18  19
ENDBRANCH  17  18
ENDBRANCH  16  17
ENDBRANCH  14  15
ENDBRANCH  13  14
ENDBRANCH  11  12
ENDBRANCH  10  11
ENDBRANCH   8   9
ENDBRANCH   7   8
ENDBRANCH   5   6
ENDBRANCH   4   5
ENDBRANCH   2   3
TORSDOF 12
ENDMDL
MODEL      106
REMARK 921   NORMALIZED FREE ENERGY PREDICTED BY IDOCK:   -4.43 KCAL/MOL
REMARK 922        TOTAL FREE ENERGY PREDICTED BY IDOCK:  -10.04 KCAL/MOL
REMARK 923 INTER-LIGAND FREE ENERGY PREDICTED BY IDOCK:   -7.89 KCAL/MOL
REMARK 924 INTRA-LIGAND FREE ENERGY PREDICTED BY IDOCK:   -2.16 KCAL/MOL
REMARK 927      BINDING AFFINITY PREDICTED BY RF-SCORE:    0.00 PKD
ROOT
HETATM    1  C   UNL     1      -9.889  10.086  65.459  1.00  0.00    -0.373 C  
HETATM    2  C   UNL     1     -10.055  11.502  64.932  1.00  0.00    -0.314 C  
ENDROOT
BRANCH   2   3
HETATM    3  C   UNL     1     -11.170  11.601  63.928  1.00  0.00    -0.479 C  
HETATM    4  C   UNL     1     -12.125  12.550  63.912  1.00  0.00    -0.581 C  
BRANCH   4   5
HETATM    5  C   UNL     1     -12.202  13.687  64.888  1.00  0.00    -0.447 C  
BRANCH   5   6
HETATM    6  C   UNL     1     -11.327  14.850  64.509  1.00  0.00    -0.306 C  
HETATM    7  C   UNL     1     -10.752  15.696  65.376  1.00  0.00    -0.424 C  
BRANCH   7   8
HETATM    8  C   UNL     1     -10.819  15.511  66.861  1.00  0.00    -0.301 C  
BRANCH   8   9
HETATM    9  C   UNL     1      -9.695  14.666  67.379  1.00  0.00    -0.218 C  
HETATM   10  C   UNL     1      -9.822  13.608  68.201  1.00  0.00    -0.236 C  
BRANCH  10  11
HETATM   11  C   UNL     1     -11.103  13.071  68.781  1.00  0.00    -0.311 C  
BRANCH  11  12
HETATM   12  C   UNL     1     -11.480  11.660  68.390  1.00  0.00    -0.360 C  
HETATM   13  C   UNL     1     -11.834  10.622  69.172  1.00  0.00    -0.287 C  
BRANCH  13  14
HETATM   14  C   UNL     1     -11.850  10.620  70.668  1.00  0.00    -0.463 C  
BRANCH  14  15
HETATM   15  C   UNL     1     -13.059   9.960  71.262  1.00  0.00    -0.487 C  
HETATM   16  C   UNL     1     -12.983   8.906  72.091  1.00  0.00    -0.473 C  
BRANCH  16  17
HETATM   17  C   UNL     1     -11.673   8.259  72.433  1.00  0.00    -0.463 C  
BRANCH  17  18
HETATM   18  C   UNL     1     -11.585   6.805  72.001  1.00  0.00    -0.327 C  
BRANCH  18  19
HETATM   19  C   UNL     1     -11.911   6.687  70.515  1.00  0.00    -0.430 C  
HETATM   20  C   UNL     1     -10.733   7.082  69.655  1.00  0.00    -0.241 C  
HETATM   21  O   UNL     1      -9.653   7.462  70.077  1.00  0.00    -0.168 OA 
HETATM   22  O   UNL     1     -11.005   6.967  68.338  1.00  0.00    -0.197 OA 
ENDBRANCH  18  19
ENDBRANCH  17  18
ENDBRANCH  16  17
ENDBRANCH  14  15
ENDBRANCH  13  14
ENDBRANCH  11  12
ENDBRANCH  10  11
ENDBRANCH   8   9
ENDBRANCH   7   8
ENDBRANCH   5   6
ENDBRANCH   4   5
ENDBRANCH   2   3
TORSDOF 12
ENDMDL
MODEL      107
REMARK 921   NORMALIZED FREE ENERGY PREDICTED BY IDOCK:   -4.43 KCAL/MOL
REMARK 922        TOTAL FREE ENERGY PREDICTED BY IDOCK:  -10.04 KCAL/MOL
REMARK 923 INTER-LIGAND FREE ENERGY PREDICTED BY IDOCK:   -7.51 KCAL/MOL
REMARK 924 INTRA-LIGAND FREE ENERGY PREDICTED BY IDOCK:   -2.53 KCAL/MOL
REMARK 927      BINDING AFFINITY PREDICTED BY RF-SCORE:    0.00 PKD
ROOT
HETATM    1  C   UNL     1     -11.033   9.989  69.997  1.00  0.00    -0.352 C  
HETATM    2  C   UNL     1     -12.016  11.137  69.830  1.00  0.00    -0.439 C  
ENDROOT
BRANCH   2   3
HETATM    3  C   UNL     1     -11.871  11.811  68.494  1.00  0.00    -0.365 C  
HETATM    4  C   UNL     1     -11.799  13.141  68.293  1.00  0.00    -0.384 C  
BRANCH   4   5
HETATM    5  C   UNL     1     -11.819  14.162  69.391  1.00  0.00    -0.378 C  
BRANCH   5   6
HETATM    6  C   UNL     1     -11.981  15.570  68.886  1.00  0.00    -0.306 C  
HETATM    7  C   UNL     1     -10.976  16.376  68.518  1.00  0.00    -0.350 C  
BRANCH   7   8
HETATM    8  C   UNL     1      -9.549  15.923  68.454  1.00  0.00    -0.208 C  
BRANCH   8   9
HETATM    9  C   UNL     1      -8.867  16.370  67.197  1.00  0.00    -0.214 C  
HETATM   10  C   UNL     1      -9.077  15.865  65.967  1.00  0.00    -0.363 C  
BRANCH  10  11
HETATM   11  C   UNL     1     -10.016  14.746  65.605  1.00  0.00    -0.390 C  
BRANCH  11  12
HETATM   12  C   UNL     1     -11.326  15.146  64.966  1.00  0.00    -0.381 C  
HETATM   13  C   UNL     1     -12.397  14.387  64.665  1.00  0.00    -0.435 C  
BRANCH  13  14
HETATM   14  C   UNL     1     -12.491  12.902  64.830  1.00  0.00    -0.517 C  
BRANCH  14  15
HETATM   15  C   UNL     1     -12.071  12.128  63.616  1.00  0.00    -0.648 C  
HETATM   16  C   UNL     1     -10.981  11.345  63.591  1.00  0.00    -0.443 C  
BRANCH  16  17
HETATM   17  C   UNL     1     -10.052  11.239  64.765  1.00  0.00    -0.338 C  
BRANCH  17  18
HETATM   18  C   UNL     1      -9.592   9.820  65.047  1.00  0.00    -0.333 C  
BRANCH  18  19
HETATM   19  C   UNL     1      -9.349   9.643  66.543  1.00  0.00    -0.212 C  
HETATM   20  C   UNL     1      -9.131   8.192  66.903  1.00  0.00    -0.154 C  
HETATM   21  O   UNL     1      -9.155   7.262  66.112  1.00  0.00    -0.166 OA 
HETATM   22  O   UNL     1      -8.899   8.026  68.222  1.00  0.00    -0.133 OA 
ENDBRANCH  18  19
ENDBRANCH  17  18
ENDBRANCH  16  17
ENDBRANCH  14  15
ENDBRANCH  13  14
ENDBRANCH  11  12
ENDBRANCH  10  11
ENDBRANCH   8   9
ENDBRANCH   7   8
ENDBRANCH   5   6
ENDBRANCH   4   5
ENDBRANCH   2   3
TORSDOF 12
ENDMDL
MODEL      108
REMARK 921   NORMALIZED FREE ENERGY PREDICTED BY IDOCK:   -4.43 KCAL/MOL
REMARK 922        TOTAL FREE ENERGY PREDICTED BY IDOCK:  -10.04 KCAL/MOL
REMARK 923 INTER-LIGAND FREE ENERGY PREDICTED BY IDOCK:   -8.03 KCAL/MOL
REMARK 924 INTRA-LIGAND FREE ENERGY PREDICTED BY IDOCK:   -2.01 KCAL/MOL
REMARK 927      BINDING AFFINITY PREDICTED BY RF-SCORE:    0.00 PKD
ROOT
HETATM    1  C   UNL     1     -12.049  15.625  70.740  1.00  0.00    -0.454 C  
HETATM    2  C   UNL     1     -12.581  14.224  70.480  1.00  0.00    -0.418 C  
ENDROOT
BRANCH   2   3
HETATM    3  C   UNL     1     -13.190  13.617  71.714  1.00  0.00    -0.477 C  
HETATM    4  C   UNL     1     -13.217  12.303  72.006  1.00  0.00    -0.508 C  
BRANCH   4   5
HETATM    5  C   UNL     1     -12.605  11.235  71.148  1.00  0.00    -0.501 C  
BRANCH   5   6
HETATM    6  C   UNL     1     -12.545   9.894  71.827  1.00  0.00    -0.506 C  
HETATM    7  C   UNL     1     -11.526   9.028  71.735  1.00  0.00    -0.442 C  
BRANCH   7   8
HETATM    8  C   UNL     1     -10.247   9.349  71.024  1.00  0.00    -0.369 C  
BRANCH   8   9
HETATM    9  C   UNL     1      -9.496   8.116  70.622  1.00  0.00    -0.174 C  
HETATM   10  C   UNL     1      -9.777   7.335  69.562  1.00  0.00    -0.158 C  
BRANCH  10  11
HETATM   11  C   UNL     1     -10.902   7.526  68.581  1.00  0.00    -0.044 C  
BRANCH  11  12
HETATM   12  C   UNL     1     -10.512   7.946  67.182  1.00  0.00    -0.414 C  
HETATM   13  C   UNL     1     -10.118   9.152  66.730  1.00  0.00    -0.341 C  
BRANCH  13  14
HETATM   14  C   UNL     1     -10.060  10.412  67.536  1.00  0.00    -0.231 C  
BRANCH  14  15
HETATM   15  C   UNL     1     -11.404  11.012  67.823  1.00  0.00    -0.365 C  
HETATM   16  C   UNL     1     -11.769  12.229  67.386  1.00  0.00    -0.405 C  
BRANCH  16  17
HETATM   17  C   UNL     1     -10.825  13.116  66.629  1.00  0.00    -0.292 C  
BRANCH  17  18
HETATM   18  C   UNL     1     -11.521  14.225  65.860  1.00  0.00    -0.335 C  
BRANCH  18  19
HETATM   19  C   UNL     1     -10.484  15.164  65.252  1.00  0.00    -0.434 C  
HETATM   20  C   UNL     1     -10.119  16.280  66.203  1.00  0.00    -0.344 C  
HETATM   21  O   UNL     1     -10.593  16.434  67.317  1.00  0.00    -0.314 OA 
HETATM   22  O   UNL     1      -9.190  17.108  65.682  1.00  0.00    -0.509 OA 
ENDBRANCH  18  19
ENDBRANCH  17  18
ENDBRANCH  16  17
ENDBRANCH  14  15
ENDBRANCH  13  14
ENDBRANCH  11  12
ENDBRANCH  10  11
ENDBRANCH   8   9
ENDBRANCH   7   8
ENDBRANCH   5   6
ENDBRANCH   4   5
ENDBRANCH   2   3
TORSDOF 12
ENDMDL
MODEL      109
REMARK 921   NORMALIZED FREE ENERGY PREDICTED BY IDOCK:   -4.42 KCAL/MOL
REMARK 922        TOTAL FREE ENERGY PREDICTED BY IDOCK:  -10.03 KCAL/MOL
REMARK 923 INTER-LIGAND FREE ENERGY PREDICTED BY IDOCK:   -8.20 KCAL/MOL
REMARK 924 INTRA-LIGAND FREE ENERGY PREDICTED BY IDOCK:   -1.84 KCAL/MOL
REMARK 927      BINDING AFFINITY PREDICTED BY RF-SCORE:    0.00 PKD
ROOT
HETATM    1  C   UNL     1     -12.005  14.299  66.771  1.00  0.00    -0.462 C  
HETATM    2  C   UNL     1     -12.187  13.544  65.464  1.00  0.00    -0.490 C  
ENDROOT
BRANCH   2   3
HETATM    3  C   UNL     1     -10.987  13.675  64.567  1.00  0.00    -0.405 C  
HETATM    4  C   UNL     1     -10.424  12.675  63.863  1.00  0.00    -0.441 C  
BRANCH   4   5
HETATM    5  C   UNL     1     -10.938  11.265  63.842  1.00  0.00    -0.382 C  
BRANCH   5   6
HETATM    6  C   UNL     1      -9.944  10.266  64.367  1.00  0.00    -0.331 C  
HETATM    7  C   UNL     1      -9.677  10.053  65.663  1.00  0.00    -0.336 C  
BRANCH   7   8
HETATM    8  C   UNL     1     -10.438  10.715  66.771  1.00  0.00    -0.303 C  
BRANCH   8   9
HETATM    9  C   UNL     1      -9.556  11.558  67.640  1.00  0.00    -0.176 C  
HETATM   10  C   UNL     1      -8.847  11.122  68.698  1.00  0.00    -0.155 C  
BRANCH  10  11
HETATM   11  C   UNL     1      -8.809   9.716  69.234  1.00  0.00    -0.164 C  
BRANCH  11  12
HETATM   12  C   UNL     1      -9.136   9.544  70.700  1.00  0.00    -0.236 C  
HETATM   13  C   UNL     1     -10.333   9.383  71.296  1.00  0.00    -0.363 C  
BRANCH  13  14
HETATM   14  C   UNL     1     -11.663   9.425  70.611  1.00  0.00    -0.302 C  
BRANCH  14  15
HETATM   15  C   UNL     1     -12.831   9.421  71.552  1.00  0.00    -0.442 C  
HETATM   16  C   UNL     1     -13.471  10.541  71.925  1.00  0.00    -0.358 C  
BRANCH  16  17
HETATM   17  C   UNL     1     -13.017  11.901  71.480  1.00  0.00    -0.427 C  
BRANCH  17  18
HETATM   18  C   UNL     1     -13.579  13.032  72.324  1.00  0.00    -0.643 C  
BRANCH  18  19
HETATM   19  C   UNL     1     -13.054  14.370  71.811  1.00  0.00    -0.428 C  
HETATM   20  C   UNL     1     -12.307  15.124  72.886  1.00  0.00    -0.391 C  
HETATM   21  O   UNL     1     -12.144  14.734  74.031  1.00  0.00    -0.452 OA 
HETATM   22  O   UNL     1     -11.825  16.302  72.438  1.00  0.00    -0.509 OA 
ENDBRANCH  18  19
ENDBRANCH  17  18
ENDBRANCH  16  17
ENDBRANCH  14  15
ENDBRANCH  13  14
ENDBRANCH  11  12
ENDBRANCH  10  11
ENDBRANCH   8   9
ENDBRANCH   7   8
ENDBRANCH   5   6
ENDBRANCH   4   5
ENDBRANCH   2   3
TORSDOF 12
ENDMDL
MODEL      110
REMARK 921   NORMALIZED FREE ENERGY PREDICTED BY IDOCK:   -4.42 KCAL/MOL
REMARK 922        TOTAL FREE ENERGY PREDICTED BY IDOCK:  -10.02 KCAL/MOL
REMARK 923 INTER-LIGAND FREE ENERGY PREDICTED BY IDOCK:   -8.00 KCAL/MOL
REMARK 924 INTRA-LIGAND FREE ENERGY PREDICTED BY IDOCK:   -2.02 KCAL/MOL
REMARK 927      BINDING AFFINITY PREDICTED BY RF-SCORE:    0.00 PKD
ROOT
HETATM    1  C   UNL     1     -13.489   9.453  71.978  1.00  0.00    -0.522 C  
HETATM    2  C   UNL     1     -12.035   9.013  72.034  1.00  0.00    -0.433 C  
ENDROOT
BRANCH   2   3
HETATM    3  C   UNL     1     -11.896   7.584  72.482  1.00  0.00    -0.266 C  
HETATM    4  C   UNL     1     -11.681   6.529  71.674  1.00  0.00    -0.374 C  
BRANCH   4   5
HETATM    5  C   UNL     1     -11.509   6.626  70.187  1.00  0.00    -0.444 C  
BRANCH   5   6
HETATM    6  C   UNL     1     -10.415   5.740  69.659  1.00  0.00    -0.363 C  
HETATM    7  C   UNL     1     -10.098   5.595  68.364  1.00  0.00    -0.224 C  
BRANCH   7   8
HETATM    8  C   UNL     1     -10.732   6.405  67.275  1.00  0.00    -0.426 C  
BRANCH   8   9
HETATM    9  C   UNL     1      -9.731   7.233  66.528  1.00  0.00    -0.207 C  
HETATM   10  C   UNL     1      -9.654   8.577  66.544  1.00  0.00    -0.303 C  
BRANCH  10  11
HETATM   11  C   UNL     1     -10.558   9.518  67.293  1.00  0.00    -0.317 C  
BRANCH  11  12
HETATM   12  C   UNL     1     -10.047  10.030  68.621  1.00  0.00    -0.187 C  
HETATM   13  C   UNL     1     -10.612  10.905  69.475  1.00  0.00    -0.217 C  
BRANCH  13  14
HETATM   14  C   UNL     1     -11.886  11.655  69.242  1.00  0.00    -0.396 C  
BRANCH  14  15
HETATM   15  C   UNL     1     -11.787  13.125  69.523  1.00  0.00    -0.383 C  
HETATM   16  C   UNL     1     -11.941  14.062  68.573  1.00  0.00    -0.383 C  
BRANCH  16  17
HETATM   17  C   UNL     1     -12.156  13.703  67.132  1.00  0.00    -0.404 C  
BRANCH  17  18
HETATM   18  C   UNL     1     -11.074  14.234  66.208  1.00  0.00    -0.323 C  
BRANCH  18  19
HETATM   19  C   UNL     1     -10.641  13.140  65.236  1.00  0.00    -0.325 C  
HETATM   20  C   UNL     1     -11.538  13.088  64.022  1.00  0.00    -0.430 C  
HETATM   21  O   UNL     1     -12.499  13.814  63.829  1.00  0.00    -0.713 OA 
HETATM   22  O   UNL     1     -11.154  12.133  63.148  1.00  0.00    -0.359 OA 
ENDBRANCH  18  19
ENDBRANCH  17  18
ENDBRANCH  16  17
ENDBRANCH  14  15
ENDBRANCH  13  14
ENDBRANCH  11  12
ENDBRANCH  10  11
ENDBRANCH   8   9
ENDBRANCH   7   8
ENDBRANCH   5   6
ENDBRANCH   4   5
ENDBRANCH   2   3
TORSDOF 12
ENDMDL
MODEL      111
REMARK 921   NORMALIZED FREE ENERGY PREDICTED BY IDOCK:   -4.42 KCAL/MOL
REMARK 922        TOTAL FREE ENERGY PREDICTED BY IDOCK:  -10.02 KCAL/MOL
REMARK 923 INTER-LIGAND FREE ENERGY PREDICTED BY IDOCK:   -7.86 KCAL/MOL
REMARK 924 INTRA-LIGAND FREE ENERGY PREDICTED BY IDOCK:   -2.16 KCAL/MOL
REMARK 927      BINDING AFFINITY PREDICTED BY RF-SCORE:    0.00 PKD
ROOT
HETATM    1  C   UNL     1     -10.035   6.733  68.928  1.00  0.00    -0.159 C  
HETATM    2  C   UNL     1     -11.329   6.438  69.671  1.00  0.00    -0.479 C  
ENDROOT
BRANCH   2   3
HETATM    3  C   UNL     1     -11.154   6.522  71.162  1.00  0.00    -0.332 C  
HETATM    4  C   UNL     1     -12.003   7.123  72.016  1.00  0.00    -0.332 C  
BRANCH   4   5
HETATM    5  C   UNL     1     -13.289   7.778  71.606  1.00  0.00    -0.386 C  
BRANCH   5   6
HETATM    6  C   UNL     1     -13.543   9.078  72.319  1.00  0.00    -0.540 C  
HETATM    7  C   UNL     1     -13.253  10.293  71.832  1.00  0.00    -0.550 C  
BRANCH   7   8
HETATM    8  C   UNL     1     -12.737  10.512  70.443  1.00  0.00    -0.325 C  
BRANCH   8   9
HETATM    9  C   UNL     1     -11.240  10.477  70.381  1.00  0.00    -0.378 C  
HETATM   10  C   UNL     1     -10.502  10.377  69.260  1.00  0.00    -0.257 C  
BRANCH  10  11
HETATM   11  C   UNL     1     -11.021  10.263  67.852  1.00  0.00    -0.350 C  
BRANCH  11  12
HETATM   12  C   UNL     1     -10.537  11.306  66.870  1.00  0.00    -0.300 C  
HETATM   13  C   UNL     1     -10.995  12.554  66.654  1.00  0.00    -0.303 C  
BRANCH  13  14
HETATM   14  C   UNL     1     -12.188  13.174  67.311  1.00  0.00    -0.234 C  
BRANCH  14  15
HETATM   15  C   UNL     1     -11.920  13.691  68.694  1.00  0.00    -0.395 C  
HETATM   16  C   UNL     1     -11.533  14.954  68.939  1.00  0.00    -0.320 C  
BRANCH  16  17
HETATM   17  C   UNL     1     -11.269  15.932  67.832  1.00  0.00    -0.297 C  
BRANCH  17  18
HETATM   18  C   UNL     1     -10.439  17.128  68.267  1.00  0.00    -0.373 C  
BRANCH  18  19
HETATM   19  C   UNL     1     -10.083  17.979  67.051  1.00  0.00    -0.348 C  
HETATM   20  C   UNL     1      -9.949  19.439  67.415  1.00  0.00    -0.371 C  
HETATM   21  O   UNL     1     -10.113  19.901  68.532  1.00  0.00    -0.431 OA 
HETATM   22  O   UNL     1      -9.618  20.198  66.350  1.00  0.00    -0.399 OA 
ENDBRANCH  18  19
ENDBRANCH  17  18
ENDBRANCH  16  17
ENDBRANCH  14  15
ENDBRANCH  13  14
ENDBRANCH  11  12
ENDBRANCH  10  11
ENDBRANCH   8   9
ENDBRANCH   7   8
ENDBRANCH   5   6
ENDBRANCH   4   5
ENDBRANCH   2   3
TORSDOF 12
ENDMDL
MODEL      112
REMARK 921   NORMALIZED FREE ENERGY PREDICTED BY IDOCK:   -4.41 KCAL/MOL
REMARK 922        TOTAL FREE ENERGY PREDICTED BY IDOCK:  -10.02 KCAL/MOL
REMARK 923 INTER-LIGAND FREE ENERGY PREDICTED BY IDOCK:   -7.80 KCAL/MOL
REMARK 924 INTRA-LIGAND FREE ENERGY PREDICTED BY IDOCK:   -2.22 KCAL/MOL
REMARK 927      BINDING AFFINITY PREDICTED BY RF-SCORE:    0.00 PKD
ROOT
HETATM    1  C   UNL     1     -11.984   9.227  71.748  1.00  0.00    -0.455 C  
HETATM    2  C   UNL     1     -12.342  10.562  71.115  1.00  0.00    -0.510 C  
ENDROOT
BRANCH   2   3
HETATM    3  C   UNL     1     -13.232  11.385  72.005  1.00  0.00    -0.432 C  
HETATM    4  C   UNL     1     -13.311  12.729  72.005  1.00  0.00    -0.565 C  
BRANCH   4   5
HETATM    5  C   UNL     1     -12.535  13.619  71.079  1.00  0.00    -0.456 C  
BRANCH   5   6
HETATM    6  C   UNL     1     -12.074  14.893  71.732  1.00  0.00    -0.428 C  
HETATM    7  C   UNL     1     -11.413  15.881  71.113  1.00  0.00    -0.471 C  
BRANCH   7   8
HETATM    8  C   UNL     1     -11.150  15.886  69.638  1.00  0.00    -0.320 C  
BRANCH   8   9
HETATM    9  C   UNL     1      -9.688  15.972  69.322  1.00  0.00    -0.257 C  
HETATM   10  C   UNL     1      -9.153  16.543  68.227  1.00  0.00    -0.214 C  
BRANCH  10  11
HETATM   11  C   UNL     1      -9.904  17.191  67.095  1.00  0.00    -0.271 C  
BRANCH  11  12
HETATM   12  C   UNL     1      -9.941  16.431  65.789  1.00  0.00    -0.331 C  
HETATM   13  C   UNL     1     -10.774  15.450  65.393  1.00  0.00    -0.416 C  
BRANCH  13  14
HETATM   14  C   UNL     1     -11.837  14.814  66.234  1.00  0.00    -0.215 C  
BRANCH  14  15
HETATM   15  C   UNL     1     -12.180  13.413  65.823  1.00  0.00    -0.507 C  
HETATM   16  C   UNL     1     -11.896  12.340  66.579  1.00  0.00    -0.378 C  
BRANCH  16  17
HETATM   17  C   UNL     1     -11.144  12.457  67.872  1.00  0.00    -0.283 C  
BRANCH  17  18
HETATM   18  C   UNL     1     -10.260  11.258  68.169  1.00  0.00    -0.196 C  
BRANCH  18  19
HETATM   19  C   UNL     1     -10.473  10.183  67.108  1.00  0.00    -0.305 C  
HETATM   20  C   UNL     1     -10.387   8.795  67.697  1.00  0.00    -0.254 C  
HETATM   21  O   UNL     1     -10.163   8.544  68.871  1.00  0.00    -0.199 OA 
HETATM   22  O   UNL     1     -10.590   7.836  66.770  1.00  0.00    -0.331 OA 
ENDBRANCH  18  19
ENDBRANCH  17  18
ENDBRANCH  16  17
ENDBRANCH  14  15
ENDBRANCH  13  14
ENDBRANCH  11  12
ENDBRANCH  10  11
ENDBRANCH   8   9
ENDBRANCH   7   8
ENDBRANCH   5   6
ENDBRANCH   4   5
ENDBRANCH   2   3
TORSDOF 12
ENDMDL
MODEL      113
REMARK 921   NORMALIZED FREE ENERGY PREDICTED BY IDOCK:   -4.41 KCAL/MOL
REMARK 922        TOTAL FREE ENERGY PREDICTED BY IDOCK:  -10.01 KCAL/MOL
REMARK 923 INTER-LIGAND FREE ENERGY PREDICTED BY IDOCK:   -8.24 KCAL/MOL
REMARK 924 INTRA-LIGAND FREE ENERGY PREDICTED BY IDOCK:   -1.78 KCAL/MOL
REMARK 927      BINDING AFFINITY PREDICTED BY RF-SCORE:    0.00 PKD
ROOT
HETATM    1  C   UNL     1     -11.130  15.786  70.440  1.00  0.00    -0.380 C  
HETATM    2  C   UNL     1     -11.309  15.303  71.871  1.00  0.00    -0.447 C  
ENDROOT
BRANCH   2   3
HETATM    3  C   UNL     1     -12.503  15.932  72.532  1.00  0.00    -0.566 C  
HETATM    4  C   UNL     1     -13.772  15.492  72.437  1.00  0.00    -0.655 C  
BRANCH   4   5
HETATM    5  C   UNL     1     -14.186  14.269  71.673  1.00  0.00    -0.469 C  
BRANCH   5   6
HETATM    6  C   UNL     1     -13.879  12.988  72.399  1.00  0.00    -0.526 C  
HETATM    7  C   UNL     1     -13.136  11.984  71.911  1.00  0.00    -0.475 C  
BRANCH   7   8
HETATM    8  C   UNL     1     -12.411  12.070  70.602  1.00  0.00    -0.394 C  
BRANCH   8   9
HETATM    9  C   UNL     1     -12.141  10.718  70.013  1.00  0.00    -0.423 C  
HETATM   10  C   UNL     1     -11.227  10.442  69.065  1.00  0.00    -0.289 C  
BRANCH  10  11
HETATM   11  C   UNL     1     -10.307  11.426  68.393  1.00  0.00    -0.209 C  
BRANCH  11  12
HETATM   12  C   UNL     1      -8.828  11.246  68.646  1.00  0.00    -0.141 C  
HETATM   13  C   UNL     1      -7.824  11.079  67.764  1.00  0.00    -0.110 C  
BRANCH  13  14
HETATM   14  C   UNL     1      -7.976  10.945  66.281  1.00  0.00    -0.161 C  
BRANCH  14  15
HETATM   15  C   UNL     1      -8.917   9.855  65.862  1.00  0.00    -0.183 C  
HETATM   16  C   UNL     1      -9.819  10.008  64.878  1.00  0.00    -0.352 C  
BRANCH  16  17
HETATM   17  C   UNL     1     -10.003  11.315  64.165  1.00  0.00    -0.350 C  
BRANCH  17  18
HETATM   18  C   UNL     1     -11.274  12.046  64.560  1.00  0.00    -0.390 C  
BRANCH  18  19
HETATM   19  C   UNL     1     -10.942  13.173  65.533  1.00  0.00    -0.296 C  
HETATM   20  C   UNL     1     -12.156  14.018  65.841  1.00  0.00    -0.428 C  
HETATM   21  O   UNL     1     -13.268  13.844  65.371  1.00  0.00    -0.750 OA 
HETATM   22  O   UNL     1     -11.876  15.008  66.714  1.00  0.00    -0.245 OA 
ENDBRANCH  18  19
ENDBRANCH  17  18
ENDBRANCH  16  17
ENDBRANCH  14  15
ENDBRANCH  13  14
ENDBRANCH  11  12
ENDBRANCH  10  11
ENDBRANCH   8   9
ENDBRANCH   7   8
ENDBRANCH   5   6
ENDBRANCH   4   5
ENDBRANCH   2   3
TORSDOF 12
ENDMDL
MODEL      114
REMARK 921   NORMALIZED FREE ENERGY PREDICTED BY IDOCK:   -4.40 KCAL/MOL
REMARK 922        TOTAL FREE ENERGY PREDICTED BY IDOCK:  -10.00 KCAL/MOL
REMARK 923 INTER-LIGAND FREE ENERGY PREDICTED BY IDOCK:   -7.96 KCAL/MOL
REMARK 924 INTRA-LIGAND FREE ENERGY PREDICTED BY IDOCK:   -2.04 KCAL/MOL
REMARK 927      BINDING AFFINITY PREDICTED BY RF-SCORE:    0.00 PKD
ROOT
HETATM    1  C   UNL     1     -10.812  10.910  67.218  1.00  0.00    -0.342 C  
HETATM    2  C   UNL     1     -10.585  12.212  67.970  1.00  0.00    -0.232 C  
ENDROOT
BRANCH   2   3
HETATM    3  C   UNL     1     -11.812  13.083  67.969  1.00  0.00    -0.391 C  
HETATM    4  C   UNL     1     -11.972  14.208  68.691  1.00  0.00    -0.373 C  
BRANCH   4   5
HETATM    5  C   UNL     1     -10.923  14.789  69.592  1.00  0.00    -0.285 C  
BRANCH   5   6
HETATM    6  C   UNL     1     -11.309  16.125  70.165  1.00  0.00    -0.347 C  
HETATM    7  C   UNL     1     -11.733  16.332  71.420  1.00  0.00    -0.427 C  
BRANCH   7   8
HETATM    8  C   UNL     1     -11.761  15.252  72.458  1.00  0.00    -0.535 C  
BRANCH   8   9
HETATM    9  C   UNL     1     -13.149  14.746  72.713  1.00  0.00    -0.569 C  
HETATM   10  C   UNL     1     -13.619  13.535  72.363  1.00  0.00    -0.709 C  
BRANCH  10  11
HETATM   11  C   UNL     1     -12.865  12.455  71.634  1.00  0.00    -0.375 C  
BRANCH  11  12
HETATM   12  C   UNL     1     -13.404  11.049  71.767  1.00  0.00    -0.400 C  
HETATM   13  C   UNL     1     -12.849   9.881  71.391  1.00  0.00    -0.505 C  
BRANCH  13  14
HETATM   14  C   UNL     1     -11.557   9.726  70.651  1.00  0.00    -0.389 C  
BRANCH  14  15
HETATM   15  C   UNL     1     -10.530   8.917  71.386  1.00  0.00    -0.375 C  
HETATM   16  C   UNL     1     -10.174   7.676  71.015  1.00  0.00    -0.200 C  
BRANCH  16  17
HETATM   17  C   UNL     1     -10.836   6.971  69.867  1.00  0.00    -0.280 C  
BRANCH  17  18
HETATM   18  C   UNL     1     -10.015   6.993  68.589  1.00  0.00    -0.156 C  
BRANCH  18  19
HETATM   19  C   UNL     1     -10.855   6.476  67.425  1.00  0.00    -0.449 C  
HETATM   20  C   UNL     1     -10.203   5.292  66.751  1.00  0.00    -0.249 C  
HETATM   21  O   UNL     1      -9.133   4.803  67.074  1.00  0.00    -0.113 OA 
HETATM   22  O   UNL     1     -10.946   4.818  65.729  1.00  0.00    -0.255 OA 
ENDBRANCH  18  19
ENDBRANCH  17  18
ENDBRANCH  16  17
ENDBRANCH  14  15
ENDBRANCH  13  14
ENDBRANCH  11  12
ENDBRANCH  10  11
ENDBRANCH   8   9
ENDBRANCH   7   8
ENDBRANCH   5   6
ENDBRANCH   4   5
ENDBRANCH   2   3
TORSDOF 12
ENDMDL
MODEL      115
REMARK 921   NORMALIZED FREE ENERGY PREDICTED BY IDOCK:   -4.40 KCAL/MOL
REMARK 922        TOTAL FREE ENERGY PREDICTED BY IDOCK:   -9.99 KCAL/MOL
REMARK 923 INTER-LIGAND FREE ENERGY PREDICTED BY IDOCK:   -8.43 KCAL/MOL
REMARK 924 INTRA-LIGAND FREE ENERGY PREDICTED BY IDOCK:   -1.57 KCAL/MOL
REMARK 927      BINDING AFFINITY PREDICTED BY RF-SCORE:    0.00 PKD
ROOT
HETATM    1  C   UNL     1      -9.960   4.290  65.710  1.00  0.00    -0.233 C  
HETATM    2  C   UNL     1      -9.671   5.662  66.298  1.00  0.00    -0.162 C  
ENDROOT
BRANCH   2   3
HETATM    3  C   UNL     1     -10.874   6.243  66.989  1.00  0.00    -0.458 C  
HETATM    4  C   UNL     1     -10.967   6.507  68.306  1.00  0.00    -0.362 C  
BRANCH   4   5
HETATM    5  C   UNL     1      -9.856   6.291  69.290  1.00  0.00    -0.167 C  
BRANCH   5   6
HETATM    6  C   UNL     1     -10.022   5.035  70.101  1.00  0.00    -0.328 C  
HETATM    7  C   UNL     1     -10.326   4.996  71.406  1.00  0.00    -0.251 C  
BRANCH   7   8
HETATM    8  C   UNL     1     -10.659   6.220  72.203  1.00  0.00    -0.256 C  
BRANCH   8   9
HETATM    9  C   UNL     1     -11.964   6.829  71.790  1.00  0.00    -0.382 C  
HETATM   10  C   UNL     1     -12.200   8.143  71.619  1.00  0.00    -0.343 C  
BRANCH  10  11
HETATM   11  C   UNL     1     -11.216   9.264  71.822  1.00  0.00    -0.413 C  
BRANCH  11  12
HETATM   12  C   UNL     1     -10.404   9.675  70.616  1.00  0.00    -0.365 C  
HETATM   13  C   UNL     1     -10.712  10.542  69.632  1.00  0.00    -0.302 C  
BRANCH  13  14
HETATM   14  C   UNL     1     -12.018  11.253  69.471  1.00  0.00    -0.421 C  
BRANCH  14  15
HETATM   15  C   UNL     1     -11.887  12.740  69.329  1.00  0.00    -0.358 C  
HETATM   16  C   UNL     1     -11.721  13.349  68.143  1.00  0.00    -0.397 C  
BRANCH  16  17
HETATM   17  C   UNL     1     -11.582  12.573  66.866  1.00  0.00    -0.436 C  
BRANCH  17  18
HETATM   18  C   UNL     1     -12.010  13.353  65.635  1.00  0.00    -0.439 C  
BRANCH  18  19
HETATM   19  C   UNL     1     -11.215  14.652  65.543  1.00  0.00    -0.343 C  
HETATM   20  C   UNL     1     -11.780  15.577  64.492  1.00  0.00    -0.253 C  
HETATM   21  O   UNL     1     -12.744  15.330  63.786  1.00  0.00    -0.687 OA 
HETATM   22  O   UNL     1     -11.093  16.736  64.413  1.00  0.00    -1.072 OA 
ENDBRANCH  18  19
ENDBRANCH  17  18
ENDBRANCH  16  17
ENDBRANCH  14  15
ENDBRANCH  13  14
ENDBRANCH  11  12
ENDBRANCH  10  11
ENDBRANCH   8   9
ENDBRANCH   7   8
ENDBRANCH   5   6
ENDBRANCH   4   5
ENDBRANCH   2   3
TORSDOF 12
ENDMDL
MODEL      116
REMARK 921   NORMALIZED FREE ENERGY PREDICTED BY IDOCK:   -4.40 KCAL/MOL
REMARK 922        TOTAL FREE ENERGY PREDICTED BY IDOCK:   -9.99 KCAL/MOL
REMARK 923 INTER-LIGAND FREE ENERGY PREDICTED BY IDOCK:   -8.18 KCAL/MOL
REMARK 924 INTRA-LIGAND FREE ENERGY PREDICTED BY IDOCK:   -1.81 KCAL/MOL
REMARK 927      BINDING AFFINITY PREDICTED BY RF-SCORE:    0.00 PKD
ROOT
HETATM    1  C   UNL     1     -11.027   6.423  68.237  1.00  0.00    -0.396 C  
HETATM    2  C   UNL     1     -10.635   7.198  66.990  1.00  0.00    -0.413 C  
ENDROOT
BRANCH   2   3
HETATM    3  C   UNL     1      -9.401   8.030  67.209  1.00  0.00    -0.177 C  
HETATM    4  C   UNL     1      -9.166   9.238  66.663  1.00  0.00    -0.190 C  
BRANCH   4   5
HETATM    5  C   UNL     1     -10.129   9.962  65.769  1.00  0.00    -0.317 C  
BRANCH   5   6
HETATM    6  C   UNL     1      -9.463  10.619  64.592  1.00  0.00    -0.308 C  
HETATM    7  C   UNL     1     -10.070  11.436  63.720  1.00  0.00    -0.408 C  
BRANCH   7   8
HETATM    8  C   UNL     1     -11.487  11.894  63.883  1.00  0.00    -0.511 C  
BRANCH   8   9
HETATM    9  C   UNL     1     -11.620  13.381  63.758  1.00  0.00    -0.362 C  
HETATM   10  C   UNL     1     -12.122  14.207  64.695  1.00  0.00    -0.469 C  
BRANCH  10  11
HETATM   11  C   UNL     1     -12.663  13.811  66.042  1.00  0.00    -0.407 C  
BRANCH  11  12
HETATM   12  C   UNL     1     -11.765  12.953  66.904  1.00  0.00    -0.445 C  
HETATM   13  C   UNL     1     -10.640  13.287  67.564  1.00  0.00    -0.251 C  
BRANCH  13  14
HETATM   14  C   UNL     1      -9.961  14.620  67.516  1.00  0.00    -0.223 C  
BRANCH  14  15
HETATM   15  C   UNL     1      -9.495  15.113  68.854  1.00  0.00    -0.213 C  
HETATM   16  C   UNL     1     -10.317  15.687  69.747  1.00  0.00    -0.309 C  
BRANCH  16  17
HETATM   17  C   UNL     1     -11.763  15.946  69.444  1.00  0.00    -0.350 C  
BRANCH  17  18
HETATM   18  C   UNL     1     -12.702  15.510  70.555  1.00  0.00    -0.436 C  
BRANCH  18  19
HETATM   19  C   UNL     1     -12.489  14.030  70.862  1.00  0.00    -0.439 C  
HETATM   20  C   UNL     1     -13.466  13.531  71.901  1.00  0.00    -0.442 C  
HETATM   21  O   UNL     1     -14.317  14.213  72.447  1.00  0.00    -0.586 OA 
HETATM   22  O   UNL     1     -13.296  12.220  72.168  1.00  0.00    -0.526 OA 
ENDBRANCH  18  19
ENDBRANCH  17  18
ENDBRANCH  16  17
ENDBRANCH  14  15
ENDBRANCH  13  14
ENDBRANCH  11  12
ENDBRANCH  10  11
ENDBRANCH   8   9
ENDBRANCH   7   8
ENDBRANCH   5   6
ENDBRANCH   4   5
ENDBRANCH   2   3
TORSDOF 12
ENDMDL
MODEL      117
REMARK 921   NORMALIZED FREE ENERGY PREDICTED BY IDOCK:   -4.40 KCAL/MOL
REMARK 922        TOTAL FREE ENERGY PREDICTED BY IDOCK:   -9.99 KCAL/MOL
REMARK 923 INTER-LIGAND FREE ENERGY PREDICTED BY IDOCK:   -7.85 KCAL/MOL
REMARK 924 INTRA-LIGAND FREE ENERGY PREDICTED BY IDOCK:   -2.14 KCAL/MOL
REMARK 927      BINDING AFFINITY PREDICTED BY RF-SCORE:    0.00 PKD
ROOT
HETATM    1  C   UNL     1     -11.889   8.152  72.467  1.00  0.00    -0.438 C  
HETATM    2  C   UNL     1     -12.269   7.330  71.245  1.00  0.00    -0.389 C  
ENDROOT
BRANCH   2   3
HETATM    3  C   UNL     1     -11.365   6.142  71.064  1.00  0.00    -0.348 C  
HETATM    4  C   UNL     1     -10.710   5.824  69.931  1.00  0.00    -0.412 C  
BRANCH   4   5
HETATM    5  C   UNL     1     -10.759   6.638  68.671  1.00  0.00    -0.303 C  
BRANCH   5   6
HETATM    6  C   UNL     1      -9.467   7.350  68.378  1.00  0.00    -0.143 C  
HETATM    7  C   UNL     1      -9.229   8.646  68.622  1.00  0.00    -0.138 C  
BRANCH   7   8
HETATM    8  C   UNL     1     -10.203   9.533  69.337  1.00  0.00    -0.215 C  
BRANCH   8   9
HETATM    9  C   UNL     1     -11.141  10.223  68.394  1.00  0.00    -0.302 C  
HETATM   10  C   UNL     1     -11.848  11.336  68.663  1.00  0.00    -0.369 C  
BRANCH  10  11
HETATM   11  C   UNL     1     -11.859  12.100  69.960  1.00  0.00    -0.383 C  
BRANCH  11  12
HETATM   12  C   UNL     1     -12.525  11.422  71.135  1.00  0.00    -0.465 C  
HETATM   13  C   UNL     1     -13.411  11.919  72.020  1.00  0.00    -0.425 C  
BRANCH  13  14
HETATM   14  C   UNL     1     -13.882  13.339  72.081  1.00  0.00    -0.555 C  
BRANCH  14  15
HETATM   15  C   UNL     1     -13.007  14.235  72.905  1.00  0.00    -0.548 C  
HETATM   16  C   UNL     1     -12.367  15.300  72.395  1.00  0.00    -0.458 C  
BRANCH  16  17
HETATM   17  C   UNL     1     -12.422  15.635  70.934  1.00  0.00    -0.497 C  
BRANCH  17  18
HETATM   18  C   UNL     1     -11.056  15.692  70.273  1.00  0.00    -0.361 C  
BRANCH  18  19
HETATM   19  C   UNL     1     -11.164  16.388  68.920  1.00  0.00    -0.304 C  
HETATM   20  C   UNL     1     -10.491  15.590  67.828  1.00  0.00    -0.273 C  
HETATM   21  O   UNL     1      -9.916  14.526  67.991  1.00  0.00    -0.215 OA 
HETATM   22  O   UNL     1     -10.594  16.190  66.624  1.00  0.00    -0.311 OA 
ENDBRANCH  18  19
ENDBRANCH  17  18
ENDBRANCH  16  17
ENDBRANCH  14  15
ENDBRANCH  13  14
ENDBRANCH  11  12
ENDBRANCH  10  11
ENDBRANCH   8   9
ENDBRANCH   7   8
ENDBRANCH   5   6
ENDBRANCH   4   5
ENDBRANCH   2   3
TORSDOF 12
ENDMDL
MODEL      118
REMARK 921   NORMALIZED FREE ENERGY PREDICTED BY IDOCK:   -4.39 KCAL/MOL
REMARK 922        TOTAL FREE ENERGY PREDICTED BY IDOCK:   -9.98 KCAL/MOL
REMARK 923 INTER-LIGAND FREE ENERGY PREDICTED BY IDOCK:   -7.56 KCAL/MOL
REMARK 924 INTRA-LIGAND FREE ENERGY PREDICTED BY IDOCK:   -2.41 KCAL/MOL
REMARK 927      BINDING AFFINITY PREDICTED BY RF-SCORE:    0.00 PKD
ROOT
HETATM    1  C   UNL     1      -7.118  11.636  68.400  1.00  0.00    -0.083 C  
HETATM    2  C   UNL     1      -8.607  11.898  68.238  1.00  0.00    -0.162 C  
ENDROOT
BRANCH   2   3
HETATM    3  C   UNL     1      -9.371  10.636  67.943  1.00  0.00    -0.154 C  
HETATM    4  C   UNL     1      -9.550  10.098  66.722  1.00  0.00    -0.222 C  
BRANCH   4   5
HETATM    5  C   UNL     1      -8.977  10.666  65.457  1.00  0.00    -0.209 C  
BRANCH   5   6
HETATM    6  C   UNL     1      -9.768  10.297  64.233  1.00  0.00    -0.373 C  
HETATM    7  C   UNL     1     -10.511  11.148  63.510  1.00  0.00    -0.422 C  
BRANCH   7   8
HETATM    8  C   UNL     1     -10.549  12.623  63.774  1.00  0.00    -0.432 C  
BRANCH   8   9
HETATM    9  C   UNL     1     -11.942  13.121  64.010  1.00  0.00    -0.524 C  
HETATM   10  C   UNL     1     -12.562  13.186  65.203  1.00  0.00    -0.525 C  
BRANCH  10  11
HETATM   11  C   UNL     1     -11.998  12.758  66.531  1.00  0.00    -0.428 C  
BRANCH  11  12
HETATM   12  C   UNL     1     -11.901  13.825  67.598  1.00  0.00    -0.413 C  
HETATM   13  C   UNL     1     -11.854  13.694  68.937  1.00  0.00    -0.402 C  
BRANCH  13  14
HETATM   14  C   UNL     1     -11.976  12.409  69.695  1.00  0.00    -0.341 C  
BRANCH  14  15
HETATM   15  C   UNL     1     -12.642  12.552  71.031  1.00  0.00    -0.350 C  
HETATM   16  C   UNL     1     -13.114  11.505  71.728  1.00  0.00    -0.503 C  
BRANCH  16  17
HETATM   17  C   UNL     1     -13.072  10.107  71.184  1.00  0.00    -0.480 C  
BRANCH  17  18
HETATM   18  C   UNL     1     -11.938   9.271  71.751  1.00  0.00    -0.455 C  
BRANCH  18  19
HETATM   19  C   UNL     1     -10.979   8.875  70.632  1.00  0.00    -0.287 C  
HETATM   20  C   UNL     1     -11.221   7.458  70.167  1.00  0.00    -0.218 C  
HETATM   21  O   UNL     1     -12.065   6.705  70.625  1.00  0.00    -0.394 OA 
HETATM   22  O   UNL     1     -10.388   7.103  69.167  1.00  0.00    -0.188 OA 
ENDBRANCH  18  19
ENDBRANCH  17  18
ENDBRANCH  16  17
ENDBRANCH  14  15
ENDBRANCH  13  14
ENDBRANCH  11  12
ENDBRANCH  10  11
ENDBRANCH   8   9
ENDBRANCH   7   8
ENDBRANCH   5   6
ENDBRANCH   4   5
ENDBRANCH   2   3
TORSDOF 12
ENDMDL
MODEL      119
REMARK 921   NORMALIZED FREE ENERGY PREDICTED BY IDOCK:   -4.39 KCAL/MOL
REMARK 922        TOTAL FREE ENERGY PREDICTED BY IDOCK:   -9.98 KCAL/MOL
REMARK 923 INTER-LIGAND FREE ENERGY PREDICTED BY IDOCK:   -6.60 KCAL/MOL
REMARK 924 INTRA-LIGAND FREE ENERGY PREDICTED BY IDOCK:   -3.38 KCAL/MOL
REMARK 927      BINDING AFFINITY PREDICTED BY RF-SCORE:    0.00 PKD
ROOT
HETATM    1  C   UNL     1     -10.947   6.130  68.479  1.00  0.00    -0.404 C  
HETATM    2  C   UNL     1     -10.960   6.698  67.068  1.00  0.00    -0.463 C  
ENDROOT
BRANCH   2   3
HETATM    3  C   UNL     1      -9.589   7.125  66.622  1.00  0.00    -0.226 C  
HETATM    4  C   UNL     1      -9.239   8.374  66.258  1.00  0.00    -0.263 C  
BRANCH   4   5
HETATM    5  C   UNL     1     -10.170   9.550  66.277  1.00  0.00    -0.290 C  
BRANCH   5   6
HETATM    6  C   UNL     1     -10.028  10.435  65.069  1.00  0.00    -0.399 C  
HETATM    7  C   UNL     1     -10.709  11.571  64.862  1.00  0.00    -0.357 C  
BRANCH   7   8
HETATM    8  C   UNL     1     -11.627  12.169  65.884  1.00  0.00    -0.425 C  
BRANCH   8   9
HETATM    9  C   UNL     1     -11.209  13.551  66.283  1.00  0.00    -0.310 C  
HETATM   10  C   UNL     1     -10.330  13.857  67.254  1.00  0.00    -0.257 C  
BRANCH  10  11
HETATM   11  C   UNL     1      -9.604  12.886  68.146  1.00  0.00    -0.223 C  
BRANCH  11  12
HETATM   12  C   UNL     1      -8.257  12.402  67.659  1.00  0.00    -0.169 C  
HETATM   13  C   UNL     1      -7.416  11.510  68.217  1.00  0.00    -0.103 C  
BRANCH  13  14
HETATM   14  C   UNL     1      -7.606  10.840  69.542  1.00  0.00    -0.094 C  
BRANCH  14  15
HETATM   15  C   UNL     1      -7.661   9.343  69.463  1.00  0.00    -0.086 C  
HETATM   16  C   UNL     1      -8.645   8.619  70.020  1.00  0.00    -0.132 C  
BRANCH  16  17
HETATM   17  C   UNL     1      -9.737   9.253  70.831  1.00  0.00    -0.346 C  
BRANCH  17  18
HETATM   18  C   UNL     1     -11.023   9.466  70.052  1.00  0.00    -0.267 C  
BRANCH  18  19
HETATM   19  C   UNL     1     -11.692  10.761  70.503  1.00  0.00    -0.449 C  
HETATM   20  C   UNL     1     -12.670  10.519  71.630  1.00  0.00    -0.445 C  
HETATM   21  O   UNL     1     -12.916   9.430  72.122  1.00  0.00    -0.390 OA 
HETATM   22  O   UNL     1     -13.256  11.661  72.047  1.00  0.00    -0.501 OA 
ENDBRANCH  18  19
ENDBRANCH  17  18
ENDBRANCH  16  17
ENDBRANCH  14  15
ENDBRANCH  13  14
ENDBRANCH  11  12
ENDBRANCH  10  11
ENDBRANCH   8   9
ENDBRANCH   7   8
ENDBRANCH   5   6
ENDBRANCH   4   5
ENDBRANCH   2   3
TORSDOF 12
ENDMDL
MODEL      120
REMARK 921   NORMALIZED FREE ENERGY PREDICTED BY IDOCK:   -4.39 KCAL/MOL
REMARK 922        TOTAL FREE ENERGY PREDICTED BY IDOCK:   -9.98 KCAL/MOL
REMARK 923 INTER-LIGAND FREE ENERGY PREDICTED BY IDOCK:   -8.48 KCAL/MOL
REMARK 924 INTRA-LIGAND FREE ENERGY PREDICTED BY IDOCK:   -1.49 KCAL/MOL
REMARK 927      BINDING AFFINITY PREDICTED BY RF-SCORE:    0.00 PKD
ROOT
HETATM    1  C   UNL     1     -10.150   3.533  72.660  1.00  0.00    -0.234 C  
HETATM    2  C   UNL     1     -11.001   4.778  72.853  1.00  0.00    -0.312 C  
ENDROOT
BRANCH   2   3
HETATM    3  C   UNL     1     -10.487   5.643  73.972  1.00  0.00    -0.297 C  
HETATM    4  C   UNL     1     -10.283   6.972  73.902  1.00  0.00    -0.388 C  
BRANCH   4   5
HETATM    5  C   UNL     1     -10.574   7.807  72.690  1.00  0.00    -0.377 C  
BRANCH   5   6
HETATM    6  C   UNL     1     -12.023   8.193  72.573  1.00  0.00    -0.410 C  
HETATM    7  C   UNL     1     -12.496   9.188  71.809  1.00  0.00    -0.447 C  
BRANCH   7   8
HETATM    8  C   UNL     1     -11.633   9.978  70.873  1.00  0.00    -0.463 C  
BRANCH   8   9
HETATM    9  C   UNL     1     -12.244  11.298  70.515  1.00  0.00    -0.474 C  
HETATM   10  C   UNL     1     -11.905  12.060  69.458  1.00  0.00    -0.390 C  
BRANCH  10  11
HETATM   11  C   UNL     1     -10.841  11.757  68.438  1.00  0.00    -0.260 C  
BRANCH  11  12
HETATM   12  C   UNL     1     -11.300  11.622  67.004  1.00  0.00    -0.373 C  
HETATM   13  C   UNL     1     -11.651  12.580  66.125  1.00  0.00    -0.448 C  
BRANCH  13  14
HETATM   14  C   UNL     1     -11.746  14.045  66.420  1.00  0.00    -0.407 C  
BRANCH  14  15
HETATM   15  C   UNL     1     -10.433  14.680  66.770  1.00  0.00    -0.277 C  
HETATM   16  C   UNL     1     -10.289  15.547  67.786  1.00  0.00    -0.263 C  
BRANCH  16  17
HETATM   17  C   UNL     1     -11.457  16.002  68.612  1.00  0.00    -0.377 C  
BRANCH  17  18
HETATM   18  C   UNL     1     -11.357  15.603  70.074  1.00  0.00    -0.341 C  
BRANCH  18  19
HETATM   19  C   UNL     1     -12.753  15.509  70.682  1.00  0.00    -0.487 C  
HETATM   20  C   UNL     1     -12.758  15.931  72.132  1.00  0.00    -0.436 C  
HETATM   21  O   UNL     1     -11.777  16.294  72.760  1.00  0.00    -0.477 OA 
HETATM   22  O   UNL     1     -13.992  15.866  72.675  1.00  0.00    -0.547 OA 
ENDBRANCH  18  19
ENDBRANCH  17  18
ENDBRANCH  16  17
ENDBRANCH  14  15
ENDBRANCH  13  14
ENDBRANCH  11  12
ENDBRANCH  10  11
ENDBRANCH   8   9
ENDBRANCH   7   8
ENDBRANCH   5   6
ENDBRANCH   4   5
ENDBRANCH   2   3
TORSDOF 12
ENDMDL
MODEL      121
REMARK 921   NORMALIZED FREE ENERGY PREDICTED BY IDOCK:   -4.39 KCAL/MOL
REMARK 922        TOTAL FREE ENERGY PREDICTED BY IDOCK:   -9.97 KCAL/MOL
REMARK 923 INTER-LIGAND FREE ENERGY PREDICTED BY IDOCK:   -8.41 KCAL/MOL
REMARK 924 INTRA-LIGAND FREE ENERGY PREDICTED BY IDOCK:   -1.56 KCAL/MOL
REMARK 927      BINDING AFFINITY PREDICTED BY RF-SCORE:    0.00 PKD
ROOT
HETATM    1  C   UNL     1     -12.603  13.636  65.526  1.00  0.00    -0.541 C  
HETATM    2  C   UNL     1     -12.515  12.483  64.539  1.00  0.00    -0.539 C  
ENDROOT
BRANCH   2   3
HETATM    3  C   UNL     1     -11.206  12.475  63.800  1.00  0.00    -0.524 C  
HETATM    4  C   UNL     1     -10.078  11.867  64.214  1.00  0.00    -0.325 C  
BRANCH   4   5
HETATM    5  C   UNL     1      -9.967  11.065  65.477  1.00  0.00    -0.308 C  
BRANCH   5   6
HETATM    6  C   UNL     1      -9.609   9.625  65.232  1.00  0.00    -0.347 C  
HETATM    7  C   UNL     1      -9.758   8.632  66.120  1.00  0.00    -0.292 C  
BRANCH   7   8
HETATM    8  C   UNL     1     -10.423   8.821  67.450  1.00  0.00    -0.349 C  
BRANCH   8   9
HETATM    9  C   UNL     1      -9.539   8.414  68.589  1.00  0.00    -0.153 C  
HETATM   10  C   UNL     1      -9.860   7.537  69.558  1.00  0.00    -0.169 C  
BRANCH  10  11
HETATM   11  C   UNL     1     -11.166   6.805  69.708  1.00  0.00    -0.368 C  
BRANCH  11  12
HETATM   12  C   UNL     1     -11.428   6.162  71.051  1.00  0.00    -0.316 C  
HETATM   13  C   UNL     1     -11.604   6.739  72.256  1.00  0.00    -0.311 C  
BRANCH  13  14
HETATM   14  C   UNL     1     -11.489   8.203  72.549  1.00  0.00    -0.470 C  
BRANCH  14  15
HETATM   15  C   UNL     1     -12.809   8.903  72.677  1.00  0.00    -0.316 C  
HETATM   16  C   UNL     1     -13.164   9.940  71.901  1.00  0.00    -0.558 C  
BRANCH  16  17
HETATM   17  C   UNL     1     -12.228  10.528  70.886  1.00  0.00    -0.490 C  
BRANCH  17  18
HETATM   18  C   UNL     1     -12.390  12.028  70.711  1.00  0.00    -0.403 C  
BRANCH  18  19
HETATM   19  C   UNL     1     -13.126  12.613  71.913  1.00  0.00    -0.470 C  
HETATM   20  C   UNL     1     -13.579  14.030  71.652  1.00  0.00    -0.350 C  
HETATM   21  O   UNL     1     -13.380  14.651  70.620  1.00  0.00    -0.313 OA 
HETATM   22  O   UNL     1     -14.245  14.551  72.704  1.00  0.00    -0.499 OA 
ENDBRANCH  18  19
ENDBRANCH  17  18
ENDBRANCH  16  17
ENDBRANCH  14  15
ENDBRANCH  13  14
ENDBRANCH  11  12
ENDBRANCH  10  11
ENDBRANCH   8   9
ENDBRANCH   7   8
ENDBRANCH   5   6
ENDBRANCH   4   5
ENDBRANCH   2   3
TORSDOF 12
ENDMDL
MODEL      122
REMARK 921   NORMALIZED FREE ENERGY PREDICTED BY IDOCK:   -4.38 KCAL/MOL
REMARK 922        TOTAL FREE ENERGY PREDICTED BY IDOCK:   -9.95 KCAL/MOL
REMARK 923 INTER-LIGAND FREE ENERGY PREDICTED BY IDOCK:   -7.00 KCAL/MOL
REMARK 924 INTRA-LIGAND FREE ENERGY PREDICTED BY IDOCK:   -2.95 KCAL/MOL
REMARK 927      BINDING AFFINITY PREDICTED BY RF-SCORE:    0.00 PKD
ROOT
HETATM    1  C   UNL     1     -12.378  16.319  73.425  1.00  0.00    -0.631 C  
HETATM    2  C   UNL     1     -12.503  14.804  73.465  1.00  0.00    -0.514 C  
ENDROOT
BRANCH   2   3
HETATM    3  C   UNL     1     -13.660  14.313  72.639  1.00  0.00    -0.601 C  
HETATM    4  C   UNL     1     -13.622  14.053  71.318  1.00  0.00    -0.268 C  
BRANCH   4   5
HETATM    5  C   UNL     1     -12.394  14.183  70.467  1.00  0.00    -0.434 C  
BRANCH   5   6
HETATM    6  C   UNL     1     -11.829  12.856  70.039  1.00  0.00    -0.356 C  
HETATM    7  C   UNL     1     -11.607  12.487  68.770  1.00  0.00    -0.366 C  
BRANCH   7   8
HETATM    8  C   UNL     1     -11.789  13.415  67.608  1.00  0.00    -0.394 C  
BRANCH   8   9
HETATM    9  C   UNL     1     -11.926  12.679  66.310  1.00  0.00    -0.439 C  
HETATM   10  C   UNL     1     -11.313  13.001  65.155  1.00  0.00    -0.320 C  
BRANCH  10  11
HETATM   11  C   UNL     1     -10.387  14.165  64.925  1.00  0.00    -0.435 C  
BRANCH  11  12
HETATM   12  C   UNL     1     -11.001  15.543  65.021  1.00  0.00    -0.454 C  
HETATM   13  C   UNL     1     -10.609  16.604  65.752  1.00  0.00    -0.278 C  
BRANCH  13  14
HETATM   14  C   UNL     1      -9.480  16.621  66.735  1.00  0.00    -0.260 C  
BRANCH  14  15
HETATM   15  C   UNL     1      -9.908  16.407  68.156  1.00  0.00    -0.238 C  
HETATM   16  C   UNL     1      -9.195  15.680  69.032  1.00  0.00    -0.243 C  
BRANCH  16  17
HETATM   17  C   UNL     1      -7.940  14.962  68.631  1.00  0.00    -0.144 C  
BRANCH  17  18
HETATM   18  C   UNL     1      -8.080  13.450  68.635  1.00  0.00    -0.040 C  
BRANCH  18  19
HETATM   19  C   UNL     1      -8.018  12.920  67.206  1.00  0.00    -0.151 C  
HETATM   20  C   UNL     1      -8.341  11.446  67.144  1.00  0.00    -0.155 C  
HETATM   21  O   UNL     1      -8.607  10.746  68.108  1.00  0.00    -0.121 OA 
HETATM   22  O   UNL     1      -8.305  10.971  65.882  1.00  0.00    -0.164 OA 
ENDBRANCH  18  19
ENDBRANCH  17  18
ENDBRANCH  16  17
ENDBRANCH  14  15
ENDBRANCH  13  14
ENDBRANCH  11  12
ENDBRANCH  10  11
ENDBRANCH   8   9
ENDBRANCH   7   8
ENDBRANCH   5   6
ENDBRANCH   4   5
ENDBRANCH   2   3
TORSDOF 12
ENDMDL
MODEL      123
REMARK 921   NORMALIZED FREE ENERGY PREDICTED BY IDOCK:   -4.37 KCAL/MOL
REMARK 922        TOTAL FREE ENERGY PREDICTED BY IDOCK:   -9.95 KCAL/MOL
REMARK 923 INTER-LIGAND FREE ENERGY PREDICTED BY IDOCK:   -7.60 KCAL/MOL
REMARK 924 INTRA-LIGAND FREE ENERGY PREDICTED BY IDOCK:   -2.35 KCAL/MOL
REMARK 927      BINDING AFFINITY PREDICTED BY RF-SCORE:    0.00 PKD
ROOT
HETATM    1  C   UNL     1     -13.143  10.184  71.803  1.00  0.00    -0.568 C  
HETATM    2  C   UNL     1     -12.462  10.971  70.694  1.00  0.00    -0.465 C  
ENDROOT
BRANCH   2   3
HETATM    3  C   UNL     1     -11.106  10.411  70.359  1.00  0.00    -0.371 C  
HETATM    4  C   UNL     1     -10.510  10.478  69.154  1.00  0.00    -0.250 C  
BRANCH   4   5
HETATM    5  C   UNL     1     -11.102  11.160  67.955  1.00  0.00    -0.334 C  
BRANCH   5   6
HETATM    6  C   UNL     1     -10.178  11.176  66.769  1.00  0.00    -0.272 C  
HETATM    7  C   UNL     1      -9.217  12.086  66.553  1.00  0.00    -0.216 C  
BRANCH   7   8
HETATM    8  C   UNL     1      -8.864  13.149  67.548  1.00  0.00    -0.199 C  
BRANCH   8   9
HETATM    9  C   UNL     1      -7.484  13.694  67.331  1.00  0.00    -0.139 C  
HETATM   10  C   UNL     1      -6.956  14.765  67.951  1.00  0.00    -0.173 C  
BRANCH  10  11
HETATM   11  C   UNL     1      -7.640  15.642  68.965  1.00  0.00    -0.187 C  
BRANCH  11  12
HETATM   12  C   UNL     1      -8.087  17.005  68.486  1.00  0.00    -0.251 C  
HETATM   13  C   UNL     1      -9.301  17.582  68.561  1.00  0.00    -0.286 C  
BRANCH  13  14
HETATM   14  C   UNL     1     -10.545  16.935  69.085  1.00  0.00    -0.330 C  
BRANCH  14  15
HETATM   15  C   UNL     1     -11.225  16.035  68.096  1.00  0.00    -0.325 C  
HETATM   16  C   UNL     1     -11.711  14.826  68.423  1.00  0.00    -0.343 C  
BRANCH  16  17
HETATM   17  C   UNL     1     -11.547  14.250  69.799  1.00  0.00    -0.350 C  
BRANCH  17  18
HETATM   18  C   UNL     1     -12.697  14.580  70.735  1.00  0.00    -0.425 C  
BRANCH  18  19
HETATM   19  C   UNL     1     -12.152  15.105  72.060  1.00  0.00    -0.453 C  
HETATM   20  C   UNL     1     -13.231  15.771  72.880  1.00  0.00    -0.545 C  
HETATM   21  O   UNL     1     -14.396  15.895  72.538  1.00  0.00    -0.468 OA 
HETATM   22  O   UNL     1     -12.763  16.226  74.061  1.00  0.00    -0.644 OA 
ENDBRANCH  18  19
ENDBRANCH  17  18
ENDBRANCH  16  17
ENDBRANCH  14  15
ENDBRANCH  13  14
ENDBRANCH  11  12
ENDBRANCH  10  11
ENDBRANCH   8   9
ENDBRANCH   7   8
ENDBRANCH   5   6
ENDBRANCH   4   5
ENDBRANCH   2   3
TORSDOF 12
ENDMDL
MODEL      124
REMARK 921   NORMALIZED FREE ENERGY PREDICTED BY IDOCK:   -4.36 KCAL/MOL
REMARK 922        TOTAL FREE ENERGY PREDICTED BY IDOCK:   -9.92 KCAL/MOL
REMARK 923 INTER-LIGAND FREE ENERGY PREDICTED BY IDOCK:   -6.53 KCAL/MOL
REMARK 924 INTRA-LIGAND FREE ENERGY PREDICTED BY IDOCK:   -3.39 KCAL/MOL
REMARK 927      BINDING AFFINITY PREDICTED BY RF-SCORE:    0.00 PKD
ROOT
HETATM    1  C   UNL     1     -11.908  11.850  63.559  1.00  0.00    -0.560 C  
HETATM    2  C   UNL     1     -10.579  11.869  64.298  1.00  0.00    -0.381 C  
ENDROOT
BRANCH   2   3
HETATM    3  C   UNL     1     -10.082  10.481  64.596  1.00  0.00    -0.408 C  
HETATM    4  C   UNL     1      -9.535  10.080  65.760  1.00  0.00    -0.270 C  
BRANCH   4   5
HETATM    5  C   UNL     1      -9.370  10.961  66.962  1.00  0.00    -0.180 C  
BRANCH   5   6
HETATM    6  C   UNL     1      -7.977  11.509  67.106  1.00  0.00    -0.160 C  
HETATM    7  C   UNL     1      -7.673  12.799  67.308  1.00  0.00    -0.129 C  
BRANCH   7   8
HETATM    8  C   UNL     1      -8.711  13.855  67.535  1.00  0.00    -0.194 C  
BRANCH   8   9
HETATM    9  C   UNL     1      -9.072  14.576  66.272  1.00  0.00    -0.164 C  
HETATM   10  C   UNL     1     -10.294  15.043  65.956  1.00  0.00    -0.326 C  
BRANCH  10  11
HETATM   11  C   UNL     1     -11.543  14.922  66.787  1.00  0.00    -0.275 C  
BRANCH  11  12
HETATM   12  C   UNL     1     -12.149  13.542  66.896  1.00  0.00    -0.417 C  
HETATM   13  C   UNL     1     -12.158  12.692  67.941  1.00  0.00    -0.158 C  
BRANCH  13  14
HETATM   14  C   UNL     1     -11.465  12.908  69.249  1.00  0.00    -0.341 C  
BRANCH  14  15
HETATM   15  C   UNL     1     -12.274  13.688  70.243  1.00  0.00    -0.423 C  
HETATM   16  C   UNL     1     -11.899  14.893  70.704  1.00  0.00    -0.357 C  
BRANCH  16  17
HETATM   17  C   UNL     1     -10.595  15.523  70.310  1.00  0.00    -0.324 C  
BRANCH  17  18
HETATM   18  C   UNL     1     -10.760  16.823  69.541  1.00  0.00    -0.273 C  
BRANCH  18  19
HETATM   19  C   UNL     1      -9.425  17.232  68.925  1.00  0.00    -0.210 C  
HETATM   20  C   UNL     1      -9.609  18.259  67.832  1.00  0.00    -0.289 C  
HETATM   21  O   UNL     1     -10.683  18.707  67.465  1.00  0.00    -0.432 OA 
HETATM   22  O   UNL     1      -8.433  18.639  67.291  1.00  0.00    -0.260 OA 
ENDBRANCH  18  19
ENDBRANCH  17  18
ENDBRANCH  16  17
ENDBRANCH  14  15
ENDBRANCH  13  14
ENDBRANCH  11  12
ENDBRANCH  10  11
ENDBRANCH   8   9
ENDBRANCH   7   8
ENDBRANCH   5   6
ENDBRANCH   4   5
ENDBRANCH   2   3
TORSDOF 12
ENDMDL
MODEL      125
REMARK 921   NORMALIZED FREE ENERGY PREDICTED BY IDOCK:   -4.36 KCAL/MOL
REMARK 922        TOTAL FREE ENERGY PREDICTED BY IDOCK:   -9.92 KCAL/MOL
REMARK 923 INTER-LIGAND FREE ENERGY PREDICTED BY IDOCK:   -7.30 KCAL/MOL
REMARK 924 INTRA-LIGAND FREE ENERGY PREDICTED BY IDOCK:   -2.62 KCAL/MOL
REMARK 927      BINDING AFFINITY PREDICTED BY RF-SCORE:    0.00 PKD
ROOT
HETATM    1  C   UNL     1      -9.481   9.622  65.099  1.00  0.00    -0.332 C  
HETATM    2  C   UNL     1     -10.052  11.031  65.067  1.00  0.00    -0.354 C  
ENDROOT
BRANCH   2   3
HETATM    3  C   UNL     1     -10.838  11.290  63.811  1.00  0.00    -0.424 C  
HETATM    4  C   UNL     1     -11.900  12.111  63.709  1.00  0.00    -0.592 C  
BRANCH   4   5
HETATM    5  C   UNL     1     -12.447  12.928  64.843  1.00  0.00    -0.540 C  
BRANCH   5   6
HETATM    6  C   UNL     1     -12.356  14.410  64.600  1.00  0.00    -0.435 C  
HETATM    7  C   UNL     1     -11.290  15.172  64.881  1.00  0.00    -0.402 C  
BRANCH   7   8
HETATM    8  C   UNL     1      -9.991  14.608  65.373  1.00  0.00    -0.365 C  
BRANCH   8   9
HETATM    9  C   UNL     1      -9.201  15.608  66.161  1.00  0.00    -0.378 C  
HETATM   10  C   UNL     1      -9.067  15.624  67.500  1.00  0.00    -0.198 C  
BRANCH  10  11
HETATM   11  C   UNL     1      -9.691  14.663  68.475  1.00  0.00    -0.225 C  
BRANCH  11  12
HETATM   12  C   UNL     1     -11.190  14.755  68.645  1.00  0.00    -0.288 C  
HETATM   13  C   UNL     1     -12.113  13.774  68.636  1.00  0.00    -0.333 C  
BRANCH  13  14
HETATM   14  C   UNL     1     -11.849  12.327  68.360  1.00  0.00    -0.358 C  
BRANCH  14  15
HETATM   15  C   UNL     1     -11.797  11.473  69.591  1.00  0.00    -0.421 C  
HETATM   16  C   UNL     1     -10.817  10.585  69.823  1.00  0.00    -0.335 C  
BRANCH  16  17
HETATM   17  C   UNL     1      -9.726  10.327  68.824  1.00  0.00    -0.178 C  
BRANCH  17  18
HETATM   18  C   UNL     1      -9.251   8.885  68.806  1.00  0.00    -0.140 C  
BRANCH  18  19
HETATM   19  C   UNL     1     -10.146   8.034  69.701  1.00  0.00    -0.198 C  
HETATM   20  C   UNL     1     -10.894   6.988  68.907  1.00  0.00    -0.167 C  
HETATM   21  O   UNL     1     -10.814   6.836  67.698  1.00  0.00    -0.255 OA 
HETATM   22  O   UNL     1     -11.677   6.219  69.691  1.00  0.00    -0.382 OA 
ENDBRANCH  18  19
ENDBRANCH  17  18
ENDBRANCH  16  17
ENDBRANCH  14  15
ENDBRANCH  13  14
ENDBRANCH  11  12
ENDBRANCH  10  11
ENDBRANCH   8   9
ENDBRANCH   7   8
ENDBRANCH   5   6
ENDBRANCH   4   5
ENDBRANCH   2   3
TORSDOF 12
ENDMDL
MODEL      126
REMARK 921   NORMALIZED FREE ENERGY PREDICTED BY IDOCK:   -4.35 KCAL/MOL
REMARK 922        TOTAL FREE ENERGY PREDICTED BY IDOCK:   -9.90 KCAL/MOL
REMARK 923 INTER-LIGAND FREE ENERGY PREDICTED BY IDOCK:   -7.41 KCAL/MOL
REMARK 924 INTRA-LIGAND FREE ENERGY PREDICTED BY IDOCK:   -2.49 KCAL/MOL
REMARK 927      BINDING AFFINITY PREDICTED BY RF-SCORE:    0.00 PKD
ROOT
HETATM    1  C   UNL     1     -14.315   7.733  71.733  1.00  0.00    -0.594 C  
HETATM    2  C   UNL     1     -13.632   9.088  71.629  1.00  0.00    -0.446 C  
ENDROOT
BRANCH   2   3
HETATM    3  C   UNL     1     -12.169   9.007  71.966  1.00  0.00    -0.446 C  
HETATM    4  C   UNL     1     -11.243   8.321  71.270  1.00  0.00    -0.302 C  
BRANCH   4   5
HETATM    5  C   UNL     1     -11.531   7.551  70.015  1.00  0.00    -0.049 C  
BRANCH   5   6
HETATM    6  C   UNL     1     -10.293   6.995  69.367  1.00  0.00    -0.218 C  
HETATM    7  C   UNL     1      -9.848   7.326  68.146  1.00  0.00    -0.165 C  
BRANCH   7   8
HETATM    8  C   UNL     1     -10.479   8.399  67.312  1.00  0.00    -0.373 C  
BRANCH   8   9
HETATM    9  C   UNL     1      -9.726   9.692  67.387  1.00  0.00    -0.198 C  
HETATM   10  C   UNL     1     -10.191  10.844  67.906  1.00  0.00    -0.205 C  
BRANCH  10  11
HETATM   11  C   UNL     1     -11.556  11.074  68.496  1.00  0.00    -0.380 C  
BRANCH  11  12
HETATM   12  C   UNL     1     -11.609  11.859  69.786  1.00  0.00    -0.359 C  
HETATM   13  C   UNL     1     -11.921  13.154  69.988  1.00  0.00    -0.391 C  
BRANCH  13  14
HETATM   14  C   UNL     1     -12.215  14.159  68.918  1.00  0.00    -0.257 C  
BRANCH  14  15
HETATM   15  C   UNL     1     -11.032  14.500  68.063  1.00  0.00    -0.269 C  
HETATM   16  C   UNL     1     -11.056  14.430  66.722  1.00  0.00    -0.323 C  
BRANCH  16  17
HETATM   17  C   UNL     1     -12.258  13.932  65.974  1.00  0.00    -0.495 C  
BRANCH  17  18
HETATM   18  C   UNL     1     -12.001  12.650  65.201  1.00  0.00    -0.474 C  
BRANCH  18  19
HETATM   19  C   UNL     1     -10.949  12.898  64.124  1.00  0.00    -0.442 C  
HETATM   20  C   UNL     1     -10.215  11.629  63.761  1.00  0.00    -0.389 C  
HETATM   21  O   UNL     1     -10.415  10.535  64.264  1.00  0.00    -0.287 OA 
HETATM   22  O   UNL     1      -9.292  11.834  62.798  1.00  0.00    -0.351 OA 
ENDBRANCH  18  19
ENDBRANCH  17  18
ENDBRANCH  16  17
ENDBRANCH  14  15
ENDBRANCH  13  14
ENDBRANCH  11  12
ENDBRANCH  10  11
ENDBRANCH   8   9
ENDBRANCH   7   8
ENDBRANCH   5   6
ENDBRANCH   4   5
ENDBRANCH   2   3
TORSDOF 12
ENDMDL
MODEL      127
REMARK 921   NORMALIZED FREE ENERGY PREDICTED BY IDOCK:   -4.35 KCAL/MOL
REMARK 922        TOTAL FREE ENERGY PREDICTED BY IDOCK:   -9.90 KCAL/MOL
REMARK 923 INTER-LIGAND FREE ENERGY PREDICTED BY IDOCK:   -6.95 KCAL/MOL
REMARK 924 INTRA-LIGAND FREE ENERGY PREDICTED BY IDOCK:   -2.96 KCAL/MOL
REMARK 927      BINDING AFFINITY PREDICTED BY RF-SCORE:    0.00 PKD
ROOT
HETATM    1  C   UNL     1     -10.772  10.146  69.390  1.00  0.00    -0.266 C  
HETATM    2  C   UNL     1     -11.558  11.405  69.717  1.00  0.00    -0.407 C  
ENDROOT
BRANCH   2   3
HETATM    3  C   UNL     1     -11.892  12.196  68.482  1.00  0.00    -0.365 C  
HETATM    4  C   UNL     1     -11.820  13.536  68.369  1.00  0.00    -0.408 C  
BRANCH   4   5
HETATM    5  C   UNL     1     -11.357  14.452  69.464  1.00  0.00    -0.318 C  
BRANCH   5   6
HETATM    6  C   UNL     1     -11.592  15.905  69.157  1.00  0.00    -0.382 C  
HETATM    7  C   UNL     1     -10.638  16.788  68.830  1.00  0.00    -0.350 C  
BRANCH   7   8
HETATM    8  C   UNL     1      -9.207  16.398  68.613  1.00  0.00    -0.231 C  
BRANCH   8   9
HETATM    9  C   UNL     1      -8.656  16.952  67.335  1.00  0.00    -0.214 C  
HETATM   10  C   UNL     1      -8.929  16.497  66.098  1.00  0.00    -0.344 C  
BRANCH  10  11
HETATM   11  C   UNL     1      -9.820  15.336  65.747  1.00  0.00    -0.395 C  
BRANCH  11  12
HETATM   12  C   UNL     1     -10.929  15.614  64.757  1.00  0.00    -0.418 C  
HETATM   13  C   UNL     1     -11.898  14.795  64.306  1.00  0.00    -0.335 C  
BRANCH  13  14
HETATM   14  C   UNL     1     -12.041  13.343  64.641  1.00  0.00    -0.456 C  
BRANCH  14  15
HETATM   15  C   UNL     1     -11.406  12.423  63.641  1.00  0.00    -0.556 C  
HETATM   16  C   UNL     1     -10.741  11.310  63.992  1.00  0.00    -0.444 C  
BRANCH  16  17
HETATM   17  C   UNL     1     -10.520  10.938  65.429  1.00  0.00    -0.291 C  
BRANCH  17  18
HETATM   18  C   UNL     1      -9.068  11.037  65.864  1.00  0.00    -0.214 C  
BRANCH  18  19
HETATM   19  C   UNL     1      -8.877  12.263  66.752  1.00  0.00    -0.195 C  
HETATM   20  C   UNL     1      -7.926  11.981  67.891  1.00  0.00    -0.147 C  
HETATM   21  O   UNL     1      -7.379  10.910  68.099  1.00  0.00    -0.084 OA 
HETATM   22  O   UNL     1      -7.737  13.064  68.674  1.00  0.00    -0.127 OA 
ENDBRANCH  18  19
ENDBRANCH  17  18
ENDBRANCH  16  17
ENDBRANCH  14  15
ENDBRANCH  13  14
ENDBRANCH  11  12
ENDBRANCH  10  11
ENDBRANCH   8   9
ENDBRANCH   7   8
ENDBRANCH   5   6
ENDBRANCH   4   5
ENDBRANCH   2   3
TORSDOF 12
ENDMDL
MODEL      128
REMARK 921   NORMALIZED FREE ENERGY PREDICTED BY IDOCK:   -4.33 KCAL/MOL
REMARK 922        TOTAL FREE ENERGY PREDICTED BY IDOCK:   -9.88 KCAL/MOL
REMARK 923 INTER-LIGAND FREE ENERGY PREDICTED BY IDOCK:   -7.34 KCAL/MOL
REMARK 924 INTRA-LIGAND FREE ENERGY PREDICTED BY IDOCK:   -2.54 KCAL/MOL
REMARK 927      BINDING AFFINITY PREDICTED BY RF-SCORE:    0.00 PKD
ROOT
HETATM    1  C   UNL     1     -13.021  11.369  71.802  1.00  0.00    -0.519 C  
HETATM    2  C   UNL     1     -12.240  11.798  70.571  1.00  0.00    -0.438 C  
ENDROOT
BRANCH   2   3
HETATM    3  C   UNL     1     -12.262  13.289  70.382  1.00  0.00    -0.404 C  
HETATM    4  C   UNL     1     -12.101  13.932  69.210  1.00  0.00    -0.383 C  
BRANCH   4   5
HETATM    5  C   UNL     1     -11.906  13.244  67.891  1.00  0.00    -0.388 C  
BRANCH   5   6
HETATM    6  C   UNL     1     -11.407  14.165  66.812  1.00  0.00    -0.353 C  
HETATM    7  C   UNL     1     -11.495  13.929  65.495  1.00  0.00    -0.319 C  
BRANCH   7   8
HETATM    8  C   UNL     1     -12.222  12.749  64.926  1.00  0.00    -0.519 C  
BRANCH   8   9
HETATM    9  C   UNL     1     -11.427  12.051  63.864  1.00  0.00    -0.518 C  
HETATM   10  C   UNL     1     -10.520  11.079  64.072  1.00  0.00    -0.433 C  
BRANCH  10  11
HETATM   11  C   UNL     1     -10.107  10.508  65.402  1.00  0.00    -0.358 C  
BRANCH  11  12
HETATM   12  C   UNL     1      -8.856  11.087  66.024  1.00  0.00    -0.199 C  
HETATM   13  C   UNL     1      -8.543  11.247  67.324  1.00  0.00    -0.143 C  
BRANCH  13  14
HETATM   14  C   UNL     1      -9.442  10.950  68.483  1.00  0.00    -0.185 C  
BRANCH  14  15
HETATM   15  C   UNL     1      -8.796  10.126  69.557  1.00  0.00    -0.198 C  
HETATM   16  C   UNL     1      -9.373   9.032  70.083  1.00  0.00    -0.213 C  
BRANCH  16  17
HETATM   17  C   UNL     1     -10.749   8.590  69.683  1.00  0.00    -0.200 C  
BRANCH  17  18
HETATM   18  C   UNL     1     -11.580   8.072  70.844  1.00  0.00    -0.284 C  
BRANCH  18  19
HETATM   19  C   UNL     1     -10.810   8.246  72.150  1.00  0.00    -0.390 C  
HETATM   20  C   UNL     1     -10.835   6.986  72.982  1.00  0.00    -0.309 C  
HETATM   21  O   UNL     1     -11.404   5.952  72.672  1.00  0.00    -0.281 OA 
HETATM   22  O   UNL     1     -10.142   7.124  74.132  1.00  0.00    -0.309 OA 
ENDBRANCH  18  19
ENDBRANCH  17  18
ENDBRANCH  16  17
ENDBRANCH  14  15
ENDBRANCH  13  14
ENDBRANCH  11  12
ENDBRANCH  10  11
ENDBRANCH   8   9
ENDBRANCH   7   8
ENDBRANCH   5   6
ENDBRANCH   4   5
ENDBRANCH   2   3
TORSDOF 12
ENDMDL
MODEL      129
REMARK 921   NORMALIZED FREE ENERGY PREDICTED BY IDOCK:   -4.32 KCAL/MOL
REMARK 922        TOTAL FREE ENERGY PREDICTED BY IDOCK:   -9.86 KCAL/MOL
REMARK 923 INTER-LIGAND FREE ENERGY PREDICTED BY IDOCK:   -7.30 KCAL/MOL
REMARK 924 INTRA-LIGAND FREE ENERGY PREDICTED BY IDOCK:   -2.56 KCAL/MOL
REMARK 927      BINDING AFFINITY PREDICTED BY RF-SCORE:    0.00 PKD
ROOT
HETATM    1  C   UNL     1     -13.377  15.269  71.499  1.00  0.00    -0.559 C  
HETATM    2  C   UNL     1     -12.247  15.253  70.481  1.00  0.00    -0.415 C  
ENDROOT
BRANCH   2   3
HETATM    3  C   UNL     1     -12.168  13.942  69.749  1.00  0.00    -0.388 C  
HETATM    4  C   UNL     1     -11.918  13.795  68.434  1.00  0.00    -0.395 C  
BRANCH   4   5
HETATM    5  C   UNL     1     -11.643  14.932  67.495  1.00  0.00    -0.355 C  
BRANCH   5   6
HETATM    6  C   UNL     1     -10.540  14.636  66.516  1.00  0.00    -0.300 C  
HETATM    7  C   UNL     1      -9.232  14.624  66.809  1.00  0.00    -0.285 C  
BRANCH   7   8
HETATM    8  C   UNL     1      -8.708  14.794  68.203  1.00  0.00    -0.168 C  
BRANCH   8   9
HETATM    9  C   UNL     1      -7.331  15.386  68.223  1.00  0.00    -0.113 C  
HETATM   10  C   UNL     1      -6.179  14.698  68.121  1.00  0.00    -0.146 C  
BRANCH  10  11
HETATM   11  C   UNL     1      -6.034  13.206  67.987  1.00  0.00    -0.117 C  
BRANCH  11  12
HETATM   12  C   UNL     1      -6.629  12.368  69.095  1.00  0.00    -0.099 C  
HETATM   13  C   UNL     1      -7.483  11.330  69.019  1.00  0.00    -0.116 C  
BRANCH  13  14
HETATM   14  C   UNL     1      -8.120  10.813  67.767  1.00  0.00    -0.111 C  
BRANCH  14  15
HETATM   15  C   UNL     1      -9.617  10.911  67.761  1.00  0.00    -0.176 C  
HETATM   16  C   UNL     1     -10.336  11.026  66.633  1.00  0.00    -0.288 C  
BRANCH  16  17
HETATM   17  C   UNL     1      -9.687  11.136  65.285  1.00  0.00    -0.285 C  
BRANCH  17  18
HETATM   18  C   UNL     1     -10.660  10.981  64.129  1.00  0.00    -0.412 C  
BRANCH  18  19
HETATM   19  C   UNL     1     -10.952  12.345  63.512  1.00  0.00    -0.506 C  
HETATM   20  C   UNL     1     -12.337  12.832  63.870  1.00  0.00    -0.426 C  
HETATM   21  O   UNL     1     -13.140  12.220  64.555  1.00  0.00    -0.791 OA 
HETATM   22  O   UNL     1     -12.600  14.046  63.342  1.00  0.00    -0.845 OA 
ENDBRANCH  18  19
ENDBRANCH  17  18
ENDBRANCH  16  17
ENDBRANCH  14  15
ENDBRANCH  13  14
ENDBRANCH  11  12
ENDBRANCH  10  11
ENDBRANCH   8   9
ENDBRANCH   7   8
ENDBRANCH   5   6
ENDBRANCH   4   5
ENDBRANCH   2   3
TORSDOF 12
ENDMDL
MODEL      130
REMARK 921   NORMALIZED FREE ENERGY PREDICTED BY IDOCK:   -4.32 KCAL/MOL
REMARK 922        TOTAL FREE ENERGY PREDICTED BY IDOCK:   -9.86 KCAL/MOL
REMARK 923 INTER-LIGAND FREE ENERGY PREDICTED BY IDOCK:   -7.21 KCAL/MOL
REMARK 924 INTRA-LIGAND FREE ENERGY PREDICTED BY IDOCK:   -2.65 KCAL/MOL
REMARK 927      BINDING AFFINITY PREDICTED BY RF-SCORE:    0.00 PKD
ROOT
HETATM    1  C   UNL     1     -10.366   5.883  68.608  1.00  0.00    -0.271 C  
HETATM    2  C   UNL     1     -11.528   6.484  69.382  1.00  0.00    -0.346 C  
ENDROOT
BRANCH   2   3
HETATM    3  C   UNL     1     -11.312   6.408  70.869  1.00  0.00    -0.398 C  
HETATM    4  C   UNL     1     -12.089   6.990  71.802  1.00  0.00    -0.371 C  
BRANCH   4   5
HETATM    5  C   UNL     1     -13.324   7.785  71.496  1.00  0.00    -0.365 C  
BRANCH   5   6
HETATM    6  C   UNL     1     -13.367   9.108  72.210  1.00  0.00    -0.540 C  
HETATM    7  C   UNL     1     -12.873  10.258  71.730  1.00  0.00    -0.565 C  
BRANCH   7   8
HETATM    8  C   UNL     1     -12.312  10.390  70.347  1.00  0.00    -0.370 C  
BRANCH   8   9
HETATM    9  C   UNL     1     -10.828  10.184  70.315  1.00  0.00    -0.370 C  
HETATM   10  C   UNL     1     -10.099   9.887  69.223  1.00  0.00    -0.214 C  
BRANCH  10  11
HETATM   11  C   UNL     1     -10.620   9.683  67.826  1.00  0.00    -0.320 C  
BRANCH  11  12
HETATM   12  C   UNL     1     -10.060  10.596  66.759  1.00  0.00    -0.272 C  
HETATM   13  C   UNL     1     -10.517  11.788  66.327  1.00  0.00    -0.281 C  
BRANCH  13  14
HETATM   14  C   UNL     1     -11.781  12.453  66.774  1.00  0.00    -0.430 C  
BRANCH  14  15
HETATM   15  C   UNL     1     -11.681  13.107  68.120  1.00  0.00    -0.391 C  
HETATM   16  C   UNL     1     -11.540  14.433  68.279  1.00  0.00    -0.359 C  
BRANCH  16  17
HETATM   17  C   UNL     1     -11.400  15.362  67.109  1.00  0.00    -0.203 C  
BRANCH  17  18
HETATM   18  C   UNL     1     -10.118  16.178  67.134  1.00  0.00    -0.269 C  
BRANCH  18  19
HETATM   19  C   UNL     1      -8.958  15.334  66.617  1.00  0.00    -0.324 C  
HETATM   20  C   UNL     1      -7.894  15.144  67.673  1.00  0.00    -0.160 C  
HETATM   21  O   UNL     1      -7.935  15.609  68.800  1.00  0.00    -0.148 OA 
HETATM   22  O   UNL     1      -6.870  14.385  67.230  1.00  0.00    -0.241 OA 
ENDBRANCH  18  19
ENDBRANCH  17  18
ENDBRANCH  16  17
ENDBRANCH  14  15
ENDBRANCH  13  14
ENDBRANCH  11  12
ENDBRANCH  10  11
ENDBRANCH   8   9
ENDBRANCH   7   8
ENDBRANCH   5   6
ENDBRANCH   4   5
ENDBRANCH   2   3
TORSDOF 12
ENDMDL
MODEL      131
REMARK 921   NORMALIZED FREE ENERGY PREDICTED BY IDOCK:   -4.32 KCAL/MOL
REMARK 922        TOTAL FREE ENERGY PREDICTED BY IDOCK:   -9.85 KCAL/MOL
REMARK 923 INTER-LIGAND FREE ENERGY PREDICTED BY IDOCK:   -7.38 KCAL/MOL
REMARK 924 INTRA-LIGAND FREE ENERGY PREDICTED BY IDOCK:   -2.47 KCAL/MOL
REMARK 927      BINDING AFFINITY PREDICTED BY RF-SCORE:    0.00 PKD
ROOT
HETATM    1  C   UNL     1      -8.651  15.206  66.951  1.00  0.00    -0.289 C  
HETATM    2  C   UNL     1      -9.714  14.274  66.389  1.00  0.00    -0.315 C  
ENDROOT
BRANCH   2   3
HETATM    3  C   UNL     1     -11.087  14.883  66.456  1.00  0.00    -0.341 C  
HETATM    4  C   UNL     1     -12.235  14.260  66.129  1.00  0.00    -0.430 C  
BRANCH   4   5
HETATM    5  C   UNL     1     -12.320  12.832  65.674  1.00  0.00    -0.444 C  
BRANCH   5   6
HETATM    6  C   UNL     1     -12.466  12.695  64.184  1.00  0.00    -0.488 C  
HETATM    7  C   UNL     1     -11.504  12.271  63.352  1.00  0.00    -0.512 C  
BRANCH   7   8
HETATM    8  C   UNL     1     -10.179  11.762  63.830  1.00  0.00    -0.411 C  
BRANCH   8   9
HETATM    9  C   UNL     1      -9.777  10.492  63.144  1.00  0.00    -0.351 C  
HETATM   10  C   UNL     1      -9.034   9.508  63.684  1.00  0.00    -0.207 C  
BRANCH  10  11
HETATM   11  C   UNL     1      -8.442   9.487  65.067  1.00  0.00    -0.165 C  
BRANCH  11  12
HETATM   12  C   UNL     1      -9.049   8.507  66.045  1.00  0.00    -0.246 C  
HETATM   13  C   UNL     1     -10.087   8.671  66.888  1.00  0.00    -0.355 C  
BRANCH  13  14
HETATM   14  C   UNL     1     -10.842   9.945  67.106  1.00  0.00    -0.227 C  
BRANCH  14  15
HETATM   15  C   UNL     1     -10.076  10.982  67.871  1.00  0.00    -0.199 C  
HETATM   16  C   UNL     1     -10.332  11.280  69.155  1.00  0.00    -0.156 C  
BRANCH  16  17
HETATM   17  C   UNL     1     -11.462  10.641  69.908  1.00  0.00    -0.393 C  
BRANCH  17  18
HETATM   18  C   UNL     1     -11.002   9.751  71.050  1.00  0.00    -0.402 C  
BRANCH  18  19
HETATM   19  C   UNL     1     -11.627   8.367  70.912  1.00  0.00    -0.288 C  
HETATM   20  C   UNL     1     -12.866   8.228  71.765  1.00  0.00    -0.338 C  
HETATM   21  O   UNL     1     -13.319   9.100  72.490  1.00  0.00    -0.458 OA 
HETATM   22  O   UNL     1     -13.436   7.012  71.637  1.00  0.00    -0.365 OA 
ENDBRANCH  18  19
ENDBRANCH  17  18
ENDBRANCH  16  17
ENDBRANCH  14  15
ENDBRANCH  13  14
ENDBRANCH  11  12
ENDBRANCH  10  11
ENDBRANCH   8   9
ENDBRANCH   7   8
ENDBRANCH   5   6
ENDBRANCH   4   5
ENDBRANCH   2   3
TORSDOF 12
ENDMDL
MODEL      132
REMARK 921   NORMALIZED FREE ENERGY PREDICTED BY IDOCK:   -4.31 KCAL/MOL
REMARK 922        TOTAL FREE ENERGY PREDICTED BY IDOCK:   -9.85 KCAL/MOL
REMARK 923 INTER-LIGAND FREE ENERGY PREDICTED BY IDOCK:   -8.20 KCAL/MOL
REMARK 924 INTRA-LIGAND FREE ENERGY PREDICTED BY IDOCK:   -1.65 KCAL/MOL
REMARK 927      BINDING AFFINITY PREDICTED BY RF-SCORE:    0.00 PKD
ROOT
HETATM    1  C   UNL     1      -8.621  19.435  68.601  1.00  0.00    -0.394 C  
HETATM    2  C   UNL     1     -10.029  18.864  68.558  1.00  0.00    -0.463 C  
ENDROOT
BRANCH   2   3
HETATM    3  C   UNL     1     -10.629  18.952  67.181  1.00  0.00    -0.531 C  
HETATM    4  C   UNL     1     -10.394  18.094  66.170  1.00  0.00    -0.394 C  
BRANCH   4   5
HETATM    5  C   UNL     1      -9.513  16.885  66.276  1.00  0.00    -0.298 C  
BRANCH   5   6
HETATM    6  C   UNL     1     -10.209  15.698  66.884  1.00  0.00    -0.281 C  
HETATM    7  C   UNL     1     -11.064  14.893  66.238  1.00  0.00    -0.340 C  
BRANCH   7   8
HETATM    8  C   UNL     1     -11.344  15.011  64.771  1.00  0.00    -0.409 C  
BRANCH   8   9
HETATM    9  C   UNL     1     -12.307  13.967  64.291  1.00  0.00    -0.393 C  
HETATM   10  C   UNL     1     -11.974  12.774  63.764  1.00  0.00    -0.585 C  
BRANCH  10  11
HETATM   11  C   UNL     1     -10.582  12.253  63.532  1.00  0.00    -0.488 C  
BRANCH  11  12
HETATM   12  C   UNL     1     -10.280  10.873  64.070  1.00  0.00    -0.422 C  
HETATM   13  C   UNL     1     -10.120  10.469  65.345  1.00  0.00    -0.358 C  
BRANCH  13  14
HETATM   14  C   UNL     1     -10.123  11.356  66.551  1.00  0.00    -0.250 C  
BRANCH  14  15
HETATM   15  C   UNL     1     -11.481  11.555  67.155  1.00  0.00    -0.313 C  
HETATM   16  C   UNL     1     -11.744  11.327  68.452  1.00  0.00    -0.365 C  
BRANCH  16  17
HETATM   17  C   UNL     1     -10.704  10.784  69.389  1.00  0.00    -0.272 C  
BRANCH  17  18
HETATM   18  C   UNL     1     -10.956   9.345  69.803  1.00  0.00    -0.234 C  
BRANCH  18  19
HETATM   19  C   UNL     1     -10.692   9.183  71.297  1.00  0.00    -0.401 C  
HETATM   20  C   UNL     1     -11.398   7.971  71.858  1.00  0.00    -0.283 C  
HETATM   21  O   UNL     1     -12.106   7.212  71.216  1.00  0.00    -0.312 OA 
HETATM   22  O   UNL     1     -11.159   7.810  73.176  1.00  0.00    -0.409 OA 
ENDBRANCH  18  19
ENDBRANCH  17  18
ENDBRANCH  16  17
ENDBRANCH  14  15
ENDBRANCH  13  14
ENDBRANCH  11  12
ENDBRANCH  10  11
ENDBRANCH   8   9
ENDBRANCH   7   8
ENDBRANCH   5   6
ENDBRANCH   4   5
ENDBRANCH   2   3
TORSDOF 12
ENDMDL
MODEL      133
REMARK 921   NORMALIZED FREE ENERGY PREDICTED BY IDOCK:   -4.31 KCAL/MOL
REMARK 922        TOTAL FREE ENERGY PREDICTED BY IDOCK:   -9.84 KCAL/MOL
REMARK 923 INTER-LIGAND FREE ENERGY PREDICTED BY IDOCK:   -7.34 KCAL/MOL
REMARK 924 INTRA-LIGAND FREE ENERGY PREDICTED BY IDOCK:   -2.49 KCAL/MOL
REMARK 927      BINDING AFFINITY PREDICTED BY RF-SCORE:    0.00 PKD
ROOT
HETATM    1  C   UNL     1      -8.779  15.901  66.218  1.00  0.00    -0.372 C  
HETATM    2  C   UNL     1     -10.002  14.999  66.209  1.00  0.00    -0.300 C  
ENDROOT
BRANCH   2   3
HETATM    3  C   UNL     1     -11.008  15.426  65.175  1.00  0.00    -0.430 C  
HETATM    4  C   UNL     1     -12.059  14.695  64.758  1.00  0.00    -0.428 C  
BRANCH   4   5
HETATM    5  C   UNL     1     -12.409  13.339  65.295  1.00  0.00    -0.525 C  
BRANCH   5   6
HETATM    6  C   UNL     1     -12.763  12.350  64.218  1.00  0.00    -0.437 C  
HETATM    7  C   UNL     1     -11.890  11.788  63.372  1.00  0.00    -0.435 C  
BRANCH   7   8
HETATM    8  C   UNL     1     -10.409  11.992  63.474  1.00  0.00    -0.492 C  
BRANCH   8   9
HETATM    9  C   UNL     1      -9.678  10.715  63.759  1.00  0.00    -0.382 C  
HETATM   10  C   UNL     1      -9.559  10.131  64.966  1.00  0.00    -0.362 C  
BRANCH  10  11
HETATM   11  C   UNL     1     -10.112  10.642  66.269  1.00  0.00    -0.291 C  
BRANCH  11  12
HETATM   12  C   UNL     1      -9.342  11.759  66.935  1.00  0.00    -0.197 C  
HETATM   13  C   UNL     1      -8.265  11.694  67.741  1.00  0.00    -0.141 C  
BRANCH  13  14
HETATM   14  C   UNL     1      -7.621  10.438  68.240  1.00  0.00    -0.095 C  
BRANCH  14  15
HETATM   15  C   UNL     1      -7.708  10.259  69.726  1.00  0.00    -0.159 C  
HETATM   16  C   UNL     1      -8.578   9.419  70.311  1.00  0.00    -0.249 C  
BRANCH  16  17
HETATM   17  C   UNL     1      -9.586   8.641  69.516  1.00  0.00    -0.170 C  
BRANCH  17  18
HETATM   18  C   UNL     1     -11.015   8.843  69.989  1.00  0.00    -0.217 C  
BRANCH  18  19
HETATM   19  C   UNL     1     -11.148  10.202  70.669  1.00  0.00    -0.397 C  
HETATM   20  C   UNL     1     -11.857  11.200  69.784  1.00  0.00    -0.349 C  
HETATM   21  O   UNL     1     -12.269  10.969  68.658  1.00  0.00    -0.571 OA 
HETATM   22  O   UNL     1     -11.994  12.401  70.382  1.00  0.00    -0.344 OA 
ENDBRANCH  18  19
ENDBRANCH  17  18
ENDBRANCH  16  17
ENDBRANCH  14  15
ENDBRANCH  13  14
ENDBRANCH  11  12
ENDBRANCH  10  11
ENDBRANCH   8   9
ENDBRANCH   7   8
ENDBRANCH   5   6
ENDBRANCH   4   5
ENDBRANCH   2   3
TORSDOF 12
ENDMDL
MODEL      134
REMARK 921   NORMALIZED FREE ENERGY PREDICTED BY IDOCK:   -4.31 KCAL/MOL
REMARK 922        TOTAL FREE ENERGY PREDICTED BY IDOCK:   -9.83 KCAL/MOL
REMARK 923 INTER-LIGAND FREE ENERGY PREDICTED BY IDOCK:   -7.92 KCAL/MOL
REMARK 924 INTRA-LIGAND FREE ENERGY PREDICTED BY IDOCK:   -1.91 KCAL/MOL
REMARK 927      BINDING AFFINITY PREDICTED BY RF-SCORE:    0.00 PKD
ROOT
HETATM    1  C   UNL     1     -13.147  15.172  71.195  1.00  0.00    -0.515 C  
HETATM    2  C   UNL     1     -12.607  13.771  70.960  1.00  0.00    -0.446 C  
ENDROOT
BRANCH   2   3
HETATM    3  C   UNL     1     -13.256  12.759  71.864  1.00  0.00    -0.511 C  
HETATM    4  C   UNL     1     -13.136  11.422  71.755  1.00  0.00    -0.523 C  
BRANCH   4   5
HETATM    5  C   UNL     1     -12.295  10.732  70.722  1.00  0.00    -0.480 C  
BRANCH   5   6
HETATM    6  C   UNL     1     -11.472   9.606  71.286  1.00  0.00    -0.463 C  
HETATM    7  C   UNL     1     -10.254   9.251  70.854  1.00  0.00    -0.371 C  
BRANCH   7   8
HETATM    8  C   UNL     1      -9.501  10.023  69.813  1.00  0.00    -0.239 C  
BRANCH   8   9
HETATM    9  C   UNL     1      -9.825   9.567  68.423  1.00  0.00    -0.175 C  
HETATM   10  C   UNL     1     -10.187  10.363  67.399  1.00  0.00    -0.259 C  
BRANCH  10  11
HETATM   11  C   UNL     1     -10.357  11.857  67.442  1.00  0.00    -0.228 C  
BRANCH  11  12
HETATM   12  C   UNL     1     -11.778  12.372  67.483  1.00  0.00    -0.425 C  
HETATM   13  C   UNL     1     -12.251  13.601  67.201  1.00  0.00    -0.340 C  
BRANCH  13  14
HETATM   14  C   UNL     1     -11.422  14.798  66.851  1.00  0.00    -0.354 C  
BRANCH  14  15
HETATM   15  C   UNL     1     -11.238  15.762  67.984  1.00  0.00    -0.338 C  
HETATM   16  C   UNL     1     -10.652  16.962  67.834  1.00  0.00    -0.361 C  
BRANCH  16  17
HETATM   17  C   UNL     1     -10.068  17.401  66.524  1.00  0.00    -0.320 C  
BRANCH  17  18
HETATM   18  C   UNL     1      -8.557  17.556  66.556  1.00  0.00    -0.293 C  
BRANCH  18  19
HETATM   19  C   UNL     1      -8.179  19.003  66.254  1.00  0.00    -0.294 C  
HETATM   20  C   UNL     1      -7.866  19.772  67.516  1.00  0.00    -0.282 C  
HETATM   21  O   UNL     1      -7.916  19.314  68.646  1.00  0.00    -0.348 OA 
HETATM   22  O   UNL     1      -7.515  21.049  67.258  1.00  0.00    -0.357 OA 
ENDBRANCH  18  19
ENDBRANCH  17  18
ENDBRANCH  16  17
ENDBRANCH  14  15
ENDBRANCH  13  14
ENDBRANCH  11  12
ENDBRANCH  10  11
ENDBRANCH   8   9
ENDBRANCH   7   8
ENDBRANCH   5   6
ENDBRANCH   4   5
ENDBRANCH   2   3
TORSDOF 12
ENDMDL
MODEL      135
REMARK 921   NORMALIZED FREE ENERGY PREDICTED BY IDOCK:   -4.30 KCAL/MOL
REMARK 922        TOTAL FREE ENERGY PREDICTED BY IDOCK:   -9.83 KCAL/MOL
REMARK 923 INTER-LIGAND FREE ENERGY PREDICTED BY IDOCK:   -7.79 KCAL/MOL
REMARK 924 INTRA-LIGAND FREE ENERGY PREDICTED BY IDOCK:   -2.04 KCAL/MOL
REMARK 927      BINDING AFFINITY PREDICTED BY RF-SCORE:    0.00 PKD
ROOT
HETATM    1  C   UNL     1     -10.325  15.919  66.304  1.00  0.00    -0.324 C  
HETATM    2  C   UNL     1     -11.402  14.869  66.084  1.00  0.00    -0.307 C  
ENDROOT
BRANCH   2   3
HETATM    3  C   UNL     1     -11.872  14.835  64.656  1.00  0.00    -0.442 C  
HETATM    4  C   UNL     1     -12.227  13.729  63.976  1.00  0.00    -0.429 C  
BRANCH   4   5
HETATM    5  C   UNL     1     -12.240  12.347  64.560  1.00  0.00    -0.509 C  
BRANCH   5   6
HETATM    6  C   UNL     1     -11.220  11.434  63.937  1.00  0.00    -0.364 C  
HETATM    7  C   UNL     1      -9.955  11.290  64.359  1.00  0.00    -0.338 C  
BRANCH   7   8
HETATM    8  C   UNL     1      -9.430  11.948  65.598  1.00  0.00    -0.180 C  
BRANCH   8   9
HETATM    9  C   UNL     1      -9.060  10.953  66.656  1.00  0.00    -0.175 C  
HETATM   10  C   UNL     1      -9.899  10.427  67.567  1.00  0.00    -0.202 C  
BRANCH  10  11
HETATM   11  C   UNL     1     -11.363  10.738  67.723  1.00  0.00    -0.354 C  
BRANCH  11  12
HETATM   12  C   UNL     1     -11.706  11.992  68.495  1.00  0.00    -0.387 C  
HETATM   13  C   UNL     1     -11.847  12.167  69.823  1.00  0.00    -0.397 C  
BRANCH  13  14
HETATM   14  C   UNL     1     -11.771  11.090  70.860  1.00  0.00    -0.185 C  
BRANCH  14  15
HETATM   15  C   UNL     1     -13.103  10.699  71.428  1.00  0.00    -0.499 C  
HETATM   16  C   UNL     1     -13.317   9.526  72.046  1.00  0.00    -0.535 C  
BRANCH  16  17
HETATM   17  C   UNL     1     -12.247   8.479  72.153  1.00  0.00    -0.446 C  
BRANCH  17  18
HETATM   18  C   UNL     1     -12.577   7.198  71.406  1.00  0.00    -0.432 C  
BRANCH  18  19
HETATM   19  C   UNL     1     -11.383   6.249  71.454  1.00  0.00    -0.353 C  
HETATM   20  C   UNL     1     -10.901   5.892  70.068  1.00  0.00    -0.351 C  
HETATM   21  O   UNL     1     -11.399   6.292  69.028  1.00  0.00    -0.390 OA 
HETATM   22  O   UNL     1      -9.835   5.065  70.099  1.00  0.00    -0.191 OA 
ENDBRANCH  18  19
ENDBRANCH  17  18
ENDBRANCH  16  17
ENDBRANCH  14  15
ENDBRANCH  13  14
ENDBRANCH  11  12
ENDBRANCH  10  11
ENDBRANCH   8   9
ENDBRANCH   7   8
ENDBRANCH   5   6
ENDBRANCH   4   5
ENDBRANCH   2   3
TORSDOF 12
ENDMDL
MODEL      136
REMARK 921   NORMALIZED FREE ENERGY PREDICTED BY IDOCK:   -4.30 KCAL/MOL
REMARK 922        TOTAL FREE ENERGY PREDICTED BY IDOCK:   -9.83 KCAL/MOL
REMARK 923 INTER-LIGAND FREE ENERGY PREDICTED BY IDOCK:   -7.84 KCAL/MOL
REMARK 924 INTRA-LIGAND FREE ENERGY PREDICTED BY IDOCK:   -1.99 KCAL/MOL
REMARK 927      BINDING AFFINITY PREDICTED BY RF-SCORE:    0.00 PKD
ROOT
HETATM    1  C   UNL     1      -7.795  19.913  66.769  1.00  0.00    -0.330 C  
HETATM    2  C   UNL     1      -8.787  19.612  67.882  1.00  0.00    -0.379 C  
ENDROOT
BRANCH   2   3
HETATM    3  C   UNL     1     -10.182  19.420  67.354  1.00  0.00    -0.530 C  
HETATM    4  C   UNL     1     -10.801  18.234  67.194  1.00  0.00    -0.239 C  
BRANCH   4   5
HETATM    5  C   UNL     1     -10.194  16.911  67.556  1.00  0.00    -0.295 C  
BRANCH   5   6
HETATM    6  C   UNL     1      -9.297  16.359  66.483  1.00  0.00    -0.300 C  
HETATM    7  C   UNL     1      -9.691  15.553  65.487  1.00  0.00    -0.307 C  
BRANCH   7   8
HETATM    8  C   UNL     1     -11.126  15.191  65.252  1.00  0.00    -0.389 C  
BRANCH   8   9
HETATM    9  C   UNL     1     -11.300  13.739  64.928  1.00  0.00    -0.353 C  
HETATM   10  C   UNL     1     -11.412  12.741  65.824  1.00  0.00    -0.388 C  
BRANCH  10  11
HETATM   11  C   UNL     1     -11.369  12.873  67.323  1.00  0.00    -0.356 C  
BRANCH  11  12
HETATM   12  C   UNL     1     -10.061  12.518  67.993  1.00  0.00    -0.220 C  
HETATM   13  C   UNL     1      -9.687  11.365  68.580  1.00  0.00    -0.199 C  
BRANCH  13  14
HETATM   14  C   UNL     1     -10.555  10.162  68.777  1.00  0.00    -0.236 C  
BRANCH  14  15
HETATM   15  C   UNL     1     -10.388   9.505  70.115  1.00  0.00    -0.300 C  
HETATM   16  C   UNL     1     -11.387   9.400  71.007  1.00  0.00    -0.407 C  
BRANCH  16  17
HETATM   17  C   UNL     1     -12.739  10.001  70.758  1.00  0.00    -0.355 C  
BRANCH  17  18
HETATM   18  C   UNL     1     -13.062  11.166  71.678  1.00  0.00    -0.529 C  
BRANCH  18  19
HETATM   19  C   UNL     1     -12.566  12.468  71.058  1.00  0.00    -0.350 C  
HETATM   20  C   UNL     1     -13.239  13.671  71.678  1.00  0.00    -0.367 C  
HETATM   21  O   UNL     1     -14.084  13.625  72.557  1.00  0.00    -0.712 OA 
HETATM   22  O   UNL     1     -12.795  14.829  71.147  1.00  0.00    -0.302 OA 
ENDBRANCH  18  19
ENDBRANCH  17  18
ENDBRANCH  16  17
ENDBRANCH  14  15
ENDBRANCH  13  14
ENDBRANCH  11  12
ENDBRANCH  10  11
ENDBRANCH   8   9
ENDBRANCH   7   8
ENDBRANCH   5   6
ENDBRANCH   4   5
ENDBRANCH   2   3
TORSDOF 12
ENDMDL
MODEL      137
REMARK 921   NORMALIZED FREE ENERGY PREDICTED BY IDOCK:   -4.29 KCAL/MOL
REMARK 922        TOTAL FREE ENERGY PREDICTED BY IDOCK:   -9.80 KCAL/MOL
REMARK 923 INTER-LIGAND FREE ENERGY PREDICTED BY IDOCK:   -7.02 KCAL/MOL
REMARK 924 INTRA-LIGAND FREE ENERGY PREDICTED BY IDOCK:   -2.78 KCAL/MOL
REMARK 927      BINDING AFFINITY PREDICTED BY RF-SCORE:    0.00 PKD
ROOT
HETATM    1  C   UNL     1      -9.779   4.514  66.168  1.00  0.00    -0.215 C  
HETATM    2  C   UNL     1     -10.077   4.886  67.612  1.00  0.00    -0.172 C  
ENDROOT
BRANCH   2   3
HETATM    3  C   UNL     1     -10.926   6.123  67.711  1.00  0.00    -0.400 C  
HETATM    4  C   UNL     1     -11.411   6.650  68.851  1.00  0.00    -0.209 C  
BRANCH   4   5
HETATM    5  C   UNL     1     -11.143   6.092  70.218  1.00  0.00    -0.436 C  
BRANCH   5   6
HETATM    6  C   UNL     1     -12.094   6.608  71.263  1.00  0.00    -0.395 C  
HETATM    7  C   UNL     1     -11.885   7.687  72.030  1.00  0.00    -0.342 C  
BRANCH   7   8
HETATM    8  C   UNL     1     -10.707   8.596  71.853  1.00  0.00    -0.414 C  
BRANCH   8   9
HETATM    9  C   UNL     1     -10.896   9.557  70.719  1.00  0.00    -0.386 C  
HETATM   10  C   UNL     1      -9.938   9.964  69.866  1.00  0.00    -0.292 C  
BRANCH  10  11
HETATM   11  C   UNL     1      -8.489   9.558  69.885  1.00  0.00    -0.198 C  
BRANCH  11  12
HETATM   12  C   UNL     1      -8.160   8.204  69.298  1.00  0.00    -0.117 C  
HETATM   13  C   UNL     1      -7.827   7.878  68.035  1.00  0.00    -0.127 C  
BRANCH  13  14
HETATM   14  C   UNL     1      -7.789   8.818  66.870  1.00  0.00    -0.101 C  
BRANCH  14  15
HETATM   15  C   UNL     1      -9.015   8.766  66.008  1.00  0.00    -0.235 C  
HETATM   16  C   UNL     1      -9.761   9.848  65.734  1.00  0.00    -0.332 C  
BRANCH  16  17
HETATM   17  C   UNL     1      -9.462  11.191  66.334  1.00  0.00    -0.216 C  
BRANCH  17  18
HETATM   18  C   UNL     1     -10.259  12.324  65.710  1.00  0.00    -0.281 C  
BRANCH  18  19
HETATM   19  C   UNL     1     -10.992  11.819  64.471  1.00  0.00    -0.382 C  
HETATM   20  C   UNL     1     -12.409  12.340  64.413  1.00  0.00    -0.404 C  
HETATM   21  O   UNL     1     -12.925  13.065  65.248  1.00  0.00    -0.697 OA 
HETATM   22  O   UNL     1     -13.062  11.912  63.312  1.00  0.00    -0.674 OA 
ENDBRANCH  18  19
ENDBRANCH  17  18
ENDBRANCH  16  17
ENDBRANCH  14  15
ENDBRANCH  13  14
ENDBRANCH  11  12
ENDBRANCH  10  11
ENDBRANCH   8   9
ENDBRANCH   7   8
ENDBRANCH   5   6
ENDBRANCH   4   5
ENDBRANCH   2   3
TORSDOF 12
ENDMDL
MODEL      138
REMARK 921   NORMALIZED FREE ENERGY PREDICTED BY IDOCK:   -4.29 KCAL/MOL
REMARK 922        TOTAL FREE ENERGY PREDICTED BY IDOCK:   -9.80 KCAL/MOL
REMARK 923 INTER-LIGAND FREE ENERGY PREDICTED BY IDOCK:   -7.90 KCAL/MOL
REMARK 924 INTRA-LIGAND FREE ENERGY PREDICTED BY IDOCK:   -1.90 KCAL/MOL
REMARK 927      BINDING AFFINITY PREDICTED BY RF-SCORE:    0.00 PKD
ROOT
HETATM    1  C   UNL     1     -10.176  15.651  69.260  1.00  0.00    -0.250 C  
HETATM    2  C   UNL     1     -11.540  15.367  68.652  1.00  0.00    -0.373 C  
ENDROOT
BRANCH   2   3
HETATM    3  C   UNL     1     -11.807  13.891  68.533  1.00  0.00    -0.401 C  
HETATM    4  C   UNL     1     -11.956  13.214  67.379  1.00  0.00    -0.379 C  
BRANCH   4   5
HETATM    5  C   UNL     1     -11.843  13.833  66.017  1.00  0.00    -0.415 C  
BRANCH   5   6
HETATM    6  C   UNL     1     -12.643  13.108  64.970  1.00  0.00    -0.499 C  
HETATM    7  C   UNL     1     -12.135  12.549  63.863  1.00  0.00    -0.581 C  
BRANCH   7   8
HETATM    8  C   UNL     1     -10.664  12.476  63.587  1.00  0.00    -0.469 C  
BRANCH   8   9
HETATM    9  C   UNL     1     -10.213  11.082  63.274  1.00  0.00    -0.360 C  
HETATM   10  C   UNL     1      -9.565  10.258  64.118  1.00  0.00    -0.376 C  
BRANCH  10  11
HETATM   11  C   UNL     1      -9.145  10.569  65.530  1.00  0.00    -0.214 C  
BRANCH  11  12
HETATM   12  C   UNL     1     -10.183  10.342  66.606  1.00  0.00    -0.294 C  
HETATM   13  C   UNL     1     -10.543   9.198  67.219  1.00  0.00    -0.303 C  
BRANCH  13  14
HETATM   14  C   UNL     1     -10.028   7.831  66.893  1.00  0.00    -0.331 C  
BRANCH  14  15
HETATM   15  C   UNL     1     -11.001   6.729  67.188  1.00  0.00    -0.458 C  
HETATM   16  C   UNL     1     -11.058   6.104  68.375  1.00  0.00    -0.343 C  
BRANCH  16  17
HETATM   17  C   UNL     1     -10.096   6.416  69.483  1.00  0.00    -0.203 C  
BRANCH  17  18
HETATM   18  C   UNL     1     -10.750   6.478  70.853  1.00  0.00    -0.289 C  
BRANCH  18  19
HETATM   19  C   UNL     1     -11.721   7.654  70.909  1.00  0.00    -0.291 C  
HETATM   20  C   UNL     1     -11.113   8.843  71.615  1.00  0.00    -0.350 C  
HETATM   21  O   UNL     1      -9.992   8.875  72.097  1.00  0.00    -0.322 OA 
HETATM   22  O   UNL     1     -11.958   9.894  71.656  1.00  0.00    -0.393 OA 
ENDBRANCH  18  19
ENDBRANCH  17  18
ENDBRANCH  16  17
ENDBRANCH  14  15
ENDBRANCH  13  14
ENDBRANCH  11  12
ENDBRANCH  10  11
ENDBRANCH   8   9
ENDBRANCH   7   8
ENDBRANCH   5   6
ENDBRANCH   4   5
ENDBRANCH   2   3
TORSDOF 12
ENDMDL
MODEL      139
REMARK 921   NORMALIZED FREE ENERGY PREDICTED BY IDOCK:   -4.28 KCAL/MOL
REMARK 922        TOTAL FREE ENERGY PREDICTED BY IDOCK:   -9.78 KCAL/MOL
REMARK 923 INTER-LIGAND FREE ENERGY PREDICTED BY IDOCK:   -7.58 KCAL/MOL
REMARK 924 INTRA-LIGAND FREE ENERGY PREDICTED BY IDOCK:   -2.20 KCAL/MOL
REMARK 927      BINDING AFFINITY PREDICTED BY RF-SCORE:    0.00 PKD
ROOT
HETATM    1  C   UNL     1     -13.030  10.375  70.826  1.00  0.00    -0.422 C  
HETATM    2  C   UNL     1     -11.589   9.894  70.881  1.00  0.00    -0.456 C  
ENDROOT
BRANCH   2   3
HETATM    3  C   UNL     1     -11.320   9.062  72.105  1.00  0.00    -0.311 C  
HETATM    4  C   UNL     1     -10.376   8.108  72.210  1.00  0.00    -0.361 C  
BRANCH   4   5
HETATM    5  C   UNL     1      -9.413   7.750  71.116  1.00  0.00    -0.169 C  
BRANCH   5   6
HETATM    6  C   UNL     1      -9.506   6.308  70.697  1.00  0.00    -0.182 C  
HETATM    7  C   UNL     1     -10.340   5.830  69.762  1.00  0.00    -0.332 C  
BRANCH   7   8
HETATM    8  C   UNL     1     -11.216   6.710  68.924  1.00  0.00    -0.273 C  
BRANCH   8   9
HETATM    9  C   UNL     1     -10.759   6.774  67.499  1.00  0.00    -0.381 C  
HETATM   10  C   UNL     1     -10.434   7.894  66.826  1.00  0.00    -0.317 C  
BRANCH  10  11
HETATM   11  C   UNL     1     -10.480   9.302  67.355  1.00  0.00    -0.340 C  
BRANCH  11  12
HETATM   12  C   UNL     1     -10.603  10.404  66.327  1.00  0.00    -0.180 C  
HETATM   13  C   UNL     1     -11.063  11.662  66.473  1.00  0.00    -0.357 C  
BRANCH  13  14
HETATM   14  C   UNL     1     -11.656  12.237  67.720  1.00  0.00    -0.416 C  
BRANCH  14  15
HETATM   15  C   UNL     1     -10.638  12.741  68.701  1.00  0.00    -0.256 C  
HETATM   16  C   UNL     1     -10.794  13.881  69.394  1.00  0.00    -0.109 C  
BRANCH  16  17
HETATM   17  C   UNL     1     -11.976  14.781  69.185  1.00  0.00    -0.317 C  
BRANCH  17  18
HETATM   18  C   UNL     1     -12.962  14.764  70.341  1.00  0.00    -0.269 C  
BRANCH  18  19
HETATM   19  C   UNL     1     -12.270  15.230  71.618  1.00  0.00    -0.433 C  
HETATM   20  C   UNL     1     -12.949  14.682  72.851  1.00  0.00    -0.497 C  
HETATM   21  O   UNL     1     -13.936  13.964  72.846  1.00  0.00    -0.627 OA 
HETATM   22  O   UNL     1     -12.335  15.076  73.986  1.00  0.00    -0.574 OA 
ENDBRANCH  18  19
ENDBRANCH  17  18
ENDBRANCH  16  17
ENDBRANCH  14  15
ENDBRANCH  13  14
ENDBRANCH  11  12
ENDBRANCH  10  11
ENDBRANCH   8   9
ENDBRANCH   7   8
ENDBRANCH   5   6
ENDBRANCH   4   5
ENDBRANCH   2   3
TORSDOF 12
ENDMDL
MODEL      140
REMARK 921   NORMALIZED FREE ENERGY PREDICTED BY IDOCK:   -4.26 KCAL/MOL
REMARK 922        TOTAL FREE ENERGY PREDICTED BY IDOCK:   -9.76 KCAL/MOL
REMARK 923 INTER-LIGAND FREE ENERGY PREDICTED BY IDOCK:   -7.69 KCAL/MOL
REMARK 924 INTRA-LIGAND FREE ENERGY PREDICTED BY IDOCK:   -2.07 KCAL/MOL
REMARK 927      BINDING AFFINITY PREDICTED BY RF-SCORE:    0.00 PKD
ROOT
HETATM    1  C   UNL     1     -12.061  12.789  64.016  1.00  0.00    -0.533 C  
HETATM    2  C   UNL     1     -10.619  12.447  63.676  1.00  0.00    -0.481 C  
ENDROOT
BRANCH   2   3
HETATM    3  C   UNL     1     -10.344  10.974  63.810  1.00  0.00    -0.427 C  
HETATM    4  C   UNL     1      -9.838  10.370  64.902  1.00  0.00    -0.400 C  
BRANCH   4   5
HETATM    5  C   UNL     1      -9.500  11.081  66.179  1.00  0.00    -0.230 C  
BRANCH   5   6
HETATM    6  C   UNL     1      -8.031  11.055  66.499  1.00  0.00    -0.158 C  
HETATM    7  C   UNL     1      -7.389  11.963  67.248  1.00  0.00    -0.146 C  
BRANCH   7   8
HETATM    8  C   UNL     1      -8.096  13.070  67.969  1.00  0.00    -0.157 C  
BRANCH   8   9
HETATM    9  C   UNL     1      -8.110  14.344  67.179  1.00  0.00    -0.171 C  
HETATM   10  C   UNL     1      -9.101  15.253  67.172  1.00  0.00    -0.226 C  
BRANCH  10  11
HETATM   11  C   UNL     1     -10.397  15.173  67.934  1.00  0.00    -0.241 C  
BRANCH  11  12
HETATM   12  C   UNL     1     -11.468  14.281  67.349  1.00  0.00    -0.368 C  
HETATM   13  C   UNL     1     -11.903  13.078  67.770  1.00  0.00    -0.395 C  
BRANCH  13  14
HETATM   14  C   UNL     1     -11.335  12.294  68.911  1.00  0.00    -0.337 C  
BRANCH  14  15
HETATM   15  C   UNL     1     -12.094  11.039  69.224  1.00  0.00    -0.363 C  
HETATM   16  C   UNL     1     -12.702  10.828  70.403  1.00  0.00    -0.346 C  
BRANCH  16  17
HETATM   17  C   UNL     1     -12.607  11.812  71.532  1.00  0.00    -0.320 C  
BRANCH  17  18
HETATM   18  C   UNL     1     -13.487  13.035  71.345  1.00  0.00    -0.062 C  
BRANCH  18  19
HETATM   19  C   UNL     1     -13.432  13.908  72.595  1.00  0.00    -0.652 C  
HETATM   20  C   UNL     1     -13.602  15.371  72.260  1.00  0.00    -0.503 C  
HETATM   21  O   UNL     1     -13.754  15.819  71.135  1.00  0.00    -0.560 OA 
HETATM   22  O   UNL     1     -13.570  16.151  73.360  1.00  0.00    -0.615 OA 
ENDBRANCH  18  19
ENDBRANCH  17  18
ENDBRANCH  16  17
ENDBRANCH  14  15
ENDBRANCH  13  14
ENDBRANCH  11  12
ENDBRANCH  10  11
ENDBRANCH   8   9
ENDBRANCH   7   8
ENDBRANCH   5   6
ENDBRANCH   4   5
ENDBRANCH   2   3
TORSDOF 12
ENDMDL
MODEL      141
REMARK 921   NORMALIZED FREE ENERGY PREDICTED BY IDOCK:   -4.26 KCAL/MOL
REMARK 922        TOTAL FREE ENERGY PREDICTED BY IDOCK:   -9.75 KCAL/MOL
REMARK 923 INTER-LIGAND FREE ENERGY PREDICTED BY IDOCK:   -7.37 KCAL/MOL
REMARK 924 INTRA-LIGAND FREE ENERGY PREDICTED BY IDOCK:   -2.38 KCAL/MOL
REMARK 927      BINDING AFFINITY PREDICTED BY RF-SCORE:    0.00 PKD
ROOT
HETATM    1  C   UNL     1     -12.449   9.483  71.407  1.00  0.00    -0.450 C  
HETATM    2  C   UNL     1     -11.040   9.096  71.828  1.00  0.00    -0.437 C  
ENDROOT
BRANCH   2   3
HETATM    3  C   UNL     1     -10.997   7.730  72.456  1.00  0.00    -0.395 C  
HETATM    4  C   UNL     1     -10.225   6.705  72.046  1.00  0.00    -0.206 C  
BRANCH   4   5
HETATM    5  C   UNL     1      -9.254   6.784  70.905  1.00  0.00    -0.157 C  
BRANCH   5   6
HETATM    6  C   UNL     1      -9.289   5.572  70.015  1.00  0.00    -0.187 C  
HETATM    7  C   UNL     1     -10.195   5.350  69.052  1.00  0.00    -0.291 C  
BRANCH   7   8
HETATM    8  C   UNL     1     -11.233   6.357  68.661  1.00  0.00    -0.338 C  
BRANCH   8   9
HETATM    9  C   UNL     1     -10.950   6.974  67.325  1.00  0.00    -0.372 C  
HETATM   10  C   UNL     1     -10.556   8.244  67.114  1.00  0.00    -0.340 C  
BRANCH  10  11
HETATM   11  C   UNL     1     -10.338   9.302  68.162  1.00  0.00    -0.261 C  
BRANCH  11  12
HETATM   12  C   UNL     1      -8.921   9.475  68.659  1.00  0.00    -0.132 C  
HETATM   13  C   UNL     1      -7.945  10.279  68.196  1.00  0.00    -0.109 C  
BRANCH  13  14
HETATM   14  C   UNL     1      -8.032  11.150  66.982  1.00  0.00    -0.145 C  
BRANCH  14  15
HETATM   15  C   UNL     1      -7.940  12.617  67.279  1.00  0.00    -0.166 C  
HETATM   16  C   UNL     1      -9.007  13.433  67.269  1.00  0.00    -0.221 C  
BRANCH  16  17
HETATM   17  C   UNL     1     -10.374  12.947  66.887  1.00  0.00    -0.247 C  
BRANCH  17  18
HETATM   18  C   UNL     1     -10.726  13.210  65.433  1.00  0.00    -0.308 C  
BRANCH  18  19
HETATM   19  C   UNL     1     -10.655  14.707  65.147  1.00  0.00    -0.441 C  
HETATM   20  C   UNL     1     -11.776  15.153  64.238  1.00  0.00    -0.224 C  
HETATM   21  O   UNL     1     -12.634  14.421  63.771  1.00  0.00    -0.829 OA 
HETATM   22  O   UNL     1     -11.732  16.479  63.991  1.00  0.00    -1.111 OA 
ENDBRANCH  18  19
ENDBRANCH  17  18
ENDBRANCH  16  17
ENDBRANCH  14  15
ENDBRANCH  13  14
ENDBRANCH  11  12
ENDBRANCH  10  11
ENDBRANCH   8   9
ENDBRANCH   7   8
ENDBRANCH   5   6
ENDBRANCH   4   5
ENDBRANCH   2   3
TORSDOF 12
ENDMDL
MODEL      142
REMARK 921   NORMALIZED FREE ENERGY PREDICTED BY IDOCK:   -4.26 KCAL/MOL
REMARK 922        TOTAL FREE ENERGY PREDICTED BY IDOCK:   -9.75 KCAL/MOL
REMARK 923 INTER-LIGAND FREE ENERGY PREDICTED BY IDOCK:   -7.52 KCAL/MOL
REMARK 924 INTRA-LIGAND FREE ENERGY PREDICTED BY IDOCK:   -2.23 KCAL/MOL
REMARK 927      BINDING AFFINITY PREDICTED BY RF-SCORE:    0.00 PKD
ROOT
HETATM    1  C   UNL     1     -10.544   8.517  71.845  1.00  0.00    -0.392 C  
HETATM    2  C   UNL     1     -11.533   9.027  70.808  1.00  0.00    -0.331 C  
ENDROOT
BRANCH   2   3
HETATM    3  C   UNL     1     -11.880  10.474  71.026  1.00  0.00    -0.438 C  
HETATM    4  C   UNL     1     -11.887  11.428  70.076  1.00  0.00    -0.440 C  
BRANCH   4   5
HETATM    5  C   UNL     1     -11.579  11.179  68.629  1.00  0.00    -0.383 C  
BRANCH   5   6
HETATM    6  C   UNL     1     -10.114  11.291  68.309  1.00  0.00    -0.198 C  
HETATM    7  C   UNL     1      -9.528  10.809  67.204  1.00  0.00    -0.180 C  
BRANCH   7   8
HETATM    8  C   UNL     1     -10.298  10.192  66.076  1.00  0.00    -0.234 C  
BRANCH   8   9
HETATM    9  C   UNL     1      -9.798  10.639  64.736  1.00  0.00    -0.372 C  
HETATM   10  C   UNL     1     -10.515  11.307  63.813  1.00  0.00    -0.459 C  
BRANCH  10  11
HETATM   11  C   UNL     1     -11.957  11.723  63.926  1.00  0.00    -0.427 C  
BRANCH  11  12
HETATM   12  C   UNL     1     -12.264  13.175  63.636  1.00  0.00    -0.553 C  
HETATM   13  C   UNL     1     -12.036  14.265  64.394  1.00  0.00    -0.476 C  
BRANCH  13  14
HETATM   14  C   UNL     1     -11.481  14.263  65.783  1.00  0.00    -0.335 C  
BRANCH  14  15
HETATM   15  C   UNL     1      -9.987  14.385  65.841  1.00  0.00    -0.350 C  
HETATM   16  C   UNL     1      -9.356  15.557  66.017  1.00  0.00    -0.379 C  
BRANCH  16  17
HETATM   17  C   UNL     1     -10.103  16.856  66.098  1.00  0.00    -0.347 C  
BRANCH  17  18
HETATM   18  C   UNL     1     -10.073  17.487  67.480  1.00  0.00    -0.326 C  
BRANCH  18  19
HETATM   19  C   UNL     1      -9.623  16.455  68.509  1.00  0.00    -0.229 C  
HETATM   20  C   UNL     1     -10.800  15.826  69.217  1.00  0.00    -0.255 C  
HETATM   21  O   UNL     1     -11.971  16.105  69.014  1.00  0.00    -0.291 OA 
HETATM   22  O   UNL     1     -10.413  14.900  70.120  1.00  0.00    -0.127 OA 
ENDBRANCH  18  19
ENDBRANCH  17  18
ENDBRANCH  16  17
ENDBRANCH  14  15
ENDBRANCH  13  14
ENDBRANCH  11  12
ENDBRANCH  10  11
ENDBRANCH   8   9
ENDBRANCH   7   8
ENDBRANCH   5   6
ENDBRANCH   4   5
ENDBRANCH   2   3
TORSDOF 12
ENDMDL
MODEL      143
REMARK 921   NORMALIZED FREE ENERGY PREDICTED BY IDOCK:   -4.25 KCAL/MOL
REMARK 922        TOTAL FREE ENERGY PREDICTED BY IDOCK:   -9.74 KCAL/MOL
REMARK 923 INTER-LIGAND FREE ENERGY PREDICTED BY IDOCK:   -7.70 KCAL/MOL
REMARK 924 INTRA-LIGAND FREE ENERGY PREDICTED BY IDOCK:   -2.05 KCAL/MOL
REMARK 927      BINDING AFFINITY PREDICTED BY RF-SCORE:    0.00 PKD
ROOT
HETATM    1  C   UNL     1     -10.967   7.480  70.611  1.00  0.00    -0.263 C  
HETATM    2  C   UNL     1     -11.619   8.849  70.726  1.00  0.00    -0.301 C  
ENDROOT
BRANCH   2   3
HETATM    3  C   UNL     1     -10.640   9.961  70.464  1.00  0.00    -0.359 C  
HETATM    4  C   UNL     1     -10.461  10.583  69.283  1.00  0.00    -0.258 C  
BRANCH   4   5
HETATM    5  C   UNL     1     -11.247  10.278  68.041  1.00  0.00    -0.303 C  
BRANCH   5   6
HETATM    6  C   UNL     1     -10.572   9.274  67.147  1.00  0.00    -0.286 C  
HETATM    7  C   UNL     1     -10.008   9.552  65.964  1.00  0.00    -0.348 C  
BRANCH   7   8
HETATM    8  C   UNL     1      -9.876  10.947  65.432  1.00  0.00    -0.308 C  
BRANCH   8   9
HETATM    9  C   UNL     1     -10.442  11.084  64.052  1.00  0.00    -0.433 C  
HETATM   10  C   UNL     1     -11.065  12.172  63.562  1.00  0.00    -0.525 C  
BRANCH  10  11
HETATM   11  C   UNL     1     -11.337  13.457  64.298  1.00  0.00    -0.420 C  
BRANCH  11  12
HETATM   12  C   UNL     1     -12.454  13.427  65.316  1.00  0.00    -0.532 C  
HETATM   13  C   UNL     1     -12.397  13.585  66.652  1.00  0.00    -0.351 C  
BRANCH  13  14
HETATM   14  C   UNL     1     -11.149  13.749  67.461  1.00  0.00    -0.295 C  
BRANCH  14  15
HETATM   15  C   UNL     1     -11.394  14.176  68.878  1.00  0.00    -0.308 C  
HETATM   16  C   UNL     1     -11.325  15.457  69.276  1.00  0.00    -0.323 C  
BRANCH  16  17
HETATM   17  C   UNL     1     -10.924  16.559  68.340  1.00  0.00    -0.348 C  
BRANCH  17  18
HETATM   18  C   UNL     1      -9.469  16.973  68.482  1.00  0.00    -0.269 C  
BRANCH  18  19
HETATM   19  C   UNL     1      -9.340  18.481  68.289  1.00  0.00    -0.350 C  
HETATM   20  C   UNL     1      -8.924  18.828  66.879  1.00  0.00    -0.297 C  
HETATM   21  O   UNL     1      -8.703  18.018  65.994  1.00  0.00    -0.498 OA 
HETATM   22  O   UNL     1      -8.822  20.161  66.693  1.00  0.00    -0.320 OA 
ENDBRANCH  18  19
ENDBRANCH  17  18
ENDBRANCH  16  17
ENDBRANCH  14  15
ENDBRANCH  13  14
ENDBRANCH  11  12
ENDBRANCH  10  11
ENDBRANCH   8   9
ENDBRANCH   7   8
ENDBRANCH   5   6
ENDBRANCH   4   5
ENDBRANCH   2   3
TORSDOF 12
ENDMDL
MODEL      144
REMARK 921   NORMALIZED FREE ENERGY PREDICTED BY IDOCK:   -4.25 KCAL/MOL
REMARK 922        TOTAL FREE ENERGY PREDICTED BY IDOCK:   -9.74 KCAL/MOL
REMARK 923 INTER-LIGAND FREE ENERGY PREDICTED BY IDOCK:   -7.53 KCAL/MOL
REMARK 924 INTRA-LIGAND FREE ENERGY PREDICTED BY IDOCK:   -2.22 KCAL/MOL
REMARK 927      BINDING AFFINITY PREDICTED BY RF-SCORE:    0.00 PKD
ROOT
HETATM    1  C   UNL     1      -9.483   9.440  69.341  1.00  0.00    -0.177 C  
HETATM    2  C   UNL     1     -10.349   9.217  68.111  1.00  0.00    -0.263 C  
ENDROOT
BRANCH   2   3
HETATM    3  C   UNL     1      -9.722   8.244  67.150  1.00  0.00    -0.255 C  
HETATM    4  C   UNL     1      -9.999   6.929  67.077  1.00  0.00    -0.257 C  
BRANCH   4   5
HETATM    5  C   UNL     1     -11.016   6.232  67.932  1.00  0.00    -0.421 C  
BRANCH   5   6
HETATM    6  C   UNL     1     -10.438   5.681  69.207  1.00  0.00    -0.356 C  
HETATM    7  C   UNL     1     -10.803   6.051  70.442  1.00  0.00    -0.386 C  
BRANCH   7   8
HETATM    8  C   UNL     1     -11.937   6.994  70.708  1.00  0.00    -0.392 C  
BRANCH   8   9
HETATM    9  C   UNL     1     -11.668   7.888  71.880  1.00  0.00    -0.342 C  
HETATM   10  C   UNL     1     -11.971   9.197  71.956  1.00  0.00    -0.421 C  
BRANCH  10  11
HETATM   11  C   UNL     1     -12.619  10.031  70.884  1.00  0.00    -0.424 C  
BRANCH  11  12
HETATM   12  C   UNL     1     -12.871  11.483  71.220  1.00  0.00    -0.463 C  
HETATM   13  C   UNL     1     -12.387  12.593  70.631  1.00  0.00    -0.375 C  
BRANCH  13  14
HETATM   14  C   UNL     1     -11.385  12.628  69.520  1.00  0.00    -0.227 C  
BRANCH  14  15
HETATM   15  C   UNL     1     -11.995  12.592  68.150  1.00  0.00    -0.274 C  
HETATM   16  C   UNL     1     -11.554  13.353  67.134  1.00  0.00    -0.399 C  
BRANCH  16  17
HETATM   17  C   UNL     1     -10.453  14.357  67.315  1.00  0.00    -0.269 C  
BRANCH  17  18
HETATM   18  C   UNL     1     -10.672  15.641  66.534  1.00  0.00    -0.293 C  
BRANCH  18  19
HETATM   19  C   UNL     1     -10.891  16.803  67.499  1.00  0.00    -0.216 C  
HETATM   20  C   UNL     1     -10.376  18.104  66.929  1.00  0.00    -0.375 C  
HETATM   21  O   UNL     1      -9.839  18.228  65.840  1.00  0.00    -0.527 OA 
HETATM   22  O   UNL     1     -10.579  19.140  67.768  1.00  0.00    -0.415 OA 
ENDBRANCH  18  19
ENDBRANCH  17  18
ENDBRANCH  16  17
ENDBRANCH  14  15
ENDBRANCH  13  14
ENDBRANCH  11  12
ENDBRANCH  10  11
ENDBRANCH   8   9
ENDBRANCH   7   8
ENDBRANCH   5   6
ENDBRANCH   4   5
ENDBRANCH   2   3
TORSDOF 12
ENDMDL
MODEL      145
REMARK 921   NORMALIZED FREE ENERGY PREDICTED BY IDOCK:   -4.24 KCAL/MOL
REMARK 922        TOTAL FREE ENERGY PREDICTED BY IDOCK:   -9.72 KCAL/MOL
REMARK 923 INTER-LIGAND FREE ENERGY PREDICTED BY IDOCK:   -7.38 KCAL/MOL
REMARK 924 INTRA-LIGAND FREE ENERGY PREDICTED BY IDOCK:   -2.33 KCAL/MOL
REMARK 927      BINDING AFFINITY PREDICTED BY RF-SCORE:    0.00 PKD
ROOT
HETATM    1  C   UNL     1     -13.155  11.053  71.724  1.00  0.00    -0.554 C  
HETATM    2  C   UNL     1     -12.274  11.792  70.729  1.00  0.00    -0.424 C  
ENDROOT
BRANCH   2   3
HETATM    3  C   UNL     1     -11.770  10.883  69.642  1.00  0.00    -0.403 C  
HETATM    4  C   UNL     1     -11.576  11.234  68.357  1.00  0.00    -0.378 C  
BRANCH   4   5
HETATM    5  C   UNL     1     -11.804  12.615  67.816  1.00  0.00    -0.381 C  
BRANCH   5   6
HETATM    6  C   UNL     1     -11.002  12.904  66.577  1.00  0.00    -0.300 C  
HETATM    7  C   UNL     1      -9.738  13.353  66.565  1.00  0.00    -0.284 C  
BRANCH   7   8
HETATM    8  C   UNL     1      -8.919  13.513  67.809  1.00  0.00    -0.201 C  
BRANCH   8   9
HETATM    9  C   UNL     1      -7.448  13.429  67.534  1.00  0.00    -0.170 C  
HETATM   10  C   UNL     1      -6.554  14.416  67.729  1.00  0.00    -0.189 C  
BRANCH  10  11
HETATM   11  C   UNL     1      -6.846  15.801  68.241  1.00  0.00    -0.121 C  
BRANCH  11  12
HETATM   12  C   UNL     1      -6.912  16.901  67.207  1.00  0.00    -0.197 C  
HETATM   13  C   UNL     1      -7.493  18.114  67.285  1.00  0.00    -0.223 C  
BRANCH  13  14
HETATM   14  C   UNL     1      -8.306  18.622  68.434  1.00  0.00    -0.362 C  
BRANCH  14  15
HETATM   15  C   UNL     1      -9.669  19.112  68.045  1.00  0.00    -0.414 C  
HETATM   16  C   UNL     1     -10.690  18.286  67.766  1.00  0.00    -0.358 C  
BRANCH  16  17
HETATM   17  C   UNL     1     -10.524  16.795  67.753  1.00  0.00    -0.335 C  
BRANCH  17  18
HETATM   18  C   UNL     1     -11.520  16.067  68.640  1.00  0.00    -0.377 C  
BRANCH  18  19
HETATM   19  C   UNL     1     -10.869  15.723  69.976  1.00  0.00    -0.348 C  
HETATM   20  C   UNL     1     -11.893  15.598  71.078  1.00  0.00    -0.400 C  
HETATM   21  O   UNL     1     -13.095  15.760  70.940  1.00  0.00    -0.516 OA 
HETATM   22  O   UNL     1     -11.329  15.278  72.261  1.00  0.00    -0.449 OA 
ENDBRANCH  18  19
ENDBRANCH  17  18
ENDBRANCH  16  17
ENDBRANCH  14  15
ENDBRANCH  13  14
ENDBRANCH  11  12
ENDBRANCH  10  11
ENDBRANCH   8   9
ENDBRANCH   7   8
ENDBRANCH   5   6
ENDBRANCH   4   5
ENDBRANCH   2   3
TORSDOF 12
ENDMDL
MODEL      146
REMARK 921   NORMALIZED FREE ENERGY PREDICTED BY IDOCK:   -4.23 KCAL/MOL
REMARK 922        TOTAL FREE ENERGY PREDICTED BY IDOCK:   -9.71 KCAL/MOL
REMARK 923 INTER-LIGAND FREE ENERGY PREDICTED BY IDOCK:   -7.71 KCAL/MOL
REMARK 924 INTRA-LIGAND FREE ENERGY PREDICTED BY IDOCK:   -2.00 KCAL/MOL
REMARK 927      BINDING AFFINITY PREDICTED BY RF-SCORE:    0.00 PKD
ROOT
HETATM    1  C   UNL     1      -7.682  19.472  68.029  1.00  0.00    -0.334 C  
HETATM    2  C   UNL     1      -8.206  18.082  68.350  1.00  0.00    -0.305 C  
ENDROOT
BRANCH   2   3
HETATM    3  C   UNL     1      -9.699  18.070  68.530  1.00  0.00    -0.357 C  
HETATM    4  C   UNL     1     -10.597  17.732  67.586  1.00  0.00    -0.385 C  
BRANCH   4   5
HETATM    5  C   UNL     1     -10.236  17.275  66.203  1.00  0.00    -0.338 C  
BRANCH   5   6
HETATM    6  C   UNL     1      -9.547  15.939  66.183  1.00  0.00    -0.365 C  
HETATM    7  C   UNL     1     -10.034  14.829  65.610  1.00  0.00    -0.390 C  
BRANCH   7   8
HETATM    8  C   UNL     1     -11.296  14.816  64.803  1.00  0.00    -0.399 C  
BRANCH   8   9
HETATM    9  C   UNL     1     -12.341  13.922  65.399  1.00  0.00    -0.494 C  
HETATM   10  C   UNL     1     -12.768  12.756  64.879  1.00  0.00    -0.479 C  
BRANCH  10  11
HETATM   11  C   UNL     1     -12.302  12.123  63.595  1.00  0.00    -0.673 C  
BRANCH  11  12
HETATM   12  C   UNL     1     -10.807  12.055  63.382  1.00  0.00    -0.471 C  
HETATM   13  C   UNL     1      -9.891  11.274  63.987  1.00  0.00    -0.334 C  
BRANCH  13  14
HETATM   14  C   UNL     1     -10.159  10.324  65.112  1.00  0.00    -0.355 C  
BRANCH  14  15
HETATM   15  C   UNL     1      -9.131  10.368  66.203  1.00  0.00    -0.183 C  
HETATM   16  C   UNL     1      -9.447  10.297  67.507  1.00  0.00    -0.171 C  
BRANCH  16  17
HETATM   17  C   UNL     1     -10.871  10.239  67.977  1.00  0.00    -0.325 C  
BRANCH  17  18
HETATM   18  C   UNL     1     -11.546  11.599  68.030  1.00  0.00    -0.383 C  
BRANCH  18  19
HETATM   19  C   UNL     1     -10.565  12.644  68.553  1.00  0.00    -0.262 C  
HETATM   20  C   UNL     1     -11.278  13.891  69.019  1.00  0.00    -0.274 C  
HETATM   21  O   UNL     1     -12.485  14.065  68.979  1.00  0.00    -0.214 OA 
HETATM   22  O   UNL     1     -10.420  14.816  69.498  1.00  0.00    -0.218 OA 
ENDBRANCH  18  19
ENDBRANCH  17  18
ENDBRANCH  16  17
ENDBRANCH  14  15
ENDBRANCH  13  14
ENDBRANCH  11  12
ENDBRANCH  10  11
ENDBRANCH   8   9
ENDBRANCH   7   8
ENDBRANCH   5   6
ENDBRANCH   4   5
ENDBRANCH   2   3
TORSDOF 12
ENDMDL
MODEL      147
REMARK 921   NORMALIZED FREE ENERGY PREDICTED BY IDOCK:   -4.23 KCAL/MOL
REMARK 922        TOTAL FREE ENERGY PREDICTED BY IDOCK:   -9.70 KCAL/MOL
REMARK 923 INTER-LIGAND FREE ENERGY PREDICTED BY IDOCK:   -7.20 KCAL/MOL
REMARK 924 INTRA-LIGAND FREE ENERGY PREDICTED BY IDOCK:   -2.51 KCAL/MOL
REMARK 927      BINDING AFFINITY PREDICTED BY RF-SCORE:    0.00 PKD
ROOT
HETATM    1  C   UNL     1     -11.878  12.766  63.519  1.00  0.00    -0.618 C  
HETATM    2  C   UNL     1     -10.465  12.330  63.874  1.00  0.00    -0.458 C  
ENDROOT
BRANCH   2   3
HETATM    3  C   UNL     1     -10.409  10.884  64.285  1.00  0.00    -0.436 C  
HETATM    4  C   UNL     1     -10.056  10.431  65.502  1.00  0.00    -0.352 C  
BRANCH   4   5
HETATM    5  C   UNL     1      -9.694  11.314  66.660  1.00  0.00    -0.222 C  
BRANCH   5   6
HETATM    6  C   UNL     1      -8.218  11.588  66.754  1.00  0.00    -0.164 C  
HETATM    7  C   UNL     1      -7.670  12.788  66.992  1.00  0.00     0.003 C  
BRANCH   7   8
HETATM    8  C   UNL     1      -8.483  14.004  67.315  1.00  0.00    -0.220 C  
BRANCH   8   9
HETATM    9  C   UNL     1      -8.824  14.800  66.092  1.00  0.00     0.077 C  
HETATM   10  C   UNL     1      -9.983  15.448  65.874  1.00  0.00    -0.374 C  
BRANCH  10  11
HETATM   11  C   UNL     1     -11.173  15.493  66.795  1.00  0.00    -0.139 C  
BRANCH  11  12
HETATM   12  C   UNL     1     -11.997  14.229  66.892  1.00  0.00    -0.467 C  
HETATM   13  C   UNL     1     -12.139  13.379  67.926  1.00  0.00    -0.289 C  
BRANCH  13  14
HETATM   14  C   UNL     1     -11.413  13.461  69.232  1.00  0.00    -0.345 C  
BRANCH  14  15
HETATM   15  C   UNL     1     -12.292  13.809  70.396  1.00  0.00    -0.423 C  
HETATM   16  C   UNL     1     -12.785  12.887  71.240  1.00  0.00    -0.371 C  
BRANCH  16  17
HETATM   17  C   UNL     1     -12.547  11.419  71.039  1.00  0.00    -0.487 C  
BRANCH  17  18
HETATM   18  C   UNL     1     -13.285  10.545  72.038  1.00  0.00    -0.483 C  
BRANCH  18  19
HETATM   19  C   UNL     1     -13.584   9.185  71.412  1.00  0.00    -0.348 C  
HETATM   20  C   UNL     1     -12.578   8.143  71.839  1.00  0.00    -0.335 C  
HETATM   21  O   UNL     1     -11.631   8.346  72.581  1.00  0.00    -0.385 OA 
HETATM   22  O   UNL     1     -12.843   6.933  71.304  1.00  0.00    -0.359 OA 
ENDBRANCH  18  19
ENDBRANCH  17  18
ENDBRANCH  16  17
ENDBRANCH  14  15
ENDBRANCH  13  14
ENDBRANCH  11  12
ENDBRANCH  10  11
ENDBRANCH   8   9
ENDBRANCH   7   8
ENDBRANCH   5   6
ENDBRANCH   4   5
ENDBRANCH   2   3
TORSDOF 12
ENDMDL
MODEL      148
REMARK 921   NORMALIZED FREE ENERGY PREDICTED BY IDOCK:   -4.23 KCAL/MOL
REMARK 922        TOTAL FREE ENERGY PREDICTED BY IDOCK:   -9.70 KCAL/MOL
REMARK 923 INTER-LIGAND FREE ENERGY PREDICTED BY IDOCK:   -7.06 KCAL/MOL
REMARK 924 INTRA-LIGAND FREE ENERGY PREDICTED BY IDOCK:   -2.64 KCAL/MOL
REMARK 927      BINDING AFFINITY PREDICTED BY RF-SCORE:    0.00 PKD
ROOT
HETATM    1  C   UNL     1      -9.371   8.613  66.001  1.00  0.00    -0.284 C  
HETATM    2  C   UNL     1      -9.414   7.587  67.121  1.00  0.00    -0.194 C  
ENDROOT
BRANCH   2   3
HETATM    3  C   UNL     1     -10.621   6.696  67.022  1.00  0.00    -0.404 C  
HETATM    4  C   UNL     1     -11.254   6.118  68.060  1.00  0.00    -0.149 C  
BRANCH   4   5
HETATM    5  C   UNL     1     -10.864   6.307  69.497  1.00  0.00    -0.404 C  
BRANCH   5   6
HETATM    6  C   UNL     1     -11.984   6.840  70.347  1.00  0.00    -0.343 C  
HETATM    7  C   UNL     1     -11.953   6.947  71.683  1.00  0.00    -0.379 C  
BRANCH   7   8
HETATM    8  C   UNL     1     -10.730   6.650  72.496  1.00  0.00    -0.259 C  
BRANCH   8   9
HETATM    9  C   UNL     1     -10.071   7.896  73.005  1.00  0.00    -0.384 C  
HETATM   10  C   UNL     1      -9.097   8.582  72.379  1.00  0.00    -0.308 C  
BRANCH  10  11
HETATM   11  C   UNL     1      -8.459   8.233  71.061  1.00  0.00    -0.150 C  
BRANCH  11  12
HETATM   12  C   UNL     1      -8.192   9.383  70.117  1.00  0.00    -0.180 C  
HETATM   13  C   UNL     1      -9.048  10.292  69.612  1.00  0.00    -0.149 C  
BRANCH  13  14
HETATM   14  C   UNL     1     -10.529  10.308  69.821  1.00  0.00    -0.300 C  
BRANCH  14  15
HETATM   15  C   UNL     1     -11.323  10.282  68.549  1.00  0.00    -0.231 C  
HETATM   16  C   UNL     1     -11.701  11.397  67.902  1.00  0.00    -0.300 C  
BRANCH  16  17
HETATM   17  C   UNL     1     -11.415  12.766  68.445  1.00  0.00    -0.349 C  
BRANCH  17  18
HETATM   18  C   UNL     1     -11.026  13.772  67.376  1.00  0.00    -0.296 C  
BRANCH  18  19
HETATM   19  C   UNL     1     -12.119  13.848  66.315  1.00  0.00    -0.484 C  
HETATM   20  C   UNL     1     -11.571  14.306  64.984  1.00  0.00    -0.367 C  
HETATM   21  O   UNL     1     -10.405  14.595  64.768  1.00  0.00    -0.396 OA 
HETATM   22  O   UNL     1     -12.528  14.362  64.033  1.00  0.00    -0.748 OA 
ENDBRANCH  18  19
ENDBRANCH  17  18
ENDBRANCH  16  17
ENDBRANCH  14  15
ENDBRANCH  13  14
ENDBRANCH  11  12
ENDBRANCH  10  11
ENDBRANCH   8   9
ENDBRANCH   7   8
ENDBRANCH   5   6
ENDBRANCH   4   5
ENDBRANCH   2   3
TORSDOF 12
ENDMDL
MODEL      149
REMARK 921   NORMALIZED FREE ENERGY PREDICTED BY IDOCK:   -4.22 KCAL/MOL
REMARK 922        TOTAL FREE ENERGY PREDICTED BY IDOCK:   -9.69 KCAL/MOL
REMARK 923 INTER-LIGAND FREE ENERGY PREDICTED BY IDOCK:   -6.96 KCAL/MOL
REMARK 924 INTRA-LIGAND FREE ENERGY PREDICTED BY IDOCK:   -2.73 KCAL/MOL
REMARK 927      BINDING AFFINITY PREDICTED BY RF-SCORE:    0.00 PKD
ROOT
HETATM    1  C   UNL     1      -8.368   8.877  65.296  1.00  0.00    -0.168 C  
HETATM    2  C   UNL     1      -8.372  10.394  65.405  1.00  0.00    -0.166 C  
ENDROOT
BRANCH   2   3
HETATM    3  C   UNL     1      -9.608  10.998  64.798  1.00  0.00    -0.292 C  
HETATM    4  C   UNL     1     -10.734  11.312  65.466  1.00  0.00    -0.283 C  
BRANCH   4   5
HETATM    5  C   UNL     1     -10.914  11.135  66.945  1.00  0.00    -0.333 C  
BRANCH   5   6
HETATM    6  C   UNL     1     -11.316  12.403  67.647  1.00  0.00    -0.371 C  
HETATM    7  C   UNL     1     -10.478  13.221  68.300  1.00  0.00    -0.257 C  
BRANCH   7   8
HETATM    8  C   UNL     1      -8.992  13.027  68.310  1.00  0.00    -0.177 C  
BRANCH   8   9
HETATM    9  C   UNL     1      -8.302  13.875  67.285  1.00  0.00    -0.199 C  
HETATM   10  C   UNL     1      -7.717  15.065  67.515  1.00  0.00    -0.208 C  
BRANCH  10  11
HETATM   11  C   UNL     1      -7.650  15.792  68.831  1.00  0.00    -0.181 C  
BRANCH  11  12
HETATM   12  C   UNL     1      -7.452  17.289  68.764  1.00  0.00    -0.260 C  
HETATM   13  C   UNL     1      -8.368  18.268  68.637  1.00  0.00    -0.305 C  
BRANCH  13  14
HETATM   14  C   UNL     1      -9.839  18.070  68.442  1.00  0.00    -0.369 C  
BRANCH  14  15
HETATM   15  C   UNL     1     -10.398  18.794  67.254  1.00  0.00    -0.469 C  
HETATM   16  C   UNL     1     -10.468  18.244  66.030  1.00  0.00    -0.380 C  
BRANCH  16  17
HETATM   17  C   UNL     1      -9.922  16.877  65.742  1.00  0.00    -0.209 C  
BRANCH  17  18
HETATM   18  C   UNL     1     -10.960  15.774  65.856  1.00  0.00    -0.191 C  
BRANCH  18  19
HETATM   19  C   UNL     1     -11.070  15.028  64.529  1.00  0.00    -0.248 C  
HETATM   20  C   UNL     1     -12.335  14.205  64.457  1.00  0.00    -0.392 C  
HETATM   21  O   UNL     1     -13.170  14.125  65.342  1.00  0.00    -0.741 OA 
HETATM   22  O   UNL     1     -12.449  13.553  63.281  1.00  0.00    -0.763 OA 
ENDBRANCH  18  19
ENDBRANCH  17  18
ENDBRANCH  16  17
ENDBRANCH  14  15
ENDBRANCH  13  14
ENDBRANCH  11  12
ENDBRANCH  10  11
ENDBRANCH   8   9
ENDBRANCH   7   8
ENDBRANCH   5   6
ENDBRANCH   4   5
ENDBRANCH   2   3
TORSDOF 12
ENDMDL
MODEL      150
REMARK 921   NORMALIZED FREE ENERGY PREDICTED BY IDOCK:   -4.20 KCAL/MOL
REMARK 922        TOTAL FREE ENERGY PREDICTED BY IDOCK:   -9.66 KCAL/MOL
REMARK 923 INTER-LIGAND FREE ENERGY PREDICTED BY IDOCK:   -7.94 KCAL/MOL
REMARK 924 INTRA-LIGAND FREE ENERGY PREDICTED BY IDOCK:   -1.71 KCAL/MOL
REMARK 927      BINDING AFFINITY PREDICTED BY RF-SCORE:    0.00 PKD
ROOT
HETATM    1  C   UNL     1      -8.053   7.048  64.749  1.00  0.00    -0.096 C  
HETATM    2  C   UNL     1      -8.494   6.944  66.200  1.00  0.00    -0.136 C  
ENDROOT
BRANCH   2   3
HETATM    3  C   UNL     1      -9.537   7.971  66.546  1.00  0.00    -0.295 C  
HETATM    4  C   UNL     1     -10.739   7.710  67.094  1.00  0.00    -0.361 C  
BRANCH   4   5
HETATM    5  C   UNL     1     -11.212   6.339  67.479  1.00  0.00    -0.234 C  
BRANCH   5   6
HETATM    6  C   UNL     1     -10.465   5.765  68.652  1.00  0.00    -0.298 C  
HETATM    7  C   UNL     1     -10.795   5.944  69.939  1.00  0.00    -0.439 C  
BRANCH   7   8
HETATM    8  C   UNL     1     -12.041   6.657  70.368  1.00  0.00    -0.251 C  
BRANCH   8   9
HETATM    9  C   UNL     1     -11.859   7.388  71.663  1.00  0.00    -0.323 C  
HETATM   10  C   UNL     1     -11.811   8.725  71.811  1.00  0.00    -0.414 C  
BRANCH  10  11
HETATM   11  C   UNL     1     -11.910   9.752  70.716  1.00  0.00    -0.400 C  
BRANCH  11  12
HETATM   12  C   UNL     1     -10.626  10.095  69.995  1.00  0.00    -0.338 C  
HETATM   13  C   UNL     1     -10.414  10.972  68.996  1.00  0.00    -0.242 C  
BRANCH  13  14
HETATM   14  C   UNL     1     -11.469  11.772  68.296  1.00  0.00    -0.370 C  
BRANCH  14  15
HETATM   15  C   UNL     1     -11.589  13.183  68.789  1.00  0.00    -0.348 C  
HETATM   16  C   UNL     1     -11.864  14.218  67.978  1.00  0.00    -0.379 C  
BRANCH  16  17
HETATM   17  C   UNL     1     -12.003  14.049  66.494  1.00  0.00    -0.470 C  
BRANCH  17  18
HETATM   18  C   UNL     1     -10.775  14.491  65.717  1.00  0.00    -0.320 C  
BRANCH  18  19
HETATM   19  C   UNL     1     -10.409  15.922  66.099  1.00  0.00    -0.341 C  
HETATM   20  C   UNL     1     -10.902  16.915  65.073  1.00  0.00    -0.064 C  
HETATM   21  O   UNL     1     -11.509  16.628  64.054  1.00  0.00    -1.192 OA 
HETATM   22  O   UNL     1     -10.597  18.186  65.410  1.00  0.00    -0.636 OA 
ENDBRANCH  18  19
ENDBRANCH  17  18
ENDBRANCH  16  17
ENDBRANCH  14  15
ENDBRANCH  13  14
ENDBRANCH  11  12
ENDBRANCH  10  11
ENDBRANCH   8   9
ENDBRANCH   7   8
ENDBRANCH   5   6
ENDBRANCH   4   5
ENDBRANCH   2   3
TORSDOF 12
ENDMDL
MODEL      151
REMARK 921   NORMALIZED FREE ENERGY PREDICTED BY IDOCK:   -4.20 KCAL/MOL
REMARK 922        TOTAL FREE ENERGY PREDICTED BY IDOCK:   -9.65 KCAL/MOL
REMARK 923 INTER-LIGAND FREE ENERGY PREDICTED BY IDOCK:   -7.19 KCAL/MOL
REMARK 924 INTRA-LIGAND FREE ENERGY PREDICTED BY IDOCK:   -2.45 KCAL/MOL
REMARK 927      BINDING AFFINITY PREDICTED BY RF-SCORE:    0.00 PKD
ROOT
HETATM    1  C   UNL     1      -9.369   8.831  66.424  1.00  0.00    -0.264 C  
HETATM    2  C   UNL     1     -10.752   9.277  66.872  1.00  0.00    -0.164 C  
ENDROOT
BRANCH   2   3
HETATM    3  C   UNL     1     -10.691  10.474  67.781  1.00  0.00    -0.319 C  
HETATM    4  C   UNL     1     -11.112  11.714  67.469  1.00  0.00    -0.333 C  
BRANCH   4   5
HETATM    5  C   UNL     1     -11.747  12.086  66.161  1.00  0.00    -0.313 C  
BRANCH   5   6
HETATM    6  C   UNL     1     -10.750  12.528  65.125  1.00  0.00    -0.323 C  
HETATM    7  C   UNL     1     -10.476  13.803  64.814  1.00  0.00    -0.448 C  
BRANCH   7   8
HETATM    8  C   UNL     1     -11.058  14.966  65.558  1.00  0.00    -0.353 C  
BRANCH   8   9
HETATM    9  C   UNL     1     -10.184  15.409  66.692  1.00  0.00    -0.281 C  
HETATM   10  C   UNL     1     -10.546  15.469  67.987  1.00  0.00    -0.270 C  
BRANCH  10  11
HETATM   11  C   UNL     1     -11.896  15.126  68.557  1.00  0.00    -0.307 C  
BRANCH  11  12
HETATM   12  C   UNL     1     -12.043  15.243  70.057  1.00  0.00    -0.386 C  
HETATM   13  C   UNL     1     -12.197  14.274  70.980  1.00  0.00    -0.428 C  
BRANCH  13  14
HETATM   14  C   UNL     1     -12.346  12.812  70.696  1.00  0.00    -0.381 C  
BRANCH  14  15
HETATM   15  C   UNL     1     -13.154  12.074  71.721  1.00  0.00    -0.460 C  
HETATM   16  C   UNL     1     -13.100  10.740  71.870  1.00  0.00    -0.557 C  
BRANCH  16  17
HETATM   17  C   UNL     1     -12.273   9.873  70.968  1.00  0.00    -0.446 C  
BRANCH  17  18
HETATM   18  C   UNL     1     -11.577   8.734  71.693  1.00  0.00    -0.390 C  
BRANCH  18  19
HETATM   19  C   UNL     1     -11.308   7.589  70.721  1.00  0.00    -0.300 C  
HETATM   20  C   UNL     1      -9.912   7.663  70.149  1.00  0.00    -0.186 C  
HETATM   21  O   UNL     1      -9.092   8.528  70.410  1.00  0.00    -0.143 OA 
HETATM   22  O   UNL     1      -9.657   6.646  69.299  1.00  0.00    -0.144 OA 
ENDBRANCH  18  19
ENDBRANCH  17  18
ENDBRANCH  16  17
ENDBRANCH  14  15
ENDBRANCH  13  14
ENDBRANCH  11  12
ENDBRANCH  10  11
ENDBRANCH   8   9
ENDBRANCH   7   8
ENDBRANCH   5   6
ENDBRANCH   4   5
ENDBRANCH   2   3
TORSDOF 12
ENDMDL
MODEL      152
REMARK 921   NORMALIZED FREE ENERGY PREDICTED BY IDOCK:   -4.19 KCAL/MOL
REMARK 922        TOTAL FREE ENERGY PREDICTED BY IDOCK:   -9.64 KCAL/MOL
REMARK 923 INTER-LIGAND FREE ENERGY PREDICTED BY IDOCK:   -7.27 KCAL/MOL
REMARK 924 INTRA-LIGAND FREE ENERGY PREDICTED BY IDOCK:   -2.37 KCAL/MOL
REMARK 927      BINDING AFFINITY PREDICTED BY RF-SCORE:    0.00 PKD
ROOT
HETATM    1  C   UNL     1      -9.650  17.040  68.693  1.00  0.00    -0.275 C  
HETATM    2  C   UNL     1     -10.985  16.619  68.099  1.00  0.00    -0.327 C  
ENDROOT
BRANCH   2   3
HETATM    3  C   UNL     1     -11.767  15.744  69.040  1.00  0.00    -0.405 C  
HETATM    4  C   UNL     1     -11.699  14.401  69.096  1.00  0.00    -0.354 C  
BRANCH   4   5
HETATM    5  C   UNL     1     -10.793  13.565  68.241  1.00  0.00    -0.277 C  
BRANCH   5   6
HETATM    6  C   UNL     1     -11.525  12.819  67.159  1.00  0.00    -0.394 C  
HETATM    7  C   UNL     1     -11.184  11.610  66.692  1.00  0.00    -0.362 C  
BRANCH   7   8
HETATM    8  C   UNL     1     -10.079  10.789  67.284  1.00  0.00    -0.233 C  
BRANCH   8   9
HETATM    9  C   UNL     1     -10.568   9.471  67.805  1.00  0.00    -0.318 C  
HETATM   10  C   UNL     1     -10.869   9.196  69.087  1.00  0.00    -0.131 C  
BRANCH  10  11
HETATM   11  C   UNL     1     -10.761  10.138  70.256  1.00  0.00    -0.352 C  
BRANCH  11  12
HETATM   12  C   UNL     1     -11.981  10.977  70.560  1.00  0.00    -0.474 C  
HETATM   13  C   UNL     1     -12.965  10.762  71.454  1.00  0.00    -0.535 C  
BRANCH  13  14
HETATM   14  C   UNL     1     -13.112   9.549  72.319  1.00  0.00    -0.492 C  
BRANCH  14  15
HETATM   15  C   UNL     1     -13.942   8.461  71.705  1.00  0.00    -0.482 C  
HETATM   16  C   UNL     1     -13.479   7.217  71.500  1.00  0.00    -0.439 C  
BRANCH  16  17
HETATM   17  C   UNL     1     -12.060   6.838  71.808  1.00  0.00    -0.393 C  
BRANCH  17  18
HETATM   18  C   UNL     1     -11.348   6.163  70.648  1.00  0.00    -0.368 C  
BRANCH  18  19
HETATM   19  C   UNL     1     -10.292   5.199  71.179  1.00  0.00    -0.276 C  
HETATM   20  C   UNL     1      -8.905   5.791  71.093  1.00  0.00    -0.136 C  
HETATM   21  O   UNL     1      -8.641   6.896  70.647  1.00  0.00    -0.138 OA 
HETATM   22  O   UNL     1      -7.965   4.952  71.575  1.00  0.00    -0.104 OA 
ENDBRANCH  18  19
ENDBRANCH  17  18
ENDBRANCH  16  17
ENDBRANCH  14  15
ENDBRANCH  13  14
ENDBRANCH  11  12
ENDBRANCH  10  11
ENDBRANCH   8   9
ENDBRANCH   7   8
ENDBRANCH   5   6
ENDBRANCH   4   5
ENDBRANCH   2   3
TORSDOF 12
ENDMDL
MODEL      153
REMARK 921   NORMALIZED FREE ENERGY PREDICTED BY IDOCK:   -4.19 KCAL/MOL
REMARK 922        TOTAL FREE ENERGY PREDICTED BY IDOCK:   -9.63 KCAL/MOL
REMARK 923 INTER-LIGAND FREE ENERGY PREDICTED BY IDOCK:   -7.22 KCAL/MOL
REMARK 924 INTRA-LIGAND FREE ENERGY PREDICTED BY IDOCK:   -2.42 KCAL/MOL
REMARK 927      BINDING AFFINITY PREDICTED BY RF-SCORE:    0.00 PKD
ROOT
HETATM    1  C   UNL     1      -7.665   7.775  71.737  1.00  0.00    -0.095 C  
HETATM    2  C   UNL     1      -8.292   8.318  73.011  1.00  0.00    -0.246 C  
ENDROOT
BRANCH   2   3
HETATM    3  C   UNL     1      -8.964   7.237  73.812  1.00  0.00    -0.251 C  
HETATM    4  C   UNL     1     -10.286   6.980  73.824  1.00  0.00    -0.401 C  
BRANCH   4   5
HETATM    5  C   UNL     1     -11.297   7.723  73.002  1.00  0.00    -0.331 C  
BRANCH   5   6
HETATM    6  C   UNL     1     -11.453   7.166  71.614  1.00  0.00    -0.299 C  
HETATM    7  C   UNL     1     -11.319   7.871  70.481  1.00  0.00    -0.242 C  
BRANCH   7   8
HETATM    8  C   UNL     1     -10.873   9.302  70.460  1.00  0.00    -0.318 C  
BRANCH   8   9
HETATM    9  C   UNL     1     -12.025  10.256  70.556  1.00  0.00    -0.415 C  
HETATM   10  C   UNL     1     -12.351  11.188  69.641  1.00  0.00    -0.287 C  
BRANCH  10  11
HETATM   11  C   UNL     1     -11.625  11.474  68.354  1.00  0.00    -0.375 C  
BRANCH  11  12
HETATM   12  C   UNL     1     -10.331  12.246  68.469  1.00  0.00    -0.234 C  
HETATM   13  C   UNL     1      -9.082  11.878  68.121  1.00  0.00    -0.190 C  
BRANCH  13  14
HETATM   14  C   UNL     1      -8.680  10.534  67.601  1.00  0.00    -0.121 C  
BRANCH  14  15
HETATM   15  C   UNL     1      -7.936  10.584  66.299  1.00  0.00    -0.144 C  
HETATM   16  C   UNL     1      -8.549  10.536  65.105  1.00  0.00    -0.187 C  
BRANCH  16  17
HETATM   17  C   UNL     1     -10.034  10.356  64.982  1.00  0.00    -0.399 C  
BRANCH  17  18
HETATM   18  C   UNL     1     -10.685  11.339  64.025  1.00  0.00    -0.444 C  
BRANCH  18  19
HETATM   19  C   UNL     1     -11.142  12.579  64.788  1.00  0.00    -0.338 C  
HETATM   20  C   UNL     1     -12.642  12.744  64.735  1.00  0.00    -0.446 C  
HETATM   21  O   UNL     1     -13.409  11.995  64.151  1.00  0.00    -0.725 OA 
HETATM   22  O   UNL     1     -13.058  13.829  65.420  1.00  0.00    -0.727 OA 
ENDBRANCH  18  19
ENDBRANCH  17  18
ENDBRANCH  16  17
ENDBRANCH  14  15
ENDBRANCH  13  14
ENDBRANCH  11  12
ENDBRANCH  10  11
ENDBRANCH   8   9
ENDBRANCH   7   8
ENDBRANCH   5   6
ENDBRANCH   4   5
ENDBRANCH   2   3
TORSDOF 12
ENDMDL
MODEL      154
REMARK 921   NORMALIZED FREE ENERGY PREDICTED BY IDOCK:   -4.19 KCAL/MOL
REMARK 922        TOTAL FREE ENERGY PREDICTED BY IDOCK:   -9.63 KCAL/MOL
REMARK 923 INTER-LIGAND FREE ENERGY PREDICTED BY IDOCK:   -7.99 KCAL/MOL
REMARK 924 INTRA-LIGAND FREE ENERGY PREDICTED BY IDOCK:   -1.64 KCAL/MOL
REMARK 927      BINDING AFFINITY PREDICTED BY RF-SCORE:    0.00 PKD
ROOT
HETATM    1  C   UNL     1      -8.800   4.420  65.116  1.00  0.00    -0.138 C  
HETATM    2  C   UNL     1      -9.020   5.621  66.022  1.00  0.00    -0.158 C  
ENDROOT
BRANCH   2   3
HETATM    3  C   UNL     1     -10.448   5.723  66.484  1.00  0.00    -0.280 C  
HETATM    4  C   UNL     1     -10.995   6.787  67.101  1.00  0.00    -0.458 C  
BRANCH   4   5
HETATM    5  C   UNL     1     -10.261   8.062  67.395  1.00  0.00    -0.330 C  
BRANCH   5   6
HETATM    6  C   UNL     1      -9.539   8.618  66.198  1.00  0.00    -0.305 C  
HETATM    7  C   UNL     1      -9.697   9.856  65.711  1.00  0.00    -0.332 C  
BRANCH   7   8
HETATM    8  C   UNL     1     -10.540  10.896  66.384  1.00  0.00    -0.289 C  
BRANCH   8   9
HETATM    9  C   UNL     1      -9.767  11.686  67.395  1.00  0.00    -0.186 C  
HETATM   10  C   UNL     1     -10.298  12.437  68.378  1.00  0.00    -0.236 C  
BRANCH  10  11
HETATM   11  C   UNL     1     -11.762  12.652  68.651  1.00  0.00    -0.364 C  
BRANCH  11  12
HETATM   12  C   UNL     1     -12.138  13.003  70.073  1.00  0.00    -0.367 C  
HETATM   13  C   UNL     1     -12.278  14.213  70.647  1.00  0.00    -0.432 C  
BRANCH  13  14
HETATM   14  C   UNL     1     -11.996  15.529  69.992  1.00  0.00    -0.385 C  
BRANCH  14  15
HETATM   15  C   UNL     1     -10.535  15.841  69.860  1.00  0.00    -0.324 C  
HETATM   16  C   UNL     1      -9.985  16.290  68.719  1.00  0.00    -0.237 C  
BRANCH  16  17
HETATM   17  C   UNL     1     -10.785  16.446  67.460  1.00  0.00    -0.298 C  
BRANCH  17  18
HETATM   18  C   UNL     1     -10.155  15.769  66.255  1.00  0.00    -0.320 C  
BRANCH  18  19
HETATM   19  C   UNL     1     -11.151  14.796  65.629  1.00  0.00    -0.342 C  
HETATM   20  C   UNL     1     -11.802  15.383  64.399  1.00  0.00    -0.256 C  
HETATM   21  O   UNL     1     -11.582  16.497  63.952  1.00  0.00    -1.175 OA 
HETATM   22  O   UNL     1     -12.674  14.525  63.828  1.00  0.00    -0.780 OA 
ENDBRANCH  18  19
ENDBRANCH  17  18
ENDBRANCH  16  17
ENDBRANCH  14  15
ENDBRANCH  13  14
ENDBRANCH  11  12
ENDBRANCH  10  11
ENDBRANCH   8   9
ENDBRANCH   7   8
ENDBRANCH   5   6
ENDBRANCH   4   5
ENDBRANCH   2   3
TORSDOF 12
ENDMDL
MODEL      155
REMARK 921   NORMALIZED FREE ENERGY PREDICTED BY IDOCK:   -4.18 KCAL/MOL
REMARK 922        TOTAL FREE ENERGY PREDICTED BY IDOCK:   -9.62 KCAL/MOL
REMARK 923 INTER-LIGAND FREE ENERGY PREDICTED BY IDOCK:   -7.20 KCAL/MOL
REMARK 924 INTRA-LIGAND FREE ENERGY PREDICTED BY IDOCK:   -2.42 KCAL/MOL
REMARK 927      BINDING AFFINITY PREDICTED BY RF-SCORE:    0.00 PKD
ROOT
HETATM    1  C   UNL     1      -9.833   5.095  68.331  1.00  0.00    -0.211 C  
HETATM    2  C   UNL     1      -8.680   5.415  69.269  1.00  0.00    -0.105 C  
ENDROOT
BRANCH   2   3
HETATM    3  C   UNL     1      -8.401   6.892  69.333  1.00  0.00    -0.132 C  
HETATM    4  C   UNL     1      -8.285   7.617  70.462  1.00  0.00    -0.121 C  
BRANCH   4   5
HETATM    5  C   UNL     1      -8.384   7.045  71.846  1.00  0.00    -0.106 C  
BRANCH   5   6
HETATM    6  C   UNL     1      -9.237   7.873  72.767  1.00  0.00    -0.282 C  
HETATM    7  C   UNL     1     -10.536   7.656  73.018  1.00  0.00    -0.433 C  
BRANCH   7   8
HETATM    8  C   UNL     1     -11.280   6.467  72.490  1.00  0.00    -0.307 C  
BRANCH   8   9
HETATM    9  C   UNL     1     -11.677   6.637  71.055  1.00  0.00    -0.415 C  
HETATM   10  C   UNL     1     -12.857   7.114  70.617  1.00  0.00     0.048 C  
BRANCH  10  11
HETATM   11  C   UNL     1     -14.018   7.553  71.468  1.00  0.00    -0.522 C  
BRANCH  11  12
HETATM   12  C   UNL     1     -13.800   8.778  72.326  1.00  0.00    -0.505 C  
HETATM   13  C   UNL     1     -13.306   9.984  71.985  1.00  0.00    -0.513 C  
BRANCH  13  14
HETATM   14  C   UNL     1     -12.765  10.359  70.641  1.00  0.00    -0.417 C  
BRANCH  14  15
HETATM   15  C   UNL     1     -11.268  10.342  70.561  1.00  0.00    -0.408 C  
HETATM   16  C   UNL     1     -10.598  10.376  69.398  1.00  0.00    -0.267 C  
BRANCH  16  17
HETATM   17  C   UNL     1     -11.305  10.363  68.074  1.00  0.00    -0.277 C  
BRANCH  17  18
HETATM   18  C   UNL     1     -10.767  11.388  67.090  1.00  0.00    -0.292 C  
BRANCH  18  19
HETATM   19  C   UNL     1     -11.807  12.481  66.863  1.00  0.00    -0.404 C  
HETATM   20  C   UNL     1     -12.100  12.672  65.393  1.00  0.00    -0.462 C  
HETATM   21  O   UNL     1     -11.573  12.048  64.487  1.00  0.00    -0.339 OA 
HETATM   22  O   UNL     1     -13.030  13.627  65.182  1.00  0.00    -0.734 OA 
ENDBRANCH  18  19
ENDBRANCH  17  18
ENDBRANCH  16  17
ENDBRANCH  14  15
ENDBRANCH  13  14
ENDBRANCH  11  12
ENDBRANCH  10  11
ENDBRANCH   8   9
ENDBRANCH   7   8
ENDBRANCH   5   6
ENDBRANCH   4   5
ENDBRANCH   2   3
TORSDOF 12
ENDMDL
MODEL      156
REMARK 921   NORMALIZED FREE ENERGY PREDICTED BY IDOCK:   -4.18 KCAL/MOL
REMARK 922        TOTAL FREE ENERGY PREDICTED BY IDOCK:   -9.61 KCAL/MOL
REMARK 923 INTER-LIGAND FREE ENERGY PREDICTED BY IDOCK:   -7.81 KCAL/MOL
REMARK 924 INTRA-LIGAND FREE ENERGY PREDICTED BY IDOCK:   -1.80 KCAL/MOL
REMARK 927      BINDING AFFINITY PREDICTED BY RF-SCORE:    0.00 PKD
ROOT
HETATM    1  C   UNL     1     -13.134  10.111  71.775  1.00  0.00    -0.568 C  
HETATM    2  C   UNL     1     -12.606   8.742  72.173  1.00  0.00    -0.463 C  
ENDROOT
BRANCH   2   3
HETATM    3  C   UNL     1     -11.160   8.567  71.801  1.00  0.00    -0.378 C  
HETATM    4  C   UNL     1     -10.684   7.674  70.913  1.00  0.00    -0.243 C  
BRANCH   4   5
HETATM    5  C   UNL     1     -11.542   6.729  70.124  1.00  0.00    -0.397 C  
BRANCH   5   6
HETATM    6  C   UNL     1     -10.757   5.884  69.158  1.00  0.00    -0.394 C  
HETATM    7  C   UNL     1     -10.460   6.230  67.898  1.00  0.00    -0.285 C  
BRANCH   7   8
HETATM    8  C   UNL     1     -10.780   7.577  67.325  1.00  0.00    -0.365 C  
BRANCH   8   9
HETATM    9  C   UNL     1      -9.669   8.561  67.533  1.00  0.00    -0.209 C  
HETATM   10  C   UNL     1      -9.582   9.779  66.968  1.00  0.00    -0.218 C  
BRANCH  10  11
HETATM   11  C   UNL     1     -10.562  10.393  66.004  1.00  0.00    -0.136 C  
BRANCH  11  12
HETATM   12  C   UNL     1     -10.068  10.619  64.594  1.00  0.00    -0.417 C  
HETATM   13  C   UNL     1     -10.663  11.264  63.572  1.00  0.00    -0.408 C  
BRANCH  13  14
HETATM   14  C   UNL     1     -12.040  11.851  63.592  1.00  0.00    -0.580 C  
BRANCH  14  15
HETATM   15  C   UNL     1     -12.064  13.349  63.517  1.00  0.00    -0.497 C  
HETATM   16  C   UNL     1     -12.167  14.132  64.603  1.00  0.00    -0.465 C  
BRANCH  16  17
HETATM   17  C   UNL     1     -12.339  13.562  65.981  1.00  0.00    -0.486 C  
BRANCH  17  18
HETATM   18  C   UNL     1     -11.732  14.425  67.073  1.00  0.00    -0.420 C  
BRANCH  18  19
HETATM   19  C   UNL     1     -10.255  14.667  66.780  1.00  0.00    -0.268 C  
HETATM   20  C   UNL     1      -9.368  13.781  67.623  1.00  0.00    -0.213 C  
HETATM   21  O   UNL     1      -9.764  12.976  68.450  1.00  0.00    -0.227 OA 
HETATM   22  O   UNL     1      -8.059  13.977  67.361  1.00  0.00    -0.173 OA 
ENDBRANCH  18  19
ENDBRANCH  17  18
ENDBRANCH  16  17
ENDBRANCH  14  15
ENDBRANCH  13  14
ENDBRANCH  11  12
ENDBRANCH  10  11
ENDBRANCH   8   9
ENDBRANCH   7   8
ENDBRANCH   5   6
ENDBRANCH   4   5
ENDBRANCH   2   3
TORSDOF 12
ENDMDL
MODEL      157
REMARK 921   NORMALIZED FREE ENERGY PREDICTED BY IDOCK:   -4.17 KCAL/MOL
REMARK 922        TOTAL FREE ENERGY PREDICTED BY IDOCK:   -9.60 KCAL/MOL
REMARK 923 INTER-LIGAND FREE ENERGY PREDICTED BY IDOCK:   -7.50 KCAL/MOL
REMARK 924 INTRA-LIGAND FREE ENERGY PREDICTED BY IDOCK:   -2.10 KCAL/MOL
REMARK 927      BINDING AFFINITY PREDICTED BY RF-SCORE:    0.00 PKD
ROOT
HETATM    1  C   UNL     1     -10.733   9.534  67.890  1.00  0.00    -0.285 C  
HETATM    2  C   UNL     1      -9.681  10.157  66.987  1.00  0.00    -0.224 C  
ENDROOT
BRANCH   2   3
HETATM    3  C   UNL     1      -9.909   9.816  65.540  1.00  0.00    -0.378 C  
HETATM    4  C   UNL     1     -10.224  10.696  64.570  1.00  0.00    -0.399 C  
BRANCH   4   5
HETATM    5  C   UNL     1     -10.363  12.174  64.785  1.00  0.00    -0.320 C  
BRANCH   5   6
HETATM    6  C   UNL     1     -11.764  12.589  65.143  1.00  0.00    -0.422 C  
HETATM    7  C   UNL     1     -12.119  13.195  66.285  1.00  0.00    -0.460 C  
BRANCH   7   8
HETATM    8  C   UNL     1     -11.126  13.645  67.312  1.00  0.00    -0.309 C  
BRANCH   8   9
HETATM    9  C   UNL     1     -11.771  14.407  68.429  1.00  0.00    -0.367 C  
HETATM   10  C   UNL     1     -12.158  13.892  69.611  1.00  0.00    -0.404 C  
BRANCH  10  11
HETATM   11  C   UNL     1     -12.041  12.455  70.045  1.00  0.00    -0.335 C  
BRANCH  11  12
HETATM   12  C   UNL     1     -13.017  11.988  71.100  1.00  0.00    -0.252 C  
HETATM   13  C   UNL     1     -13.057  10.822  71.772  1.00  0.00    -0.573 C  
BRANCH  13  14
HETATM   14  C   UNL     1     -12.152   9.651  71.546  1.00  0.00    -0.482 C  
BRANCH  14  15
HETATM   15  C   UNL     1     -12.809   8.322  71.773  1.00  0.00    -0.362 C  
HETATM   16  C   UNL     1     -12.144   7.157  71.696  1.00  0.00    -0.371 C  
BRANCH  16  17
HETATM   17  C   UNL     1     -10.697   7.093  71.304  1.00  0.00    -0.245 C  
BRANCH  17  18
HETATM   18  C   UNL     1     -10.359   5.896  70.432  1.00  0.00    -0.294 C  
BRANCH  18  19
HETATM   19  C   UNL     1     -11.126   5.982  69.116  1.00  0.00    -0.405 C  
HETATM   20  C   UNL     1     -10.193   5.991  67.928  1.00  0.00    -0.178 C  
HETATM   21  O   UNL     1      -8.976   5.948  67.993  1.00  0.00    -0.119 OA 
HETATM   22  O   UNL     1     -10.863   6.051  66.758  1.00  0.00    -0.315 OA 
ENDBRANCH  18  19
ENDBRANCH  17  18
ENDBRANCH  16  17
ENDBRANCH  14  15
ENDBRANCH  13  14
ENDBRANCH  11  12
ENDBRANCH  10  11
ENDBRANCH   8   9
ENDBRANCH   7   8
ENDBRANCH   5   6
ENDBRANCH   4   5
ENDBRANCH   2   3
TORSDOF 12
ENDMDL
MODEL      158
REMARK 921   NORMALIZED FREE ENERGY PREDICTED BY IDOCK:   -4.17 KCAL/MOL
REMARK 922        TOTAL FREE ENERGY PREDICTED BY IDOCK:   -9.59 KCAL/MOL
REMARK 923 INTER-LIGAND FREE ENERGY PREDICTED BY IDOCK:   -7.20 KCAL/MOL
REMARK 924 INTRA-LIGAND FREE ENERGY PREDICTED BY IDOCK:   -2.39 KCAL/MOL
REMARK 927      BINDING AFFINITY PREDICTED BY RF-SCORE:    0.00 PKD
ROOT
HETATM    1  C   UNL     1     -14.116   9.074  72.271  1.00  0.00    -0.485 C  
HETATM    2  C   UNL     1     -13.030   8.432  71.422  1.00  0.00    -0.248 C  
ENDROOT
BRANCH   2   3
HETATM    3  C   UNL     1     -11.936   9.405  71.078  1.00  0.00    -0.389 C  
HETATM    4  C   UNL     1     -10.665   9.338  71.515  1.00  0.00    -0.425 C  
BRANCH   4   5
HETATM    5  C   UNL     1     -10.131   8.247  72.396  1.00  0.00    -0.383 C  
BRANCH   5   6
HETATM    6  C   UNL     1      -8.629   8.192  72.423  1.00  0.00    -0.245 C  
HETATM    7  C   UNL     1      -7.861   7.638  71.474  1.00  0.00    -0.086 C  
BRANCH   7   8
HETATM    8  C   UNL     1      -8.414   7.100  70.190  1.00  0.00    -0.139 C  
BRANCH   8   9
HETATM    9  C   UNL     1      -9.005   5.733  70.354  1.00  0.00    -0.154 C  
HETATM   10  C   UNL     1     -10.196   5.329  69.874  1.00  0.00    -0.364 C  
BRANCH  10  11
HETATM   11  C   UNL     1     -11.179   6.162  69.096  1.00  0.00    -0.409 C  
BRANCH  11  12
HETATM   12  C   UNL     1     -10.846   6.415  67.644  1.00  0.00    -0.425 C  
HETATM   13  C   UNL     1     -10.627   7.582  67.008  1.00  0.00    -0.409 C  
BRANCH  13  14
HETATM   14  C   UNL     1     -10.753   8.945  67.613  1.00  0.00    -0.221 C  
BRANCH  14  15
HETATM   15  C   UNL     1      -9.641   9.880  67.242  1.00  0.00    -0.195 C  
HETATM   16  C   UNL     1      -9.650  11.186  67.557  1.00  0.00    -0.181 C  
BRANCH  16  17
HETATM   17  C   UNL     1     -10.818  11.828  68.248  1.00  0.00    -0.259 C  
BRANCH  17  18
HETATM   18  C   UNL     1     -11.782  12.514  67.296  1.00  0.00    -0.431 C  
BRANCH  18  19
HETATM   19  C   UNL     1     -11.038  12.968  66.044  1.00  0.00    -0.301 C  
HETATM   20  C   UNL     1     -11.906  12.863  64.812  1.00  0.00    -0.363 C  
HETATM   21  O   UNL     1     -13.057  12.458  64.798  1.00  0.00    -0.806 OA 
HETATM   22  O   UNL     1     -11.262  13.277  63.701  1.00  0.00    -0.290 OA 
ENDBRANCH  18  19
ENDBRANCH  17  18
ENDBRANCH  16  17
ENDBRANCH  14  15
ENDBRANCH  13  14
ENDBRANCH  11  12
ENDBRANCH  10  11
ENDBRANCH   8   9
ENDBRANCH   7   8
ENDBRANCH   5   6
ENDBRANCH   4   5
ENDBRANCH   2   3
TORSDOF 12
ENDMDL
MODEL      159
REMARK 921   NORMALIZED FREE ENERGY PREDICTED BY IDOCK:   -4.16 KCAL/MOL
REMARK 922        TOTAL FREE ENERGY PREDICTED BY IDOCK:   -9.58 KCAL/MOL
REMARK 923 INTER-LIGAND FREE ENERGY PREDICTED BY IDOCK:   -7.27 KCAL/MOL
REMARK 924 INTRA-LIGAND FREE ENERGY PREDICTED BY IDOCK:   -2.30 KCAL/MOL
REMARK 927      BINDING AFFINITY PREDICTED BY RF-SCORE:    0.00 PKD
ROOT
HETATM    1  C   UNL     1     -11.657  15.452  71.979  1.00  0.00    -0.544 C  
HETATM    2  C   UNL     1     -12.897  14.921  71.278  1.00  0.00    -0.419 C  
ENDROOT
BRANCH   2   3
HETATM    3  C   UNL     1     -13.766  14.115  72.203  1.00  0.00    -0.587 C  
HETATM    4  C   UNL     1     -13.727  12.776  72.343  1.00  0.00    -0.457 C  
BRANCH   4   5
HETATM    5  C   UNL     1     -12.774  11.878  71.611  1.00  0.00    -0.340 C  
BRANCH   5   6
HETATM    6  C   UNL     1     -13.272  10.464  71.486  1.00  0.00    -0.485 C  
HETATM    7  C   UNL     1     -12.493   9.383  71.340  1.00  0.00    -0.435 C  
BRANCH   7   8
HETATM    8  C   UNL     1     -10.997   9.443  71.401  1.00  0.00    -0.443 C  
BRANCH   8   9
HETATM    9  C   UNL     1     -10.423   8.385  72.293  1.00  0.00    -0.407 C  
HETATM   10  C   UNL     1      -9.150   7.948  72.276  1.00  0.00    -0.217 C  
BRANCH  10  11
HETATM   11  C   UNL     1      -8.055   8.413  71.354  1.00  0.00    -0.162 C  
BRANCH  11  12
HETATM   12  C   UNL     1      -7.799   7.564  70.130  1.00  0.00    -0.098 C  
HETATM   13  C   UNL     1      -8.231   7.735  68.866  1.00  0.00    -0.127 C  
BRANCH  13  14
HETATM   14  C   UNL     1      -9.168   8.805  68.399  1.00  0.00    -0.137 C  
BRANCH  14  15
HETATM   15  C   UNL     1      -8.546  10.168  68.328  1.00  0.00    -0.116 C  
HETATM   16  C   UNL     1      -9.184  11.236  67.821  1.00  0.00    -0.156 C  
BRANCH  16  17
HETATM   17  C   UNL     1     -10.554  11.129  67.217  1.00  0.00    -0.279 C  
BRANCH  17  18
HETATM   18  C   UNL     1     -11.639  11.775  68.060  1.00  0.00    -0.386 C  
BRANCH  18  19
HETATM   19  C   UNL     1     -11.195  13.167  68.497  1.00  0.00    -0.307 C  
HETATM   20  C   UNL     1     -11.702  14.234  67.556  1.00  0.00    -0.384 C  
HETATM   21  O   UNL     1     -12.375  14.027  66.559  1.00  0.00    -0.457 OA 
HETATM   22  O   UNL     1     -11.328  15.472  67.942  1.00  0.00    -0.331 OA 
ENDBRANCH  18  19
ENDBRANCH  17  18
ENDBRANCH  16  17
ENDBRANCH  14  15
ENDBRANCH  13  14
ENDBRANCH  11  12
ENDBRANCH  10  11
ENDBRANCH   8   9
ENDBRANCH   7   8
ENDBRANCH   5   6
ENDBRANCH   4   5
ENDBRANCH   2   3
TORSDOF 12
ENDMDL
MODEL      160
REMARK 921   NORMALIZED FREE ENERGY PREDICTED BY IDOCK:   -4.16 KCAL/MOL
REMARK 922        TOTAL FREE ENERGY PREDICTED BY IDOCK:   -9.58 KCAL/MOL
REMARK 923 INTER-LIGAND FREE ENERGY PREDICTED BY IDOCK:   -8.23 KCAL/MOL
REMARK 924 INTRA-LIGAND FREE ENERGY PREDICTED BY IDOCK:   -1.35 KCAL/MOL
REMARK 927      BINDING AFFINITY PREDICTED BY RF-SCORE:    0.00 PKD
ROOT
HETATM    1  C   UNL     1     -10.331   4.228  72.391  1.00  0.00    -0.230 C  
HETATM    2  C   UNL     1     -11.298   5.345  72.749  1.00  0.00    -0.358 C  
ENDROOT
BRANCH   2   3
HETATM    3  C   UNL     1     -10.634   6.427  73.554  1.00  0.00    -0.297 C  
HETATM    4  C   UNL     1     -10.498   7.712  73.175  1.00  0.00    -0.433 C  
BRANCH   4   5
HETATM    5  C   UNL     1     -11.029   8.272  71.888  1.00  0.00    -0.354 C  
BRANCH   5   6
HETATM    6  C   UNL     1     -12.365   8.945  72.043  1.00  0.00    -0.460 C  
HETATM    7  C   UNL     1     -12.719  10.099  71.462  1.00  0.00    -0.541 C  
BRANCH   7   8
HETATM    8  C   UNL     1     -11.848  10.815  70.474  1.00  0.00    -0.453 C  
BRANCH   8   9
HETATM    9  C   UNL     1     -12.214  12.261  70.338  1.00  0.00    -0.371 C  
HETATM   10  C   UNL     1     -11.802  13.087  69.357  1.00  0.00    -0.380 C  
BRANCH  10  11
HETATM   11  C   UNL     1     -10.884  12.738  68.217  1.00  0.00    -0.270 C  
BRANCH  11  12
HETATM   12  C   UNL     1     -11.535  12.165  66.979  1.00  0.00    -0.415 C  
HETATM   13  C   UNL     1     -12.038  12.803  65.905  1.00  0.00    -0.485 C  
BRANCH  13  14
HETATM   14  C   UNL     1     -12.141  14.287  65.738  1.00  0.00    -0.414 C  
BRANCH  14  15
HETATM   15  C   UNL     1     -10.868  14.938  65.285  1.00  0.00    -0.398 C  
HETATM   16  C   UNL     1     -10.199  15.831  66.032  1.00  0.00    -0.352 C  
BRANCH  16  17
HETATM   17  C   UNL     1     -10.716  16.303  67.359  1.00  0.00    -0.287 C  
BRANCH  17  18
HETATM   18  C   UNL     1     -10.498  17.787  67.600  1.00  0.00    -0.393 C  
BRANCH  18  19
HETATM   19  C   UNL     1      -9.262  17.993  68.471  1.00  0.00    -0.296 C  
HETATM   20  C   UNL     1      -8.692  19.382  68.308  1.00  0.00    -0.334 C  
HETATM   21  O   UNL     1      -9.142  20.242  67.568  1.00  0.00    -0.348 OA 
HETATM   22  O   UNL     1      -7.607  19.579  69.086  1.00  0.00    -0.361 OA 
ENDBRANCH  18  19
ENDBRANCH  17  18
ENDBRANCH  16  17
ENDBRANCH  14  15
ENDBRANCH  13  14
ENDBRANCH  11  12
ENDBRANCH  10  11
ENDBRANCH   8   9
ENDBRANCH   7   8
ENDBRANCH   5   6
ENDBRANCH   4   5
ENDBRANCH   2   3
TORSDOF 12
ENDMDL
MODEL      161
REMARK 921   NORMALIZED FREE ENERGY PREDICTED BY IDOCK:   -4.15 KCAL/MOL
REMARK 922        TOTAL FREE ENERGY PREDICTED BY IDOCK:   -9.56 KCAL/MOL
REMARK 923 INTER-LIGAND FREE ENERGY PREDICTED BY IDOCK:   -8.43 KCAL/MOL
REMARK 924 INTRA-LIGAND FREE ENERGY PREDICTED BY IDOCK:   -1.13 KCAL/MOL
REMARK 927      BINDING AFFINITY PREDICTED BY RF-SCORE:    0.00 PKD
ROOT
HETATM    1  C   UNL     1      -8.942  19.765  66.276  1.00  0.00    -0.431 C  
HETATM    2  C   UNL     1     -10.440  19.528  66.385  1.00  0.00    -0.597 C  
ENDROOT
BRANCH   2   3
HETATM    3  C   UNL     1     -10.774  18.516  67.446  1.00  0.00    -0.424 C  
HETATM    4  C   UNL     1     -10.554  17.190  67.358  1.00  0.00    -0.297 C  
BRANCH   4   5
HETATM    5  C   UNL     1      -9.901  16.519  66.185  1.00  0.00    -0.355 C  
BRANCH   5   6
HETATM    6  C   UNL     1     -10.888  16.039  65.156  1.00  0.00    -0.411 C  
HETATM    7  C   UNL     1     -11.155  14.753  64.887  1.00  0.00    -0.416 C  
BRANCH   7   8
HETATM    8  C   UNL     1     -10.577  13.618  65.676  1.00  0.00    -0.294 C  
BRANCH   8   9
HETATM    9  C   UNL     1     -11.636  12.712  66.226  1.00  0.00    -0.440 C  
HETATM   10  C   UNL     1     -11.948  12.567  67.527  1.00  0.00    -0.287 C  
BRANCH  10  11
HETATM   11  C   UNL     1     -11.293  13.263  68.689  1.00  0.00    -0.324 C  
BRANCH  11  12
HETATM   12  C   UNL     1     -12.158  13.503  69.905  1.00  0.00    -0.408 C  
HETATM   13  C   UNL     1     -12.558  12.636  70.855  1.00  0.00    -0.338 C  
BRANCH  13  14
HETATM   14  C   UNL     1     -12.288  11.164  70.865  1.00  0.00    -0.500 C  
BRANCH  14  15
HETATM   15  C   UNL     1     -13.212  10.382  71.749  1.00  0.00    -0.529 C  
HETATM   16  C   UNL     1     -12.990   9.101  72.086  1.00  0.00    -0.498 C  
BRANCH  16  17
HETATM   17  C   UNL     1     -11.826   8.327  71.540  1.00  0.00    -0.335 C  
BRANCH  17  18
HETATM   18  C   UNL     1     -12.168   6.890  71.186  1.00  0.00    -0.428 C  
BRANCH  18  19
HETATM   19  C   UNL     1     -11.515   6.515  69.859  1.00  0.00    -0.467 C  
HETATM   20  C   UNL     1     -10.552   5.362  70.019  1.00  0.00    -0.284 C  
HETATM   21  O   UNL     1     -10.304   4.796  71.071  1.00  0.00    -0.199 OA 
HETATM   22  O   UNL     1      -9.980   5.013  68.848  1.00  0.00    -0.167 OA 
ENDBRANCH  18  19
ENDBRANCH  17  18
ENDBRANCH  16  17
ENDBRANCH  14  15
ENDBRANCH  13  14
ENDBRANCH  11  12
ENDBRANCH  10  11
ENDBRANCH   8   9
ENDBRANCH   7   8
ENDBRANCH   5   6
ENDBRANCH   4   5
ENDBRANCH   2   3
TORSDOF 12
ENDMDL
MODEL      162
REMARK 921   NORMALIZED FREE ENERGY PREDICTED BY IDOCK:   -4.13 KCAL/MOL
REMARK 922        TOTAL FREE ENERGY PREDICTED BY IDOCK:   -9.54 KCAL/MOL
REMARK 923 INTER-LIGAND FREE ENERGY PREDICTED BY IDOCK:   -8.15 KCAL/MOL
REMARK 924 INTRA-LIGAND FREE ENERGY PREDICTED BY IDOCK:   -1.39 KCAL/MOL
REMARK 927      BINDING AFFINITY PREDICTED BY RF-SCORE:    0.00 PKD
ROOT
HETATM    1  C   UNL     1      -7.520  19.664  68.024  1.00  0.00    -0.331 C  
HETATM    2  C   UNL     1      -9.027  19.754  68.210  1.00  0.00    -0.347 C  
ENDROOT
BRANCH   2   3
HETATM    3  C   UNL     1      -9.739  20.012  66.911  1.00  0.00    -0.557 C  
HETATM    4  C   UNL     1     -10.435  19.099  66.207  1.00  0.00    -0.551 C  
BRANCH   4   5
HETATM    5  C   UNL     1     -10.634  17.676  66.636  1.00  0.00    -0.211 C  
BRANCH   5   6
HETATM    6  C   UNL     1      -9.375  16.857  66.569  1.00  0.00    -0.293 C  
HETATM    7  C   UNL     1      -9.237  15.708  65.891  1.00  0.00    -0.330 C  
BRANCH   7   8
HETATM    8  C   UNL     1     -10.310  15.151  65.006  1.00  0.00    -0.377 C  
BRANCH   8   9
HETATM    9  C   UNL     1     -10.524  13.685  65.228  1.00  0.00    -0.362 C  
HETATM   10  C   UNL     1     -11.378  13.140  66.114  1.00  0.00    -0.343 C  
BRANCH  10  11
HETATM   11  C   UNL     1     -12.273  13.882  67.069  1.00  0.00    -0.392 C  
BRANCH  11  12
HETATM   12  C   UNL     1     -11.635  14.368  68.351  1.00  0.00    -0.351 C  
HETATM   13  C   UNL     1     -11.423  13.707  69.505  1.00  0.00    -0.324 C  
BRANCH  13  14
HETATM   14  C   UNL     1     -11.870  12.312  69.808  1.00  0.00    -0.388 C  
BRANCH  14  15
HETATM   15  C   UNL     1     -12.755  12.205  71.014  1.00  0.00    -0.322 C  
HETATM   16  C   UNL     1     -12.829  11.098  71.770  1.00  0.00    -0.479 C  
BRANCH  16  17
HETATM   17  C   UNL     1     -12.078   9.846  71.420  1.00  0.00    -0.501 C  
BRANCH  17  18
HETATM   18  C   UNL     1     -12.630   8.601  72.093  1.00  0.00    -0.451 C  
BRANCH  18  19
HETATM   19  C   UNL     1     -11.482   7.687  72.509  1.00  0.00    -0.405 C  
HETATM   20  C   UNL     1     -11.241   6.598  71.490  1.00  0.00    -0.270 C  
HETATM   21  O   UNL     1     -11.881   6.445  70.462  1.00  0.00    -0.374 OA 
HETATM   22  O   UNL     1     -10.217   5.792  71.842  1.00  0.00    -0.190 OA 
ENDBRANCH  18  19
ENDBRANCH  17  18
ENDBRANCH  16  17
ENDBRANCH  14  15
ENDBRANCH  13  14
ENDBRANCH  11  12
ENDBRANCH  10  11
ENDBRANCH   8   9
ENDBRANCH   7   8
ENDBRANCH   5   6
ENDBRANCH   4   5
ENDBRANCH   2   3
TORSDOF 12
ENDMDL
MODEL      163
REMARK 921   NORMALIZED FREE ENERGY PREDICTED BY IDOCK:   -4.12 KCAL/MOL
REMARK 922        TOTAL FREE ENERGY PREDICTED BY IDOCK:   -9.51 KCAL/MOL
REMARK 923 INTER-LIGAND FREE ENERGY PREDICTED BY IDOCK:   -7.79 KCAL/MOL
REMARK 924 INTRA-LIGAND FREE ENERGY PREDICTED BY IDOCK:   -1.73 KCAL/MOL
REMARK 927      BINDING AFFINITY PREDICTED BY RF-SCORE:    0.00 PKD
ROOT
HETATM    1  C   UNL     1     -10.751  10.265  67.445  1.00  0.00    -0.339 C  
HETATM    2  C   UNL     1      -9.807  10.721  66.344  1.00  0.00    -0.254 C  
ENDROOT
BRANCH   2   3
HETATM    3  C   UNL     1     -10.334  10.386  64.976  1.00  0.00    -0.249 C  
HETATM    4  C   UNL     1     -10.887  11.262  64.116  1.00  0.00    -0.407 C  
BRANCH   4   5
HETATM    5  C   UNL     1     -11.031  12.731  64.383  1.00  0.00    -0.393 C  
BRANCH   5   6
HETATM    6  C   UNL     1     -12.326  13.084  65.062  1.00  0.00    -0.526 C  
HETATM    7  C   UNL     1     -12.431  13.688  66.254  1.00  0.00    -0.420 C  
BRANCH   7   8
HETATM    8  C   UNL     1     -11.246  14.199  67.016  1.00  0.00    -0.328 C  
BRANCH   8   9
HETATM    9  C   UNL     1     -11.644  15.080  68.161  1.00  0.00    -0.360 C  
HETATM   10  C   UNL     1     -11.996  14.660  69.390  1.00  0.00    -0.351 C  
BRANCH  10  11
HETATM   11  C   UNL     1     -12.079  13.232  69.861  1.00  0.00    -0.377 C  
BRANCH  11  12
HETATM   12  C   UNL     1     -12.753  13.001  71.194  1.00  0.00    -0.372 C  
HETATM   13  C   UNL     1     -13.065  11.841  71.804  1.00  0.00    -0.480 C  
BRANCH  13  14
HETATM   14  C   UNL     1     -12.878  10.473  71.229  1.00  0.00    -0.532 C  
BRANCH  14  15
HETATM   15  C   UNL     1     -11.442  10.072  71.066  1.00  0.00    -0.463 C  
HETATM   16  C   UNL     1     -11.055   8.799  70.886  1.00  0.00    -0.320 C  
BRANCH  16  17
HETATM   17  C   UNL     1     -12.033   7.661  70.905  1.00  0.00    -0.252 C  
BRANCH  17  18
HETATM   18  C   UNL     1     -11.378   6.302  71.075  1.00  0.00    -0.378 C  
BRANCH  18  19
HETATM   19  C   UNL     1     -11.741   5.719  72.438  1.00  0.00    -0.281 C  
HETATM   20  C   UNL     1     -10.511   5.321  73.218  1.00  0.00    -0.224 C  
HETATM   21  O   UNL     1      -9.362   5.432  72.821  1.00  0.00    -0.139 OA 
HETATM   22  O   UNL     1     -10.820   4.819  74.432  1.00  0.00    -0.344 OA 
ENDBRANCH  18  19
ENDBRANCH  17  18
ENDBRANCH  16  17
ENDBRANCH  14  15
ENDBRANCH  13  14
ENDBRANCH  11  12
ENDBRANCH  10  11
ENDBRANCH   8   9
ENDBRANCH   7   8
ENDBRANCH   5   6
ENDBRANCH   4   5
ENDBRANCH   2   3
TORSDOF 12
ENDMDL
MODEL      164
REMARK 921   NORMALIZED FREE ENERGY PREDICTED BY IDOCK:   -4.11 KCAL/MOL
REMARK 922        TOTAL FREE ENERGY PREDICTED BY IDOCK:   -9.51 KCAL/MOL
REMARK 923 INTER-LIGAND FREE ENERGY PREDICTED BY IDOCK:   -7.66 KCAL/MOL
REMARK 924 INTRA-LIGAND FREE ENERGY PREDICTED BY IDOCK:   -1.84 KCAL/MOL
REMARK 927      BINDING AFFINITY PREDICTED BY RF-SCORE:    0.00 PKD
ROOT
HETATM    1  C   UNL     1     -11.989  16.078  72.314  1.00  0.00    -0.633 C  
HETATM    2  C   UNL     1     -13.096  15.569  71.405  1.00  0.00    -0.580 C  
ENDROOT
BRANCH   2   3
HETATM    3  C   UNL     1     -14.112  14.754  72.157  1.00  0.00    -0.604 C  
HETATM    4  C   UNL     1     -14.095  13.414  72.291  1.00  0.00    -0.515 C  
BRANCH   4   5
HETATM    5  C   UNL     1     -13.026  12.523  71.730  1.00  0.00    -0.419 C  
BRANCH   5   6
HETATM    6  C   UNL     1     -13.322  11.060  71.913  1.00  0.00    -0.423 C  
HETATM    7  C   UNL     1     -12.805  10.071  71.169  1.00  0.00    -0.480 C  
BRANCH   7   8
HETATM    8  C   UNL     1     -11.760  10.301  70.120  1.00  0.00    -0.364 C  
BRANCH   8   9
HETATM    9  C   UNL     1     -10.428   9.739  70.514  1.00  0.00    -0.366 C  
HETATM   10  C   UNL     1      -9.321   9.733  69.749  1.00  0.00    -0.249 C  
BRANCH  10  11
HETATM   11  C   UNL     1      -9.196  10.267  68.347  1.00  0.00    -0.136 C  
BRANCH  11  12
HETATM   12  C   UNL     1      -8.187  11.373  68.134  1.00  0.00    -0.143 C  
HETATM   13  C   UNL     1      -8.379  12.704  68.073  1.00  0.00    -0.175 C  
BRANCH  13  14
HETATM   14  C   UNL     1      -9.702  13.401  68.120  1.00  0.00    -0.226 C  
BRANCH  14  15
HETATM   15  C   UNL     1      -9.976  14.269  66.928  1.00  0.00    -0.263 C  
HETATM   16  C   UNL     1     -10.746  13.877  65.900  1.00  0.00    -0.286 C  
BRANCH  16  17
HETATM   17  C   UNL     1     -11.339  12.500  65.833  1.00  0.00    -0.380 C  
BRANCH  17  18
HETATM   18  C   UNL     1     -11.038  11.774  64.533  1.00  0.00    -0.376 C  
BRANCH  18  19
HETATM   19  C   UNL     1      -9.986  10.696  64.775  1.00  0.00    -0.391 C  
HETATM   20  C   UNL     1      -9.429  10.162  63.477  1.00  0.00    -0.260 C  
HETATM   21  O   UNL     1      -9.774  10.525  62.364  1.00  0.00    -0.214 OA 
HETATM   22  O   UNL     1      -8.486   9.218  63.680  1.00  0.00    -0.179 OA 
ENDBRANCH  18  19
ENDBRANCH  17  18
ENDBRANCH  16  17
ENDBRANCH  14  15
ENDBRANCH  13  14
ENDBRANCH  11  12
ENDBRANCH  10  11
ENDBRANCH   8   9
ENDBRANCH   7   8
ENDBRANCH   5   6
ENDBRANCH   4   5
ENDBRANCH   2   3
TORSDOF 12
ENDMDL
MODEL      165
REMARK 921   NORMALIZED FREE ENERGY PREDICTED BY IDOCK:   -4.11 KCAL/MOL
REMARK 922        TOTAL FREE ENERGY PREDICTED BY IDOCK:   -9.50 KCAL/MOL
REMARK 923 INTER-LIGAND FREE ENERGY PREDICTED BY IDOCK:   -7.02 KCAL/MOL
REMARK 924 INTRA-LIGAND FREE ENERGY PREDICTED BY IDOCK:   -2.48 KCAL/MOL
REMARK 927      BINDING AFFINITY PREDICTED BY RF-SCORE:    0.00 PKD
ROOT
HETATM    1  C   UNL     1     -12.861   8.664  72.254  1.00  0.00    -0.438 C  
HETATM    2  C   UNL     1     -11.778   7.616  72.053  1.00  0.00    -0.340 C  
ENDROOT
BRANCH   2   3
HETATM    3  C   UNL     1     -10.583   7.866  72.932  1.00  0.00    -0.434 C  
HETATM    4  C   UNL     1      -9.300   7.877  72.523  1.00  0.00    -0.258 C  
BRANCH   4   5
HETATM    5  C   UNL     1      -8.866   7.671  71.101  1.00  0.00    -0.140 C  
BRANCH   5   6
HETATM    6  C   UNL     1      -8.043   6.427  70.909  1.00  0.00    -0.124 C  
HETATM    7  C   UNL     1      -8.518   5.248  70.484  1.00  0.00    -0.120 C  
BRANCH   7   8
HETATM    8  C   UNL     1      -9.932   5.055  70.027  1.00  0.00    -0.324 C  
BRANCH   8   9
HETATM    9  C   UNL     1     -10.040   4.968  68.535  1.00  0.00    -0.184 C  
HETATM   10  C   UNL     1     -10.430   5.961  67.716  1.00  0.00    -0.300 C  
BRANCH  10  11
HETATM   11  C   UNL     1     -10.853   7.347  68.124  1.00  0.00    -0.100 C  
BRANCH  11  12
HETATM   12  C   UNL     1     -10.495   8.468  67.175  1.00  0.00    -0.370 C  
HETATM   13  C   UNL     1     -10.058   9.712  67.448  1.00  0.00    -0.257 C  
BRANCH  13  14
HETATM   14  C   UNL     1      -9.905  10.305  68.813  1.00  0.00    -0.184 C  
BRANCH  14  15
HETATM   15  C   UNL     1     -11.206  10.632  69.483  1.00  0.00    -0.331 C  
HETATM   16  C   UNL     1     -11.745  11.863  69.471  1.00  0.00    -0.410 C  
BRANCH  16  17
HETATM   17  C   UNL     1     -11.044  13.030  68.841  1.00  0.00    -0.307 C  
BRANCH  17  18
HETATM   18  C   UNL     1     -11.798  13.626  67.665  1.00  0.00    -0.404 C  
BRANCH  18  19
HETATM   19  C   UNL     1     -11.578  12.770  66.421  1.00  0.00    -0.435 C  
HETATM   20  C   UNL     1     -12.583  13.092  65.340  1.00  0.00    -0.454 C  
HETATM   21  O   UNL     1     -13.473  13.922  65.435  1.00  0.00    -0.672 OA 
HETATM   22  O   UNL     1     -12.387  12.351  64.229  1.00  0.00    -0.432 OA 
ENDBRANCH  18  19
ENDBRANCH  17  18
ENDBRANCH  16  17
ENDBRANCH  14  15
ENDBRANCH  13  14
ENDBRANCH  11  12
ENDBRANCH  10  11
ENDBRANCH   8   9
ENDBRANCH   7   8
ENDBRANCH   5   6
ENDBRANCH   4   5
ENDBRANCH   2   3
TORSDOF 12
ENDMDL
MODEL      166
REMARK 921   NORMALIZED FREE ENERGY PREDICTED BY IDOCK:   -4.10 KCAL/MOL
REMARK 922        TOTAL FREE ENERGY PREDICTED BY IDOCK:   -9.48 KCAL/MOL
REMARK 923 INTER-LIGAND FREE ENERGY PREDICTED BY IDOCK:   -7.27 KCAL/MOL
REMARK 924 INTRA-LIGAND FREE ENERGY PREDICTED BY IDOCK:   -2.21 KCAL/MOL
REMARK 927      BINDING AFFINITY PREDICTED BY RF-SCORE:    0.00 PKD
ROOT
HETATM    1  C   UNL     1     -13.359   9.225  72.222  1.00  0.00    -0.547 C  
HETATM    2  C   UNL     1     -12.222   8.363  71.698  1.00  0.00    -0.358 C  
ENDROOT
BRANCH   2   3
HETATM    3  C   UNL     1     -11.268   7.966  72.790  1.00  0.00    -0.466 C  
HETATM    4  C   UNL     1     -10.057   7.407  72.605  1.00  0.00    -0.255 C  
BRANCH   4   5
HETATM    5  C   UNL     1      -9.455   7.124  71.260  1.00  0.00    -0.163 C  
BRANCH   5   6
HETATM    6  C   UNL     1      -9.604   5.688  70.837  1.00  0.00    -0.212 C  
HETATM    7  C   UNL     1     -10.393   5.256  69.842  1.00  0.00    -0.374 C  
BRANCH   7   8
HETATM    8  C   UNL     1     -11.146   6.184  68.938  1.00  0.00    -0.417 C  
BRANCH   8   9
HETATM    9  C   UNL     1     -10.463   6.368  67.617  1.00  0.00    -0.284 C  
HETATM   10  C   UNL     1     -10.293   7.539  66.976  1.00  0.00    -0.395 C  
BRANCH  10  11
HETATM   11  C   UNL     1     -10.766   8.891  67.439  1.00  0.00    -0.225 C  
BRANCH  11  12
HETATM   12  C   UNL     1      -9.924   9.574  68.493  1.00  0.00    -0.184 C  
HETATM   13  C   UNL     1     -10.262  10.553  69.354  1.00  0.00    -0.245 C  
BRANCH  13  14
HETATM   14  C   UNL     1     -11.578  11.264  69.398  1.00  0.00    -0.390 C  
BRANCH  14  15
HETATM   15  C   UNL     1     -11.748  12.295  68.322  1.00  0.00    -0.392 C  
HETATM   16  C   UNL     1     -11.958  13.595  68.584  1.00  0.00    -0.395 C  
BRANCH  16  17
HETATM   17  C   UNL     1     -12.112  14.108  69.985  1.00  0.00    -0.409 C  
BRANCH  17  18
HETATM   18  C   UNL     1     -11.859  15.600  70.115  1.00  0.00    -0.381 C  
BRANCH  18  19
HETATM   19  C   UNL     1     -10.371  15.889  69.940  1.00  0.00    -0.282 C  
HETATM   20  C   UNL     1     -10.127  16.905  68.849  1.00  0.00    -0.297 C  
HETATM   21  O   UNL     1     -10.996  17.431  68.174  1.00  0.00    -0.334 OA 
HETATM   22  O   UNL     1      -8.814  17.180  68.697  1.00  0.00    -0.263 OA 
ENDBRANCH  18  19
ENDBRANCH  17  18
ENDBRANCH  16  17
ENDBRANCH  14  15
ENDBRANCH  13  14
ENDBRANCH  11  12
ENDBRANCH  10  11
ENDBRANCH   8   9
ENDBRANCH   7   8
ENDBRANCH   5   6
ENDBRANCH   4   5
ENDBRANCH   2   3
TORSDOF 12
ENDMDL
MODEL      167
REMARK 921   NORMALIZED FREE ENERGY PREDICTED BY IDOCK:   -4.10 KCAL/MOL
REMARK 922        TOTAL FREE ENERGY PREDICTED BY IDOCK:   -9.48 KCAL/MOL
REMARK 923 INTER-LIGAND FREE ENERGY PREDICTED BY IDOCK:   -7.07 KCAL/MOL
REMARK 924 INTRA-LIGAND FREE ENERGY PREDICTED BY IDOCK:   -2.41 KCAL/MOL
REMARK 927      BINDING AFFINITY PREDICTED BY RF-SCORE:    0.00 PKD
ROOT
HETATM    1  C   UNL     1     -13.141   9.375  71.484  1.00  0.00    -0.451 C  
HETATM    2  C   UNL     1     -12.385  10.356  70.601  1.00  0.00    -0.438 C  
ENDROOT
BRANCH   2   3
HETATM    3  C   UNL     1     -12.590  11.780  71.039  1.00  0.00    -0.409 C  
HETATM    4  C   UNL     1     -12.269  12.873  70.321  1.00  0.00    -0.362 C  
BRANCH   4   5
HETATM    5  C   UNL     1     -11.682  12.833  68.941  1.00  0.00    -0.370 C  
BRANCH   5   6
HETATM    6  C   UNL     1     -11.312  14.193  68.417  1.00  0.00    -0.315 C  
HETATM    7  C   UNL     1     -11.521  14.619  67.163  1.00  0.00    -0.380 C  
BRANCH   7   8
HETATM    8  C   UNL     1     -12.270  13.816  66.144  1.00  0.00    -0.499 C  
BRANCH   8   9
HETATM    9  C   UNL     1     -11.513  13.684  64.857  1.00  0.00    -0.352 C  
HETATM   10  C   UNL     1     -10.901  12.570  64.416  1.00  0.00    -0.375 C  
BRANCH  10  11
HETATM   11  C   UNL     1     -10.834  11.243  65.124  1.00  0.00    -0.268 C  
BRANCH  11  12
HETATM   12  C   UNL     1      -9.728  11.078  66.142  1.00  0.00    -0.257 C  
HETATM   13  C   UNL     1      -9.646  10.230  67.185  1.00  0.00    -0.199 C  
BRANCH  13  14
HETATM   14  C   UNL     1     -10.717   9.284  67.629  1.00  0.00    -0.276 C  
BRANCH  14  15
HETATM   15  C   UNL     1     -10.487   7.864  67.205  1.00  0.00    -0.414 C  
HETATM   16  C   UNL     1     -10.615   6.822  68.043  1.00  0.00    -0.283 C  
BRANCH  16  17
HETATM   17  C   UNL     1     -10.931   7.008  69.498  1.00  0.00    -0.251 C  
BRANCH  17  18
HETATM   18  C   UNL     1      -9.758   6.709  70.415  1.00  0.00    -0.186 C  
BRANCH  18  19
HETATM   19  C   UNL     1      -8.626   7.695  70.144  1.00  0.00    -0.140 C  
HETATM   20  C   UNL     1      -8.636   8.838  71.132  1.00  0.00    -0.195 C  
HETATM   21  O   UNL     1      -9.447   8.979  72.033  1.00  0.00    -0.339 OA 
HETATM   22  O   UNL     1      -7.628   9.708  70.910  1.00  0.00    -0.309 OA 
ENDBRANCH  18  19
ENDBRANCH  17  18
ENDBRANCH  16  17
ENDBRANCH  14  15
ENDBRANCH  13  14
ENDBRANCH  11  12
ENDBRANCH  10  11
ENDBRANCH   8   9
ENDBRANCH   7   8
ENDBRANCH   5   6
ENDBRANCH   4   5
ENDBRANCH   2   3
TORSDOF 12
ENDMDL
MODEL      168
REMARK 921   NORMALIZED FREE ENERGY PREDICTED BY IDOCK:   -4.09 KCAL/MOL
REMARK 922        TOTAL FREE ENERGY PREDICTED BY IDOCK:   -9.47 KCAL/MOL
REMARK 923 INTER-LIGAND FREE ENERGY PREDICTED BY IDOCK:   -6.85 KCAL/MOL
REMARK 924 INTRA-LIGAND FREE ENERGY PREDICTED BY IDOCK:   -2.62 KCAL/MOL
REMARK 927      BINDING AFFINITY PREDICTED BY RF-SCORE:    0.00 PKD
ROOT
HETATM    1  C   UNL     1     -12.231  12.045  63.544  1.00  0.00    -0.653 C  
HETATM    2  C   UNL     1     -11.743  13.399  64.035  1.00  0.00    -0.465 C  
ENDROOT
BRANCH   2   3
HETATM    3  C   UNL     1     -12.519  13.875  65.233  1.00  0.00    -0.504 C  
HETATM    4  C   UNL     1     -12.201  13.631  66.518  1.00  0.00    -0.454 C  
BRANCH   4   5
HETATM    5  C   UNL     1     -10.988  12.864  66.956  1.00  0.00    -0.290 C  
BRANCH   5   6
HETATM    6  C   UNL     1     -11.257  11.398  67.157  1.00  0.00    -0.363 C  
HETATM    7  C   UNL     1     -11.491  10.813  68.340  1.00  0.00    -0.358 C  
BRANCH   7   8
HETATM    8  C   UNL     1     -11.631  11.585  69.617  1.00  0.00    -0.403 C  
BRANCH   8   9
HETATM    9  C   UNL     1     -12.743  11.065  70.476  1.00  0.00    -0.331 C  
HETATM   10  C   UNL     1     -12.635  10.088  71.396  1.00  0.00    -0.518 C  
BRANCH  10  11
HETATM   11  C   UNL     1     -11.392   9.310  71.737  1.00  0.00    -0.437 C  
BRANCH  11  12
HETATM   12  C   UNL     1     -11.003   8.208  70.778  1.00  0.00    -0.261 C  
HETATM   13  C   UNL     1      -9.789   7.889  70.289  1.00  0.00    -0.184 C  
BRANCH  13  14
HETATM   14  C   UNL     1      -8.521   8.644  70.537  1.00  0.00    -0.160 C  
BRANCH  14  15
HETATM   15  C   UNL     1      -8.376   9.881  69.702  1.00  0.00    -0.181 C  
HETATM   16  C   UNL     1      -7.903   9.861  68.445  1.00  0.00    -0.085 C  
BRANCH  16  17
HETATM   17  C   UNL     1      -7.412   8.598  67.801  1.00  0.00    -0.097 C  
BRANCH  17  18
HETATM   18  C   UNL     1      -8.041   8.326  66.445  1.00  0.00    -0.105 C  
BRANCH  18  19
HETATM   19  C   UNL     1      -9.550   8.164  66.598  1.00  0.00    -0.295 C  
HETATM   20  C   UNL     1      -9.931   6.724  66.852  1.00  0.00    -0.191 C  
HETATM   21  O   UNL     1      -9.146   5.792  66.918  1.00  0.00    -0.116 OA 
HETATM   22  O   UNL     1     -11.263   6.572  67.004  1.00  0.00    -0.397 OA 
ENDBRANCH  18  19
ENDBRANCH  17  18
ENDBRANCH  16  17
ENDBRANCH  14  15
ENDBRANCH  13  14
ENDBRANCH  11  12
ENDBRANCH  10  11
ENDBRANCH   8   9
ENDBRANCH   7   8
ENDBRANCH   5   6
ENDBRANCH   4   5
ENDBRANCH   2   3
TORSDOF 12
ENDMDL
MODEL      169
REMARK 921   NORMALIZED FREE ENERGY PREDICTED BY IDOCK:   -4.09 KCAL/MOL
REMARK 922        TOTAL FREE ENERGY PREDICTED BY IDOCK:   -9.47 KCAL/MOL
REMARK 923 INTER-LIGAND FREE ENERGY PREDICTED BY IDOCK:   -7.42 KCAL/MOL
REMARK 924 INTRA-LIGAND FREE ENERGY PREDICTED BY IDOCK:   -2.05 KCAL/MOL
REMARK 927      BINDING AFFINITY PREDICTED BY RF-SCORE:    0.00 PKD
ROOT
HETATM    1  C   UNL     1     -10.763  11.931  63.436  1.00  0.00    -0.476 C  
HETATM    2  C   UNL     1     -10.429  12.904  64.556  1.00  0.00    -0.400 C  
ENDROOT
BRANCH   2   3
HETATM    3  C   UNL     1     -11.597  13.124  65.477  1.00  0.00    -0.365 C  
HETATM    4  C   UNL     1     -11.698  12.659  66.737  1.00  0.00    -0.460 C  
BRANCH   4   5
HETATM    5  C   UNL     1     -10.629  11.870  67.433  1.00  0.00    -0.257 C  
BRANCH   5   6
HETATM    6  C   UNL     1     -10.973  10.414  67.583  1.00  0.00    -0.374 C  
HETATM    7  C   UNL     1     -11.044   9.755  68.749  1.00  0.00    -0.140 C  
BRANCH   7   8
HETATM    8  C   UNL     1     -10.900  10.433  70.077  1.00  0.00    -0.348 C  
BRANCH   8   9
HETATM    9  C   UNL     1     -12.094  11.270  70.420  1.00  0.00    -0.474 C  
HETATM   10  C   UNL     1     -12.998  10.995  71.378  1.00  0.00    -0.517 C  
BRANCH  10  11
HETATM   11  C   UNL     1     -13.008   9.793  72.283  1.00  0.00    -0.420 C  
BRANCH  11  12
HETATM   12  C   UNL     1     -13.898   8.644  71.868  1.00  0.00    -0.481 C  
HETATM   13  C   UNL     1     -13.585   7.350  71.663  1.00  0.00    -0.449 C  
BRANCH  13  14
HETATM   14  C   UNL     1     -12.210   6.763  71.724  1.00  0.00    -0.402 C  
BRANCH  14  15
HETATM   15  C   UNL     1     -11.574   6.563  70.380  1.00  0.00    -0.470 C  
HETATM   16  C   UNL     1     -10.306   6.149  70.227  1.00  0.00    -0.270 C  
BRANCH  16  17
HETATM   17  C   UNL     1      -9.398   5.923  71.400  1.00  0.00    -0.165 C  
BRANCH  17  18
HETATM   18  C   UNL     1      -7.962   6.349  71.146  1.00  0.00    -0.116 C  
BRANCH  18  19
HETATM   19  C   UNL     1      -7.943   7.678  70.396  1.00  0.00    -0.097 C  
HETATM   20  C   UNL     1      -7.557   8.823  71.304  1.00  0.00    -0.110 C  
HETATM   21  O   UNL     1      -7.301   8.719  72.493  1.00  0.00    -0.323 OA 
HETATM   22  O   UNL     1      -7.522  10.001  70.647  1.00  0.00    -0.302 OA 
ENDBRANCH  18  19
ENDBRANCH  17  18
ENDBRANCH  16  17
ENDBRANCH  14  15
ENDBRANCH  13  14
ENDBRANCH  11  12
ENDBRANCH  10  11
ENDBRANCH   8   9
ENDBRANCH   7   8
ENDBRANCH   5   6
ENDBRANCH   4   5
ENDBRANCH   2   3
TORSDOF 12
ENDMDL
MODEL      170
REMARK 921   NORMALIZED FREE ENERGY PREDICTED BY IDOCK:   -4.09 KCAL/MOL
REMARK 922        TOTAL FREE ENERGY PREDICTED BY IDOCK:   -9.46 KCAL/MOL
REMARK 923 INTER-LIGAND FREE ENERGY PREDICTED BY IDOCK:   -7.07 KCAL/MOL
REMARK 924 INTRA-LIGAND FREE ENERGY PREDICTED BY IDOCK:   -2.39 KCAL/MOL
REMARK 927      BINDING AFFINITY PREDICTED BY RF-SCORE:    0.00 PKD
ROOT
HETATM    1  C   UNL     1      -8.321   5.999  67.786  1.00  0.00    -0.112 C  
HETATM    2  C   UNL     1      -9.246   7.202  67.872  1.00  0.00    -0.129 C  
ENDROOT
BRANCH   2   3
HETATM    3  C   UNL     1      -9.875   7.332  69.232  1.00  0.00    -0.166 C  
HETATM    4  C   UNL     1     -10.194   8.492  69.838  1.00  0.00    -0.204 C  
BRANCH   4   5
HETATM    5  C   UNL     1      -9.999   9.846  69.224  1.00  0.00    -0.217 C  
BRANCH   5   6
HETATM    6  C   UNL     1     -11.200  10.325  68.454  1.00  0.00    -0.284 C  
HETATM    7  C   UNL     1     -11.157  10.952  67.271  1.00  0.00    -0.350 C  
BRANCH   7   8
HETATM    8  C   UNL     1      -9.887  11.153  66.501  1.00  0.00    -0.242 C  
BRANCH   8   9
HETATM    9  C   UNL     1      -9.778  10.220  65.333  1.00  0.00    -0.340 C  
HETATM   10  C   UNL     1     -10.024  10.536  64.048  1.00  0.00    -0.363 C  
BRANCH  10  11
HETATM   11  C   UNL     1     -10.474  11.874  63.525  1.00  0.00    -0.505 C  
BRANCH  11  12
HETATM   12  C   UNL     1     -11.958  12.154  63.578  1.00  0.00    -0.619 C  
HETATM   13  C   UNL     1     -12.606  13.257  63.998  1.00  0.00    -0.219 C  
BRANCH  13  14
HETATM   14  C   UNL     1     -11.968  14.466  64.609  1.00  0.00    -0.475 C  
BRANCH  14  15
HETATM   15  C   UNL     1     -11.776  14.368  66.093  1.00  0.00    -0.384 C  
HETATM   16  C   UNL     1     -10.635  14.721  66.706  1.00  0.00    -0.302 C  
BRANCH  16  17
HETATM   17  C   UNL     1      -9.429  15.178  65.938  1.00  0.00    -0.334 C  
BRANCH  17  18
HETATM   18  C   UNL     1      -8.878  16.510  66.415  1.00  0.00    -0.345 C  
BRANCH  18  19
HETATM   19  C   UNL     1      -9.936  17.597  66.249  1.00  0.00    -0.324 C  
HETATM   20  C   UNL     1     -10.097  18.413  67.510  1.00  0.00    -0.357 C  
HETATM   21  O   UNL     1      -9.476  18.233  68.546  1.00  0.00    -0.310 OA 
HETATM   22  O   UNL     1     -11.019  19.388  67.369  1.00  0.00    -0.490 OA 
ENDBRANCH  18  19
ENDBRANCH  17  18
ENDBRANCH  16  17
ENDBRANCH  14  15
ENDBRANCH  13  14
ENDBRANCH  11  12
ENDBRANCH  10  11
ENDBRANCH   8   9
ENDBRANCH   7   8
ENDBRANCH   5   6
ENDBRANCH   4   5
ENDBRANCH   2   3
TORSDOF 12
ENDMDL
MODEL      171
REMARK 921   NORMALIZED FREE ENERGY PREDICTED BY IDOCK:   -4.09 KCAL/MOL
REMARK 922        TOTAL FREE ENERGY PREDICTED BY IDOCK:   -9.46 KCAL/MOL
REMARK 923 INTER-LIGAND FREE ENERGY PREDICTED BY IDOCK:   -6.74 KCAL/MOL
REMARK 924 INTRA-LIGAND FREE ENERGY PREDICTED BY IDOCK:   -2.72 KCAL/MOL
REMARK 927      BINDING AFFINITY PREDICTED BY RF-SCORE:    0.00 PKD
ROOT
HETATM    1  C   UNL     1      -6.058  17.426  68.868  1.00  0.00    -0.189 C  
HETATM    2  C   UNL     1      -7.259  16.542  69.160  1.00  0.00    -0.226 C  
ENDROOT
BRANCH   2   3
HETATM    3  C   UNL     1      -7.979  16.138  67.903  1.00  0.00    -0.150 C  
HETATM    4  C   UNL     1      -7.751  15.014  67.198  1.00  0.00    -0.202 C  
BRANCH   4   5
HETATM    5  C   UNL     1      -6.753  13.963  67.585  1.00  0.00    -0.189 C  
BRANCH   5   6
HETATM    6  C   UNL     1      -7.268  13.018  68.636  1.00  0.00    -0.101 C  
HETATM    7  C   UNL     1      -7.867  11.844  68.389  1.00  0.00    -0.141 C  
BRANCH   7   8
HETATM    8  C   UNL     1      -7.992  11.267  67.012  1.00  0.00    -0.150 C  
BRANCH   8   9
HETATM    9  C   UNL     1      -9.269  10.505  66.830  1.00  0.00    -0.175 C  
HETATM   10  C   UNL     1      -9.998  10.451  65.699  1.00  0.00    -0.337 C  
BRANCH  10  11
HETATM   11  C   UNL     1      -9.694  11.152  64.402  1.00  0.00    -0.312 C  
BRANCH  11  12
HETATM   12  C   UNL     1     -10.878  11.485  63.523  1.00  0.00    -0.473 C  
HETATM   13  C   UNL     1     -11.634  12.599  63.492  1.00  0.00    -0.584 C  
BRANCH  13  14
HETATM   14  C   UNL     1     -11.510  13.766  64.421  1.00  0.00    -0.392 C  
BRANCH  14  15
HETATM   15  C   UNL     1     -12.606  13.850  65.441  1.00  0.00    -0.538 C  
HETATM   16  C   UNL     1     -12.372  13.876  66.764  1.00  0.00    -0.370 C  
BRANCH  16  17
HETATM   17  C   UNL     1     -10.987  13.749  67.328  1.00  0.00    -0.302 C  
BRANCH  17  18
HETATM   18  C   UNL     1     -10.938  13.856  68.842  1.00  0.00    -0.290 C  
BRANCH  18  19
HETATM   19  C   UNL     1     -11.844  14.991  69.310  1.00  0.00    -0.344 C  
HETATM   20  C   UNL     1     -12.655  14.592  70.521  1.00  0.00    -0.351 C  
HETATM   21  O   UNL     1     -12.614  13.499  71.063  1.00  0.00    -0.353 OA 
HETATM   22  O   UNL     1     -13.448  15.595  70.952  1.00  0.00    -0.569 OA 
ENDBRANCH  18  19
ENDBRANCH  17  18
ENDBRANCH  16  17
ENDBRANCH  14  15
ENDBRANCH  13  14
ENDBRANCH  11  12
ENDBRANCH  10  11
ENDBRANCH   8   9
ENDBRANCH   7   8
ENDBRANCH   5   6
ENDBRANCH   4   5
ENDBRANCH   2   3
TORSDOF 12
ENDMDL
MODEL      172
REMARK 921   NORMALIZED FREE ENERGY PREDICTED BY IDOCK:   -4.09 KCAL/MOL
REMARK 922        TOTAL FREE ENERGY PREDICTED BY IDOCK:   -9.46 KCAL/MOL
REMARK 923 INTER-LIGAND FREE ENERGY PREDICTED BY IDOCK:   -6.67 KCAL/MOL
REMARK 924 INTRA-LIGAND FREE ENERGY PREDICTED BY IDOCK:   -2.79 KCAL/MOL
REMARK 927      BINDING AFFINITY PREDICTED BY RF-SCORE:    0.00 PKD
ROOT
HETATM    1  C   UNL     1      -8.410  10.634  68.781  1.00  0.00    -0.144 C  
HETATM    2  C   UNL     1      -9.714  10.015  69.258  1.00  0.00    -0.227 C  
ENDROOT
BRANCH   2   3
HETATM    3  C   UNL     1     -10.867  10.374  68.362  1.00  0.00    -0.289 C  
HETATM    4  C   UNL     1     -11.737  11.381  68.572  1.00  0.00    -0.386 C  
BRANCH   4   5
HETATM    5  C   UNL     1     -11.663  12.331  69.731  1.00  0.00    -0.368 C  
BRANCH   5   6
HETATM    6  C   UNL     1     -12.073  13.733  69.372  1.00  0.00    -0.377 C  
HETATM    7  C   UNL     1     -11.276  14.644  68.796  1.00  0.00    -0.285 C  
BRANCH   7   8
HETATM    8  C   UNL     1      -9.889  14.332  68.324  1.00  0.00    -0.235 C  
BRANCH   8   9
HETATM    9  C   UNL     1      -9.263  15.485  67.600  1.00  0.00    -0.190 C  
HETATM   10  C   UNL     1      -9.346  15.722  66.278  1.00  0.00    -0.360 C  
BRANCH  10  11
HETATM   11  C   UNL     1     -10.062  14.876  65.259  1.00  0.00    -0.380 C  
BRANCH  11  12
HETATM   12  C   UNL     1     -11.557  15.072  65.153  1.00  0.00    -0.294 C  
HETATM   13  C   UNL     1     -12.539  14.151  65.103  1.00  0.00    -0.426 C  
BRANCH  13  14
HETATM   14  C   UNL     1     -12.345  12.668  65.055  1.00  0.00    -0.561 C  
BRANCH  14  15
HETATM   15  C   UNL     1     -11.792  12.169  63.753  1.00  0.00    -0.592 C  
HETATM   16  C   UNL     1     -10.692  11.403  63.673  1.00  0.00    -0.470 C  
BRANCH  16  17
HETATM   17  C   UNL     1      -9.884  11.044  64.885  1.00  0.00    -0.327 C  
BRANCH  17  18
HETATM   18  C   UNL     1      -9.120   9.739  64.740  1.00  0.00    -0.290 C  
BRANCH  18  19
HETATM   19  C   UNL     1      -7.676   9.931  65.194  1.00  0.00    -0.131 C  
HETATM   20  C   UNL     1      -6.748  10.138  64.020  1.00  0.00    -0.107 C  
HETATM   21  O   UNL     1      -7.089  10.142  62.848  1.00  0.00    -0.125 OA 
HETATM   22  O   UNL     1      -5.470  10.324  64.412  1.00  0.00    -0.102 OA 
ENDBRANCH  18  19
ENDBRANCH  17  18
ENDBRANCH  16  17
ENDBRANCH  14  15
ENDBRANCH  13  14
ENDBRANCH  11  12
ENDBRANCH  10  11
ENDBRANCH   8   9
ENDBRANCH   7   8
ENDBRANCH   5   6
ENDBRANCH   4   5
ENDBRANCH   2   3
TORSDOF 12
ENDMDL
MODEL      173
REMARK 921   NORMALIZED FREE ENERGY PREDICTED BY IDOCK:   -4.08 KCAL/MOL
REMARK 922        TOTAL FREE ENERGY PREDICTED BY IDOCK:   -9.46 KCAL/MOL
REMARK 923 INTER-LIGAND FREE ENERGY PREDICTED BY IDOCK:   -7.31 KCAL/MOL
REMARK 924 INTRA-LIGAND FREE ENERGY PREDICTED BY IDOCK:   -2.15 KCAL/MOL
REMARK 927      BINDING AFFINITY PREDICTED BY RF-SCORE:    0.00 PKD
ROOT
HETATM    1  C   UNL     1     -12.607  14.316  70.630  1.00  0.00    -0.424 C  
HETATM    2  C   UNL     1     -12.591  12.931  71.256  1.00  0.00    -0.352 C  
ENDROOT
BRANCH   2   3
HETATM    3  C   UNL     1     -12.517  11.846  70.218  1.00  0.00    -0.199 C  
HETATM    4  C   UNL     1     -12.592  10.523  70.462  1.00  0.00    -0.423 C  
BRANCH   4   5
HETATM    5  C   UNL     1     -12.798   9.927  71.823  1.00  0.00    -0.540 C  
BRANCH   5   6
HETATM    6  C   UNL     1     -13.825   8.829  71.837  1.00  0.00    -0.491 C  
HETATM    7  C   UNL     1     -13.561   7.524  71.679  1.00  0.00    -0.442 C  
BRANCH   7   8
HETATM    8  C   UNL     1     -12.167   6.982  71.584  1.00  0.00    -0.395 C  
BRANCH   8   9
HETATM    9  C   UNL     1     -11.766   6.694  70.169  1.00  0.00    -0.412 C  
HETATM   10  C   UNL     1     -10.541   6.885  69.646  1.00  0.00    -0.258 C  
BRANCH  10  11
HETATM   11  C   UNL     1      -9.336   7.438  70.360  1.00  0.00    -0.161 C  
BRANCH  11  12
HETATM   12  C   UNL     1      -9.412   8.886  70.786  1.00  0.00    -0.280 C  
HETATM   13  C   UNL     1      -9.466   9.999  70.028  1.00  0.00    -0.184 C  
BRANCH  13  14
HETATM   14  C   UNL     1      -9.375  10.045  68.535  1.00  0.00    -0.145 C  
BRANCH  14  15
HETATM   15  C   UNL     1      -8.809  11.327  68.001  1.00  0.00    -0.148 C  
HETATM   16  C   UNL     1      -9.534  12.203  67.286  1.00  0.00    -0.184 C  
BRANCH  16  17
HETATM   17  C   UNL     1     -10.959  11.930  66.905  1.00  0.00    -0.335 C  
BRANCH  17  18
HETATM   18  C   UNL     1     -11.849  13.159  66.968  1.00  0.00    -0.435 C  
BRANCH  18  19
HETATM   19  C   UNL     1     -11.613  14.032  65.740  1.00  0.00    -0.339 C  
HETATM   20  C   UNL     1     -10.919  15.324  66.101  1.00  0.00    -0.307 C  
HETATM   21  O   UNL     1     -10.591  15.652  67.229  1.00  0.00    -0.294 OA 
HETATM   22  O   UNL     1     -10.691  16.097  65.018  1.00  0.00    -0.558 OA 
ENDBRANCH  18  19
ENDBRANCH  17  18
ENDBRANCH  16  17
ENDBRANCH  14  15
ENDBRANCH  13  14
ENDBRANCH  11  12
ENDBRANCH  10  11
ENDBRANCH   8   9
ENDBRANCH   7   8
ENDBRANCH   5   6
ENDBRANCH   4   5
ENDBRANCH   2   3
TORSDOF 12
ENDMDL
MODEL      174
REMARK 921   NORMALIZED FREE ENERGY PREDICTED BY IDOCK:   -4.08 KCAL/MOL
REMARK 922        TOTAL FREE ENERGY PREDICTED BY IDOCK:   -9.46 KCAL/MOL
REMARK 923 INTER-LIGAND FREE ENERGY PREDICTED BY IDOCK:   -8.32 KCAL/MOL
REMARK 924 INTRA-LIGAND FREE ENERGY PREDICTED BY IDOCK:   -1.14 KCAL/MOL
REMARK 927      BINDING AFFINITY PREDICTED BY RF-SCORE:    0.00 PKD
ROOT
HETATM    1  C   UNL     1      -9.980   5.899  69.430  1.00  0.00    -0.229 C  
HETATM    2  C   UNL     1     -11.237   6.166  70.242  1.00  0.00    -0.439 C  
ENDROOT
BRANCH   2   3
HETATM    3  C   UNL     1     -10.990   6.034  71.720  1.00  0.00    -0.323 C  
HETATM    4  C   UNL     1     -11.103   7.026  72.623  1.00  0.00    -0.317 C  
BRANCH   4   5
HETATM    5  C   UNL     1     -11.531   8.425  72.290  1.00  0.00    -0.454 C  
BRANCH   5   6
HETATM    6  C   UNL     1     -12.997   8.534  71.972  1.00  0.00    -0.406 C  
HETATM    7  C   UNL     1     -13.693   9.679  71.927  1.00  0.00    -0.376 C  
BRANCH   7   8
HETATM    8  C   UNL     1     -13.056  11.026  72.078  1.00  0.00    -0.449 C  
BRANCH   8   9
HETATM    9  C   UNL     1     -12.498  11.538  70.785  1.00  0.00    -0.444 C  
HETATM   10  C   UNL     1     -12.333  12.833  70.458  1.00  0.00    -0.355 C  
BRANCH  10  11
HETATM   11  C   UNL     1     -12.689  14.024  71.306  1.00  0.00    -0.439 C  
BRANCH  11  12
HETATM   12  C   UNL     1     -11.621  15.082  71.463  1.00  0.00    -0.409 C  
HETATM   13  C   UNL     1     -11.229  16.037  70.598  1.00  0.00    -0.395 C  
BRANCH  13  14
HETATM   14  C   UNL     1     -11.733  16.210  69.200  1.00  0.00    -0.239 C  
BRANCH  14  15
HETATM   15  C   UNL     1     -10.647  16.397  68.182  1.00  0.00    -0.318 C  
HETATM   16  C   UNL     1     -10.369  15.485  67.236  1.00  0.00    -0.267 C  
BRANCH  16  17
HETATM   17  C   UNL     1     -11.083  14.166  67.169  1.00  0.00    -0.315 C  
BRANCH  17  18
HETATM   18  C   UNL     1     -11.705  13.882  65.813  1.00  0.00    -0.369 C  
BRANCH  18  19
HETATM   19  C   UNL     1     -10.842  12.884  65.047  1.00  0.00    -0.323 C  
HETATM   20  C   UNL     1     -11.429  12.566  63.693  1.00  0.00    -0.493 C  
HETATM   21  O   UNL     1     -12.469  13.029  63.253  1.00  0.00    -0.699 OA 
HETATM   22  O   UNL     1     -10.665  11.695  63.000  1.00  0.00    -0.257 OA 
ENDBRANCH  18  19
ENDBRANCH  17  18
ENDBRANCH  16  17
ENDBRANCH  14  15
ENDBRANCH  13  14
ENDBRANCH  11  12
ENDBRANCH  10  11
ENDBRANCH   8   9
ENDBRANCH   7   8
ENDBRANCH   5   6
ENDBRANCH   4   5
ENDBRANCH   2   3
TORSDOF 12
ENDMDL
MODEL      175
REMARK 921   NORMALIZED FREE ENERGY PREDICTED BY IDOCK:   -4.07 KCAL/MOL
REMARK 922        TOTAL FREE ENERGY PREDICTED BY IDOCK:   -9.43 KCAL/MOL
REMARK 923 INTER-LIGAND FREE ENERGY PREDICTED BY IDOCK:   -6.60 KCAL/MOL
REMARK 924 INTRA-LIGAND FREE ENERGY PREDICTED BY IDOCK:   -2.83 KCAL/MOL
REMARK 927      BINDING AFFINITY PREDICTED BY RF-SCORE:    0.00 PKD
ROOT
HETATM    1  C   UNL     1     -12.049  14.099  66.309  1.00  0.00    -0.463 C  
HETATM    2  C   UNL     1     -10.668  13.621  65.887  1.00  0.00    -0.281 C  
ENDROOT
BRANCH   2   3
HETATM    3  C   UNL     1     -10.056  12.702  66.908  1.00  0.00    -0.234 C  
HETATM    4  C   UNL     1      -8.973  12.979  67.659  1.00  0.00    -0.192 C  
BRANCH   4   5
HETATM    5  C   UNL     1      -8.226  14.279  67.616  1.00  0.00    -0.193 C  
BRANCH   5   6
HETATM    6  C   UNL     1      -6.773  14.138  67.979  1.00  0.00    -0.153 C  
HETATM    7  C   UNL     1      -6.058  15.045  68.660  1.00  0.00    -0.087 C  
BRANCH   7   8
HETATM    8  C   UNL     1      -6.663  16.281  69.254  1.00  0.00    -0.203 C  
BRANCH   8   9
HETATM    9  C   UNL     1      -6.237  17.523  68.532  1.00  0.00    -0.176 C  
HETATM   10  C   UNL     1      -7.045  18.535  68.165  1.00  0.00    -0.261 C  
BRANCH  10  11
HETATM   11  C   UNL     1      -8.532  18.619  68.383  1.00  0.00    -0.366 C  
BRANCH  11  12
HETATM   12  C   UNL     1      -9.400  17.837  67.424  1.00  0.00    -0.252 C  
HETATM   13  C   UNL     1     -10.501  17.102  67.671  1.00  0.00    -0.355 C  
BRANCH  13  14
HETATM   14  C   UNL     1     -11.080  16.823  69.023  1.00  0.00    -0.171 C  
BRANCH  14  15
HETATM   15  C   UNL     1     -10.481  15.631  69.707  1.00  0.00    -0.312 C  
HETATM   16  C   UNL     1     -11.198  14.549  70.051  1.00  0.00    -0.228 C  
BRANCH  16  17
HETATM   17  C   UNL     1     -12.683  14.481  69.839  1.00  0.00    -0.118 C  
BRANCH  17  18
HETATM   18  C   UNL     1     -13.486  14.726  71.104  1.00  0.00    -0.450 C  
BRANCH  18  19
HETATM   19  C   UNL     1     -12.606  14.498  72.329  1.00  0.00    -0.383 C  
HETATM   20  C   UNL     1     -12.978  15.425  73.462  1.00  0.00    -0.528 C  
HETATM   21  O   UNL     1     -13.861  16.266  73.418  1.00  0.00    -0.562 OA 
HETATM   22  O   UNL     1     -12.215  15.220  74.556  1.00  0.00    -0.634 OA 
ENDBRANCH  18  19
ENDBRANCH  17  18
ENDBRANCH  16  17
ENDBRANCH  14  15
ENDBRANCH  13  14
ENDBRANCH  11  12
ENDBRANCH  10  11
ENDBRANCH   8   9
ENDBRANCH   7   8
ENDBRANCH   5   6
ENDBRANCH   4   5
ENDBRANCH   2   3
TORSDOF 12
ENDMDL
MODEL      176
REMARK 921   NORMALIZED FREE ENERGY PREDICTED BY IDOCK:   -4.06 KCAL/MOL
REMARK 922        TOTAL FREE ENERGY PREDICTED BY IDOCK:   -9.41 KCAL/MOL
REMARK 923 INTER-LIGAND FREE ENERGY PREDICTED BY IDOCK:   -7.18 KCAL/MOL
REMARK 924 INTRA-LIGAND FREE ENERGY PREDICTED BY IDOCK:   -2.24 KCAL/MOL
REMARK 927      BINDING AFFINITY PREDICTED BY RF-SCORE:    0.00 PKD
ROOT
HETATM    1  C   UNL     1      -6.704  10.157  65.518  1.00  0.00    -0.122 C  
HETATM    2  C   UNL     1      -8.007  10.419  64.779  1.00  0.00    -0.103 C  
ENDROOT
BRANCH   2   3
HETATM    3  C   UNL     1      -9.200  10.318  65.689  1.00  0.00    -0.225 C  
HETATM    4  C   UNL     1     -10.388  10.921  65.490  1.00  0.00    -0.316 C  
BRANCH   4   5
HETATM    5  C   UNL     1     -10.714  11.769  64.296  1.00  0.00    -0.395 C  
BRANCH   5   6
HETATM    6  C   UNL     1     -12.191  11.873  64.032  1.00  0.00    -0.444 C  
HETATM    7  C   UNL     1     -13.011  12.776  64.587  1.00  0.00    -0.231 C  
BRANCH   7   8
HETATM    8  C   UNL     1     -12.524  13.887  65.467  1.00  0.00    -0.541 C  
BRANCH   8   9
HETATM    9  C   UNL     1     -12.003  15.050  64.677  1.00  0.00    -0.363 C  
HETATM   10  C   UNL     1     -10.807  15.643  64.847  1.00  0.00    -0.438 C  
BRANCH  10  11
HETATM   11  C   UNL     1      -9.762  15.279  65.867  1.00  0.00    -0.390 C  
BRANCH  11  12
HETATM   12  C   UNL     1      -9.607  16.222  67.038  1.00  0.00    -0.240 C  
HETATM   13  C   UNL     1      -9.690  15.967  68.358  1.00  0.00    -0.214 C  
BRANCH  13  14
HETATM   14  C   UNL     1     -10.054  14.652  68.974  1.00  0.00    -0.211 C  
BRANCH  14  15
HETATM   15  C   UNL     1     -11.464  14.587  69.480  1.00  0.00    -0.330 C  
HETATM   16  C   UNL     1     -12.220  13.480  69.394  1.00  0.00    -0.278 C  
BRANCH  16  17
HETATM   17  C   UNL     1     -11.731  12.235  68.715  1.00  0.00    -0.390 C  
BRANCH  17  18
HETATM   18  C   UNL     1     -11.303  11.146  69.683  1.00  0.00    -0.366 C  
BRANCH  18  19
HETATM   19  C   UNL     1     -12.323  11.027  70.812  1.00  0.00    -0.496 C  
HETATM   20  C   UNL     1     -12.314   9.647  71.427  1.00  0.00    -0.378 C  
HETATM   21  O   UNL     1     -11.597   8.726  71.071  1.00  0.00    -0.277 OA 
HETATM   22  O   UNL     1     -13.203   9.537  72.437  1.00  0.00    -0.431 OA 
ENDBRANCH  18  19
ENDBRANCH  17  18
ENDBRANCH  16  17
ENDBRANCH  14  15
ENDBRANCH  13  14
ENDBRANCH  11  12
ENDBRANCH  10  11
ENDBRANCH   8   9
ENDBRANCH   7   8
ENDBRANCH   5   6
ENDBRANCH   4   5
ENDBRANCH   2   3
TORSDOF 12
ENDMDL
MODEL      177
REMARK 921   NORMALIZED FREE ENERGY PREDICTED BY IDOCK:   -4.06 KCAL/MOL
REMARK 922        TOTAL FREE ENERGY PREDICTED BY IDOCK:   -9.41 KCAL/MOL
REMARK 923 INTER-LIGAND FREE ENERGY PREDICTED BY IDOCK:   -7.40 KCAL/MOL
REMARK 924 INTRA-LIGAND FREE ENERGY PREDICTED BY IDOCK:   -2.01 KCAL/MOL
REMARK 927      BINDING AFFINITY PREDICTED BY RF-SCORE:    0.00 PKD
ROOT
HETATM    1  C   UNL     1     -11.246  15.965  71.009  1.00  0.00    -0.371 C  
HETATM    2  C   UNL     1     -11.622  15.537  72.419  1.00  0.00    -0.543 C  
ENDROOT
BRANCH   2   3
HETATM    3  C   UNL     1     -12.983  16.040  72.815  1.00  0.00    -0.519 C  
HETATM    4  C   UNL     1     -14.156  15.479  72.464  1.00  0.00    -0.595 C  
BRANCH   4   5
HETATM    5  C   UNL     1     -14.282  14.231  71.642  1.00  0.00    -0.469 C  
BRANCH   5   6
HETATM    6  C   UNL     1     -13.945  12.982  72.410  1.00  0.00    -0.426 C  
HETATM    7  C   UNL     1     -13.091  12.033  72.001  1.00  0.00    -0.456 C  
BRANCH   7   8
HETATM    8  C   UNL     1     -12.265  12.161  70.758  1.00  0.00    -0.367 C  
BRANCH   8   9
HETATM    9  C   UNL     1     -12.408  10.972  69.856  1.00  0.00    -0.356 C  
HETATM   10  C   UNL     1     -11.520  10.582  68.923  1.00  0.00    -0.292 C  
BRANCH  10  11
HETATM   11  C   UNL     1     -10.221  11.262  68.582  1.00  0.00    -0.214 C  
BRANCH  11  12
HETATM   12  C   UNL     1      -8.958  10.574  69.049  1.00  0.00    -0.183 C  
HETATM   13  C   UNL     1      -8.379   9.447  68.593  1.00  0.00    -0.117 C  
BRANCH  13  14
HETATM   14  C   UNL     1      -8.932   8.547  67.533  1.00  0.00    -0.142 C  
BRANCH  14  15
HETATM   15  C   UNL     1      -8.590   7.100  67.725  1.00  0.00    -0.126 C  
HETATM   16  C   UNL     1      -9.462   6.202  68.213  1.00  0.00    -0.117 C  
BRANCH  16  17
HETATM   17  C   UNL     1     -10.835   6.598  68.673  1.00  0.00    -0.319 C  
BRANCH  17  18
HETATM   18  C   UNL     1     -11.137   6.183  70.103  1.00  0.00    -0.448 C  
BRANCH  18  19
HETATM   19  C   UNL     1     -11.140   7.411  71.008  1.00  0.00    -0.277 C  
HETATM   20  C   UNL     1     -12.506   7.660  71.603  1.00  0.00    -0.335 C  
HETATM   21  O   UNL     1     -13.498   6.982  71.389  1.00  0.00    -0.345 OA 
HETATM   22  O   UNL     1     -12.516   8.736  72.418  1.00  0.00    -0.379 OA 
ENDBRANCH  18  19
ENDBRANCH  17  18
ENDBRANCH  16  17
ENDBRANCH  14  15
ENDBRANCH  13  14
ENDBRANCH  11  12
ENDBRANCH  10  11
ENDBRANCH   8   9
ENDBRANCH   7   8
ENDBRANCH   5   6
ENDBRANCH   4   5
ENDBRANCH   2   3
TORSDOF 12
ENDMDL
MODEL      178
REMARK 921   NORMALIZED FREE ENERGY PREDICTED BY IDOCK:   -4.05 KCAL/MOL
REMARK 922        TOTAL FREE ENERGY PREDICTED BY IDOCK:   -9.41 KCAL/MOL
REMARK 923 INTER-LIGAND FREE ENERGY PREDICTED BY IDOCK:   -7.19 KCAL/MOL
REMARK 924 INTRA-LIGAND FREE ENERGY PREDICTED BY IDOCK:   -2.22 KCAL/MOL
REMARK 927      BINDING AFFINITY PREDICTED BY RF-SCORE:    0.00 PKD
ROOT
HETATM    1  C   UNL     1     -11.226  16.078  69.819  1.00  0.00    -0.344 C  
HETATM    2  C   UNL     1     -11.395  14.584  70.045  1.00  0.00    -0.274 C  
ENDROOT
BRANCH   2   3
HETATM    3  C   UNL     1     -12.483  14.285  71.039  1.00  0.00    -0.432 C  
HETATM    4  C   UNL     1     -12.935  13.058  71.358  1.00  0.00    -0.373 C  
BRANCH   4   5
HETATM    5  C   UNL     1     -12.388  11.783  70.787  1.00  0.00    -0.433 C  
BRANCH   5   6
HETATM    6  C   UNL     1     -13.142  10.562  71.237  1.00  0.00    -0.478 C  
HETATM    7  C   UNL     1     -12.597   9.358  71.462  1.00  0.00    -0.447 C  
BRANCH   7   8
HETATM    8  C   UNL     1     -11.120   9.109  71.402  1.00  0.00    -0.415 C  
BRANCH   8   9
HETATM    9  C   UNL     1     -10.678   8.078  72.395  1.00  0.00    -0.386 C  
HETATM   10  C   UNL     1     -10.694   6.746  72.205  1.00  0.00    -0.249 C  
BRANCH  10  11
HETATM   11  C   UNL     1     -11.171   6.021  70.975  1.00  0.00    -0.332 C  
BRANCH  11  12
HETATM   12  C   UNL     1     -10.103   5.411  70.096  1.00  0.00    -0.322 C  
HETATM   13  C   UNL     1      -9.343   5.990  69.146  1.00  0.00    -0.136 C  
BRANCH  13  14
HETATM   14  C   UNL     1      -9.457   7.407  68.679  1.00  0.00    -0.139 C  
BRANCH  14  15
HETATM   15  C   UNL     1     -10.294   7.575  67.446  1.00  0.00    -0.346 C  
HETATM   16  C   UNL     1     -10.772   8.765  67.045  1.00  0.00    -0.186 C  
BRANCH  16  17
HETATM   17  C   UNL     1     -10.561  10.016  67.846  1.00  0.00    -0.298 C  
BRANCH  17  18
HETATM   18  C   UNL     1     -11.401  11.188  67.369  1.00  0.00    -0.329 C  
BRANCH  18  19
HETATM   19  C   UNL     1     -10.539  12.445  67.295  1.00  0.00    -0.246 C  
HETATM   20  C   UNL     1     -11.202  13.527  66.475  1.00  0.00    -0.306 C  
HETATM   21  O   UNL     1     -12.286  13.423  65.923  1.00  0.00    -0.434 OA 
HETATM   22  O   UNL     1     -10.455  14.649  66.416  1.00  0.00    -0.283 OA 
ENDBRANCH  18  19
ENDBRANCH  17  18
ENDBRANCH  16  17
ENDBRANCH  14  15
ENDBRANCH  13  14
ENDBRANCH  11  12
ENDBRANCH  10  11
ENDBRANCH   8   9
ENDBRANCH   7   8
ENDBRANCH   5   6
ENDBRANCH   4   5
ENDBRANCH   2   3
TORSDOF 12
ENDMDL
MODEL      179
REMARK 921   NORMALIZED FREE ENERGY PREDICTED BY IDOCK:   -4.04 KCAL/MOL
REMARK 922        TOTAL FREE ENERGY PREDICTED BY IDOCK:   -9.38 KCAL/MOL
REMARK 923 INTER-LIGAND FREE ENERGY PREDICTED BY IDOCK:   -7.19 KCAL/MOL
REMARK 924 INTRA-LIGAND FREE ENERGY PREDICTED BY IDOCK:   -2.19 KCAL/MOL
REMARK 927      BINDING AFFINITY PREDICTED BY RF-SCORE:    0.00 PKD
ROOT
HETATM    1  C   UNL     1      -9.828   4.786  68.155  1.00  0.00    -0.182 C  
HETATM    2  C   UNL     1     -10.679   6.042  68.251  1.00  0.00    -0.352 C  
ENDROOT
BRANCH   2   3
HETATM    3  C   UNL     1     -10.430   6.979  67.101  1.00  0.00    -0.383 C  
HETATM    4  C   UNL     1     -10.421   8.324  67.176  1.00  0.00    -0.386 C  
BRANCH   4   5
HETATM    5  C   UNL     1     -10.627   9.100  68.443  1.00  0.00    -0.217 C  
BRANCH   5   6
HETATM    6  C   UNL     1      -9.340   9.566  69.066  1.00  0.00    -0.155 C  
HETATM    7  C   UNL     1      -8.674  10.677  68.718  1.00  0.00    -0.157 C  
BRANCH   7   8
HETATM    8  C   UNL     1      -9.205  11.668  67.727  1.00  0.00    -0.178 C  
BRANCH   8   9
HETATM    9  C   UNL     1      -8.672  11.431  66.347  1.00  0.00    -0.185 C  
HETATM   10  C   UNL     1      -9.411  11.325  65.227  1.00  0.00    -0.225 C  
BRANCH  10  11
HETATM   11  C   UNL     1     -10.911  11.403  65.132  1.00  0.00    -0.259 C  
BRANCH  11  12
HETATM   12  C   UNL     1     -11.477  11.938  63.836  1.00  0.00    -0.511 C  
HETATM   13  C   UNL     1     -11.961  13.162  63.554  1.00  0.00    -0.580 C  
BRANCH  13  14
HETATM   14  C   UNL     1     -12.127  14.282  64.533  1.00  0.00    -0.499 C  
BRANCH  14  15
HETATM   15  C   UNL     1     -10.851  14.701  65.201  1.00  0.00    -0.414 C  
HETATM   16  C   UNL     1     -10.722  14.794  66.535  1.00  0.00    -0.319 C  
BRANCH  16  17
HETATM   17  C   UNL     1     -11.876  14.553  67.463  1.00  0.00    -0.404 C  
BRANCH  17  18
HETATM   18  C   UNL     1     -11.463  13.977  68.806  1.00  0.00    -0.327 C  
BRANCH  18  19
HETATM   19  C   UNL     1     -11.123  15.109  69.772  1.00  0.00    -0.295 C  
HETATM   20  C   UNL     1     -12.144  15.222  70.879  1.00  0.00    -0.344 C  
HETATM   21  O   UNL     1     -13.131  14.513  70.996  1.00  0.00    -0.350 OA 
HETATM   22  O   UNL     1     -11.844  16.210  71.747  1.00  0.00    -0.472 OA 
ENDBRANCH  18  19
ENDBRANCH  17  18
ENDBRANCH  16  17
ENDBRANCH  14  15
ENDBRANCH  13  14
ENDBRANCH  11  12
ENDBRANCH  10  11
ENDBRANCH   8   9
ENDBRANCH   7   8
ENDBRANCH   5   6
ENDBRANCH   4   5
ENDBRANCH   2   3
TORSDOF 12
ENDMDL
MODEL      180
REMARK 921   NORMALIZED FREE ENERGY PREDICTED BY IDOCK:   -4.04 KCAL/MOL
REMARK 922        TOTAL FREE ENERGY PREDICTED BY IDOCK:   -9.38 KCAL/MOL
REMARK 923 INTER-LIGAND FREE ENERGY PREDICTED BY IDOCK:   -7.49 KCAL/MOL
REMARK 924 INTRA-LIGAND FREE ENERGY PREDICTED BY IDOCK:   -1.89 KCAL/MOL
REMARK 927      BINDING AFFINITY PREDICTED BY RF-SCORE:    0.00 PKD
ROOT
HETATM    1  C   UNL     1      -9.344   8.722  71.896  1.00  0.00    -0.343 C  
HETATM    2  C   UNL     1      -9.693   9.312  70.539  1.00  0.00    -0.316 C  
ENDROOT
BRANCH   2   3
HETATM    3  C   UNL     1      -9.971   8.244  69.517  1.00  0.00    -0.187 C  
HETATM    4  C   UNL     1     -10.405   8.459  68.260  1.00  0.00    -0.244 C  
BRANCH   4   5
HETATM    5  C   UNL     1     -10.645   9.818  67.671  1.00  0.00    -0.333 C  
BRANCH   5   6
HETATM    6  C   UNL     1      -9.905  10.042  66.381  1.00  0.00    -0.283 C  
HETATM    7  C   UNL     1     -10.342  10.797  65.364  1.00  0.00    -0.315 C  
BRANCH   7   8
HETATM    8  C   UNL     1     -11.593  11.619  65.438  1.00  0.00    -0.095 C  
BRANCH   8   9
HETATM    9  C   UNL     1     -11.917  12.278  64.131  1.00  0.00    -0.518 C  
HETATM   10  C   UNL     1     -12.019  13.604  63.924  1.00  0.00    -0.455 C  
BRANCH  10  11
HETATM   11  C   UNL     1     -11.848  14.689  64.953  1.00  0.00    -0.403 C  
BRANCH  11  12
HETATM   12  C   UNL     1     -10.597  15.531  64.842  1.00  0.00    -0.370 C  
HETATM   13  C   UNL     1      -9.757  15.945  65.809  1.00  0.00    -0.360 C  
BRANCH  13  14
HETATM   14  C   UNL     1      -9.934  15.718  67.278  1.00  0.00    -0.238 C  
BRANCH  14  15
HETATM   15  C   UNL     1      -9.567  14.336  67.729  1.00  0.00    -0.221 C  
HETATM   16  C   UNL     1     -10.447  13.493  68.293  1.00  0.00    -0.258 C  
BRANCH  16  17
HETATM   17  C   UNL     1     -11.862  13.901  68.582  1.00  0.00    -0.407 C  
BRANCH  17  18
HETATM   18  C   UNL     1     -11.982  14.918  69.704  1.00  0.00    -0.360 C  
BRANCH  18  19
HETATM   19  C   UNL     1     -12.927  14.392  70.780  1.00  0.00    -0.388 C  
HETATM   20  C   UNL     1     -12.524  14.870  72.155  1.00  0.00    -0.338 C  
HETATM   21  O   UNL     1     -11.560  15.578  72.397  1.00  0.00    -0.434 OA 
HETATM   22  O   UNL     1     -13.362  14.423  73.113  1.00  0.00    -0.626 OA 
ENDBRANCH  18  19
ENDBRANCH  17  18
ENDBRANCH  16  17
ENDBRANCH  14  15
ENDBRANCH  13  14
ENDBRANCH  11  12
ENDBRANCH  10  11
ENDBRANCH   8   9
ENDBRANCH   7   8
ENDBRANCH   5   6
ENDBRANCH   4   5
ENDBRANCH   2   3
TORSDOF 12
ENDMDL
MODEL      181
REMARK 921   NORMALIZED FREE ENERGY PREDICTED BY IDOCK:   -4.04 KCAL/MOL
REMARK 922        TOTAL FREE ENERGY PREDICTED BY IDOCK:   -9.38 KCAL/MOL
REMARK 923 INTER-LIGAND FREE ENERGY PREDICTED BY IDOCK:   -6.88 KCAL/MOL
REMARK 924 INTRA-LIGAND FREE ENERGY PREDICTED BY IDOCK:   -2.49 KCAL/MOL
REMARK 927      BINDING AFFINITY PREDICTED BY RF-SCORE:    0.00 PKD
ROOT
HETATM    1  C   UNL     1      -7.240  11.032  67.577  1.00  0.00    -0.096 C  
HETATM    2  C   UNL     1      -8.650  11.462  67.207  1.00  0.00    -0.146 C  
ENDROOT
BRANCH   2   3
HETATM    3  C   UNL     1      -9.531  10.285  66.888  1.00  0.00    -0.200 C  
HETATM    4  C   UNL     1      -9.960   9.940  65.659  1.00  0.00    -0.353 C  
BRANCH   4   5
HETATM    5  C   UNL     1      -9.589  10.670  64.401  1.00  0.00    -0.349 C  
BRANCH   5   6
HETATM    6  C   UNL     1     -10.783  11.161  63.629  1.00  0.00    -0.381 C  
HETATM    7  C   UNL     1     -11.292  12.399  63.702  1.00  0.00    -0.556 C  
BRANCH   7   8
HETATM    8  C   UNL     1     -10.648  13.499  64.489  1.00  0.00    -0.439 C  
BRANCH   8   9
HETATM    9  C   UNL     1     -11.654  14.354  65.198  1.00  0.00    -0.361 C  
HETATM   10  C   UNL     1     -12.184  14.103  66.409  1.00  0.00    -0.473 C  
BRANCH  10  11
HETATM   11  C   UNL     1     -11.894  12.915  67.287  1.00  0.00    -0.416 C  
BRANCH  11  12
HETATM   12  C   UNL     1     -11.638  13.203  68.748  1.00  0.00    -0.348 C  
HETATM   13  C   UNL     1     -11.860  12.425  69.825  1.00  0.00    -0.387 C  
BRANCH  13  14
HETATM   14  C   UNL     1     -12.515  11.080  69.811  1.00  0.00    -0.251 C  
BRANCH  14  15
HETATM   15  C   UNL     1     -12.786  10.522  71.177  1.00  0.00    -0.513 C  
HETATM   16  C   UNL     1     -12.107   9.483  71.689  1.00  0.00    -0.474 C  
BRANCH  16  17
HETATM   17  C   UNL     1     -11.063   8.749  70.899  1.00  0.00    -0.320 C  
BRANCH  17  18
HETATM   18  C   UNL     1      -9.674   9.352  71.023  1.00  0.00    -0.293 C  
BRANCH  18  19
HETATM   19  C   UNL     1      -8.692   8.572  70.156  1.00  0.00    -0.137 C  
HETATM   20  C   UNL     1      -7.296   8.601  70.732  1.00  0.00    -0.070 C  
HETATM   21  O   UNL     1      -6.973   9.181  71.756  1.00  0.00    -0.288 OA 
HETATM   22  O   UNL     1      -6.422   7.900  69.980  1.00  0.00    -0.033 OA 
ENDBRANCH  18  19
ENDBRANCH  17  18
ENDBRANCH  16  17
ENDBRANCH  14  15
ENDBRANCH  13  14
ENDBRANCH  11  12
ENDBRANCH  10  11
ENDBRANCH   8   9
ENDBRANCH   7   8
ENDBRANCH   5   6
ENDBRANCH   4   5
ENDBRANCH   2   3
TORSDOF 12
ENDMDL
MODEL      182
REMARK 921   NORMALIZED FREE ENERGY PREDICTED BY IDOCK:   -4.03 KCAL/MOL
REMARK 922        TOTAL FREE ENERGY PREDICTED BY IDOCK:   -9.37 KCAL/MOL
REMARK 923 INTER-LIGAND FREE ENERGY PREDICTED BY IDOCK:   -6.87 KCAL/MOL
REMARK 924 INTRA-LIGAND FREE ENERGY PREDICTED BY IDOCK:   -2.50 KCAL/MOL
REMARK 927      BINDING AFFINITY PREDICTED BY RF-SCORE:    0.00 PKD
ROOT
HETATM    1  C   UNL     1     -11.279  12.194  63.491  1.00  0.00    -0.536 C  
HETATM    2  C   UNL     1     -12.458  12.416  64.425  1.00  0.00    -0.520 C  
ENDROOT
BRANCH   2   3
HETATM    3  C   UNL     1     -12.032  12.457  65.867  1.00  0.00    -0.434 C  
HETATM    4  C   UNL     1     -11.631  13.557  66.532  1.00  0.00    -0.391 C  
BRANCH   4   5
HETATM    5  C   UNL     1     -11.581  14.933  65.935  1.00  0.00    -0.228 C  
BRANCH   5   6
HETATM    6  C   UNL     1     -10.188  15.367  65.569  1.00  0.00    -0.411 C  
HETATM    7  C   UNL     1      -9.616  16.519  65.948  1.00  0.00    -0.284 C  
BRANCH   7   8
HETATM    8  C   UNL     1     -10.267  17.478  66.898  1.00  0.00    -0.329 C  
BRANCH   8   9
HETATM    9  C   UNL     1     -10.503  18.821  66.276  1.00  0.00    -0.489 C  
HETATM   10  C   UNL     1      -9.838  19.953  66.574  1.00  0.00    -0.567 C  
BRANCH  10  11
HETATM   11  C   UNL     1      -8.745  20.108  67.596  1.00  0.00    -0.380 C  
BRANCH  11  12
HETATM   12  C   UNL     1      -7.388  20.524  67.074  1.00  0.00    -0.372 C  
HETATM   13  C   UNL     1      -6.526  19.843  66.296  1.00  0.00    -0.216 C  
BRANCH  13  14
HETATM   14  C   UNL     1      -6.697  18.431  65.829  1.00  0.00    -0.315 C  
BRANCH  14  15
HETATM   15  C   UNL     1      -5.651  17.489  66.345  1.00  0.00    -0.241 C  
HETATM   16  C   UNL     1      -5.821  16.743  67.449  1.00  0.00    -0.190 C  
BRANCH  16  17
HETATM   17  C   UNL     1      -7.054  16.850  68.297  1.00  0.00    -0.179 C  
BRANCH  17  18
HETATM   18  C   UNL     1      -7.216  15.701  69.277  1.00  0.00    -0.198 C  
BRANCH  18  19
HETATM   19  C   UNL     1      -8.333  14.773  68.806  1.00  0.00    -0.168 C  
HETATM   20  C   UNL     1      -7.785  13.578  68.062  1.00  0.00    -0.143 C  
HETATM   21  O   UNL     1      -6.603  13.369  67.844  1.00  0.00    -0.114 OA 
HETATM   22  O   UNL     1      -8.764  12.743  67.655  1.00  0.00    -0.159 OA 
ENDBRANCH  18  19
ENDBRANCH  17  18
ENDBRANCH  16  17
ENDBRANCH  14  15
ENDBRANCH  13  14
ENDBRANCH  11  12
ENDBRANCH  10  11
ENDBRANCH   8   9
ENDBRANCH   7   8
ENDBRANCH   5   6
ENDBRANCH   4   5
ENDBRANCH   2   3
TORSDOF 12
ENDMDL
MODEL      183
REMARK 921   NORMALIZED FREE ENERGY PREDICTED BY IDOCK:   -4.03 KCAL/MOL
REMARK 922        TOTAL FREE ENERGY PREDICTED BY IDOCK:   -9.36 KCAL/MOL
REMARK 923 INTER-LIGAND FREE ENERGY PREDICTED BY IDOCK:   -6.65 KCAL/MOL
REMARK 924 INTRA-LIGAND FREE ENERGY PREDICTED BY IDOCK:   -2.71 KCAL/MOL
REMARK 927      BINDING AFFINITY PREDICTED BY RF-SCORE:    0.00 PKD
ROOT
HETATM    1  C   UNL     1     -10.726  11.333  64.895  1.00  0.00    -0.337 C  
HETATM    2  C   UNL     1     -10.886  12.845  64.901  1.00  0.00    -0.331 C  
ENDROOT
BRANCH   2   3
HETATM    3  C   UNL     1     -12.113  13.277  65.657  1.00  0.00    -0.488 C  
HETATM    4  C   UNL     1     -12.146  14.216  66.621  1.00  0.00    -0.480 C  
BRANCH   4   5
HETATM    5  C   UNL     1     -10.954  15.010  67.068  1.00  0.00    -0.318 C  
BRANCH   5   6
HETATM    6  C   UNL     1     -10.458  15.970  66.022  1.00  0.00    -0.356 C  
HETATM    7  C   UNL     1     -10.397  17.302  66.166  1.00  0.00    -0.320 C  
BRANCH   7   8
HETATM    8  C   UNL     1     -10.713  17.997  67.456  1.00  0.00    -0.352 C  
BRANCH   8   9
HETATM    9  C   UNL     1     -10.744  19.487  67.304  1.00  0.00    -0.604 C  
HETATM   10  C   UNL     1      -9.670  20.284  67.152  1.00  0.00    -0.592 C  
BRANCH  10  11
HETATM   11  C   UNL     1      -8.229  19.851  67.122  1.00  0.00    -0.351 C  
BRANCH  11  12
HETATM   12  C   UNL     1      -7.597  19.520  68.456  1.00  0.00    -0.378 C  
HETATM   13  C   UNL     1      -7.203  18.328  68.943  1.00  0.00    -0.282 C  
BRANCH  13  14
HETATM   14  C   UNL     1      -7.392  17.004  68.272  1.00  0.00    -0.203 C  
BRANCH  14  15
HETATM   15  C   UNL     1      -8.023  15.962  69.147  1.00  0.00    -0.233 C  
HETATM   16  C   UNL     1      -7.898  14.644  68.921  1.00  0.00    -0.148 C  
BRANCH  16  17
HETATM   17  C   UNL     1      -7.170  14.110  67.723  1.00  0.00    -0.187 C  
BRANCH  17  18
HETATM   18  C   UNL     1      -7.835  12.894  67.103  1.00  0.00    -0.084 C  
BRANCH  18  19
HETATM   19  C   UNL     1      -8.815  12.278  68.096  1.00  0.00    -0.187 C  
HETATM   20  C   UNL     1      -8.566  10.799  68.279  1.00  0.00    -0.135 C  
HETATM   21  O   UNL     1      -7.701  10.158  67.704  1.00  0.00    -0.091 OA 
HETATM   22  O   UNL     1      -9.418  10.247  69.168  1.00  0.00    -0.193 OA 
ENDBRANCH  18  19
ENDBRANCH  17  18
ENDBRANCH  16  17
ENDBRANCH  14  15
ENDBRANCH  13  14
ENDBRANCH  11  12
ENDBRANCH  10  11
ENDBRANCH   8   9
ENDBRANCH   7   8
ENDBRANCH   5   6
ENDBRANCH   4   5
ENDBRANCH   2   3
TORSDOF 12
ENDMDL
MODEL      184
REMARK 921   NORMALIZED FREE ENERGY PREDICTED BY IDOCK:   -4.01 KCAL/MOL
REMARK 922        TOTAL FREE ENERGY PREDICTED BY IDOCK:   -9.33 KCAL/MOL
REMARK 923 INTER-LIGAND FREE ENERGY PREDICTED BY IDOCK:   -6.90 KCAL/MOL
REMARK 924 INTRA-LIGAND FREE ENERGY PREDICTED BY IDOCK:   -2.44 KCAL/MOL
REMARK 927      BINDING AFFINITY PREDICTED BY RF-SCORE:    0.00 PKD
ROOT
HETATM    1  C   UNL     1     -11.217  13.044  64.612  1.00  0.00    -0.355 C  
HETATM    2  C   UNL     1     -11.956  12.651  65.881  1.00  0.00    -0.497 C  
ENDROOT
BRANCH   2   3
HETATM    3  C   UNL     1     -12.173  13.828  66.792  1.00  0.00    -0.440 C  
HETATM    4  C   UNL     1     -12.035  13.815  68.132  1.00  0.00    -0.394 C  
BRANCH   4   5
HETATM    5  C   UNL     1     -11.605  12.616  68.924  1.00  0.00    -0.363 C  
BRANCH   5   6
HETATM    6  C   UNL     1     -12.251  12.542  70.280  1.00  0.00    -0.345 C  
HETATM    7  C   UNL     1     -12.413  11.420  70.996  1.00  0.00    -0.486 C  
BRANCH   7   8
HETATM    8  C   UNL     1     -11.854  10.096  70.573  1.00  0.00    -0.408 C  
BRANCH   8   9
HETATM    9  C   UNL     1     -11.561   9.204  71.741  1.00  0.00    -0.457 C  
HETATM   10  C   UNL     1     -11.673   7.863  71.754  1.00  0.00    -0.329 C  
BRANCH  10  11
HETATM   11  C   UNL     1     -12.129   6.991  70.615  1.00  0.00    -0.332 C  
BRANCH  11  12
HETATM   12  C   UNL     1     -11.069   6.141  69.952  1.00  0.00    -0.481 C  
HETATM   13  C   UNL     1     -10.052   6.513  69.152  1.00  0.00    -0.190 C  
BRANCH  13  14
HETATM   14  C   UNL     1      -9.790   7.901  68.658  1.00  0.00    -0.177 C  
BRANCH  14  15
HETATM   15  C   UNL     1     -10.537   8.252  67.406  1.00  0.00    -0.324 C  
HETATM   16  C   UNL     1     -10.023   9.036  66.444  1.00  0.00    -0.370 C  
BRANCH  16  17
HETATM   17  C   UNL     1      -8.676   9.683  66.583  1.00  0.00    -0.146 C  
BRANCH  17  18
HETATM   18  C   UNL     1      -8.721  11.199  66.487  1.00  0.00    -0.174 C  
BRANCH  18  19
HETATM   19  C   UNL     1      -8.178  11.814  67.773  1.00  0.00    -0.144 C  
HETATM   20  C   UNL     1      -8.265  13.322  67.748  1.00  0.00    -0.168 C  
HETATM   21  O   UNL     1      -8.700  13.984  66.819  1.00  0.00    -0.203 OA 
HETATM   22  O   UNL     1      -7.801  13.876  68.887  1.00  0.00    -0.114 OA 
ENDBRANCH  18  19
ENDBRANCH  17  18
ENDBRANCH  16  17
ENDBRANCH  14  15
ENDBRANCH  13  14
ENDBRANCH  11  12
ENDBRANCH  10  11
ENDBRANCH   8   9
ENDBRANCH   7   8
ENDBRANCH   5   6
ENDBRANCH   4   5
ENDBRANCH   2   3
TORSDOF 12
ENDMDL
MODEL      185
REMARK 921   NORMALIZED FREE ENERGY PREDICTED BY IDOCK:   -4.01 KCAL/MOL
REMARK 922        TOTAL FREE ENERGY PREDICTED BY IDOCK:   -9.33 KCAL/MOL
REMARK 923 INTER-LIGAND FREE ENERGY PREDICTED BY IDOCK:   -7.63 KCAL/MOL
REMARK 924 INTRA-LIGAND FREE ENERGY PREDICTED BY IDOCK:   -1.70 KCAL/MOL
REMARK 927      BINDING AFFINITY PREDICTED BY RF-SCORE:    0.00 PKD
ROOT
HETATM    1  C   UNL     1     -12.028  15.452  70.029  1.00  0.00    -0.383 C  
HETATM    2  C   UNL     1     -12.781  14.134  70.105  1.00  0.00    -0.227 C  
ENDROOT
BRANCH   2   3
HETATM    3  C   UNL     1     -13.238  13.827  71.504  1.00  0.00    -0.417 C  
HETATM    4  C   UNL     1     -13.250  12.606  72.072  1.00  0.00    -0.531 C  
BRANCH   4   5
HETATM    5  C   UNL     1     -12.769  11.356  71.397  1.00  0.00    -0.489 C  
BRANCH   5   6
HETATM    6  C   UNL     1     -13.341  10.102  71.998  1.00  0.00    -0.492 C  
HETATM    7  C   UNL     1     -12.710   8.921  72.062  1.00  0.00    -0.456 C  
BRANCH   7   8
HETATM    8  C   UNL     1     -11.285   8.734  71.637  1.00  0.00    -0.394 C  
BRANCH   8   9
HETATM    9  C   UNL     1     -10.438   8.157  72.729  1.00  0.00    -0.385 C  
HETATM   10  C   UNL     1     -10.378   6.857  73.073  1.00  0.00    -0.269 C  
BRANCH  10  11
HETATM   11  C   UNL     1     -11.155   5.728  72.451  1.00  0.00    -0.332 C  
BRANCH  11  12
HETATM   12  C   UNL     1     -10.344   4.628  71.804  1.00  0.00    -0.208 C  
HETATM   13  C   UNL     1      -9.629   4.651  70.663  1.00  0.00    -0.261 C  
BRANCH  13  14
HETATM   14  C   UNL     1      -9.549   5.797  69.704  1.00  0.00    -0.193 C  
BRANCH  14  15
HETATM   15  C   UNL     1     -10.777   5.971  68.861  1.00  0.00    -0.384 C  
HETATM   16  C   UNL     1     -10.755   6.552  67.650  1.00  0.00    -0.381 C  
BRANCH  16  17
HETATM   17  C   UNL     1      -9.500   7.140  67.075  1.00  0.00    -0.192 C  
BRANCH  17  18
HETATM   18  C   UNL     1      -9.640   8.601  66.685  1.00  0.00    -0.285 C  
BRANCH  18  19
HETATM   19  C   UNL     1     -10.689   9.273  67.565  1.00  0.00    -0.272 C  
HETATM   20  C   UNL     1     -10.913  10.712  67.164  1.00  0.00    -0.247 C  
HETATM   21  O   UNL     1     -10.328  11.287  66.261  1.00  0.00    -0.232 OA 
HETATM   22  O   UNL     1     -11.851  11.311  67.927  1.00  0.00    -0.597 OA 
ENDBRANCH  18  19
ENDBRANCH  17  18
ENDBRANCH  16  17
ENDBRANCH  14  15
ENDBRANCH  13  14
ENDBRANCH  11  12
ENDBRANCH  10  11
ENDBRANCH   8   9
ENDBRANCH   7   8
ENDBRANCH   5   6
ENDBRANCH   4   5
ENDBRANCH   2   3
TORSDOF 12
ENDMDL
MODEL      186
REMARK 921   NORMALIZED FREE ENERGY PREDICTED BY IDOCK:   -4.01 KCAL/MOL
REMARK 922        TOTAL FREE ENERGY PREDICTED BY IDOCK:   -9.33 KCAL/MOL
REMARK 923 INTER-LIGAND FREE ENERGY PREDICTED BY IDOCK:   -5.79 KCAL/MOL
REMARK 924 INTRA-LIGAND FREE ENERGY PREDICTED BY IDOCK:   -3.53 KCAL/MOL
REMARK 927      BINDING AFFINITY PREDICTED BY RF-SCORE:    0.00 PKD
ROOT
HETATM    1  C   UNL     1     -10.605   5.733  71.004  1.00  0.00    -0.318 C  
HETATM    2  C   UNL     1     -11.628   6.650  71.657  1.00  0.00    -0.350 C  
ENDROOT
BRANCH   2   3
HETATM    3  C   UNL     1     -10.984   7.859  72.277  1.00  0.00    -0.359 C  
HETATM    4  C   UNL     1     -11.245   9.139  71.948  1.00  0.00    -0.400 C  
BRANCH   4   5
HETATM    5  C   UNL     1     -12.258   9.557  70.923  1.00  0.00    -0.332 C  
BRANCH   5   6
HETATM    6  C   UNL     1     -12.746  10.966  71.115  1.00  0.00    -0.530 C  
HETATM    7  C   UNL     1     -12.252  12.045  70.491  1.00  0.00    -0.414 C  
BRANCH   7   8
HETATM    8  C   UNL     1     -11.210  11.959  69.418  1.00  0.00    -0.278 C  
BRANCH   8   9
HETATM    9  C   UNL     1     -11.759  12.298  68.066  1.00  0.00    -0.417 C  
HETATM   10  C   UNL     1     -11.452  11.674  66.913  1.00  0.00    -0.320 C  
BRANCH  10  11
HETATM   11  C   UNL     1     -10.489  10.530  66.742  1.00  0.00    -0.302 C  
BRANCH  11  12
HETATM   12  C   UNL     1     -10.874   9.222  67.397  1.00  0.00    -0.165 C  
HETATM   13  C   UNL     1     -10.144   8.415  68.190  1.00  0.00    -0.239 C  
BRANCH  13  14
HETATM   14  C   UNL     1      -8.702   8.607  68.541  1.00  0.00    -0.139 C  
BRANCH  14  15
HETATM   15  C   UNL     1      -8.474   9.561  69.676  1.00  0.00    -0.174 C  
HETATM   16  C   UNL     1      -7.691  10.647  69.572  1.00  0.00    -0.113 C  
BRANCH  16  17
HETATM   17  C   UNL     1      -6.920  10.952  68.321  1.00  0.00    -0.069 C  
BRANCH  17  18
HETATM   18  C   UNL     1      -7.443  12.163  67.568  1.00  0.00    -0.148 C  
BRANCH  18  19
HETATM   19  C   UNL     1      -7.775  13.280  68.553  1.00  0.00    -0.120 C  
HETATM   20  C   UNL     1      -8.674  14.322  67.929  1.00  0.00    -0.178 C  
HETATM   21  O   UNL     1      -9.084  14.298  66.780  1.00  0.00    -0.249 OA 
HETATM   22  O   UNL     1      -8.986  15.307  68.797  1.00  0.00    -0.178 OA 
ENDBRANCH  18  19
ENDBRANCH  17  18
ENDBRANCH  16  17
ENDBRANCH  14  15
ENDBRANCH  13  14
ENDBRANCH  11  12
ENDBRANCH  10  11
ENDBRANCH   8   9
ENDBRANCH   7   8
ENDBRANCH   5   6
ENDBRANCH   4   5
ENDBRANCH   2   3
TORSDOF 12
ENDMDL
MODEL      187
REMARK 921   NORMALIZED FREE ENERGY PREDICTED BY IDOCK:   -3.99 KCAL/MOL
REMARK 922        TOTAL FREE ENERGY PREDICTED BY IDOCK:   -9.30 KCAL/MOL
REMARK 923 INTER-LIGAND FREE ENERGY PREDICTED BY IDOCK:   -6.90 KCAL/MOL
REMARK 924 INTRA-LIGAND FREE ENERGY PREDICTED BY IDOCK:   -2.40 KCAL/MOL
REMARK 927      BINDING AFFINITY PREDICTED BY RF-SCORE:    0.00 PKD
ROOT
HETATM    1  C   UNL     1     -13.481  15.804  73.097  1.00  0.00    -0.652 C  
HETATM    2  C   UNL     1     -13.768  15.330  71.681  1.00  0.00    -0.600 C  
ENDROOT
BRANCH   2   3
HETATM    3  C   UNL     1     -13.101  14.016  71.381  1.00  0.00    -0.423 C  
HETATM    4  C   UNL     1     -12.273  13.778  70.346  1.00  0.00    -0.433 C  
BRANCH   4   5
HETATM    5  C   UNL     1     -11.858  14.813  69.342  1.00  0.00    -0.360 C  
BRANCH   5   6
HETATM    6  C   UNL     1     -10.712  15.665  69.811  1.00  0.00    -0.309 C  
HETATM    7  C   UNL     1      -9.894  16.365  69.012  1.00  0.00    -0.266 C  
BRANCH   7   8
HETATM    8  C   UNL     1     -10.101  16.477  67.532  1.00  0.00    -0.267 C  
BRANCH   8   9
HETATM    9  C   UNL     1      -9.347  15.428  66.773  1.00  0.00    -0.267 C  
HETATM   10  C   UNL     1      -9.734  14.867  65.612  1.00  0.00    -0.326 C  
BRANCH  10  11
HETATM   11  C   UNL     1     -11.000  15.160  64.853  1.00  0.00    -0.434 C  
BRANCH  11  12
HETATM   12  C   UNL     1     -12.276  14.582  65.421  1.00  0.00    -0.294 C  
HETATM   13  C   UNL     1     -12.503  13.361  65.944  1.00  0.00    -0.468 C  
BRANCH  13  14
HETATM   14  C   UNL     1     -11.516  12.237  66.000  1.00  0.00    -0.434 C  
BRANCH  14  15
HETATM   15  C   UNL     1     -11.628  11.392  67.234  1.00  0.00    -0.232 C  
HETATM   16  C   UNL     1     -10.679  11.358  68.184  1.00  0.00    -0.241 C  
BRANCH  16  17
HETATM   17  C   UNL     1      -9.391  12.116  68.047  1.00  0.00    -0.197 C  
BRANCH  17  18
HETATM   18  C   UNL     1      -8.166  11.221  67.978  1.00  0.00    -0.134 C  
BRANCH  18  19
HETATM   19  C   UNL     1      -8.577   9.813  67.559  1.00  0.00    -0.125 C  
HETATM   20  C   UNL     1      -8.389   9.597  66.076  1.00  0.00    -0.120 C  
HETATM   21  O   UNL     1      -7.974  10.435  65.293  1.00  0.00    -0.150 OA 
HETATM   22  O   UNL     1      -8.736   8.349  65.697  1.00  0.00    -0.165 OA 
ENDBRANCH  18  19
ENDBRANCH  17  18
ENDBRANCH  16  17
ENDBRANCH  14  15
ENDBRANCH  13  14
ENDBRANCH  11  12
ENDBRANCH  10  11
ENDBRANCH   8   9
ENDBRANCH   7   8
ENDBRANCH   5   6
ENDBRANCH   4   5
ENDBRANCH   2   3
TORSDOF 12
ENDMDL
MODEL      188
REMARK 921   NORMALIZED FREE ENERGY PREDICTED BY IDOCK:   -3.99 KCAL/MOL
REMARK 922        TOTAL FREE ENERGY PREDICTED BY IDOCK:   -9.30 KCAL/MOL
REMARK 923 INTER-LIGAND FREE ENERGY PREDICTED BY IDOCK:   -6.25 KCAL/MOL
REMARK 924 INTRA-LIGAND FREE ENERGY PREDICTED BY IDOCK:   -3.05 KCAL/MOL
REMARK 927      BINDING AFFINITY PREDICTED BY RF-SCORE:    0.00 PKD
ROOT
HETATM    1  C   UNL     1     -13.094  15.419  71.193  1.00  0.00    -0.565 C  
HETATM    2  C   UNL     1     -12.119  15.532  70.033  1.00  0.00    -0.391 C  
ENDROOT
BRANCH   2   3
HETATM    3  C   UNL     1     -11.665  14.184  69.546  1.00  0.00    -0.364 C  
HETATM    4  C   UNL     1     -11.620  13.792  68.259  1.00  0.00    -0.373 C  
BRANCH   4   5
HETATM    5  C   UNL     1     -11.989  14.667  67.097  1.00  0.00    -0.310 C  
BRANCH   5   6
HETATM    6  C   UNL     1     -10.808  15.054  66.250  1.00  0.00    -0.333 C  
HETATM    7  C   UNL     1     -10.188  16.242  66.291  1.00  0.00    -0.339 C  
BRANCH   7   8
HETATM    8  C   UNL     1     -10.531  17.307  67.287  1.00  0.00    -0.319 C  
BRANCH   8   9
HETATM    9  C   UNL     1     -10.640  18.661  66.655  1.00  0.00    -0.410 C  
HETATM   10  C   UNL     1      -9.612  19.486  66.383  1.00  0.00    -0.469 C  
BRANCH  10  11
HETATM   11  C   UNL     1      -8.157  19.231  66.670  1.00  0.00    -0.300 C  
BRANCH  11  12
HETATM   12  C   UNL     1      -7.741  19.265  68.123  1.00  0.00    -0.332 C  
HETATM   13  C   UNL     1      -7.224  18.284  68.887  1.00  0.00    -0.282 C  
BRANCH  13  14
HETATM   14  C   UNL     1      -7.020  16.863  68.466  1.00  0.00    -0.186 C  
BRANCH  14  15
HETATM   15  C   UNL     1      -7.842  15.876  69.240  1.00  0.00    -0.226 C  
HETATM   16  C   UNL     1      -8.010  14.601  68.851  1.00  0.00    -0.149 C  
BRANCH  16  17
HETATM   17  C   UNL     1      -7.441  14.083  67.562  1.00  0.00    -0.186 C  
BRANCH  17  18
HETATM   18  C   UNL     1      -7.499  12.570  67.440  1.00  0.00    -0.153 C  
BRANCH  18  19
HETATM   19  C   UNL     1      -8.639  12.026  68.295  1.00  0.00    -0.174 C  
HETATM   20  C   UNL     1      -8.241  10.757  69.011  1.00  0.00    -0.138 C  
HETATM   21  O   UNL     1      -7.152  10.213  68.920  1.00  0.00    -0.064 OA 
HETATM   22  O   UNL     1      -9.237  10.275  69.782  1.00  0.00    -0.180 OA 
ENDBRANCH  18  19
ENDBRANCH  17  18
ENDBRANCH  16  17
ENDBRANCH  14  15
ENDBRANCH  13  14
ENDBRANCH  11  12
ENDBRANCH  10  11
ENDBRANCH   8   9
ENDBRANCH   7   8
ENDBRANCH   5   6
ENDBRANCH   4   5
ENDBRANCH   2   3
TORSDOF 12
ENDMDL
MODEL      189
REMARK 921   NORMALIZED FREE ENERGY PREDICTED BY IDOCK:   -3.99 KCAL/MOL
REMARK 922        TOTAL FREE ENERGY PREDICTED BY IDOCK:   -9.30 KCAL/MOL
REMARK 923 INTER-LIGAND FREE ENERGY PREDICTED BY IDOCK:   -6.16 KCAL/MOL
REMARK 924 INTRA-LIGAND FREE ENERGY PREDICTED BY IDOCK:   -3.13 KCAL/MOL
REMARK 927      BINDING AFFINITY PREDICTED BY RF-SCORE:    0.00 PKD
ROOT
HETATM    1  C   UNL     1     -12.374  14.027  66.441  1.00  0.00    -0.468 C  
HETATM    2  C   UNL     1     -10.987  13.777  65.869  1.00  0.00    -0.283 C  
ENDROOT
BRANCH   2   3
HETATM    3  C   UNL     1     -10.205  12.797  66.699  1.00  0.00    -0.246 C  
HETATM    4  C   UNL     1      -8.999  13.027  67.251  1.00  0.00    -0.212 C  
BRANCH   4   5
HETATM    5  C   UNL     1      -8.259  14.328  67.149  1.00  0.00    -0.184 C  
BRANCH   5   6
HETATM    6  C   UNL     1      -6.818  14.223  67.569  1.00  0.00    -0.158 C  
HETATM    7  C   UNL     1      -6.022  15.262  67.856  1.00  0.00    -0.166 C  
BRANCH   7   8
HETATM    8  C   UNL     1      -6.514  16.676  67.906  1.00  0.00    -0.150 C  
BRANCH   8   9
HETATM    9  C   UNL     1      -6.404  17.363  66.579  1.00  0.00    -0.260 C  
HETATM   10  C   UNL     1      -7.323  18.186  66.041  1.00  0.00    -0.290 C  
BRANCH  10  11
HETATM   11  C   UNL     1      -8.647  18.570  66.647  1.00  0.00    -0.295 C  
BRANCH  11  12
HETATM   12  C   UNL     1      -9.815  17.660  66.346  1.00  0.00    -0.315 C  
HETATM   13  C   UNL     1     -10.726  17.131  67.185  1.00  0.00    -0.177 C  
BRANCH  13  14
HETATM   14  C   UNL     1     -10.726  17.269  68.675  1.00  0.00    -0.280 C  
BRANCH  14  15
HETATM   15  C   UNL     1     -10.046  16.141  69.391  1.00  0.00    -0.256 C  
HETATM   16  C   UNL     1     -10.707  15.257  70.156  1.00  0.00    -0.293 C  
BRANCH  16  17
HETATM   17  C   UNL     1     -12.181  15.376  70.413  1.00  0.00    -0.430 C  
BRANCH  17  18
HETATM   18  C   UNL     1     -12.890  14.036  70.499  1.00  0.00    -0.284 C  
BRANCH  18  19
HETATM   19  C   UNL     1     -11.939  12.920  70.080  1.00  0.00    -0.380 C  
HETATM   20  C   UNL     1     -12.315  11.601  70.714  1.00  0.00    -0.358 C  
HETATM   21  O   UNL     1     -13.251  11.433  71.479  1.00  0.00    -0.373 OA 
HETATM   22  O   UNL     1     -11.489  10.603  70.338  1.00  0.00    -0.306 OA 
ENDBRANCH  18  19
ENDBRANCH  17  18
ENDBRANCH  16  17
ENDBRANCH  14  15
ENDBRANCH  13  14
ENDBRANCH  11  12
ENDBRANCH  10  11
ENDBRANCH   8   9
ENDBRANCH   7   8
ENDBRANCH   5   6
ENDBRANCH   4   5
ENDBRANCH   2   3
TORSDOF 12
ENDMDL
MODEL      190
REMARK 921   NORMALIZED FREE ENERGY PREDICTED BY IDOCK:   -3.99 KCAL/MOL
REMARK 922        TOTAL FREE ENERGY PREDICTED BY IDOCK:   -9.29 KCAL/MOL
REMARK 923 INTER-LIGAND FREE ENERGY PREDICTED BY IDOCK:   -6.08 KCAL/MOL
REMARK 924 INTRA-LIGAND FREE ENERGY PREDICTED BY IDOCK:   -3.22 KCAL/MOL
REMARK 927      BINDING AFFINITY PREDICTED BY RF-SCORE:    0.00 PKD
ROOT
HETATM    1  C   UNL     1      -9.287   4.354  69.798  1.00  0.00    -0.224 C  
HETATM    2  C   UNL     1      -7.859   4.865  69.896  1.00  0.00    -0.066 C  
ENDROOT
BRANCH   2   3
HETATM    3  C   UNL     1      -7.802   6.367  69.952  1.00  0.00    -0.114 C  
HETATM    4  C   UNL     1      -8.071   7.120  71.035  1.00  0.00    -0.104 C  
BRANCH   4   5
HETATM    5  C   UNL     1      -8.441   6.564  72.379  1.00  0.00    -0.118 C  
BRANCH   5   6
HETATM    6  C   UNL     1      -9.345   7.472  73.166  1.00  0.00    -0.258 C  
HETATM    7  C   UNL     1     -10.680   7.362  73.232  1.00  0.00    -0.441 C  
BRANCH   7   8
HETATM    8  C   UNL     1     -11.435   6.227  72.610  1.00  0.00    -0.255 C  
BRANCH   8   9
HETATM    9  C   UNL     1     -11.770   6.488  71.173  1.00  0.00    -0.392 C  
HETATM   10  C   UNL     1     -12.909   7.045  70.719  1.00  0.00    -0.069 C  
BRANCH  10  11
HETATM   11  C   UNL     1     -14.078   7.498  71.551  1.00  0.00    -0.550 C  
BRANCH  11  12
HETATM   12  C   UNL     1     -13.896   8.786  72.323  1.00  0.00    -0.505 C  
HETATM   13  C   UNL     1     -13.279   9.924  71.954  1.00  0.00    -0.558 C  
BRANCH  13  14
HETATM   14  C   UNL     1     -12.535  10.140  70.673  1.00  0.00    -0.372 C  
BRANCH  14  15
HETATM   15  C   UNL     1     -11.044  10.065  70.817  1.00  0.00    -0.407 C  
HETATM   16  C   UNL     1     -10.226   9.770  69.794  1.00  0.00    -0.271 C  
BRANCH  16  17
HETATM   17  C   UNL     1     -10.752   9.420  68.432  1.00  0.00    -0.213 C  
BRANCH  17  18
HETATM   18  C   UNL     1      -9.900   8.398  67.699  1.00  0.00    -0.222 C  
BRANCH  18  19
HETATM   19  C   UNL     1     -10.666   7.085  67.567  1.00  0.00    -0.352 C  
HETATM   20  C   UNL     1      -9.947   6.110  66.665  1.00  0.00    -0.158 C  
HETATM   21  O   UNL     1      -8.890   6.331  66.094  1.00  0.00    -0.147 OA 
HETATM   22  O   UNL     1     -10.608   4.940  66.553  1.00  0.00    -0.280 OA 
ENDBRANCH  18  19
ENDBRANCH  17  18
ENDBRANCH  16  17
ENDBRANCH  14  15
ENDBRANCH  13  14
ENDBRANCH  11  12
ENDBRANCH  10  11
ENDBRANCH   8   9
ENDBRANCH   7   8
ENDBRANCH   5   6
ENDBRANCH   4   5
ENDBRANCH   2   3
TORSDOF 12
ENDMDL
MODEL      191
REMARK 921   NORMALIZED FREE ENERGY PREDICTED BY IDOCK:   -3.99 KCAL/MOL
REMARK 922        TOTAL FREE ENERGY PREDICTED BY IDOCK:   -9.29 KCAL/MOL
REMARK 923 INTER-LIGAND FREE ENERGY PREDICTED BY IDOCK:   -7.34 KCAL/MOL
REMARK 924 INTRA-LIGAND FREE ENERGY PREDICTED BY IDOCK:   -1.95 KCAL/MOL
REMARK 927      BINDING AFFINITY PREDICTED BY RF-SCORE:    0.00 PKD
ROOT
HETATM    1  C   UNL     1      -8.795   3.619  65.121  1.00  0.00    -0.120 C  
HETATM    2  C   UNL     1      -9.285   5.046  65.302  1.00  0.00    -0.125 C  
ENDROOT
BRANCH   2   3
HETATM    3  C   UNL     1     -10.462   5.122  66.237  1.00  0.00    -0.341 C  
HETATM    4  C   UNL     1     -10.427   5.583  67.501  1.00  0.00    -0.269 C  
BRANCH   4   5
HETATM    5  C   UNL     1      -9.198   6.129  68.167  1.00  0.00    -0.117 C  
BRANCH   5   6
HETATM    6  C   UNL     1      -9.298   6.148  69.668  1.00  0.00    -0.156 C  
HETATM    7  C   UNL     1      -9.842   7.137  70.391  1.00  0.00    -0.177 C  
BRANCH   7   8
HETATM    8  C   UNL     1     -10.533   8.313  69.772  1.00  0.00    -0.220 C  
BRANCH   8   9
HETATM    9  C   UNL     1      -9.576   9.405  69.404  1.00  0.00    -0.177 C  
HETATM   10  C   UNL     1      -9.584  10.103  68.253  1.00  0.00    -0.150 C  
BRANCH  10  11
HETATM   11  C   UNL     1     -10.535   9.920  67.101  1.00  0.00    -0.305 C  
BRANCH  11  12
HETATM   12  C   UNL     1      -9.954   9.337  65.833  1.00  0.00    -0.289 C  
HETATM   13  C   UNL     1      -9.562   9.961  64.706  1.00  0.00    -0.339 C  
BRANCH  13  14
HETATM   14  C   UNL     1      -9.703  11.424  64.422  1.00  0.00    -0.266 C  
BRANCH  14  15
HETATM   15  C   UNL     1     -10.738  11.746  63.386  1.00  0.00    -0.468 C  
HETATM   16  C   UNL     1     -11.917  12.316  63.684  1.00  0.00    -0.633 C  
BRANCH  16  17
HETATM   17  C   UNL     1     -12.320  12.612  65.098  1.00  0.00    -0.547 C  
BRANCH  17  18
HETATM   18  C   UNL     1     -12.735  14.057  65.319  1.00  0.00    -0.468 C  
BRANCH  18  19
HETATM   19  C   UNL     1     -11.529  14.878  65.766  1.00  0.00    -0.281 C  
HETATM   20  C   UNL     1     -11.225  15.994  64.795  1.00  0.00    -0.339 C  
HETATM   21  O   UNL     1     -11.847  16.219  63.769  1.00  0.00    -0.955 OA 
HETATM   22  O   UNL     1     -10.169  16.736  65.189  1.00  0.00    -0.599 OA 
ENDBRANCH  18  19
ENDBRANCH  17  18
ENDBRANCH  16  17
ENDBRANCH  14  15
ENDBRANCH  13  14
ENDBRANCH  11  12
ENDBRANCH  10  11
ENDBRANCH   8   9
ENDBRANCH   7   8
ENDBRANCH   5   6
ENDBRANCH   4   5
ENDBRANCH   2   3
TORSDOF 12
ENDMDL
MODEL      192
REMARK 921   NORMALIZED FREE ENERGY PREDICTED BY IDOCK:   -3.98 KCAL/MOL
REMARK 922        TOTAL FREE ENERGY PREDICTED BY IDOCK:   -9.27 KCAL/MOL
REMARK 923 INTER-LIGAND FREE ENERGY PREDICTED BY IDOCK:   -7.08 KCAL/MOL
REMARK 924 INTRA-LIGAND FREE ENERGY PREDICTED BY IDOCK:   -2.19 KCAL/MOL
REMARK 927      BINDING AFFINITY PREDICTED BY RF-SCORE:    0.00 PKD
ROOT
HETATM    1  C   UNL     1      -8.169   5.010  66.684  1.00  0.00    -0.108 C  
HETATM    2  C   UNL     1      -8.878   6.348  66.545  1.00  0.00    -0.140 C  
ENDROOT
BRANCH   2   3
HETATM    3  C   UNL     1     -10.363   6.221  66.748  1.00  0.00    -0.285 C  
HETATM    4  C   UNL     1     -11.009   6.386  67.917  1.00  0.00    -0.416 C  
BRANCH   4   5
HETATM    5  C   UNL     1     -10.339   6.761  69.206  1.00  0.00    -0.221 C  
BRANCH   5   6
HETATM    6  C   UNL     1     -10.918   6.054  70.400  1.00  0.00    -0.399 C  
HETATM    7  C   UNL     1     -11.830   6.572  71.235  1.00  0.00    -0.385 C  
BRANCH   7   8
HETATM    8  C   UNL     1     -12.481   7.902  71.006  1.00  0.00    -0.143 C  
BRANCH   8   9
HETATM    9  C   UNL     1     -11.601   9.043  71.415  1.00  0.00    -0.396 C  
HETATM   10  C   UNL     1     -11.389  10.167  70.705  1.00  0.00    -0.433 C  
BRANCH  10  11
HETATM   11  C   UNL     1     -11.972  10.499  69.357  1.00  0.00    -0.230 C  
BRANCH  11  12
HETATM   12  C   UNL     1     -11.077  10.271  68.161  1.00  0.00    -0.324 C  
HETATM   13  C   UNL     1     -10.022  10.991  67.733  1.00  0.00    -0.194 C  
BRANCH  13  14
HETATM   14  C   UNL     1      -9.540  12.276  68.331  1.00  0.00    -0.183 C  
BRANCH  14  15
HETATM   15  C   UNL     1      -9.710  13.465  67.433  1.00  0.00    -0.221 C  
HETATM   16  C   UNL     1     -10.803  14.245  67.453  1.00  0.00    -0.288 C  
BRANCH  16  17
HETATM   17  C   UNL     1     -11.979  13.941  68.335  1.00  0.00    -0.391 C  
BRANCH  17  18
HETATM   18  C   UNL     1     -11.950  14.684  69.659  1.00  0.00    -0.368 C  
BRANCH  18  19
HETATM   19  C   UNL     1     -12.346  13.739  70.790  1.00  0.00    -0.451 C  
HETATM   20  C   UNL     1     -13.227  14.426  71.806  1.00  0.00    -0.358 C  
HETATM   21  O   UNL     1     -13.580  15.593  71.753  1.00  0.00    -0.481 OA 
HETATM   22  O   UNL     1     -13.596  13.594  72.803  1.00  0.00    -0.672 OA 
ENDBRANCH  18  19
ENDBRANCH  17  18
ENDBRANCH  16  17
ENDBRANCH  14  15
ENDBRANCH  13  14
ENDBRANCH  11  12
ENDBRANCH  10  11
ENDBRANCH   8   9
ENDBRANCH   7   8
ENDBRANCH   5   6
ENDBRANCH   4   5
ENDBRANCH   2   3
TORSDOF 12
ENDMDL
MODEL      193
REMARK 921   NORMALIZED FREE ENERGY PREDICTED BY IDOCK:   -3.97 KCAL/MOL
REMARK 922        TOTAL FREE ENERGY PREDICTED BY IDOCK:   -9.25 KCAL/MOL
REMARK 923 INTER-LIGAND FREE ENERGY PREDICTED BY IDOCK:   -7.21 KCAL/MOL
REMARK 924 INTRA-LIGAND FREE ENERGY PREDICTED BY IDOCK:   -2.04 KCAL/MOL
REMARK 927      BINDING AFFINITY PREDICTED BY RF-SCORE:    0.00 PKD
ROOT
HETATM    1  C   UNL     1      -9.755  20.692  67.289  1.00  0.00    -0.562 C  
HETATM    2  C   UNL     1      -9.926  19.305  66.690  1.00  0.00    -0.461 C  
ENDROOT
BRANCH   2   3
HETATM    3  C   UNL     1     -10.417  18.311  67.706  1.00  0.00    -0.430 C  
HETATM    4  C   UNL     1     -10.642  17.004  67.475  1.00  0.00    -0.310 C  
BRANCH   4   5
HETATM    5  C   UNL     1     -10.402  16.326  66.158  1.00  0.00    -0.352 C  
BRANCH   5   6
HETATM    6  C   UNL     1      -9.362  15.242  66.233  1.00  0.00    -0.345 C  
HETATM    7  C   UNL     1      -9.443  14.149  67.004  1.00  0.00    -0.256 C  
BRANCH   7   8
HETATM    8  C   UNL     1     -10.658  13.811  67.813  1.00  0.00    -0.250 C  
BRANCH   8   9
HETATM    9  C   UNL     1     -11.228  12.473  67.451  1.00  0.00    -0.344 C  
HETATM   10  C   UNL     1     -12.076  12.229  66.435  1.00  0.00    -0.123 C  
BRANCH  10  11
HETATM   11  C   UNL     1     -12.639  13.241  65.474  1.00  0.00    -0.505 C  
BRANCH  11  12
HETATM   12  C   UNL     1     -11.869  13.450  64.189  1.00  0.00    -0.492 C  
HETATM   13  C   UNL     1     -11.083  12.590  63.514  1.00  0.00    -0.497 C  
BRANCH  13  14
HETATM   14  C   UNL     1     -10.719  11.207  63.955  1.00  0.00    -0.407 C  
BRANCH  14  15
HETATM   15  C   UNL     1      -9.298  11.070  64.414  1.00  0.00    -0.223 C  
HETATM   16  C   UNL     1      -8.919  10.203  65.366  1.00  0.00    -0.208 C  
BRANCH  16  17
HETATM   17  C   UNL     1      -9.909   9.347  66.100  1.00  0.00    -0.356 C  
BRANCH  17  18
HETATM   18  C   UNL     1      -9.376   8.792  67.410  1.00  0.00    -0.166 C  
BRANCH  18  19
HETATM   19  C   UNL     1     -10.382   9.050  68.528  1.00  0.00    -0.233 C  
HETATM   20  C   UNL     1      -9.767   9.844  69.656  1.00  0.00    -0.229 C  
HETATM   21  O   UNL     1      -8.610  10.230  69.693  1.00  0.00    -0.170 OA 
HETATM   22  O   UNL     1     -10.653  10.091  70.644  1.00  0.00    -0.295 OA 
ENDBRANCH  18  19
ENDBRANCH  17  18
ENDBRANCH  16  17
ENDBRANCH  14  15
ENDBRANCH  13  14
ENDBRANCH  11  12
ENDBRANCH  10  11
ENDBRANCH   8   9
ENDBRANCH   7   8
ENDBRANCH   5   6
ENDBRANCH   4   5
ENDBRANCH   2   3
TORSDOF 12
ENDMDL
MODEL      194
REMARK 921   NORMALIZED FREE ENERGY PREDICTED BY IDOCK:   -3.96 KCAL/MOL
REMARK 922        TOTAL FREE ENERGY PREDICTED BY IDOCK:   -9.25 KCAL/MOL
REMARK 923 INTER-LIGAND FREE ENERGY PREDICTED BY IDOCK:   -7.34 KCAL/MOL
REMARK 924 INTRA-LIGAND FREE ENERGY PREDICTED BY IDOCK:   -1.90 KCAL/MOL
REMARK 927      BINDING AFFINITY PREDICTED BY RF-SCORE:    0.00 PKD
ROOT
HETATM    1  C   UNL     1     -12.271  12.543  63.751  1.00  0.00    -0.615 C  
HETATM    2  C   UNL     1     -10.751  12.490  63.767  1.00  0.00    -0.483 C  
ENDROOT
BRANCH   2   3
HETATM    3  C   UNL     1     -10.236  11.086  63.606  1.00  0.00    -0.431 C  
HETATM    4  C   UNL     1      -9.608  10.370  64.557  1.00  0.00    -0.369 C  
BRANCH   4   5
HETATM    5  C   UNL     1      -9.356  10.859  65.953  1.00  0.00    -0.226 C  
BRANCH   5   6
HETATM    6  C   UNL     1      -7.893  10.999  66.274  1.00  0.00    -0.141 C  
HETATM    7  C   UNL     1      -7.374  11.893  67.128  1.00  0.00    -0.142 C  
BRANCH   7   8
HETATM    8  C   UNL     1      -8.217  12.801  67.969  1.00  0.00    -0.168 C  
BRANCH   8   9
HETATM    9  C   UNL     1      -8.788  13.939  67.179  1.00  0.00    -0.236 C  
HETATM   10  C   UNL     1     -10.045  14.409  67.275  1.00  0.00    -0.251 C  
BRANCH  10  11
HETATM   11  C   UNL     1     -11.134  13.884  68.172  1.00  0.00    -0.278 C  
BRANCH  11  12
HETATM   12  C   UNL     1     -11.745  12.557  67.784  1.00  0.00    -0.419 C  
HETATM   13  C   UNL     1     -11.909  11.443  68.522  1.00  0.00    -0.364 C  
BRANCH  13  14
HETATM   14  C   UNL     1     -11.423  11.243  69.924  1.00  0.00    -0.373 C  
BRANCH  14  15
HETATM   15  C   UNL     1     -12.521  11.166  70.943  1.00  0.00    -0.509 C  
HETATM   16  C   UNL     1     -12.842  10.031  71.585  1.00  0.00    -0.543 C  
BRANCH  16  17
HETATM   17  C   UNL     1     -12.168   8.726  71.277  1.00  0.00    -0.332 C  
BRANCH  17  18
HETATM   18  C   UNL     1     -11.191   8.282  72.352  1.00  0.00    -0.451 C  
BRANCH  18  19
HETATM   19  C   UNL     1     -11.238   6.764  72.497  1.00  0.00    -0.305 C  
HETATM   20  C   UNL     1     -10.320   6.282  73.595  1.00  0.00    -0.273 C  
HETATM   21  O   UNL     1      -9.612   7.000  74.283  1.00  0.00    -0.253 OA 
HETATM   22  O   UNL     1     -10.365   4.941  73.743  1.00  0.00    -0.184 OA 
ENDBRANCH  18  19
ENDBRANCH  17  18
ENDBRANCH  16  17
ENDBRANCH  14  15
ENDBRANCH  13  14
ENDBRANCH  11  12
ENDBRANCH  10  11
ENDBRANCH   8   9
ENDBRANCH   7   8
ENDBRANCH   5   6
ENDBRANCH   4   5
ENDBRANCH   2   3
TORSDOF 12
ENDMDL
MODEL      195
REMARK 921   NORMALIZED FREE ENERGY PREDICTED BY IDOCK:   -3.95 KCAL/MOL
REMARK 922        TOTAL FREE ENERGY PREDICTED BY IDOCK:   -9.23 KCAL/MOL
REMARK 923 INTER-LIGAND FREE ENERGY PREDICTED BY IDOCK:   -6.92 KCAL/MOL
REMARK 924 INTRA-LIGAND FREE ENERGY PREDICTED BY IDOCK:   -2.31 KCAL/MOL
REMARK 927      BINDING AFFINITY PREDICTED BY RF-SCORE:    0.00 PKD
ROOT
HETATM    1  C   UNL     1     -10.830   5.989  69.442  1.00  0.00    -0.433 C  
HETATM    2  C   UNL     1     -10.387   6.939  68.340  1.00  0.00    -0.213 C  
ENDROOT
BRANCH   2   3
HETATM    3  C   UNL     1     -10.392   8.372  68.798  1.00  0.00    -0.225 C  
HETATM    4  C   UNL     1     -10.417   9.450  67.991  1.00  0.00    -0.278 C  
BRANCH   4   5
HETATM    5  C   UNL     1     -10.479   9.381  66.494  1.00  0.00    -0.199 C  
BRANCH   5   6
HETATM    6  C   UNL     1      -9.299  10.031  65.824  1.00  0.00    -0.241 C  
HETATM    7  C   UNL     1      -9.370  10.859  64.773  1.00  0.00    -0.259 C  
BRANCH   7   8
HETATM    8  C   UNL     1     -10.668  11.340  64.200  1.00  0.00    -0.436 C  
BRANCH   8   9
HETATM    9  C   UNL     1     -10.632  12.798  63.857  1.00  0.00    -0.427 C  
HETATM   10  C   UNL     1     -11.391  13.757  64.419  1.00  0.00    -0.375 C  
BRANCH  10  11
HETATM   11  C   UNL     1     -12.436  13.564  65.484  1.00  0.00    -0.538 C  
BRANCH  11  12
HETATM   12  C   UNL     1     -12.031  12.736  66.683  1.00  0.00    -0.411 C  
HETATM   13  C   UNL     1     -11.188  13.041  67.688  1.00  0.00    -0.315 C  
BRANCH  13  14
HETATM   14  C   UNL     1     -10.370  14.289  67.794  1.00  0.00    -0.238 C  
BRANCH  14  15
HETATM   15  C   UNL     1      -9.004  14.175  67.185  1.00  0.00    -0.236 C  
HETATM   16  C   UNL     1      -8.452  15.147  66.441  1.00  0.00    -0.034 C  
BRANCH  16  17
HETATM   17  C   UNL     1      -9.196  16.405  66.100  1.00  0.00    -0.365 C  
BRANCH  17  18
HETATM   18  C   UNL     1      -8.466  17.671  66.515  1.00  0.00    -0.294 C  
BRANCH  18  19
HETATM   19  C   UNL     1      -8.900  18.082  67.918  1.00  0.00    -0.269 C  
HETATM   20  C   UNL     1      -9.860  19.248  67.884  1.00  0.00    -0.350 C  
HETATM   21  O   UNL     1     -10.243  19.812  66.871  1.00  0.00    -0.393 OA 
HETATM   22  O   UNL     1     -10.262  19.610  69.120  1.00  0.00    -0.394 OA 
ENDBRANCH  18  19
ENDBRANCH  17  18
ENDBRANCH  16  17
ENDBRANCH  14  15
ENDBRANCH  13  14
ENDBRANCH  11  12
ENDBRANCH  10  11
ENDBRANCH   8   9
ENDBRANCH   7   8
ENDBRANCH   5   6
ENDBRANCH   4   5
ENDBRANCH   2   3
TORSDOF 12
ENDMDL
MODEL      196
REMARK 921   NORMALIZED FREE ENERGY PREDICTED BY IDOCK:   -3.95 KCAL/MOL
REMARK 922        TOTAL FREE ENERGY PREDICTED BY IDOCK:   -9.23 KCAL/MOL
REMARK 923 INTER-LIGAND FREE ENERGY PREDICTED BY IDOCK:   -7.68 KCAL/MOL
REMARK 924 INTRA-LIGAND FREE ENERGY PREDICTED BY IDOCK:   -1.56 KCAL/MOL
REMARK 927      BINDING AFFINITY PREDICTED BY RF-SCORE:    0.00 PKD
ROOT
HETATM    1  C   UNL     1      -7.226   8.184  73.115  1.00  0.00    -0.157 C  
HETATM    2  C   UNL     1      -8.552   7.990  72.397  1.00  0.00    -0.220 C  
ENDROOT
BRANCH   2   3
HETATM    3  C   UNL     1      -9.663   7.646  73.351  1.00  0.00    -0.363 C  
HETATM    4  C   UNL     1     -10.978   7.692  73.069  1.00  0.00    -0.457 C  
BRANCH   4   5
HETATM    5  C   UNL     1     -11.541   8.066  71.729  1.00  0.00    -0.331 C  
BRANCH   5   6
HETATM    6  C   UNL     1     -11.890   9.525  71.621  1.00  0.00    -0.468 C  
HETATM    7  C   UNL     1     -11.541  10.327  70.606  1.00  0.00    -0.435 C  
BRANCH   7   8
HETATM    8  C   UNL     1     -10.846   9.830  69.375  1.00  0.00    -0.256 C  
BRANCH   8   9
HETATM    9  C   UNL     1      -9.704  10.712  68.972  1.00  0.00    -0.214 C  
HETATM   10  C   UNL     1      -9.811  11.889  68.327  1.00  0.00    -0.199 C  
BRANCH  10  11
HETATM   11  C   UNL     1     -11.084  12.547  67.866  1.00  0.00    -0.286 C  
BRANCH  11  12
HETATM   12  C   UNL     1     -11.621  12.107  66.524  1.00  0.00    -0.425 C  
HETATM   13  C   UNL     1     -12.117  12.851  65.516  1.00  0.00    -0.507 C  
BRANCH  13  14
HETATM   14  C   UNL     1     -12.328  14.332  65.544  1.00  0.00    -0.417 C  
BRANCH  14  15
HETATM   15  C   UNL     1     -11.202  15.118  64.941  1.00  0.00    -0.424 C  
HETATM   16  C   UNL     1     -10.392  15.906  65.667  1.00  0.00    -0.413 C  
BRANCH  16  17
HETATM   17  C   UNL     1     -10.597  16.116  67.138  1.00  0.00    -0.294 C  
BRANCH  17  18
HETATM   18  C   UNL     1     -10.544  17.576  67.555  1.00  0.00    -0.333 C  
BRANCH  18  19
HETATM   19  C   UNL     1      -9.214  18.188  67.124  1.00  0.00    -0.256 C  
HETATM   20  C   UNL     1      -9.418  19.378  66.216  1.00  0.00    -0.368 C  
HETATM   21  O   UNL     1     -10.502  19.804  65.852  1.00  0.00    -0.504 OA 
HETATM   22  O   UNL     1      -8.248  19.937  65.842  1.00  0.00    -0.348 OA 
ENDBRANCH  18  19
ENDBRANCH  17  18
ENDBRANCH  16  17
ENDBRANCH  14  15
ENDBRANCH  13  14
ENDBRANCH  11  12
ENDBRANCH  10  11
ENDBRANCH   8   9
ENDBRANCH   7   8
ENDBRANCH   5   6
ENDBRANCH   4   5
ENDBRANCH   2   3
TORSDOF 12
ENDMDL
MODEL      197
REMARK 921   NORMALIZED FREE ENERGY PREDICTED BY IDOCK:   -3.95 KCAL/MOL
REMARK 922        TOTAL FREE ENERGY PREDICTED BY IDOCK:   -9.23 KCAL/MOL
REMARK 923 INTER-LIGAND FREE ENERGY PREDICTED BY IDOCK:   -7.83 KCAL/MOL
REMARK 924 INTRA-LIGAND FREE ENERGY PREDICTED BY IDOCK:   -1.40 KCAL/MOL
REMARK 927      BINDING AFFINITY PREDICTED BY RF-SCORE:    0.00 PKD
ROOT
HETATM    1  C   UNL     1     -12.494  10.848  69.808  1.00  0.00    -0.250 C  
HETATM    2  C   UNL     1     -12.410  10.829  71.326  1.00  0.00    -0.470 C  
ENDROOT
BRANCH   2   3
HETATM    3  C   UNL     1     -13.283  11.882  71.951  1.00  0.00    -0.467 C  
HETATM    4  C   UNL     1     -13.251  13.197  71.662  1.00  0.00    -0.435 C  
BRANCH   4   5
HETATM    5  C   UNL     1     -12.350  13.813  70.633  1.00  0.00    -0.445 C  
BRANCH   5   6
HETATM    6  C   UNL     1     -11.997  15.243  70.937  1.00  0.00    -0.391 C  
HETATM    7  C   UNL     1     -11.342  16.068  70.107  1.00  0.00    -0.369 C  
BRANCH   7   8
HETATM    8  C   UNL     1     -10.977  15.691  68.704  1.00  0.00    -0.294 C  
BRANCH   8   9
HETATM    9  C   UNL     1     -10.103  16.717  68.050  1.00  0.00    -0.284 C  
HETATM   10  C   UNL     1      -9.632  16.661  66.790  1.00  0.00    -0.270 C  
BRANCH  10  11
HETATM   11  C   UNL     1      -9.868  15.558  65.793  1.00  0.00    -0.392 C  
BRANCH  11  12
HETATM   12  C   UNL     1     -11.023  15.750  64.837  1.00  0.00    -0.443 C  
HETATM   13  C   UNL     1     -12.036  14.914  64.541  1.00  0.00    -0.420 C  
BRANCH  13  14
HETATM   14  C   UNL     1     -12.196  13.518  65.056  1.00  0.00    -0.453 C  
BRANCH  14  15
HETATM   15  C   UNL     1     -12.620  12.529  64.011  1.00  0.00    -0.481 C  
HETATM   16  C   UNL     1     -11.749  11.762  63.336  1.00  0.00    -0.423 C  
BRANCH  16  17
HETATM   17  C   UNL     1     -10.266  11.888  63.528  1.00  0.00    -0.485 C  
BRANCH  17  18
HETATM   18  C   UNL     1      -9.658  10.741  64.317  1.00  0.00    -0.333 C  
BRANCH  18  19
HETATM   19  C   UNL     1      -9.055  11.269  65.615  1.00  0.00    -0.203 C  
HETATM   20  C   UNL     1      -9.992  11.073  66.784  1.00  0.00    -0.203 C  
HETATM   21  O   UNL     1     -11.101  10.568  66.716  1.00  0.00    -0.151 OA 
HETATM   22  O   UNL     1      -9.461  11.523  67.940  1.00  0.00    -0.167 OA 
ENDBRANCH  18  19
ENDBRANCH  17  18
ENDBRANCH  16  17
ENDBRANCH  14  15
ENDBRANCH  13  14
ENDBRANCH  11  12
ENDBRANCH  10  11
ENDBRANCH   8   9
ENDBRANCH   7   8
ENDBRANCH   5   6
ENDBRANCH   4   5
ENDBRANCH   2   3
TORSDOF 12
ENDMDL
MODEL      198
REMARK 921   NORMALIZED FREE ENERGY PREDICTED BY IDOCK:   -3.95 KCAL/MOL
REMARK 922        TOTAL FREE ENERGY PREDICTED BY IDOCK:   -9.23 KCAL/MOL
REMARK 923 INTER-LIGAND FREE ENERGY PREDICTED BY IDOCK:   -7.53 KCAL/MOL
REMARK 924 INTRA-LIGAND FREE ENERGY PREDICTED BY IDOCK:   -1.69 KCAL/MOL
REMARK 927      BINDING AFFINITY PREDICTED BY RF-SCORE:    0.00 PKD
ROOT
HETATM    1  C   UNL     1     -10.126   5.864  69.208  1.00  0.00    -0.251 C  
HETATM    2  C   UNL     1     -10.938   7.035  69.738  1.00  0.00    -0.283 C  
ENDROOT
BRANCH   2   3
HETATM    3  C   UNL     1     -11.932   6.603  70.781  1.00  0.00    -0.412 C  
HETATM    4  C   UNL     1     -12.297   7.324  71.858  1.00  0.00    -0.346 C  
BRANCH   4   5
HETATM    5  C   UNL     1     -11.785   8.700  72.165  1.00  0.00    -0.442 C  
BRANCH   5   6
HETATM    6  C   UNL     1     -12.793   9.781  71.889  1.00  0.00    -0.520 C  
HETATM    7  C   UNL     1     -12.632  10.778  71.008  1.00  0.00    -0.520 C  
BRANCH   7   8
HETATM    8  C   UNL     1     -11.452  10.871  70.089  1.00  0.00    -0.405 C  
BRANCH   8   9
HETATM    9  C   UNL     1     -11.847  11.239  68.692  1.00  0.00    -0.369 C  
HETATM   10  C   UNL     1     -11.362  12.276  67.985  1.00  0.00    -0.348 C  
BRANCH  10  11
HETATM   11  C   UNL     1     -10.344  13.282  68.452  1.00  0.00    -0.254 C  
BRANCH  11  12
HETATM   12  C   UNL     1      -8.930  13.090  67.955  1.00  0.00    -0.200 C  
HETATM   13  C   UNL     1      -8.108  13.971  67.353  1.00  0.00    -0.199 C  
BRANCH  13  14
HETATM   14  C   UNL     1      -8.465  15.369  66.955  1.00  0.00    -0.262 C  
BRANCH  14  15
HETATM   15  C   UNL     1      -9.463  15.446  65.838  1.00  0.00    -0.369 C  
HETATM   16  C   UNL     1     -10.470  16.335  65.819  1.00  0.00    -0.379 C  
BRANCH  16  17
HETATM   17  C   UNL     1     -10.716  17.281  66.958  1.00  0.00    -0.152 C  
BRANCH  17  18
HETATM   18  C   UNL     1     -10.454  18.735  66.606  1.00  0.00    -0.483 C  
BRANCH  18  19
HETATM   19  C   UNL     1      -9.344  19.290  67.494  1.00  0.00    -0.369 C  
HETATM   20  C   UNL     1      -7.999  19.223  66.811  1.00  0.00    -0.271 C  
HETATM   21  O   UNL     1      -7.802  18.774  65.694  1.00  0.00    -0.465 OA 
HETATM   22  O   UNL     1      -7.013  19.726  67.582  1.00  0.00    -0.233 OA 
ENDBRANCH  18  19
ENDBRANCH  17  18
ENDBRANCH  16  17
ENDBRANCH  14  15
ENDBRANCH  13  14
ENDBRANCH  11  12
ENDBRANCH  10  11
ENDBRANCH   8   9
ENDBRANCH   7   8
ENDBRANCH   5   6
ENDBRANCH   4   5
ENDBRANCH   2   3
TORSDOF 12
ENDMDL
MODEL      199
REMARK 921   NORMALIZED FREE ENERGY PREDICTED BY IDOCK:   -3.95 KCAL/MOL
REMARK 922        TOTAL FREE ENERGY PREDICTED BY IDOCK:   -9.22 KCAL/MOL
REMARK 923 INTER-LIGAND FREE ENERGY PREDICTED BY IDOCK:   -7.04 KCAL/MOL
REMARK 924 INTRA-LIGAND FREE ENERGY PREDICTED BY IDOCK:   -2.18 KCAL/MOL
REMARK 927      BINDING AFFINITY PREDICTED BY RF-SCORE:    0.00 PKD
ROOT
HETATM    1  C   UNL     1      -9.583   9.898  64.681  1.00  0.00    -0.320 C  
HETATM    2  C   UNL     1      -9.796  11.383  64.926  1.00  0.00    -0.301 C  
ENDROOT
BRANCH   2   3
HETATM    3  C   UNL     1     -11.082  11.874  64.321  1.00  0.00    -0.418 C  
HETATM    4  C   UNL     1     -12.073  12.495  64.988  1.00  0.00    -0.504 C  
BRANCH   4   5
HETATM    5  C   UNL     1     -12.028  12.824  66.451  1.00  0.00    -0.443 C  
BRANCH   5   6
HETATM    6  C   UNL     1     -12.070  14.302  66.725  1.00  0.00    -0.446 C  
HETATM    7  C   UNL     1     -10.999  15.071  66.970  1.00  0.00    -0.318 C  
BRANCH   7   8
HETATM    8  C   UNL     1      -9.593  14.561  66.884  1.00  0.00    -0.258 C  
BRANCH   8   9
HETATM    9  C   UNL     1      -8.671  15.546  66.232  1.00  0.00    -0.283 C  
HETATM   10  C   UNL     1      -7.744  16.291  66.862  1.00  0.00    -0.278 C  
BRANCH  10  11
HETATM   11  C   UNL     1      -7.455  16.302  68.339  1.00  0.00    -0.163 C  
BRANCH  11  12
HETATM   12  C   UNL     1      -6.056  16.702  68.749  1.00  0.00    -0.144 C  
HETATM   13  C   UNL     1      -5.608  17.879  69.226  1.00  0.00    -0.202 C  
BRANCH  13  14
HETATM   14  C   UNL     1      -6.421  19.126  69.381  1.00  0.00    -0.337 C  
BRANCH  14  15
HETATM   15  C   UNL     1      -5.777  20.348  68.797  1.00  0.00    -0.332 C  
HETATM   16  C   UNL     1      -5.951  20.726  67.520  1.00  0.00    -0.305 C  
BRANCH  16  17
HETATM   17  C   UNL     1      -6.756  19.908  66.553  1.00  0.00    -0.225 C  
BRANCH  17  18
HETATM   18  C   UNL     1      -8.148  20.461  66.303  1.00  0.00    -0.112 C  
BRANCH  18  19
HETATM   19  C   UNL     1      -9.111  19.936  67.364  1.00  0.00    -0.436 C  
HETATM   20  C   UNL     1     -10.172  19.046  66.760  1.00  0.00    -0.396 C  
HETATM   21  O   UNL     1     -10.270  18.778  65.573  1.00  0.00    -0.459 OA 
HETATM   22  O   UNL     1     -11.020  18.564  67.692  1.00  0.00    -0.355 OA 
ENDBRANCH  18  19
ENDBRANCH  17  18
ENDBRANCH  16  17
ENDBRANCH  14  15
ENDBRANCH  13  14
ENDBRANCH  11  12
ENDBRANCH  10  11
ENDBRANCH   8   9
ENDBRANCH   7   8
ENDBRANCH   5   6
ENDBRANCH   4   5
ENDBRANCH   2   3
TORSDOF 12
ENDMDL
MODEL      200
REMARK 921   NORMALIZED FREE ENERGY PREDICTED BY IDOCK:   -3.94 KCAL/MOL
REMARK 922        TOTAL FREE ENERGY PREDICTED BY IDOCK:   -9.22 KCAL/MOL
REMARK 923 INTER-LIGAND FREE ENERGY PREDICTED BY IDOCK:   -6.37 KCAL/MOL
REMARK 924 INTRA-LIGAND FREE ENERGY PREDICTED BY IDOCK:   -2.85 KCAL/MOL
REMARK 927      BINDING AFFINITY PREDICTED BY RF-SCORE:    0.00 PKD
ROOT
HETATM    1  C   UNL     1      -7.896   8.889  64.791  1.00  0.00    -0.121 C  
HETATM    2  C   UNL     1      -8.486   7.722  65.568  1.00  0.00    -0.146 C  
ENDROOT
BRANCH   2   3
HETATM    3  C   UNL     1      -7.652   7.368  66.769  1.00  0.00    -0.101 C  
HETATM    4  C   UNL     1      -7.923   7.720  68.040  1.00  0.00    -0.122 C  
BRANCH   4   5
HETATM    5  C   UNL     1      -9.133   8.501  68.459  1.00  0.00    -0.135 C  
BRANCH   5   6
HETATM    6  C   UNL     1      -8.893   9.985  68.500  1.00  0.00    -0.120 C  
HETATM    7  C   UNL     1      -9.512  10.887  67.725  1.00  0.00    -0.165 C  
BRANCH   7   8
HETATM    8  C   UNL     1     -10.625  10.529  66.787  1.00  0.00    -0.284 C  
BRANCH   8   9
HETATM    9  C   UNL     1     -10.564  11.310  65.510  1.00  0.00    -0.306 C  
HETATM   10  C   UNL     1     -11.274  12.419  65.232  1.00  0.00    -0.359 C  
BRANCH  10  11
HETATM   11  C   UNL     1     -12.281  13.088  66.129  1.00  0.00    -0.428 C  
BRANCH  11  12
HETATM   12  C   UNL     1     -11.873  14.414  66.728  1.00  0.00    -0.431 C  
HETATM   13  C   UNL     1     -11.335  14.679  67.934  1.00  0.00    -0.332 C  
BRANCH  13  14
HETATM   14  C   UNL     1     -11.093  13.679  69.022  1.00  0.00    -0.295 C  
BRANCH  14  15
HETATM   15  C   UNL     1     -12.146  13.676  70.090  1.00  0.00    -0.431 C  
HETATM   16  C   UNL     1     -12.532  12.561  70.732  1.00  0.00    -0.357 C  
BRANCH  16  17
HETATM   17  C   UNL     1     -11.983  11.211  70.377  1.00  0.00    -0.469 C  
BRANCH  17  18
HETATM   18  C   UNL     1     -12.288  10.142  71.412  1.00  0.00    -0.515 C  
BRANCH  18  19
HETATM   19  C   UNL     1     -11.099   9.195  71.543  1.00  0.00    -0.436 C  
HETATM   20  C   UNL     1     -11.525   7.749  71.436  1.00  0.00    -0.260 C  
HETATM   21  O   UNL     1     -12.673   7.367  71.277  1.00  0.00    -0.349 OA 
HETATM   22  O   UNL     1     -10.479   6.904  71.536  1.00  0.00    -0.211 OA 
ENDBRANCH  18  19
ENDBRANCH  17  18
ENDBRANCH  16  17
ENDBRANCH  14  15
ENDBRANCH  13  14
ENDBRANCH  11  12
ENDBRANCH  10  11
ENDBRANCH   8   9
ENDBRANCH   7   8
ENDBRANCH   5   6
ENDBRANCH   4   5
ENDBRANCH   2   3
TORSDOF 12
ENDMDL
MODEL      201
REMARK 921   NORMALIZED FREE ENERGY PREDICTED BY IDOCK:   -3.93 KCAL/MOL
REMARK 922        TOTAL FREE ENERGY PREDICTED BY IDOCK:   -9.20 KCAL/MOL
REMARK 923 INTER-LIGAND FREE ENERGY PREDICTED BY IDOCK:   -6.53 KCAL/MOL
REMARK 924 INTRA-LIGAND FREE ENERGY PREDICTED BY IDOCK:   -2.67 KCAL/MOL
REMARK 927      BINDING AFFINITY PREDICTED BY RF-SCORE:    0.00 PKD
ROOT
HETATM    1  C   UNL     1      -9.462   7.263  73.424  1.00  0.00    -0.252 C  
HETATM    2  C   UNL     1      -9.714   8.472  72.538  1.00  0.00    -0.326 C  
ENDROOT
BRANCH   2   3
HETATM    3  C   UNL     1     -11.088   8.445  71.927  1.00  0.00    -0.378 C  
HETATM    4  C   UNL     1     -11.407   7.887  70.744  1.00  0.00    -0.283 C  
BRANCH   4   5
HETATM    5  C   UNL     1     -10.431   7.166  69.861  1.00  0.00    -0.237 C  
BRANCH   5   6
HETATM    6  C   UNL     1     -11.095   6.394  68.754  1.00  0.00    -0.404 C  
HETATM    7  C   UNL     1     -11.007   6.688  67.450  1.00  0.00    -0.434 C  
BRANCH   7   8
HETATM    8  C   UNL     1     -10.123   7.775  66.917  1.00  0.00    -0.356 C  
BRANCH   8   9
HETATM    9  C   UNL     1      -8.768   7.266  66.529  1.00  0.00    -0.141 C  
HETATM   10  C   UNL     1      -7.609   7.937  66.661  1.00  0.00    -0.093 C  
BRANCH  10  11
HETATM   11  C   UNL     1      -7.437   9.331  67.202  1.00  0.00    -0.091 C  
BRANCH  11  12
HETATM   12  C   UNL     1      -7.673   9.512  68.684  1.00  0.00    -0.081 C  
HETATM   13  C   UNL     1      -8.545  10.320  69.318  1.00  0.00    -0.175 C  
BRANCH  13  14
HETATM   14  C   UNL     1      -9.448  11.317  68.664  1.00  0.00    -0.179 C  
BRANCH  14  15
HETATM   15  C   UNL     1     -10.782  10.760  68.265  1.00  0.00    -0.253 C  
HETATM   16  C   UNL     1     -11.904  10.977  68.970  1.00  0.00    -0.399 C  
BRANCH  16  17
HETATM   17  C   UNL     1     -11.895  11.743  70.261  1.00  0.00    -0.382 C  
BRANCH  17  18
HETATM   18  C   UNL     1     -12.178  13.225  70.087  1.00  0.00    -0.376 C  
BRANCH  18  19
HETATM   19  C   UNL     1     -12.946  13.750  71.297  1.00  0.00    -0.409 C  
HETATM   20  C   UNL     1     -12.807  15.248  71.436  1.00  0.00    -0.415 C  
HETATM   21  O   UNL     1     -12.157  15.964  70.692  1.00  0.00    -0.382 OA 
HETATM   22  O   UNL     1     -13.495  15.724  72.494  1.00  0.00    -0.482 OA 
ENDBRANCH  18  19
ENDBRANCH  17  18
ENDBRANCH  16  17
ENDBRANCH  14  15
ENDBRANCH  13  14
ENDBRANCH  11  12
ENDBRANCH  10  11
ENDBRANCH   8   9
ENDBRANCH   7   8
ENDBRANCH   5   6
ENDBRANCH   4   5
ENDBRANCH   2   3
TORSDOF 12
ENDMDL
MODEL      202
REMARK 921   NORMALIZED FREE ENERGY PREDICTED BY IDOCK:   -3.93 KCAL/MOL
REMARK 922        TOTAL FREE ENERGY PREDICTED BY IDOCK:   -9.20 KCAL/MOL
REMARK 923 INTER-LIGAND FREE ENERGY PREDICTED BY IDOCK:   -7.35 KCAL/MOL
REMARK 924 INTRA-LIGAND FREE ENERGY PREDICTED BY IDOCK:   -1.85 KCAL/MOL
REMARK 927      BINDING AFFINITY PREDICTED BY RF-SCORE:    0.00 PKD
ROOT
HETATM    1  C   UNL     1      -6.826   5.627  71.016  1.00  0.00    -0.057 C  
HETATM    2  C   UNL     1      -7.882   5.110  70.052  1.00  0.00    -0.078 C  
ENDROOT
BRANCH   2   3
HETATM    3  C   UNL     1      -9.193   4.847  70.742  1.00  0.00    -0.196 C  
HETATM    4  C   UNL     1     -10.333   5.535  70.541  1.00  0.00    -0.342 C  
BRANCH   4   5
HETATM    5  C   UNL     1     -10.478   6.660  69.560  1.00  0.00    -0.253 C  
BRANCH   5   6
HETATM    6  C   UNL     1     -11.065   6.225  68.245  1.00  0.00    -0.364 C  
HETATM    7  C   UNL     1     -10.932   6.885  67.086  1.00  0.00    -0.427 C  
BRANCH   7   8
HETATM    8  C   UNL     1     -10.067   8.099  66.934  1.00  0.00    -0.367 C  
BRANCH   8   9
HETATM    9  C   UNL     1     -10.766   9.351  67.370  1.00  0.00    -0.280 C  
HETATM   10  C   UNL     1     -10.556  10.583  66.869  1.00  0.00    -0.303 C  
BRANCH  10  11
HETATM   11  C   UNL     1      -9.573  10.958  65.793  1.00  0.00    -0.259 C  
BRANCH  11  12
HETATM   12  C   UNL     1      -9.964  10.613  64.374  1.00  0.00    -0.415 C  
HETATM   13  C   UNL     1     -10.622  11.355  63.463  1.00  0.00    -0.468 C  
BRANCH  13  14
HETATM   14  C   UNL     1     -11.209  12.711  63.700  1.00  0.00    -0.525 C  
BRANCH  14  15
HETATM   15  C   UNL     1     -12.441  12.699  64.556  1.00  0.00    -0.525 C  
HETATM   16  C   UNL     1     -12.662  13.597  65.530  1.00  0.00    -0.514 C  
BRANCH  16  17
HETATM   17  C   UNL     1     -11.651  14.647  65.886  1.00  0.00    -0.327 C  
BRANCH  17  18
HETATM   18  C   UNL     1     -10.916  14.364  67.185  1.00  0.00    -0.305 C  
BRANCH  18  19
HETATM   19  C   UNL     1     -11.901  13.863  68.237  1.00  0.00    -0.412 C  
HETATM   20  C   UNL     1     -11.970  14.796  69.423  1.00  0.00    -0.303 C  
HETATM   21  O   UNL     1     -11.319  15.821  69.548  1.00  0.00    -0.280 OA 
HETATM   22  O   UNL     1     -12.850  14.370  70.353  1.00  0.00    -0.350 OA 
ENDBRANCH  18  19
ENDBRANCH  17  18
ENDBRANCH  16  17
ENDBRANCH  14  15
ENDBRANCH  13  14
ENDBRANCH  11  12
ENDBRANCH  10  11
ENDBRANCH   8   9
ENDBRANCH   7   8
ENDBRANCH   5   6
ENDBRANCH   4   5
ENDBRANCH   2   3
TORSDOF 12
ENDMDL
MODEL      203
REMARK 921   NORMALIZED FREE ENERGY PREDICTED BY IDOCK:   -3.92 KCAL/MOL
REMARK 922        TOTAL FREE ENERGY PREDICTED BY IDOCK:   -9.18 KCAL/MOL
REMARK 923 INTER-LIGAND FREE ENERGY PREDICTED BY IDOCK:   -7.34 KCAL/MOL
REMARK 924 INTRA-LIGAND FREE ENERGY PREDICTED BY IDOCK:   -1.84 KCAL/MOL
REMARK 927      BINDING AFFINITY PREDICTED BY RF-SCORE:    0.00 PKD
ROOT
HETATM    1  C   UNL     1     -11.459  10.984  67.692  1.00  0.00    -0.303 C  
HETATM    2  C   UNL     1     -10.115  11.076  66.988  1.00  0.00    -0.232 C  
ENDROOT
BRANCH   2   3
HETATM    3  C   UNL     1     -10.049  10.180  65.782  1.00  0.00    -0.324 C  
HETATM    4  C   UNL     1     -10.161  10.582  64.502  1.00  0.00    -0.402 C  
BRANCH   4   5
HETATM    5  C   UNL     1     -10.335  12.011  64.079  1.00  0.00    -0.406 C  
BRANCH   5   6
HETATM    6  C   UNL     1     -11.740  12.333  63.650  1.00  0.00    -0.591 C  
HETATM    7  C   UNL     1     -12.378  13.484  63.904  1.00  0.00    -0.397 C  
BRANCH   7   8
HETATM    8  C   UNL     1     -11.714  14.657  64.557  1.00  0.00    -0.410 C  
BRANCH   8   9
HETATM    9  C   UNL     1     -11.481  14.436  66.021  1.00  0.00    -0.349 C  
HETATM   10  C   UNL     1     -10.354  14.735  66.692  1.00  0.00    -0.273 C  
BRANCH  10  11
HETATM   11  C   UNL     1      -9.099  15.333  66.115  1.00  0.00    -0.314 C  
BRANCH  11  12
HETATM   12  C   UNL     1      -7.808  15.013  66.835  1.00  0.00    -0.056 C  
HETATM   13  C   UNL     1      -6.953  15.841  67.466  1.00  0.00    -0.216 C  
BRANCH  13  14
HETATM   14  C   UNL     1      -7.060  17.333  67.519  1.00  0.00    -0.181 C  
BRANCH  14  15
HETATM   15  C   UNL     1      -6.882  18.003  66.189  1.00  0.00    -0.312 C  
HETATM   16  C   UNL     1      -7.320  19.248  65.935  1.00  0.00    -0.295 C  
BRANCH  16  17
HETATM   17  C   UNL     1      -8.089  20.042  66.949  1.00  0.00    -0.361 C  
BRANCH  17  18
HETATM   18  C   UNL     1      -9.571  20.150  66.635  1.00  0.00    -0.547 C  
BRANCH  18  19
HETATM   19  C   UNL     1     -10.237  18.788  66.806  1.00  0.00    -0.439 C  
HETATM   20  C   UNL     1     -10.451  18.454  68.264  1.00  0.00    -0.299 C  
HETATM   21  O   UNL     1     -10.128  19.165  69.201  1.00  0.00    -0.383 OA 
HETATM   22  O   UNL     1     -11.054  17.257  68.426  1.00  0.00    -0.254 OA 
ENDBRANCH  18  19
ENDBRANCH  17  18
ENDBRANCH  16  17
ENDBRANCH  14  15
ENDBRANCH  13  14
ENDBRANCH  11  12
ENDBRANCH  10  11
ENDBRANCH   8   9
ENDBRANCH   7   8
ENDBRANCH   5   6
ENDBRANCH   4   5
ENDBRANCH   2   3
TORSDOF 12
ENDMDL
MODEL      204
REMARK 921   NORMALIZED FREE ENERGY PREDICTED BY IDOCK:   -3.92 KCAL/MOL
REMARK 922        TOTAL FREE ENERGY PREDICTED BY IDOCK:   -9.17 KCAL/MOL
REMARK 923 INTER-LIGAND FREE ENERGY PREDICTED BY IDOCK:   -7.53 KCAL/MOL
REMARK 924 INTRA-LIGAND FREE ENERGY PREDICTED BY IDOCK:   -1.64 KCAL/MOL
REMARK 927      BINDING AFFINITY PREDICTED BY RF-SCORE:    0.00 PKD
ROOT
HETATM    1  C   UNL     1     -10.628  10.121  67.431  1.00  0.00    -0.329 C  
HETATM    2  C   UNL     1      -9.513  10.330  66.419  1.00  0.00    -0.218 C  
ENDROOT
BRANCH   2   3
HETATM    3  C   UNL     1     -10.029  10.326  65.006  1.00  0.00    -0.393 C  
HETATM    4  C   UNL     1     -10.527  11.392  64.352  1.00  0.00    -0.388 C  
BRANCH   4   5
HETATM    5  C   UNL     1     -10.613  12.773  64.933  1.00  0.00    -0.336 C  
BRANCH   5   6
HETATM    6  C   UNL     1     -11.914  13.038  65.639  1.00  0.00    -0.479 C  
HETATM    7  C   UNL     1     -12.038  13.657  66.821  1.00  0.00    -0.445 C  
BRANCH   7   8
HETATM    8  C   UNL     1     -10.879  14.277  67.541  1.00  0.00    -0.284 C  
BRANCH   8   9
HETATM    9  C   UNL     1     -11.263  15.536  68.257  1.00  0.00    -0.343 C  
HETATM   10  C   UNL     1     -11.669  15.620  69.537  1.00  0.00    -0.382 C  
BRANCH  10  11
HETATM   11  C   UNL     1     -11.837  14.476  70.501  1.00  0.00    -0.372 C  
BRANCH  11  12
HETATM   12  C   UNL     1     -13.069  14.508  71.376  1.00  0.00    -0.423 C  
HETATM   13  C   UNL     1     -13.659  13.508  72.059  1.00  0.00    -0.589 C  
BRANCH  13  14
HETATM   14  C   UNL     1     -13.249  12.069  72.030  1.00  0.00    -0.481 C  
BRANCH  14  15
HETATM   15  C   UNL     1     -13.015  11.532  70.650  1.00  0.00    -0.025 C  
HETATM   16  C   UNL     1     -12.509  10.309  70.418  1.00  0.00    -0.296 C  
BRANCH  16  17
HETATM   17  C   UNL     1     -12.069   9.408  71.535  1.00  0.00    -0.456 C  
BRANCH  17  18
HETATM   18  C   UNL     1     -10.963   8.446  71.136  1.00  0.00    -0.292 C  
BRANCH  18  19
HETATM   19  C   UNL     1      -9.694   8.764  71.920  1.00  0.00    -0.386 C  
HETATM   20  C   UNL     1      -8.482   8.816  71.019  1.00  0.00    -0.179 C  
HETATM   21  O   UNL     1      -8.496   8.619  69.814  1.00  0.00    -0.123 OA 
HETATM   22  O   UNL     1      -7.356   9.112  71.700  1.00  0.00    -0.315 OA 
ENDBRANCH  18  19
ENDBRANCH  17  18
ENDBRANCH  16  17
ENDBRANCH  14  15
ENDBRANCH  13  14
ENDBRANCH  11  12
ENDBRANCH  10  11
ENDBRANCH   8   9
ENDBRANCH   7   8
ENDBRANCH   5   6
ENDBRANCH   4   5
ENDBRANCH   2   3
TORSDOF 12
ENDMDL
MODEL      205
REMARK 921   NORMALIZED FREE ENERGY PREDICTED BY IDOCK:   -3.91 KCAL/MOL
REMARK 922        TOTAL FREE ENERGY PREDICTED BY IDOCK:   -9.17 KCAL/MOL
REMARK 923 INTER-LIGAND FREE ENERGY PREDICTED BY IDOCK:   -6.96 KCAL/MOL
REMARK 924 INTRA-LIGAND FREE ENERGY PREDICTED BY IDOCK:   -2.21 KCAL/MOL
REMARK 927      BINDING AFFINITY PREDICTED BY RF-SCORE:    0.00 PKD
ROOT
HETATM    1  C   UNL     1      -6.222  10.374  69.835  1.00  0.00    -0.081 C  
HETATM    2  C   UNL     1      -7.560  10.575  69.142  1.00  0.00    -0.123 C  
ENDROOT
BRANCH   2   3
HETATM    3  C   UNL     1      -7.726  11.983  68.638  1.00  0.00    -0.099 C  
HETATM    4  C   UNL     1      -8.616  12.380  67.709  1.00  0.00    -0.172 C  
BRANCH   4   5
HETATM    5  C   UNL     1      -9.614  11.472  67.053  1.00  0.00    -0.199 C  
BRANCH   5   6
HETATM    6  C   UNL     1     -10.803  11.173  67.925  1.00  0.00    -0.285 C  
HETATM    7  C   UNL     1     -11.906  11.930  68.009  1.00  0.00    -0.323 C  
BRANCH   7   8
HETATM    8  C   UNL     1     -12.140  13.128  67.140  1.00  0.00    -0.343 C  
BRANCH   8   9
HETATM    9  C   UNL     1     -12.342  12.755  65.703  1.00  0.00    -0.444 C  
HETATM   10  C   UNL     1     -11.610  13.200  64.665  1.00  0.00    -0.384 C  
BRANCH  10  11
HETATM   11  C   UNL     1     -10.460  14.169  64.729  1.00  0.00    -0.432 C  
BRANCH  11  12
HETATM   12  C   UNL     1     -10.814  15.618  64.980  1.00  0.00    -0.468 C  
HETATM   13  C   UNL     1     -10.576  16.381  66.064  1.00  0.00    -0.275 C  
BRANCH  13  14
HETATM   14  C   UNL     1      -9.957  15.913  67.344  1.00  0.00    -0.239 C  
BRANCH  14  15
HETATM   15  C   UNL     1     -10.154  16.854  68.494  1.00  0.00    -0.297 C  
HETATM   16  C   UNL     1     -10.631  16.461  69.686  1.00  0.00    -0.307 C  
BRANCH  16  17
HETATM   17  C   UNL     1     -11.074  15.049  69.937  1.00  0.00    -0.298 C  
BRANCH  17  18
HETATM   18  C   UNL     1     -12.483  14.947  70.495  1.00  0.00    -0.419 C  
BRANCH  18  19
HETATM   19  C   UNL     1     -12.454  14.241  71.847  1.00  0.00    -0.364 C  
HETATM   20  C   UNL     1     -12.328  15.225  72.986  1.00  0.00    -0.417 C  
HETATM   21  O   UNL     1     -12.246  16.436  72.860  1.00  0.00    -0.505 OA 
HETATM   22  O   UNL     1     -12.317  14.611  74.188  1.00  0.00    -0.482 OA 
ENDBRANCH  18  19
ENDBRANCH  17  18
ENDBRANCH  16  17
ENDBRANCH  14  15
ENDBRANCH  13  14
ENDBRANCH  11  12
ENDBRANCH  10  11
ENDBRANCH   8   9
ENDBRANCH   7   8
ENDBRANCH   5   6
ENDBRANCH   4   5
ENDBRANCH   2   3
TORSDOF 12
ENDMDL
MODEL      206
REMARK 921   NORMALIZED FREE ENERGY PREDICTED BY IDOCK:   -3.91 KCAL/MOL
REMARK 922        TOTAL FREE ENERGY PREDICTED BY IDOCK:   -9.16 KCAL/MOL
REMARK 923 INTER-LIGAND FREE ENERGY PREDICTED BY IDOCK:   -6.86 KCAL/MOL
REMARK 924 INTRA-LIGAND FREE ENERGY PREDICTED BY IDOCK:   -2.31 KCAL/MOL
REMARK 927      BINDING AFFINITY PREDICTED BY RF-SCORE:    0.00 PKD
ROOT
HETATM    1  C   UNL     1     -10.111  11.234  63.216  1.00  0.00    -0.428 C  
HETATM    2  C   UNL     1     -11.299  12.182  63.234  1.00  0.00    -0.410 C  
ENDROOT
BRANCH   2   3
HETATM    3  C   UNL     1     -12.036  12.135  64.544  1.00  0.00    -0.415 C  
HETATM    4  C   UNL     1     -12.457  13.206  65.244  1.00  0.00    -0.550 C  
BRANCH   4   5
HETATM    5  C   UNL     1     -12.282  14.627  64.797  1.00  0.00    -0.403 C  
BRANCH   5   6
HETATM    6  C   UNL     1     -10.840  15.047  64.715  1.00  0.00    -0.375 C  
HETATM    7  C   UNL     1     -10.177  15.715  65.669  1.00  0.00    -0.402 C  
BRANCH   7   8
HETATM    8  C   UNL     1     -10.772  16.028  67.008  1.00  0.00    -0.277 C  
BRANCH   8   9
HETATM    9  C   UNL     1      -9.829  15.724  68.133  1.00  0.00    -0.209 C  
HETATM   10  C   UNL     1      -9.559  14.499  68.622  1.00  0.00    -0.219 C  
BRANCH  10  11
HETATM   11  C   UNL     1     -10.154  13.197  68.159  1.00  0.00    -0.237 C  
BRANCH  11  12
HETATM   12  C   UNL     1      -9.267  12.315  67.310  1.00  0.00    -0.185 C  
HETATM   13  C   UNL     1      -9.481  11.061  66.867  1.00  0.00    -0.197 C  
BRANCH  13  14
HETATM   14  C   UNL     1     -10.659  10.203  67.206  1.00  0.00    -0.321 C  
BRANCH  14  15
HETATM   15  C   UNL     1     -10.296   8.905  67.863  1.00  0.00    -0.286 C  
HETATM   16  C   UNL     1     -10.457   8.682  69.178  1.00  0.00    -0.223 C  
BRANCH  16  17
HETATM   17  C   UNL     1     -10.950   9.750  70.109  1.00  0.00    -0.339 C  
BRANCH  17  18
HETATM   18  C   UNL     1     -10.952   9.327  71.568  1.00  0.00    -0.446 C  
BRANCH  18  19
HETATM   19  C   UNL     1     -10.477   7.882  71.688  1.00  0.00    -0.255 C  
HETATM   20  C   UNL     1      -9.196   7.782  72.483  1.00  0.00    -0.171 C  
HETATM   21  O   UNL     1      -8.595   8.728  72.965  1.00  0.00    -0.382 OA 
HETATM   22  O   UNL     1      -8.776   6.506  72.608  1.00  0.00    -0.125 OA 
ENDBRANCH  18  19
ENDBRANCH  17  18
ENDBRANCH  16  17
ENDBRANCH  14  15
ENDBRANCH  13  14
ENDBRANCH  11  12
ENDBRANCH  10  11
ENDBRANCH   8   9
ENDBRANCH   7   8
ENDBRANCH   5   6
ENDBRANCH   4   5
ENDBRANCH   2   3
TORSDOF 12
ENDMDL
MODEL      207
REMARK 921   NORMALIZED FREE ENERGY PREDICTED BY IDOCK:   -3.90 KCAL/MOL
REMARK 922        TOTAL FREE ENERGY PREDICTED BY IDOCK:   -9.15 KCAL/MOL
REMARK 923 INTER-LIGAND FREE ENERGY PREDICTED BY IDOCK:   -6.44 KCAL/MOL
REMARK 924 INTRA-LIGAND FREE ENERGY PREDICTED BY IDOCK:   -2.71 KCAL/MOL
REMARK 927      BINDING AFFINITY PREDICTED BY RF-SCORE:    0.00 PKD
ROOT
HETATM    1  C   UNL     1     -11.030   6.146  68.529  1.00  0.00    -0.404 C  
HETATM    2  C   UNL     1     -10.999   6.672  67.103  1.00  0.00    -0.478 C  
ENDROOT
BRANCH   2   3
HETATM    3  C   UNL     1      -9.605   7.031  66.667  1.00  0.00    -0.220 C  
HETATM    4  C   UNL     1      -9.210   8.242  66.230  1.00  0.00    -0.258 C  
BRANCH   4   5
HETATM    5  C   UNL     1     -10.108   9.442  66.145  1.00  0.00    -0.324 C  
BRANCH   5   6
HETATM    6  C   UNL     1      -9.377  10.700  65.762  1.00  0.00    -0.223 C  
HETATM    7  C   UNL     1      -9.058  11.692  66.605  1.00  0.00    -0.196 C  
BRANCH   7   8
HETATM    8  C   UNL     1      -9.292  11.613  68.083  1.00  0.00    -0.188 C  
BRANCH   8   9
HETATM    9  C   UNL     1      -8.071  11.164  68.828  1.00  0.00    -0.140 C  
HETATM   10  C   UNL     1      -7.986  10.074  69.613  1.00  0.00    -0.176 C  
BRANCH  10  11
HETATM   11  C   UNL     1      -9.092   9.101  69.919  1.00  0.00    -0.188 C  
BRANCH  11  12
HETATM   12  C   UNL     1      -8.688   7.817  70.607  1.00  0.00    -0.139 C  
HETATM   13  C   UNL     1      -9.250   7.199  71.663  1.00  0.00    -0.149 C  
BRANCH  13  14
HETATM   14  C   UNL     1     -10.397   7.719  72.471  1.00  0.00    -0.328 C  
BRANCH  14  15
HETATM   15  C   UNL     1     -11.736   7.514  71.828  1.00  0.00    -0.317 C  
HETATM   16  C   UNL     1     -12.520   8.531  71.433  1.00  0.00    -0.327 C  
BRANCH  16  17
HETATM   17  C   UNL     1     -12.142   9.963  71.671  1.00  0.00    -0.457 C  
BRANCH  17  18
HETATM   18  C   UNL     1     -12.989  10.951  70.887  1.00  0.00    -0.347 C  
BRANCH  18  19
HETATM   19  C   UNL     1     -12.205  12.241  70.664  1.00  0.00    -0.378 C  
HETATM   20  C   UNL     1     -12.699  13.354  71.558  1.00  0.00    -0.293 C  
HETATM   21  O   UNL     1     -13.617  13.256  72.356  1.00  0.00    -0.564 OA 
HETATM   22  O   UNL     1     -12.002  14.495  71.379  1.00  0.00    -0.343 OA 
ENDBRANCH  18  19
ENDBRANCH  17  18
ENDBRANCH  16  17
ENDBRANCH  14  15
ENDBRANCH  13  14
ENDBRANCH  11  12
ENDBRANCH  10  11
ENDBRANCH   8   9
ENDBRANCH   7   8
ENDBRANCH   5   6
ENDBRANCH   4   5
ENDBRANCH   2   3
TORSDOF 12
ENDMDL
MODEL      208
REMARK 921   NORMALIZED FREE ENERGY PREDICTED BY IDOCK:   -3.90 KCAL/MOL
REMARK 922        TOTAL FREE ENERGY PREDICTED BY IDOCK:   -9.14 KCAL/MOL
REMARK 923 INTER-LIGAND FREE ENERGY PREDICTED BY IDOCK:   -7.92 KCAL/MOL
REMARK 924 INTRA-LIGAND FREE ENERGY PREDICTED BY IDOCK:   -1.22 KCAL/MOL
REMARK 927      BINDING AFFINITY PREDICTED BY RF-SCORE:    0.00 PKD
ROOT
HETATM    1  C   UNL     1      -9.907  10.791  63.802  1.00  0.00    -0.396 C  
HETATM    2  C   UNL     1     -10.378  12.203  63.492  1.00  0.00    -0.473 C  
ENDROOT
BRANCH   2   3
HETATM    3  C   UNL     1     -11.876  12.323  63.556  1.00  0.00    -0.601 C  
HETATM    4  C   UNL     1     -12.600  12.481  64.680  1.00  0.00    -0.507 C  
BRANCH   4   5
HETATM    5  C   UNL     1     -12.011  12.598  66.055  1.00  0.00    -0.478 C  
BRANCH   5   6
HETATM    6  C   UNL     1     -12.042  14.001  66.594  1.00  0.00    -0.487 C  
HETATM    7  C   UNL     1     -11.729  14.351  67.850  1.00  0.00    -0.388 C  
BRANCH   7   8
HETATM    8  C   UNL     1     -11.187  13.381  68.855  1.00  0.00    -0.320 C  
BRANCH   8   9
HETATM    9  C   UNL     1     -11.865  13.504  70.185  1.00  0.00    -0.348 C  
HETATM   10  C   UNL     1     -12.304  12.481  70.941  1.00  0.00    -0.349 C  
BRANCH  10  11
HETATM   11  C   UNL     1     -12.222  11.017  70.603  1.00  0.00    -0.481 C  
BRANCH  11  12
HETATM   12  C   UNL     1     -13.236  10.114  71.267  1.00  0.00    -0.453 C  
HETATM   13  C   UNL     1     -13.127   8.819  71.622  1.00  0.00    -0.394 C  
BRANCH  13  14
HETATM   14  C   UNL     1     -11.952   7.934  71.345  1.00  0.00    -0.331 C  
BRANCH  14  15
HETATM   15  C   UNL     1     -12.114   6.533  71.856  1.00  0.00    -0.388 C  
HETATM   16  C   UNL     1     -11.391   6.039  72.874  1.00  0.00    -0.233 C  
BRANCH  16  17
HETATM   17  C   UNL     1     -10.307   6.836  73.539  1.00  0.00    -0.342 C  
BRANCH  17  18
HETATM   18  C   UNL     1      -8.956   6.706  72.857  1.00  0.00    -0.138 C  
BRANCH  18  19
HETATM   19  C   UNL     1      -8.332   8.087  72.676  1.00  0.00    -0.221 C  
HETATM   20  C   UNL     1      -8.209   8.454  71.216  1.00  0.00    -0.134 C  
HETATM   21  O   UNL     1      -8.549   7.744  70.284  1.00  0.00    -0.135 OA 
HETATM   22  O   UNL     1      -7.674   9.681  71.045  1.00  0.00    -0.323 OA 
ENDBRANCH  18  19
ENDBRANCH  17  18
ENDBRANCH  16  17
ENDBRANCH  14  15
ENDBRANCH  13  14
ENDBRANCH  11  12
ENDBRANCH  10  11
ENDBRANCH   8   9
ENDBRANCH   7   8
ENDBRANCH   5   6
ENDBRANCH   4   5
ENDBRANCH   2   3
TORSDOF 12
ENDMDL
MODEL      209
REMARK 921   NORMALIZED FREE ENERGY PREDICTED BY IDOCK:   -3.90 KCAL/MOL
REMARK 922        TOTAL FREE ENERGY PREDICTED BY IDOCK:   -9.14 KCAL/MOL
REMARK 923 INTER-LIGAND FREE ENERGY PREDICTED BY IDOCK:   -5.81 KCAL/MOL
REMARK 924 INTRA-LIGAND FREE ENERGY PREDICTED BY IDOCK:   -3.33 KCAL/MOL
REMARK 927      BINDING AFFINITY PREDICTED BY RF-SCORE:    0.00 PKD
ROOT
HETATM    1  C   UNL     1     -10.710   8.378  67.306  1.00  0.00    -0.230 C  
HETATM    2  C   UNL     1      -9.656   9.146  68.088  1.00  0.00    -0.160 C  
ENDROOT
BRANCH   2   3
HETATM    3  C   UNL     1      -8.360   9.250  67.332  1.00  0.00    -0.122 C  
HETATM    4  C   UNL     1      -7.579  10.345  67.265  1.00  0.00    -0.095 C  
BRANCH   4   5
HETATM    5  C   UNL     1      -7.873  11.634  67.974  1.00  0.00    -0.128 C  
BRANCH   5   6
HETATM    6  C   UNL     1      -7.142  12.811  67.387  1.00  0.00    -0.134 C  
HETATM    7  C   UNL     1      -7.420  14.097  67.644  1.00  0.00    -0.192 C  
BRANCH   7   8
HETATM    8  C   UNL     1      -8.438  14.524  68.657  1.00  0.00    -0.161 C  
BRANCH   8   9
HETATM    9  C   UNL     1      -8.448  16.008  68.860  1.00  0.00    -0.232 C  
HETATM   10  C   UNL     1      -9.363  16.863  68.366  1.00  0.00    -0.255 C  
BRANCH  10  11
HETATM   11  C   UNL     1     -10.543  16.511  67.501  1.00  0.00    -0.313 C  
BRANCH  11  12
HETATM   12  C   UNL     1     -10.318  16.549  66.007  1.00  0.00    -0.358 C  
HETATM   13  C   UNL     1     -10.734  15.689  65.057  1.00  0.00    -0.458 C  
BRANCH  13  14
HETATM   14  C   UNL     1     -11.471  14.409  65.299  1.00  0.00    -0.350 C  
BRANCH  14  15
HETATM   15  C   UNL     1     -10.592  13.193  65.301  1.00  0.00    -0.325 C  
HETATM   16  C   UNL     1     -10.788  12.152  66.126  1.00  0.00    -0.317 C  
BRANCH  16  17
HETATM   17  C   UNL     1     -11.869  12.157  67.168  1.00  0.00    -0.292 C  
BRANCH  17  18
HETATM   18  C   UNL     1     -11.349  12.383  68.577  1.00  0.00    -0.336 C  
BRANCH  18  19
HETATM   19  C   UNL     1     -11.984  13.640  69.166  1.00  0.00    -0.394 C  
HETATM   20  C   UNL     1     -12.504  13.397  70.564  1.00  0.00    -0.279 C  
HETATM   21  O   UNL     1     -12.444  12.333  71.159  1.00  0.00    -0.343 OA 
HETATM   22  O   UNL     1     -13.053  14.507  71.100  1.00  0.00    -0.334 OA 
ENDBRANCH  18  19
ENDBRANCH  17  18
ENDBRANCH  16  17
ENDBRANCH  14  15
ENDBRANCH  13  14
ENDBRANCH  11  12
ENDBRANCH  10  11
ENDBRANCH   8   9
ENDBRANCH   7   8
ENDBRANCH   5   6
ENDBRANCH   4   5
ENDBRANCH   2   3
TORSDOF 12
ENDMDL
MODEL      210
REMARK 921   NORMALIZED FREE ENERGY PREDICTED BY IDOCK:   -3.89 KCAL/MOL
REMARK 922        TOTAL FREE ENERGY PREDICTED BY IDOCK:   -9.12 KCAL/MOL
REMARK 923 INTER-LIGAND FREE ENERGY PREDICTED BY IDOCK:   -7.42 KCAL/MOL
REMARK 924 INTRA-LIGAND FREE ENERGY PREDICTED BY IDOCK:   -1.71 KCAL/MOL
REMARK 927      BINDING AFFINITY PREDICTED BY RF-SCORE:    0.00 PKD
ROOT
HETATM    1  C   UNL     1      -9.317   7.439  72.787  1.00  0.00    -0.201 C  
HETATM    2  C   UNL     1     -10.234   7.862  71.650  1.00  0.00    -0.239 C  
ENDROOT
BRANCH   2   3
HETATM    3  C   UNL     1     -11.284   6.825  71.359  1.00  0.00    -0.309 C  
HETATM    4  C   UNL     1     -11.279   5.980  70.311  1.00  0.00    -0.392 C  
BRANCH   4   5
HETATM    5  C   UNL     1     -10.191   5.920  69.280  1.00  0.00    -0.275 C  
BRANCH   5   6
HETATM    6  C   UNL     1     -10.707   6.024  67.871  1.00  0.00    -0.363 C  
HETATM    7  C   UNL     1     -10.849   7.167  67.185  1.00  0.00    -0.403 C  
BRANCH   7   8
HETATM    8  C   UNL     1     -10.391   8.494  67.708  1.00  0.00    -0.298 C  
BRANCH   8   9
HETATM    9  C   UNL     1      -9.073   8.908  67.130  1.00  0.00    -0.160 C  
HETATM   10  C   UNL     1      -8.885   9.883  66.220  1.00  0.00    -0.160 C  
BRANCH  10  11
HETATM   11  C   UNL     1      -9.951  10.737  65.589  1.00  0.00    -0.317 C  
BRANCH  11  12
HETATM   12  C   UNL     1      -9.728  11.138  64.148  1.00  0.00    -0.318 C  
HETATM   13  C   UNL     1     -10.545  11.803  63.309  1.00  0.00    -0.427 C  
BRANCH  13  14
HETATM   14  C   UNL     1     -11.946  12.233  63.611  1.00  0.00    -0.633 C  
BRANCH  14  15
HETATM   15  C   UNL     1     -12.132  13.721  63.636  1.00  0.00    -0.330 C  
HETATM   16  C   UNL     1     -12.145  14.436  64.773  1.00  0.00    -0.462 C  
BRANCH  16  17
HETATM   17  C   UNL     1     -12.044  13.785  66.121  1.00  0.00    -0.477 C  
BRANCH  17  18
HETATM   18  C   UNL     1     -11.142  14.533  67.088  1.00  0.00    -0.325 C  
BRANCH  18  19
HETATM   19  C   UNL     1     -10.216  15.466  66.315  1.00  0.00    -0.303 C  
HETATM   20  C   UNL     1     -10.113  16.821  66.976  1.00  0.00    -0.276 C  
HETATM   21  O   UNL     1     -10.699  17.150  67.995  1.00  0.00    -0.372 OA 
HETATM   22  O   UNL     1      -9.283  17.650  66.308  1.00  0.00    -0.376 OA 
ENDBRANCH  18  19
ENDBRANCH  17  18
ENDBRANCH  16  17
ENDBRANCH  14  15
ENDBRANCH  13  14
ENDBRANCH  11  12
ENDBRANCH  10  11
ENDBRANCH   8   9
ENDBRANCH   7   8
ENDBRANCH   5   6
ENDBRANCH   4   5
ENDBRANCH   2   3
TORSDOF 12
ENDMDL
MODEL      211
REMARK 921   NORMALIZED FREE ENERGY PREDICTED BY IDOCK:   -3.89 KCAL/MOL
REMARK 922        TOTAL FREE ENERGY PREDICTED BY IDOCK:   -9.12 KCAL/MOL
REMARK 923 INTER-LIGAND FREE ENERGY PREDICTED BY IDOCK:   -7.15 KCAL/MOL
REMARK 924 INTRA-LIGAND FREE ENERGY PREDICTED BY IDOCK:   -1.96 KCAL/MOL
REMARK 927      BINDING AFFINITY PREDICTED BY RF-SCORE:    0.00 PKD
ROOT
HETATM    1  C   UNL     1      -9.224   2.427  64.641  1.00  0.00    -0.133 C  
HETATM    2  C   UNL     1      -9.398   3.803  65.263  1.00  0.00    -0.158 C  
ENDROOT
BRANCH   2   3
HETATM    3  C   UNL     1      -8.700   4.872  64.467  1.00  0.00    -0.148 C  
HETATM    4  C   UNL     1      -8.308   6.070  64.941  1.00  0.00    -0.104 C  
BRANCH   4   5
HETATM    5  C   UNL     1      -8.480   6.511  66.365  1.00  0.00    -0.124 C  
BRANCH   5   6
HETATM    6  C   UNL     1      -9.513   7.592  66.527  1.00  0.00    -0.250 C  
HETATM    7  C   UNL     1     -10.674   7.457  67.183  1.00  0.00    -0.400 C  
BRANCH   7   8
HETATM    8  C   UNL     1     -11.038   6.221  67.949  1.00  0.00    -0.360 C  
BRANCH   8   9
HETATM    9  C   UNL     1     -10.296   6.119  69.247  1.00  0.00    -0.276 C  
HETATM   10  C   UNL     1     -10.804   6.385  70.465  1.00  0.00    -0.335 C  
BRANCH  10  11
HETATM   11  C   UNL     1     -12.201   6.852  70.772  1.00  0.00    -0.364 C  
BRANCH  11  12
HETATM   12  C   UNL     1     -12.351   7.814  71.928  1.00  0.00    -0.342 C  
HETATM   13  C   UNL     1     -12.429   9.159  71.918  1.00  0.00    -0.459 C  
BRANCH  13  14
HETATM   14  C   UNL     1     -12.293  10.033  70.711  1.00  0.00    -0.396 C  
BRANCH  14  15
HETATM   15  C   UNL     1     -10.887  10.152  70.202  1.00  0.00    -0.368 C  
HETATM   16  C   UNL     1     -10.593  10.595  68.969  1.00  0.00    -0.249 C  
BRANCH  16  17
HETATM   17  C   UNL     1     -11.661  10.939  67.973  1.00  0.00    -0.295 C  
BRANCH  17  18
HETATM   18  C   UNL     1     -11.493  12.317  67.357  1.00  0.00    -0.422 C  
BRANCH  18  19
HETATM   19  C   UNL     1     -11.356  12.194  65.843  1.00  0.00    -0.407 C  
HETATM   20  C   UNL     1     -12.356  13.066  65.121  1.00  0.00    -0.484 C  
HETATM   21  O   UNL     1     -13.186  13.778  65.664  1.00  0.00    -0.574 OA 
HETATM   22  O   UNL     1     -12.233  12.977  63.780  1.00  0.00    -0.508 OA 
ENDBRANCH  18  19
ENDBRANCH  17  18
ENDBRANCH  16  17
ENDBRANCH  14  15
ENDBRANCH  13  14
ENDBRANCH  11  12
ENDBRANCH  10  11
ENDBRANCH   8   9
ENDBRANCH   7   8
ENDBRANCH   5   6
ENDBRANCH   4   5
ENDBRANCH   2   3
TORSDOF 12
ENDMDL
MODEL      212
REMARK 921   NORMALIZED FREE ENERGY PREDICTED BY IDOCK:   -3.89 KCAL/MOL
REMARK 922        TOTAL FREE ENERGY PREDICTED BY IDOCK:   -9.12 KCAL/MOL
REMARK 923 INTER-LIGAND FREE ENERGY PREDICTED BY IDOCK:   -6.53 KCAL/MOL
REMARK 924 INTRA-LIGAND FREE ENERGY PREDICTED BY IDOCK:   -2.59 KCAL/MOL
REMARK 927      BINDING AFFINITY PREDICTED BY RF-SCORE:    0.00 PKD
ROOT
HETATM    1  C   UNL     1      -9.603   8.138  72.533  1.00  0.00    -0.347 C  
HETATM    2  C   UNL     1      -9.606   6.885  71.672  1.00  0.00    -0.161 C  
ENDROOT
BRANCH   2   3
HETATM    3  C   UNL     1     -10.935   6.666  71.002  1.00  0.00    -0.305 C  
HETATM    4  C   UNL     1     -11.178   6.799  69.685  1.00  0.00    -0.345 C  
BRANCH   4   5
HETATM    5  C   UNL     1     -10.136   7.158  68.667  1.00  0.00    -0.177 C  
BRANCH   5   6
HETATM    6  C   UNL     1     -10.709   7.815  67.441  1.00  0.00    -0.300 C  
HETATM    7  C   UNL     1     -10.065   8.704  66.672  1.00  0.00    -0.364 C  
BRANCH   7   8
HETATM    8  C   UNL     1      -8.627   9.070  66.878  1.00  0.00    -0.128 C  
BRANCH   8   9
HETATM    9  C   UNL     1      -8.272  10.368  66.219  1.00  0.00    -0.144 C  
HETATM   10  C   UNL     1      -8.374  11.588  66.779  1.00  0.00    -0.165 C  
BRANCH  10  11
HETATM   11  C   UNL     1      -8.879  11.900  68.162  1.00  0.00    -0.178 C  
BRANCH  11  12
HETATM   12  C   UNL     1     -10.077  12.817  68.251  1.00  0.00    -0.237 C  
HETATM   13  C   UNL     1     -11.357  12.524  68.550  1.00  0.00    -0.337 C  
BRANCH  13  14
HETATM   14  C   UNL     1     -11.908  11.153  68.787  1.00  0.00    -0.388 C  
BRANCH  14  15
HETATM   15  C   UNL     1     -11.291  10.443  69.956  1.00  0.00    -0.384 C  
HETATM   16  C   UNL     1     -11.869  10.392  71.167  1.00  0.00    -0.432 C  
BRANCH  16  17
HETATM   17  C   UNL     1     -13.154  11.108  71.464  1.00  0.00    -0.489 C  
BRANCH  17  18
HETATM   18  C   UNL     1     -12.965  12.379  72.274  1.00  0.00    -0.180 C  
BRANCH  18  19
HETATM   19  C   UNL     1     -13.712  13.531  71.608  1.00  0.00    -0.276 C  
HETATM   20  C   UNL     1     -12.814  14.728  71.399  1.00  0.00    -0.336 C  
HETATM   21  O   UNL     1     -11.639  14.788  71.725  1.00  0.00    -0.335 OA 
HETATM   22  O   UNL     1     -13.460  15.747  70.796  1.00  0.00    -0.520 OA 
ENDBRANCH  18  19
ENDBRANCH  17  18
ENDBRANCH  16  17
ENDBRANCH  14  15
ENDBRANCH  13  14
ENDBRANCH  11  12
ENDBRANCH  10  11
ENDBRANCH   8   9
ENDBRANCH   7   8
ENDBRANCH   5   6
ENDBRANCH   4   5
ENDBRANCH   2   3
TORSDOF 12
ENDMDL
MODEL      213
REMARK 921   NORMALIZED FREE ENERGY PREDICTED BY IDOCK:   -3.88 KCAL/MOL
REMARK 922        TOTAL FREE ENERGY PREDICTED BY IDOCK:   -9.11 KCAL/MOL
REMARK 923 INTER-LIGAND FREE ENERGY PREDICTED BY IDOCK:   -7.63 KCAL/MOL
REMARK 924 INTRA-LIGAND FREE ENERGY PREDICTED BY IDOCK:   -1.48 KCAL/MOL
REMARK 927      BINDING AFFINITY PREDICTED BY RF-SCORE:    0.00 PKD
ROOT
HETATM    1  C   UNL     1      -9.941   3.332  71.828  1.00  0.00    -0.192 C  
HETATM    2  C   UNL     1      -9.426   4.569  71.110  1.00  0.00    -0.226 C  
ENDROOT
BRANCH   2   3
HETATM    3  C   UNL     1     -10.344   4.998  69.999  1.00  0.00    -0.303 C  
HETATM    4  C   UNL     1     -11.172   6.059  70.035  1.00  0.00    -0.425 C  
BRANCH   4   5
HETATM    5  C   UNL     1     -11.280   7.006  71.193  1.00  0.00    -0.304 C  
BRANCH   5   6
HETATM    6  C   UNL     1     -12.695   7.429  71.480  1.00  0.00    -0.409 C  
HETATM    7  C   UNL     1     -13.087   8.686  71.735  1.00  0.00    -0.396 C  
BRANCH   7   8
HETATM    8  C   UNL     1     -12.162   9.861  71.648  1.00  0.00    -0.482 C  
BRANCH   8   9
HETATM    9  C   UNL     1     -12.650  10.897  70.683  1.00  0.00    -0.435 C  
HETATM   10  C   UNL     1     -12.213  11.064  69.421  1.00  0.00    -0.329 C  
BRANCH  10  11
HETATM   11  C   UNL     1     -11.141  10.264  68.730  1.00  0.00    -0.276 C  
BRANCH  11  12
HETATM   12  C   UNL     1      -9.965  11.042  68.186  1.00  0.00    -0.190 C  
HETATM   13  C   UNL     1      -9.864  11.758  67.050  1.00  0.00    -0.213 C  
BRANCH  13  14
HETATM   14  C   UNL     1     -10.918  11.872  65.993  1.00  0.00    -0.355 C  
BRANCH  14  15
HETATM   15  C   UNL     1     -12.066  12.759  66.372  1.00  0.00    -0.370 C  
HETATM   16  C   UNL     1     -12.296  13.946  65.786  1.00  0.00    -0.518 C  
BRANCH  16  17
HETATM   17  C   UNL     1     -11.372  14.510  64.746  1.00  0.00    -0.397 C  
BRANCH  17  18
HETATM   18  C   UNL     1     -10.289  15.407  65.322  1.00  0.00    -0.420 C  
BRANCH  18  19
HETATM   19  C   UNL     1     -10.830  16.157  66.535  1.00  0.00    -0.139 C  
HETATM   20  C   UNL     1     -10.175  17.509  66.690  1.00  0.00    -0.332 C  
HETATM   21  O   UNL     1      -9.311  17.958  65.954  1.00  0.00    -0.520 OA 
HETATM   22  O   UNL     1     -10.657  18.188  67.752  1.00  0.00    -0.400 OA 
ENDBRANCH  18  19
ENDBRANCH  17  18
ENDBRANCH  16  17
ENDBRANCH  14  15
ENDBRANCH  13  14
ENDBRANCH  11  12
ENDBRANCH  10  11
ENDBRANCH   8   9
ENDBRANCH   7   8
ENDBRANCH   5   6
ENDBRANCH   4   5
ENDBRANCH   2   3
TORSDOF 12
ENDMDL
MODEL      214
REMARK 921   NORMALIZED FREE ENERGY PREDICTED BY IDOCK:   -3.87 KCAL/MOL
REMARK 922        TOTAL FREE ENERGY PREDICTED BY IDOCK:   -9.09 KCAL/MOL
REMARK 923 INTER-LIGAND FREE ENERGY PREDICTED BY IDOCK:   -6.57 KCAL/MOL
REMARK 924 INTRA-LIGAND FREE ENERGY PREDICTED BY IDOCK:   -2.52 KCAL/MOL
REMARK 927      BINDING AFFINITY PREDICTED BY RF-SCORE:    0.00 PKD
ROOT
HETATM    1  C   UNL     1      -6.448  10.001  63.977  1.00  0.00    -0.132 C  
HETATM    2  C   UNL     1      -6.537   8.685  64.734  1.00  0.00    -0.066 C  
ENDROOT
BRANCH   2   3
HETATM    3  C   UNL     1      -5.897   8.773  66.092  1.00  0.00    -0.047 C  
HETATM    4  C   UNL     1      -6.534   9.079  67.238  1.00  0.00    -0.061 C  
BRANCH   4   5
HETATM    5  C   UNL     1      -8.006   9.348  67.338  1.00  0.00    -0.106 C  
BRANCH   5   6
HETATM    6  C   UNL     1      -8.357  10.797  67.135  1.00  0.00    -0.126 C  
HETATM    7  C   UNL     1      -9.250  11.256  66.248  1.00  0.00    -0.214 C  
BRANCH   7   8
HETATM    8  C   UNL     1     -10.109  10.354  65.415  1.00  0.00    -0.354 C  
BRANCH   8   9
HETATM    9  C   UNL     1     -10.247  10.844  64.006  1.00  0.00    -0.422 C  
HETATM   10  C   UNL     1     -11.135  11.759  63.575  1.00  0.00    -0.503 C  
BRANCH  10  11
HETATM   11  C   UNL     1     -12.176  12.459  64.406  1.00  0.00    -0.519 C  
BRANCH  11  12
HETATM   12  C   UNL     1     -12.318  13.949  64.193  1.00  0.00    -0.380 C  
HETATM   13  C   UNL     1     -11.627  14.963  64.748  1.00  0.00    -0.410 C  
BRANCH  13  14
HETATM   14  C   UNL     1     -10.578  14.828  65.807  1.00  0.00    -0.338 C  
BRANCH  14  15
HETATM   15  C   UNL     1     -10.890  15.575  67.070  1.00  0.00    -0.314 C  
HETATM   16  C   UNL     1     -11.359  14.974  68.176  1.00  0.00    -0.343 C  
BRANCH  16  17
HETATM   17  C   UNL     1     -11.675  13.507  68.209  1.00  0.00    -0.394 C  
BRANCH  17  18
HETATM   18  C   UNL     1     -11.800  12.947  69.616  1.00  0.00    -0.387 C  
BRANCH  18  19
HETATM   19  C   UNL     1     -11.709  11.425  69.576  1.00  0.00    -0.417 C  
HETATM   20  C   UNL     1     -12.363  10.797  70.784  1.00  0.00    -0.383 C  
HETATM   21  O   UNL     1     -12.893  11.413  71.694  1.00  0.00    -0.420 OA 
HETATM   22  O   UNL     1     -12.302   9.449  70.751  1.00  0.00    -0.236 OA 
ENDBRANCH  18  19
ENDBRANCH  17  18
ENDBRANCH  16  17
ENDBRANCH  14  15
ENDBRANCH  13  14
ENDBRANCH  11  12
ENDBRANCH  10  11
ENDBRANCH   8   9
ENDBRANCH   7   8
ENDBRANCH   5   6
ENDBRANCH   4   5
ENDBRANCH   2   3
TORSDOF 12
ENDMDL
MODEL      215
REMARK 921   NORMALIZED FREE ENERGY PREDICTED BY IDOCK:   -3.87 KCAL/MOL
REMARK 922        TOTAL FREE ENERGY PREDICTED BY IDOCK:   -9.09 KCAL/MOL
REMARK 923 INTER-LIGAND FREE ENERGY PREDICTED BY IDOCK:   -6.78 KCAL/MOL
REMARK 924 INTRA-LIGAND FREE ENERGY PREDICTED BY IDOCK:   -2.31 KCAL/MOL
REMARK 927      BINDING AFFINITY PREDICTED BY RF-SCORE:    0.00 PKD
ROOT
HETATM    1  C   UNL     1      -6.365  10.149  66.174  1.00  0.00    -0.087 C  
HETATM    2  C   UNL     1      -7.628  10.816  66.694  1.00  0.00    -0.134 C  
ENDROOT
BRANCH   2   3
HETATM    3  C   UNL     1      -8.850   9.974  66.449  1.00  0.00    -0.158 C  
HETATM    4  C   UNL     1      -9.652  10.054  65.370  1.00  0.00    -0.342 C  
BRANCH   4   5
HETATM    5  C   UNL     1      -9.422  10.986  64.216  1.00  0.00    -0.270 C  
BRANCH   5   6
HETATM    6  C   UNL     1     -10.662  11.232  63.401  1.00  0.00    -0.349 C  
HETATM    7  C   UNL     1     -11.363  12.375  63.391  1.00  0.00    -0.507 C  
BRANCH   7   8
HETATM    8  C   UNL     1     -10.920  13.608  64.117  1.00  0.00    -0.211 C  
BRANCH   8   9
HETATM    9  C   UNL     1     -11.968  14.120  65.059  1.00  0.00    -0.412 C  
HETATM   10  C   UNL     1     -12.409  13.488  66.162  1.00  0.00    -0.463 C  
BRANCH  10  11
HETATM   11  C   UNL     1     -11.959  12.142  66.665  1.00  0.00    -0.186 C  
BRANCH  11  12
HETATM   12  C   UNL     1     -11.499  12.080  68.104  1.00  0.00    -0.383 C  
HETATM   13  C   UNL     1     -10.470  12.712  68.701  1.00  0.00    -0.224 C  
BRANCH  13  14
HETATM   14  C   UNL     1      -9.465  13.585  68.017  1.00  0.00    -0.220 C  
BRANCH  14  15
HETATM   15  C   UNL     1      -8.751  14.527  68.940  1.00  0.00    -0.105 C  
HETATM   16  C   UNL     1      -9.223  15.747  69.246  1.00  0.00    -0.266 C  
BRANCH  16  17
HETATM   17  C   UNL     1     -10.476  16.292  68.627  1.00  0.00    -0.282 C  
BRANCH  17  18
HETATM   18  C   UNL     1     -11.743  15.855  69.342  1.00  0.00    -0.350 C  
BRANCH  18  19
HETATM   19  C   UNL     1     -11.548  15.962  70.852  1.00  0.00    -0.456 C  
HETATM   20  C   UNL     1     -12.848  15.765  71.596  1.00  0.00    -0.448 C  
HETATM   21  O   UNL     1     -13.931  15.557  71.072  1.00  0.00    -0.535 OA 
HETATM   22  O   UNL     1     -12.684  15.842  72.933  1.00  0.00    -0.387 OA 
ENDBRANCH  18  19
ENDBRANCH  17  18
ENDBRANCH  16  17
ENDBRANCH  14  15
ENDBRANCH  13  14
ENDBRANCH  11  12
ENDBRANCH  10  11
ENDBRANCH   8   9
ENDBRANCH   7   8
ENDBRANCH   5   6
ENDBRANCH   4   5
ENDBRANCH   2   3
TORSDOF 12
ENDMDL
MODEL      216
REMARK 921   NORMALIZED FREE ENERGY PREDICTED BY IDOCK:   -3.86 KCAL/MOL
REMARK 922        TOTAL FREE ENERGY PREDICTED BY IDOCK:   -9.07 KCAL/MOL
REMARK 923 INTER-LIGAND FREE ENERGY PREDICTED BY IDOCK:   -6.89 KCAL/MOL
REMARK 924 INTRA-LIGAND FREE ENERGY PREDICTED BY IDOCK:   -2.18 KCAL/MOL
REMARK 927      BINDING AFFINITY PREDICTED BY RF-SCORE:    0.00 PKD
ROOT
HETATM    1  C   UNL     1     -12.840  13.267  65.421  1.00  0.00    -0.340 C  
HETATM    2  C   UNL     1     -11.638  13.297  64.491  1.00  0.00    -0.407 C  
ENDROOT
BRANCH   2   3
HETATM    3  C   UNL     1     -11.579  12.081  63.608  1.00  0.00    -0.578 C  
HETATM    4  C   UNL     1     -10.780  11.014  63.800  1.00  0.00    -0.294 C  
BRANCH   4   5
HETATM    5  C   UNL     1      -9.840  10.862  64.959  1.00  0.00    -0.336 C  
BRANCH   5   6
HETATM    6  C   UNL     1      -9.039   9.590  64.906  1.00  0.00    -0.276 C  
HETATM    7  C   UNL     1      -9.159   8.567  65.764  1.00  0.00    -0.222 C  
BRANCH   7   8
HETATM    8  C   UNL     1     -10.209   8.519  66.832  1.00  0.00    -0.375 C  
BRANCH   8   9
HETATM    9  C   UNL     1      -9.618   8.536  68.210  1.00  0.00    -0.156 C  
HETATM   10  C   UNL     1      -9.382   9.635  68.951  1.00  0.00    -0.151 C  
BRANCH  10  11
HETATM   11  C   UNL     1      -9.643  11.061  68.547  1.00  0.00    -0.187 C  
BRANCH  11  12
HETATM   12  C   UNL     1     -11.088  11.446  68.327  1.00  0.00    -0.300 C  
HETATM   13  C   UNL     1     -12.088  11.560  69.222  1.00  0.00    -0.344 C  
BRANCH  13  14
HETATM   14  C   UNL     1     -11.999  11.233  70.679  1.00  0.00    -0.435 C  
BRANCH  14  15
HETATM   15  C   UNL     1     -12.877  10.094  71.102  1.00  0.00    -0.494 C  
HETATM   16  C   UNL     1     -12.402   8.986  71.694  1.00  0.00    -0.416 C  
BRANCH  16  17
HETATM   17  C   UNL     1     -10.933   8.772  71.916  1.00  0.00    -0.435 C  
BRANCH  17  18
HETATM   18  C   UNL     1     -10.504   7.322  71.774  1.00  0.00    -0.218 C  
BRANCH  18  19
HETATM   19  C   UNL     1     -11.346   6.442  72.693  1.00  0.00    -0.266 C  
HETATM   20  C   UNL     1     -10.813   5.030  72.751  1.00  0.00    -0.244 C  
HETATM   21  O   UNL     1      -9.839   4.622  72.138  1.00  0.00    -0.161 OA 
HETATM   22  O   UNL     1     -11.541   4.246  73.573  1.00  0.00    -0.248 OA 
ENDBRANCH  18  19
ENDBRANCH  17  18
ENDBRANCH  16  17
ENDBRANCH  14  15
ENDBRANCH  13  14
ENDBRANCH  11  12
ENDBRANCH  10  11
ENDBRANCH   8   9
ENDBRANCH   7   8
ENDBRANCH   5   6
ENDBRANCH   4   5
ENDBRANCH   2   3
TORSDOF 12
ENDMDL
MODEL      217
REMARK 921   NORMALIZED FREE ENERGY PREDICTED BY IDOCK:   -3.85 KCAL/MOL
REMARK 922        TOTAL FREE ENERGY PREDICTED BY IDOCK:   -9.06 KCAL/MOL
REMARK 923 INTER-LIGAND FREE ENERGY PREDICTED BY IDOCK:   -6.85 KCAL/MOL
REMARK 924 INTRA-LIGAND FREE ENERGY PREDICTED BY IDOCK:   -2.21 KCAL/MOL
REMARK 927      BINDING AFFINITY PREDICTED BY RF-SCORE:    0.00 PKD
ROOT
HETATM    1  C   UNL     1      -9.976  17.322  67.748  1.00  0.00    -0.301 C  
HETATM    2  C   UNL     1     -10.516  15.915  67.546  1.00  0.00    -0.298 C  
ENDROOT
BRANCH   2   3
HETATM    3  C   UNL     1     -11.639  15.602  68.496  1.00  0.00    -0.378 C  
HETATM    4  C   UNL     1     -11.893  14.395  69.036  1.00  0.00    -0.358 C  
BRANCH   4   5
HETATM    5  C   UNL     1     -11.060  13.170  68.794  1.00  0.00    -0.309 C  
BRANCH   5   6
HETATM    6  C   UNL     1     -11.883  11.940  68.528  1.00  0.00    -0.357 C  
HETATM    7  C   UNL     1     -12.305  11.078  69.463  1.00  0.00    -0.266 C  
BRANCH   7   8
HETATM    8  C   UNL     1     -12.103  11.305  70.931  1.00  0.00    -0.406 C  
BRANCH   8   9
HETATM    9  C   UNL     1     -13.102  10.559  71.763  1.00  0.00    -0.570 C  
HETATM   10  C   UNL     1     -13.048   9.250  72.069  1.00  0.00    -0.512 C  
BRANCH  10  11
HETATM   11  C   UNL     1     -11.995   8.268  71.629  1.00  0.00    -0.346 C  
BRANCH  11  12
HETATM   12  C   UNL     1     -10.700   8.275  72.408  1.00  0.00    -0.411 C  
HETATM   13  C   UNL     1      -9.481   8.714  72.038  1.00  0.00    -0.370 C  
BRANCH  13  14
HETATM   14  C   UNL     1      -9.114   9.235  70.684  1.00  0.00    -0.309 C  
BRANCH  14  15
HETATM   15  C   UNL     1      -8.363   8.252  69.837  1.00  0.00    -0.125 C  
HETATM   16  C   UNL     1      -8.887   7.684  68.738  1.00  0.00    -0.131 C  
BRANCH  16  17
HETATM   17  C   UNL     1     -10.303   7.940  68.311  1.00  0.00    -0.239 C  
BRANCH  17  18
HETATM   18  C   UNL     1     -10.428   9.007  67.238  1.00  0.00    -0.343 C  
BRANCH  18  19
HETATM   19  C   UNL     1      -9.462   8.707  66.095  1.00  0.00    -0.308 C  
HETATM   20  C   UNL     1      -8.945   9.975  65.456  1.00  0.00    -0.174 C  
HETATM   21  O   UNL     1      -9.258  11.106  65.790  1.00  0.00    -0.205 OA 
HETATM   22  O   UNL     1      -8.078   9.720  64.454  1.00  0.00    -0.133 OA 
ENDBRANCH  18  19
ENDBRANCH  17  18
ENDBRANCH  16  17
ENDBRANCH  14  15
ENDBRANCH  13  14
ENDBRANCH  11  12
ENDBRANCH  10  11
ENDBRANCH   8   9
ENDBRANCH   7   8
ENDBRANCH   5   6
ENDBRANCH   4   5
ENDBRANCH   2   3
TORSDOF 12
ENDMDL
MODEL      218
REMARK 921   NORMALIZED FREE ENERGY PREDICTED BY IDOCK:   -3.85 KCAL/MOL
REMARK 922        TOTAL FREE ENERGY PREDICTED BY IDOCK:   -9.05 KCAL/MOL
REMARK 923 INTER-LIGAND FREE ENERGY PREDICTED BY IDOCK:   -6.93 KCAL/MOL
REMARK 924 INTRA-LIGAND FREE ENERGY PREDICTED BY IDOCK:   -2.12 KCAL/MOL
REMARK 927      BINDING AFFINITY PREDICTED BY RF-SCORE:    0.00 PKD
ROOT
HETATM    1  C   UNL     1      -9.641  20.016  66.005  1.00  0.00    -0.420 C  
HETATM    2  C   UNL     1     -10.765  19.622  66.950  1.00  0.00    -0.570 C  
ENDROOT
BRANCH   2   3
HETATM    3  C   UNL     1     -10.251  19.259  68.316  1.00  0.00    -0.513 C  
HETATM    4  C   UNL     1      -9.816  18.040  68.688  1.00  0.00    -0.383 C  
BRANCH   4   5
HETATM    5  C   UNL     1      -9.746  16.853  67.774  1.00  0.00    -0.250 C  
BRANCH   5   6
HETATM    6  C   UNL     1     -10.898  15.903  67.950  1.00  0.00    -0.327 C  
HETATM    7  C   UNL     1     -11.348  15.055  67.014  1.00  0.00    -0.319 C  
BRANCH   7   8
HETATM    8  C   UNL     1     -10.669  14.866  65.692  1.00  0.00    -0.352 C  
BRANCH   8   9
HETATM    9  C   UNL     1     -11.641  14.857  64.551  1.00  0.00    -0.356 C  
HETATM   10  C   UNL     1     -12.212  13.762  64.014  1.00  0.00    -0.429 C  
BRANCH  10  11
HETATM   11  C   UNL     1     -11.982  12.335  64.432  1.00  0.00    -0.473 C  
BRANCH  11  12
HETATM   12  C   UNL     1     -10.803  11.630  63.800  1.00  0.00    -0.493 C  
HETATM   13  C   UNL     1     -10.042  10.631  64.288  1.00  0.00    -0.411 C  
BRANCH  13  14
HETATM   14  C   UNL     1     -10.153  10.036  65.656  1.00  0.00    -0.321 C  
BRANCH  14  15
HETATM   15  C   UNL     1      -8.842   9.588  66.233  1.00  0.00    -0.172 C  
HETATM   16  C   UNL     1      -8.216  10.248  67.220  1.00  0.00    -0.121 C  
BRANCH  16  17
HETATM   17  C   UNL     1      -8.749  11.535  67.779  1.00  0.00    -0.142 C  
BRANCH  17  18
HETATM   18  C   UNL     1      -8.010  12.764  67.279  1.00  0.00    -0.156 C  
BRANCH  18  19
HETATM   19  C   UNL     1      -7.935  13.809  68.388  1.00  0.00    -0.144 C  
HETATM   20  C   UNL     1      -6.722  14.696  68.236  1.00  0.00    -0.115 C  
HETATM   21  O   UNL     1      -5.888  14.597  67.351  1.00  0.00    -0.342 OA 
HETATM   22  O   UNL     1      -6.655  15.634  69.204  1.00  0.00    -0.123 OA 
ENDBRANCH  18  19
ENDBRANCH  17  18
ENDBRANCH  16  17
ENDBRANCH  14  15
ENDBRANCH  13  14
ENDBRANCH  11  12
ENDBRANCH  10  11
ENDBRANCH   8   9
ENDBRANCH   7   8
ENDBRANCH   5   6
ENDBRANCH   4   5
ENDBRANCH   2   3
TORSDOF 12
ENDMDL
MODEL      219
REMARK 921   NORMALIZED FREE ENERGY PREDICTED BY IDOCK:   -3.85 KCAL/MOL
REMARK 922        TOTAL FREE ENERGY PREDICTED BY IDOCK:   -9.05 KCAL/MOL
REMARK 923 INTER-LIGAND FREE ENERGY PREDICTED BY IDOCK:   -6.59 KCAL/MOL
REMARK 924 INTRA-LIGAND FREE ENERGY PREDICTED BY IDOCK:   -2.47 KCAL/MOL
REMARK 927      BINDING AFFINITY PREDICTED BY RF-SCORE:    0.00 PKD
ROOT
HETATM    1  C   UNL     1      -6.575  11.412  69.560  1.00  0.00    -0.129 C  
HETATM    2  C   UNL     1      -7.744  11.633  68.613  1.00  0.00    -0.134 C  
ENDROOT
BRANCH   2   3
HETATM    3  C   UNL     1      -7.406  12.612  67.522  1.00  0.00    -0.151 C  
HETATM    4  C   UNL     1      -7.829  13.889  67.459  1.00  0.00    -0.193 C  
BRANCH   4   5
HETATM    5  C   UNL     1      -8.685  14.546  68.502  1.00  0.00    -0.177 C  
BRANCH   5   6
HETATM    6  C   UNL     1     -10.150  14.246  68.338  1.00  0.00    -0.243 C  
HETATM    7  C   UNL     1     -11.038  15.047  67.731  1.00  0.00    -0.312 C  
BRANCH   7   8
HETATM    8  C   UNL     1     -10.646  16.309  67.026  1.00  0.00    -0.284 C  
BRANCH   8   9
HETATM    9  C   UNL     1     -10.179  16.056  65.625  1.00  0.00    -0.412 C  
HETATM   10  C   UNL     1     -10.799  15.277  64.719  1.00  0.00    -0.379 C  
BRANCH  10  11
HETATM   11  C   UNL     1     -12.066  14.492  64.928  1.00  0.00    -0.421 C  
BRANCH  11  12
HETATM   12  C   UNL     1     -12.141  13.141  64.255  1.00  0.00    -0.477 C  
HETATM   13  C   UNL     1     -11.495  11.998  64.557  1.00  0.00    -0.385 C  
BRANCH  13  14
HETATM   14  C   UNL     1     -10.455  11.837  65.621  1.00  0.00    -0.308 C  
BRANCH  14  15
HETATM   15  C   UNL     1     -10.429  10.472  66.243  1.00  0.00    -0.250 C  
HETATM   16  C   UNL     1     -11.006  10.198  67.425  1.00  0.00    -0.295 C  
BRANCH  16  17
HETATM   17  C   UNL     1     -11.666  11.261  68.252  1.00  0.00    -0.344 C  
BRANCH  17  18
HETATM   18  C   UNL     1     -12.054  10.792  69.644  1.00  0.00    -0.361 C  
BRANCH  18  19
HETATM   19  C   UNL     1     -10.810  10.338  70.402  1.00  0.00    -0.320 C  
HETATM   20  C   UNL     1     -11.150   9.328  71.473  1.00  0.00    -0.373 C  
HETATM   21  O   UNL     1     -12.273   8.922  71.723  1.00  0.00    -0.314 OA 
HETATM   22  O   UNL     1     -10.054   8.908  72.140  1.00  0.00    -0.325 OA 
ENDBRANCH  18  19
ENDBRANCH  17  18
ENDBRANCH  16  17
ENDBRANCH  14  15
ENDBRANCH  13  14
ENDBRANCH  11  12
ENDBRANCH  10  11
ENDBRANCH   8   9
ENDBRANCH   7   8
ENDBRANCH   5   6
ENDBRANCH   4   5
ENDBRANCH   2   3
TORSDOF 12
ENDMDL
MODEL      220
REMARK 921   NORMALIZED FREE ENERGY PREDICTED BY IDOCK:   -3.85 KCAL/MOL
REMARK 922        TOTAL FREE ENERGY PREDICTED BY IDOCK:   -9.05 KCAL/MOL
REMARK 923 INTER-LIGAND FREE ENERGY PREDICTED BY IDOCK:   -6.49 KCAL/MOL
REMARK 924 INTRA-LIGAND FREE ENERGY PREDICTED BY IDOCK:   -2.56 KCAL/MOL
REMARK 927      BINDING AFFINITY PREDICTED BY RF-SCORE:    0.00 PKD
ROOT
HETATM    1  C   UNL     1     -12.098  13.382  69.956  1.00  0.00    -0.404 C  
HETATM    2  C   UNL     1     -12.049  13.869  68.516  1.00  0.00    -0.331 C  
ENDROOT
BRANCH   2   3
HETATM    3  C   UNL     1     -11.738  12.754  67.556  1.00  0.00    -0.422 C  
HETATM    4  C   UNL     1     -12.035  12.747  66.243  1.00  0.00    -0.460 C  
BRANCH   4   5
HETATM    5  C   UNL     1     -12.701  13.883  65.523  1.00  0.00    -0.536 C  
BRANCH   5   6
HETATM    6  C   UNL     1     -11.873  14.433  64.394  1.00  0.00    -0.433 C  
HETATM    7  C   UNL     1     -11.053  15.490  64.484  1.00  0.00    -0.290 C  
BRANCH   7   8
HETATM    8  C   UNL     1     -10.770  16.194  65.776  1.00  0.00    -0.289 C  
BRANCH   8   9
HETATM    9  C   UNL     1      -9.309  16.468  65.964  1.00  0.00    -0.302 C  
HETATM   10  C   UNL     1      -8.413  15.619  66.501  1.00  0.00    -0.311 C  
BRANCH  10  11
HETATM   11  C   UNL     1      -8.692  14.241  67.036  1.00  0.00    -0.231 C  
BRANCH  11  12
HETATM   12  C   UNL     1      -7.489  13.412  67.424  1.00  0.00    -0.134 C  
HETATM   13  C   UNL     1      -7.424  12.301  68.183  1.00  0.00    -0.112 C  
BRANCH  13  14
HETATM   14  C   UNL     1      -8.571  11.669  68.907  1.00  0.00     0.067 C  
BRANCH  14  15
HETATM   15  C   UNL     1      -9.089  10.423  68.254  1.00  0.00    -0.145 C  
HETATM   16  C   UNL     1     -10.110   9.707  68.753  1.00  0.00    -0.193 C  
BRANCH  16  17
HETATM   17  C   UNL     1     -10.769  10.064  70.053  1.00  0.00    -0.348 C  
BRANCH  17  18
HETATM   18  C   UNL     1     -10.650   8.980  71.110  1.00  0.00    -0.361 C  
BRANCH  18  19
HETATM   19  C   UNL     1     -10.183   7.678  70.466  1.00  0.00    -0.201 C  
HETATM   20  C   UNL     1     -11.288   6.649  70.430  1.00  0.00    -0.365 C  
HETATM   21  O   UNL     1     -12.415   6.814  70.867  1.00  0.00    -0.364 OA 
HETATM   22  O   UNL     1     -10.890   5.498  69.847  1.00  0.00    -0.326 OA 
ENDBRANCH  18  19
ENDBRANCH  17  18
ENDBRANCH  16  17
ENDBRANCH  14  15
ENDBRANCH  13  14
ENDBRANCH  11  12
ENDBRANCH  10  11
ENDBRANCH   8   9
ENDBRANCH   7   8
ENDBRANCH   5   6
ENDBRANCH   4   5
ENDBRANCH   2   3
TORSDOF 12
ENDMDL
MODEL      221
REMARK 921   NORMALIZED FREE ENERGY PREDICTED BY IDOCK:   -3.84 KCAL/MOL
REMARK 922        TOTAL FREE ENERGY PREDICTED BY IDOCK:   -9.05 KCAL/MOL
REMARK 923 INTER-LIGAND FREE ENERGY PREDICTED BY IDOCK:   -6.85 KCAL/MOL
REMARK 924 INTRA-LIGAND FREE ENERGY PREDICTED BY IDOCK:   -2.19 KCAL/MOL
REMARK 927      BINDING AFFINITY PREDICTED BY RF-SCORE:    0.00 PKD
ROOT
HETATM    1  C   UNL     1     -10.084  11.046  63.266  1.00  0.00    -0.400 C  
HETATM    2  C   UNL     1     -11.317  11.790  63.755  1.00  0.00    -0.524 C  
ENDROOT
BRANCH   2   3
HETATM    3  C   UNL     1     -11.429  11.769  65.254  1.00  0.00    -0.250 C  
HETATM    4  C   UNL     1     -11.884  12.779  66.019  1.00  0.00    -0.495 C  
BRANCH   4   5
HETATM    5  C   UNL     1     -12.389  14.085  65.478  1.00  0.00    -0.503 C  
BRANCH   5   6
HETATM    6  C   UNL     1     -11.307  14.924  64.856  1.00  0.00    -0.415 C  
HETATM    7  C   UNL     1     -10.574  15.841  65.505  1.00  0.00    -0.424 C  
BRANCH   7   8
HETATM    8  C   UNL     1     -10.669  16.061  66.984  1.00  0.00    -0.277 C  
BRANCH   8   9
HETATM    9  C   UNL     1      -9.321  16.198  67.624  1.00  0.00    -0.214 C  
HETATM   10  C   UNL     1      -8.600  15.196  68.160  1.00  0.00    -0.158 C  
BRANCH  10  11
HETATM   11  C   UNL     1      -9.001  13.748  68.244  1.00  0.00    -0.186 C  
BRANCH  11  12
HETATM   12  C   UNL     1      -8.369  12.815  67.236  1.00  0.00    -0.187 C  
HETATM   13  C   UNL     1      -8.400  11.469  67.180  1.00  0.00    -0.160 C  
BRANCH  13  14
HETATM   14  C   UNL     1      -9.025  10.566  68.197  1.00  0.00    -0.138 C  
BRANCH  14  15
HETATM   15  C   UNL     1      -9.501   9.259  67.637  1.00  0.00    -0.156 C  
HETATM   16  C   UNL     1      -9.908   8.238  68.410  1.00  0.00    -0.187 C  
BRANCH  16  17
HETATM   17  C   UNL     1      -9.848   8.305  69.908  1.00  0.00    -0.186 C  
BRANCH  17  18
HETATM   18  C   UNL     1     -11.216   8.361  70.566  1.00  0.00    -0.252 C  
BRANCH  18  19
HETATM   19  C   UNL     1     -11.451   9.750  71.153  1.00  0.00    -0.472 C  
HETATM   20  C   UNL     1     -12.903   9.963  71.512  1.00  0.00    -0.421 C  
HETATM   21  O   UNL     1     -13.793   9.145  71.349  1.00  0.00    -0.359 OA 
HETATM   22  O   UNL     1     -13.119  11.183  72.046  1.00  0.00    -0.492 OA 
ENDBRANCH  18  19
ENDBRANCH  17  18
ENDBRANCH  16  17
ENDBRANCH  14  15
ENDBRANCH  13  14
ENDBRANCH  11  12
ENDBRANCH  10  11
ENDBRANCH   8   9
ENDBRANCH   7   8
ENDBRANCH   5   6
ENDBRANCH   4   5
ENDBRANCH   2   3
TORSDOF 12
ENDMDL
MODEL      222
REMARK 921   NORMALIZED FREE ENERGY PREDICTED BY IDOCK:   -3.84 KCAL/MOL
REMARK 922        TOTAL FREE ENERGY PREDICTED BY IDOCK:   -9.04 KCAL/MOL
REMARK 923 INTER-LIGAND FREE ENERGY PREDICTED BY IDOCK:   -6.22 KCAL/MOL
REMARK 924 INTRA-LIGAND FREE ENERGY PREDICTED BY IDOCK:   -2.82 KCAL/MOL
REMARK 927      BINDING AFFINITY PREDICTED BY RF-SCORE:    0.00 PKD
ROOT
HETATM    1  C   UNL     1      -8.946   9.474  70.179  1.00  0.00    -0.269 C  
HETATM    2  C   UNL     1     -10.357  10.003  70.380  1.00  0.00    -0.268 C  
ENDROOT
BRANCH   2   3
HETATM    3  C   UNL     1     -11.150   9.987  69.102  1.00  0.00    -0.232 C  
HETATM    4  C   UNL     1     -11.575  11.075  68.432  1.00  0.00    -0.372 C  
BRANCH   4   5
HETATM    5  C   UNL     1     -11.288  12.488  68.848  1.00  0.00    -0.346 C  
BRANCH   5   6
HETATM    6  C   UNL     1     -10.000  13.019  68.281  1.00  0.00    -0.235 C  
HETATM    7  C   UNL     1      -9.770  13.258  66.982  1.00  0.00    -0.238 C  
BRANCH   7   8
HETATM    8  C   UNL     1     -10.831  13.132  65.931  1.00  0.00    -0.288 C  
BRANCH   8   9
HETATM    9  C   UNL     1     -10.286  12.612  64.636  1.00  0.00    -0.354 C  
HETATM   10  C   UNL     1      -9.941  11.335  64.384  1.00  0.00    -0.338 C  
BRANCH  10  11
HETATM   11  C   UNL     1     -10.013  10.181  65.347  1.00  0.00    -0.377 C  
BRANCH  11  12
HETATM   12  C   UNL     1      -8.819   9.985  66.254  1.00  0.00    -0.160 C  
HETATM   13  C   UNL     1      -8.250   8.843  66.685  1.00  0.00    -0.111 C  
BRANCH  13  14
HETATM   14  C   UNL     1      -8.753   7.460  66.413  1.00  0.00    -0.154 C  
BRANCH  14  15
HETATM   15  C   UNL     1     -10.206   7.267  66.732  1.00  0.00    -0.305 C  
HETATM   16  C   UNL     1     -10.633   6.594  67.813  1.00  0.00    -0.311 C  
BRANCH  16  17
HETATM   17  C   UNL     1      -9.680   5.917  68.754  1.00  0.00    -0.161 C  
BRANCH  17  18
HETATM   18  C   UNL     1     -10.232   5.752  70.160  1.00  0.00    -0.301 C  
BRANCH  18  19
HETATM   19  C   UNL     1     -11.618   6.383  70.249  1.00  0.00    -0.451 C  
HETATM   20  C   UNL     1     -12.062   6.551  71.683  1.00  0.00    -0.328 C  
HETATM   21  O   UNL     1     -11.412   6.219  72.661  1.00  0.00    -0.267 OA 
HETATM   22  O   UNL     1     -13.280   7.124  71.773  1.00  0.00    -0.355 OA 
ENDBRANCH  18  19
ENDBRANCH  17  18
ENDBRANCH  16  17
ENDBRANCH  14  15
ENDBRANCH  13  14
ENDBRANCH  11  12
ENDBRANCH  10  11
ENDBRANCH   8   9
ENDBRANCH   7   8
ENDBRANCH   5   6
ENDBRANCH   4   5
ENDBRANCH   2   3
TORSDOF 12
ENDMDL
MODEL      223
REMARK 921   NORMALIZED FREE ENERGY PREDICTED BY IDOCK:   -3.84 KCAL/MOL
REMARK 922        TOTAL FREE ENERGY PREDICTED BY IDOCK:   -9.04 KCAL/MOL
REMARK 923 INTER-LIGAND FREE ENERGY PREDICTED BY IDOCK:   -6.77 KCAL/MOL
REMARK 924 INTRA-LIGAND FREE ENERGY PREDICTED BY IDOCK:   -2.27 KCAL/MOL
REMARK 927      BINDING AFFINITY PREDICTED BY RF-SCORE:    0.00 PKD
ROOT
HETATM    1  C   UNL     1     -11.044   4.662  73.368  1.00  0.00    -0.418 C  
HETATM    2  C   UNL     1     -10.765   5.799  72.397  1.00  0.00    -0.280 C  
ENDROOT
BRANCH   2   3
HETATM    3  C   UNL     1     -12.033   6.433  71.895  1.00  0.00    -0.381 C  
HETATM    4  C   UNL     1     -12.258   7.757  71.794  1.00  0.00    -0.338 C  
BRANCH   4   5
HETATM    5  C   UNL     1     -11.249   8.813  72.140  1.00  0.00    -0.408 C  
BRANCH   5   6
HETATM    6  C   UNL     1     -11.043   9.816  71.038  1.00  0.00    -0.431 C  
HETATM    7  C   UNL     1     -10.193   9.669  70.012  1.00  0.00    -0.296 C  
BRANCH   7   8
HETATM    8  C   UNL     1      -9.415   8.411  69.771  1.00  0.00    -0.162 C  
BRANCH   8   9
HETATM    9  C   UNL     1     -10.061   7.533  68.744  1.00  0.00    -0.191 C  
HETATM   10  C   UNL     1      -9.686   7.423  67.456  1.00  0.00    -0.186 C  
BRANCH  10  11
HETATM   11  C   UNL     1      -8.563   8.166  66.782  1.00  0.00    -0.136 C  
BRANCH  11  12
HETATM   12  C   UNL     1      -8.921   8.942  65.536  1.00  0.00    -0.246 C  
HETATM   13  C   UNL     1      -9.648  10.069  65.410  1.00  0.00    -0.342 C  
BRANCH  13  14
HETATM   14  C   UNL     1     -10.358  10.780  66.519  1.00  0.00    -0.300 C  
BRANCH  14  15
HETATM   15  C   UNL     1      -9.517  11.802  67.223  1.00  0.00    -0.173 C  
HETATM   16  C   UNL     1     -10.023  12.688  68.097  1.00  0.00    -0.225 C  
BRANCH  16  17
HETATM   17  C   UNL     1     -11.493  12.770  68.383  1.00  0.00    -0.349 C  
BRANCH  17  18
HETATM   18  C   UNL     1     -12.125  14.078  67.939  1.00  0.00    -0.314 C  
BRANCH  18  19
HETATM   19  C   UNL     1     -11.192  14.801  66.973  1.00  0.00    -0.347 C  
HETATM   20  C   UNL     1     -11.619  14.608  65.537  1.00  0.00    -0.335 C  
HETATM   21  O   UNL     1     -12.581  13.951  65.175  1.00  0.00    -0.533 OA 
HETATM   22  O   UNL     1     -10.809  15.257  64.675  1.00  0.00    -0.379 OA 
ENDBRANCH  18  19
ENDBRANCH  17  18
ENDBRANCH  16  17
ENDBRANCH  14  15
ENDBRANCH  13  14
ENDBRANCH  11  12
ENDBRANCH  10  11
ENDBRANCH   8   9
ENDBRANCH   7   8
ENDBRANCH   5   6
ENDBRANCH   4   5
ENDBRANCH   2   3
TORSDOF 12
ENDMDL
MODEL      224
REMARK 921   NORMALIZED FREE ENERGY PREDICTED BY IDOCK:   -3.83 KCAL/MOL
REMARK 922        TOTAL FREE ENERGY PREDICTED BY IDOCK:   -9.03 KCAL/MOL
REMARK 923 INTER-LIGAND FREE ENERGY PREDICTED BY IDOCK:   -7.76 KCAL/MOL
REMARK 924 INTRA-LIGAND FREE ENERGY PREDICTED BY IDOCK:   -1.27 KCAL/MOL
REMARK 927      BINDING AFFINITY PREDICTED BY RF-SCORE:    0.00 PKD
ROOT
HETATM    1  C   UNL     1      -9.193   7.780  66.829  1.00  0.00    -0.202 C  
HETATM    2  C   UNL     1     -10.388   7.301  67.637  1.00  0.00    -0.290 C  
ENDROOT
BRANCH   2   3
HETATM    3  C   UNL     1     -10.143   5.955  68.260  1.00  0.00    -0.203 C  
HETATM    4  C   UNL     1     -10.565   5.569  69.479  1.00  0.00    -0.366 C  
BRANCH   4   5
HETATM    5  C   UNL     1     -11.385   6.426  70.398  1.00  0.00    -0.453 C  
BRANCH   5   6
HETATM    6  C   UNL     1     -10.582   7.030  71.516  1.00  0.00    -0.232 C  
HETATM    7  C   UNL     1     -10.455   8.344  71.751  1.00  0.00    -0.353 C  
BRANCH   7   8
HETATM    8  C   UNL     1     -11.208   9.385  70.981  1.00  0.00    -0.412 C  
BRANCH   8   9
HETATM    9  C   UNL     1     -12.649   9.459  71.386  1.00  0.00    -0.430 C  
HETATM   10  C   UNL     1     -13.354  10.589  71.580  1.00  0.00    -0.423 C  
BRANCH  10  11
HETATM   11  C   UNL     1     -12.842  11.999  71.451  1.00  0.00    -0.391 C  
BRANCH  11  12
HETATM   12  C   UNL     1     -13.416  13.015  72.412  1.00  0.00    -0.615 C  
HETATM   13  C   UNL     1     -13.163  14.334  72.514  1.00  0.00    -0.581 C  
BRANCH  13  14
HETATM   14  C   UNL     1     -12.150  15.094  71.716  1.00  0.00    -0.437 C  
BRANCH  14  15
HETATM   15  C   UNL     1     -12.698  15.700  70.458  1.00  0.00    -0.391 C  
HETATM   16  C   UNL     1     -12.029  15.694  69.293  1.00  0.00    -0.338 C  
BRANCH  16  17
HETATM   17  C   UNL     1     -10.639  15.139  69.179  1.00  0.00    -0.256 C  
BRANCH  17  18
HETATM   18  C   UNL     1      -9.556  16.202  69.236  1.00  0.00    -0.235 C  
BRANCH  18  19
HETATM   19  C   UNL     1     -10.118  17.539  68.763  1.00  0.00    -0.363 C  
HETATM   20  C   UNL     1      -9.293  18.123  67.640  1.00  0.00    -0.260 C  
HETATM   21  O   UNL     1      -8.292  17.610  67.165  1.00  0.00    -0.210 OA 
HETATM   22  O   UNL     1      -9.790  19.298  67.203  1.00  0.00    -0.315 OA 
ENDBRANCH  18  19
ENDBRANCH  17  18
ENDBRANCH  16  17
ENDBRANCH  14  15
ENDBRANCH  13  14
ENDBRANCH  11  12
ENDBRANCH  10  11
ENDBRANCH   8   9
ENDBRANCH   7   8
ENDBRANCH   5   6
ENDBRANCH   4   5
ENDBRANCH   2   3
TORSDOF 12
ENDMDL
MODEL      225
REMARK 921   NORMALIZED FREE ENERGY PREDICTED BY IDOCK:   -3.83 KCAL/MOL
REMARK 922        TOTAL FREE ENERGY PREDICTED BY IDOCK:   -9.03 KCAL/MOL
REMARK 923 INTER-LIGAND FREE ENERGY PREDICTED BY IDOCK:   -6.34 KCAL/MOL
REMARK 924 INTRA-LIGAND FREE ENERGY PREDICTED BY IDOCK:   -2.69 KCAL/MOL
REMARK 927      BINDING AFFINITY PREDICTED BY RF-SCORE:    0.00 PKD
ROOT
HETATM    1  C   UNL     1      -7.026  10.985  69.501  1.00  0.00    -0.126 C  
HETATM    2  C   UNL     1      -7.323   9.845  68.540  1.00  0.00    -0.078 C  
ENDROOT
BRANCH   2   3
HETATM    3  C   UNL     1      -6.706  10.074  67.188  1.00  0.00    -0.074 C  
HETATM    4  C   UNL     1      -7.300  10.695  66.152  1.00  0.00    -0.138 C  
BRANCH   4   5
HETATM    5  C   UNL     1      -8.676  11.291  66.202  1.00  0.00    -0.179 C  
BRANCH   5   6
HETATM    6  C   UNL     1      -9.735  10.381  65.644  1.00  0.00    -0.294 C  
HETATM    7  C   UNL     1     -10.465  10.629  64.547  1.00  0.00    -0.266 C  
BRANCH   7   8
HETATM    8  C   UNL     1     -10.228  11.815  63.662  1.00  0.00    -0.461 C  
BRANCH   8   9
HETATM    9  C   UNL     1     -11.438  12.692  63.552  1.00  0.00    -0.557 C  
HETATM   10  C   UNL     1     -11.722  13.742  64.344  1.00  0.00    -0.436 C  
BRANCH  10  11
HETATM   11  C   UNL     1     -10.902  14.239  65.504  1.00  0.00    -0.325 C  
BRANCH  11  12
HETATM   12  C   UNL     1     -11.668  14.699  66.723  1.00  0.00    -0.355 C  
HETATM   13  C   UNL     1     -11.975  14.022  67.847  1.00  0.00    -0.387 C  
BRANCH  13  14
HETATM   14  C   UNL     1     -11.680  12.578  68.105  1.00  0.00    -0.400 C  
BRANCH  14  15
HETATM   15  C   UNL     1     -11.840  12.172  69.540  1.00  0.00    -0.386 C  
HETATM   16  C   UNL     1     -11.487  10.960  70.000  1.00  0.00    -0.411 C  
BRANCH  16  17
HETATM   17  C   UNL     1     -10.968   9.886  69.089  1.00  0.00    -0.233 C  
BRANCH  17  18
HETATM   18  C   UNL     1     -10.530   8.630  69.823  1.00  0.00    -0.220 C  
BRANCH  18  19
HETATM   19  C   UNL     1     -10.336   8.938  71.305  1.00  0.00    -0.355 C  
HETATM   20  C   UNL     1      -9.045   8.353  71.829  1.00  0.00    -0.218 C  
HETATM   21  O   UNL     1      -8.251   7.703  71.169  1.00  0.00    -0.098 OA 
HETATM   22  O   UNL     1      -8.856   8.633  73.135  1.00  0.00    -0.343 OA 
ENDBRANCH  18  19
ENDBRANCH  17  18
ENDBRANCH  16  17
ENDBRANCH  14  15
ENDBRANCH  13  14
ENDBRANCH  11  12
ENDBRANCH  10  11
ENDBRANCH   8   9
ENDBRANCH   7   8
ENDBRANCH   5   6
ENDBRANCH   4   5
ENDBRANCH   2   3
TORSDOF 12
ENDMDL
MODEL      226
REMARK 921   NORMALIZED FREE ENERGY PREDICTED BY IDOCK:   -3.83 KCAL/MOL
REMARK 922        TOTAL FREE ENERGY PREDICTED BY IDOCK:   -9.02 KCAL/MOL
REMARK 923 INTER-LIGAND FREE ENERGY PREDICTED BY IDOCK:   -6.40 KCAL/MOL
REMARK 924 INTRA-LIGAND FREE ENERGY PREDICTED BY IDOCK:   -2.62 KCAL/MOL
REMARK 927      BINDING AFFINITY PREDICTED BY RF-SCORE:    0.00 PKD
ROOT
HETATM    1  C   UNL     1      -6.655   9.896  64.263  1.00  0.00    -0.126 C  
HETATM    2  C   UNL     1      -7.679  10.376  65.279  1.00  0.00    -0.124 C  
ENDROOT
BRANCH   2   3
HETATM    3  C   UNL     1      -9.026   9.744  65.062  1.00  0.00    -0.247 C  
HETATM    4  C   UNL     1     -10.001  10.234  64.273  1.00  0.00    -0.293 C  
BRANCH   4   5
HETATM    5  C   UNL     1      -9.875  11.485  63.453  1.00  0.00    -0.422 C  
BRANCH   5   6
HETATM    6  C   UNL     1     -11.180  12.212  63.280  1.00  0.00    -0.409 C  
HETATM    7  C   UNL     1     -11.625  13.195  64.076  1.00  0.00    -0.481 C  
BRANCH   7   8
HETATM    8  C   UNL     1     -10.805  13.779  65.186  1.00  0.00    -0.349 C  
BRANCH   8   9
HETATM    9  C   UNL     1     -11.111  13.147  66.510  1.00  0.00    -0.317 C  
HETATM   10  C   UNL     1     -10.203  12.766  67.427  1.00  0.00    -0.222 C  
BRANCH  10  11
HETATM   11  C   UNL     1      -8.707  12.877  67.308  1.00  0.00    -0.204 C  
BRANCH  11  12
HETATM   12  C   UNL     1      -8.037  13.910  68.185  1.00  0.00    -0.150 C  
HETATM   13  C   UNL     1      -7.943  15.243  68.016  1.00  0.00    -0.135 C  
BRANCH  13  14
HETATM   14  C   UNL     1      -8.432  16.011  66.828  1.00  0.00    -0.295 C  
BRANCH  14  15
HETATM   15  C   UNL     1      -9.006  17.355  67.167  1.00  0.00    -0.248 C  
HETATM   16  C   UNL     1     -10.180  17.508  67.801  1.00  0.00    -0.349 C  
BRANCH  16  17
HETATM   17  C   UNL     1     -11.048  16.337  68.159  1.00  0.00    -0.329 C  
BRANCH  17  18
HETATM   18  C   UNL     1     -11.468  16.318  69.618  1.00  0.00    -0.213 C  
BRANCH  18  19
HETATM   19  C   UNL     1     -12.147  14.991  69.944  1.00  0.00    -0.376 C  
HETATM   20  C   UNL     1     -12.052  14.665  71.416  1.00  0.00    -0.355 C  
HETATM   21  O   UNL     1     -11.497  15.358  72.253  1.00  0.00    -0.446 OA 
HETATM   22  O   UNL     1     -12.663  13.500  71.718  1.00  0.00    -0.312 OA 
ENDBRANCH  18  19
ENDBRANCH  17  18
ENDBRANCH  16  17
ENDBRANCH  14  15
ENDBRANCH  13  14
ENDBRANCH  11  12
ENDBRANCH  10  11
ENDBRANCH   8   9
ENDBRANCH   7   8
ENDBRANCH   5   6
ENDBRANCH   4   5
ENDBRANCH   2   3
TORSDOF 12
ENDMDL
MODEL      227
REMARK 921   NORMALIZED FREE ENERGY PREDICTED BY IDOCK:   -3.83 KCAL/MOL
REMARK 922        TOTAL FREE ENERGY PREDICTED BY IDOCK:   -9.02 KCAL/MOL
REMARK 923 INTER-LIGAND FREE ENERGY PREDICTED BY IDOCK:   -7.06 KCAL/MOL
REMARK 924 INTRA-LIGAND FREE ENERGY PREDICTED BY IDOCK:   -1.96 KCAL/MOL
REMARK 927      BINDING AFFINITY PREDICTED BY RF-SCORE:    0.00 PKD
ROOT
HETATM    1  C   UNL     1      -8.042   7.969  72.630  1.00  0.00    -0.197 C  
HETATM    2  C   UNL     1      -9.196   8.778  72.060  1.00  0.00    -0.294 C  
ENDROOT
BRANCH   2   3
HETATM    3  C   UNL     1     -10.531   8.217  72.466  1.00  0.00    -0.409 C  
HETATM    4  C   UNL     1     -11.093   7.099  71.968  1.00  0.00    -0.278 C  
BRANCH   4   5
HETATM    5  C   UNL     1     -10.447   6.215  70.942  1.00  0.00    -0.282 C  
BRANCH   5   6
HETATM    6  C   UNL     1     -11.247   6.098  69.674  1.00  0.00    -0.488 C  
HETATM    7  C   UNL     1     -10.994   6.765  68.539  1.00  0.00    -0.258 C  
BRANCH   7   8
HETATM    8  C   UNL     1      -9.788   7.636  68.358  1.00  0.00    -0.176 C  
BRANCH   8   9
HETATM    9  C   UNL     1      -9.024   7.296  67.115  1.00  0.00    -0.132 C  
HETATM   10  C   UNL     1      -8.976   8.040  65.994  1.00  0.00    -0.205 C  
BRANCH  10  11
HETATM   11  C   UNL     1      -9.687   9.344  65.752  1.00  0.00    -0.354 C  
BRANCH  11  12
HETATM   12  C   UNL     1      -8.903  10.603  66.043  1.00  0.00    -0.187 C  
HETATM   13  C   UNL     1      -9.324  11.881  66.090  1.00  0.00    -0.228 C  
BRANCH  13  14
HETATM   14  C   UNL     1     -10.705  12.359  65.767  1.00  0.00    -0.301 C  
BRANCH  14  15
HETATM   15  C   UNL     1     -11.321  13.207  66.839  1.00  0.00    -0.355 C  
HETATM   16  C   UNL     1     -11.691  12.718  68.034  1.00  0.00    -0.405 C  
BRANCH  16  17
HETATM   17  C   UNL     1     -11.579  11.258  68.364  1.00  0.00    -0.378 C  
BRANCH  17  18
HETATM   18  C   UNL     1     -11.567  10.973  69.856  1.00  0.00    -0.416 C  
BRANCH  18  19
HETATM   19  C   UNL     1     -12.283  12.095  70.602  1.00  0.00    -0.392 C  
HETATM   20  C   UNL     1     -13.104  11.561  71.752  1.00  0.00    -0.398 C  
HETATM   21  O   UNL     1     -13.204  10.383  72.055  1.00  0.00    -0.456 OA 
HETATM   22  O   UNL     1     -13.730  12.547  72.429  1.00  0.00    -0.472 OA 
ENDBRANCH  18  19
ENDBRANCH  17  18
ENDBRANCH  16  17
ENDBRANCH  14  15
ENDBRANCH  13  14
ENDBRANCH  11  12
ENDBRANCH  10  11
ENDBRANCH   8   9
ENDBRANCH   7   8
ENDBRANCH   5   6
ENDBRANCH   4   5
ENDBRANCH   2   3
TORSDOF 12
ENDMDL
MODEL      228
REMARK 921   NORMALIZED FREE ENERGY PREDICTED BY IDOCK:   -3.80 KCAL/MOL
REMARK 922        TOTAL FREE ENERGY PREDICTED BY IDOCK:   -8.98 KCAL/MOL
REMARK 923 INTER-LIGAND FREE ENERGY PREDICTED BY IDOCK:   -7.21 KCAL/MOL
REMARK 924 INTRA-LIGAND FREE ENERGY PREDICTED BY IDOCK:   -1.77 KCAL/MOL
REMARK 927      BINDING AFFINITY PREDICTED BY RF-SCORE:    0.00 PKD
ROOT
HETATM    1  C   UNL     1      -7.121   3.663  67.532  1.00  0.00    -0.059 C  
HETATM    2  C   UNL     1      -8.565   3.567  67.998  1.00  0.00    -0.118 C  
ENDROOT
BRANCH   2   3
HETATM    3  C   UNL     1      -9.535   3.745  66.863  1.00  0.00    -0.224 C  
HETATM    4  C   UNL     1     -10.232   4.866  66.599  1.00  0.00    -0.291 C  
BRANCH   4   5
HETATM    5  C   UNL     1     -10.119   6.136  67.391  1.00  0.00    -0.190 C  
BRANCH   5   6
HETATM    6  C   UNL     1     -11.274   6.353  68.329  1.00  0.00    -0.276 C  
HETATM    7  C   UNL     1     -11.207   6.272  69.665  1.00  0.00    -0.506 C  
BRANCH   7   8
HETATM    8  C   UNL     1      -9.920   6.067  70.405  1.00  0.00    -0.233 C  
BRANCH   8   9
HETATM    9  C   UNL     1      -9.115   7.327  70.503  1.00  0.00    -0.158 C  
HETATM   10  C   UNL     1      -9.216   8.251  71.476  1.00  0.00    -0.231 C  
BRANCH  10  11
HETATM   11  C   UNL     1     -10.163   8.222  72.646  1.00  0.00    -0.368 C  
BRANCH  11  12
HETATM   12  C   UNL     1     -11.633   8.366  72.327  1.00  0.00    -0.453 C  
HETATM   13  C   UNL     1     -12.251   9.259  71.530  1.00  0.00    -0.439 C  
BRANCH  13  14
HETATM   14  C   UNL     1     -11.594  10.403  70.824  1.00  0.00    -0.450 C  
BRANCH  14  15
HETATM   15  C   UNL     1     -11.272  10.125  69.385  1.00  0.00    -0.265 C  
HETATM   16  C   UNL     1     -11.416  11.042  68.415  1.00  0.00    -0.378 C  
BRANCH  16  17
HETATM   17  C   UNL     1     -11.983  12.404  68.687  1.00  0.00    -0.272 C  
BRANCH  17  18
HETATM   18  C   UNL     1     -11.695  13.411  67.587  1.00  0.00    -0.397 C  
BRANCH  18  19
HETATM   19  C   UNL     1     -11.199  12.686  66.339  1.00  0.00    -0.350 C  
HETATM   20  C   UNL     1     -12.083  12.964  65.146  1.00  0.00    -0.445 C  
HETATM   21  O   UNL     1     -13.079  13.669  65.161  1.00  0.00    -0.750 OA 
HETATM   22  O   UNL     1     -11.644  12.340  64.033  1.00  0.00    -0.354 OA 
ENDBRANCH  18  19
ENDBRANCH  17  18
ENDBRANCH  16  17
ENDBRANCH  14  15
ENDBRANCH  13  14
ENDBRANCH  11  12
ENDBRANCH  10  11
ENDBRANCH   8   9
ENDBRANCH   7   8
ENDBRANCH   5   6
ENDBRANCH   4   5
ENDBRANCH   2   3
TORSDOF 12
ENDMDL
MODEL      229
REMARK 921   NORMALIZED FREE ENERGY PREDICTED BY IDOCK:   -3.78 KCAL/MOL
REMARK 922        TOTAL FREE ENERGY PREDICTED BY IDOCK:   -8.94 KCAL/MOL
REMARK 923 INTER-LIGAND FREE ENERGY PREDICTED BY IDOCK:   -7.09 KCAL/MOL
REMARK 924 INTRA-LIGAND FREE ENERGY PREDICTED BY IDOCK:   -1.85 KCAL/MOL
REMARK 927      BINDING AFFINITY PREDICTED BY RF-SCORE:    0.00 PKD
ROOT
HETATM    1  C   UNL     1     -11.580  14.358  67.483  1.00  0.00    -0.398 C  
HETATM    2  C   UNL     1     -12.083  13.392  66.422  1.00  0.00    -0.464 C  
ENDROOT
BRANCH   2   3
HETATM    3  C   UNL     1     -12.355  14.084  65.115  1.00  0.00    -0.468 C  
HETATM    4  C   UNL     1     -12.143  13.559  63.893  1.00  0.00    -0.493 C  
BRANCH   4   5
HETATM    5  C   UNL     1     -11.629  12.171  63.650  1.00  0.00    -0.575 C  
BRANCH   5   6
HETATM    6  C   UNL     1     -10.132  12.070  63.748  1.00  0.00    -0.419 C  
HETATM    7  C   UNL     1      -9.467  11.181  64.499  1.00  0.00    -0.254 C  
BRANCH   7   8
HETATM    8  C   UNL     1     -10.149  10.082  65.256  1.00  0.00    -0.299 C  
BRANCH   8   9
HETATM    9  C   UNL     1     -10.213  10.361  66.727  1.00  0.00    -0.282 C  
HETATM   10  C   UNL     1      -9.808   9.528  67.703  1.00  0.00    -0.206 C  
BRANCH  10  11
HETATM   11  C   UNL     1      -9.230   8.150  67.523  1.00  0.00    -0.154 C  
BRANCH  11  12
HETATM   12  C   UNL     1     -10.219   7.028  67.302  1.00  0.00    -0.301 C  
HETATM   13  C   UNL     1     -10.933   6.328  68.203  1.00  0.00    -0.412 C  
BRANCH  13  14
HETATM   14  C   UNL     1     -10.833   6.459  69.691  1.00  0.00    -0.380 C  
BRANCH  14  15
HETATM   15  C   UNL     1     -12.142   6.745  70.365  1.00  0.00    -0.270 C  
HETATM   16  C   UNL     1     -12.260   7.587  71.405  1.00  0.00    -0.363 C  
BRANCH  16  17
HETATM   17  C   UNL     1     -11.067   8.257  72.022  1.00  0.00    -0.379 C  
BRANCH  17  18
HETATM   18  C   UNL     1     -10.556   7.555  73.268  1.00  0.00    -0.438 C  
BRANCH  18  19
HETATM   19  C   UNL     1      -9.107   7.124  73.061  1.00  0.00    -0.166 C  
HETATM   20  C   UNL     1      -8.998   5.635  72.831  1.00  0.00    -0.123 C  
HETATM   21  O   UNL     1      -9.938   4.856  72.820  1.00  0.00    -0.153 OA 
HETATM   22  O   UNL     1      -7.722   5.245  72.631  1.00  0.00    -0.095 OA 
ENDBRANCH  18  19
ENDBRANCH  17  18
ENDBRANCH  16  17
ENDBRANCH  14  15
ENDBRANCH  13  14
ENDBRANCH  11  12
ENDBRANCH  10  11
ENDBRANCH   8   9
ENDBRANCH   7   8
ENDBRANCH   5   6
ENDBRANCH   4   5
ENDBRANCH   2   3
TORSDOF 12
ENDMDL
MODEL      230
REMARK 921   NORMALIZED FREE ENERGY PREDICTED BY IDOCK:   -3.78 KCAL/MOL
REMARK 922        TOTAL FREE ENERGY PREDICTED BY IDOCK:   -8.93 KCAL/MOL
REMARK 923 INTER-LIGAND FREE ENERGY PREDICTED BY IDOCK:   -7.30 KCAL/MOL
REMARK 924 INTRA-LIGAND FREE ENERGY PREDICTED BY IDOCK:   -1.63 KCAL/MOL
REMARK 927      BINDING AFFINITY PREDICTED BY RF-SCORE:    0.00 PKD
ROOT
HETATM    1  C   UNL     1     -10.505  13.166  64.640  1.00  0.00    -0.411 C  
HETATM    2  C   UNL     1     -10.143  14.298  65.588  1.00  0.00    -0.364 C  
ENDROOT
BRANCH   2   3
HETATM    3  C   UNL     1     -11.317  14.730  66.422  1.00  0.00    -0.339 C  
HETATM    4  C   UNL     1     -11.691  14.177  67.592  1.00  0.00    -0.421 C  
BRANCH   4   5
HETATM    5  C   UNL     1     -10.961  13.053  68.265  1.00  0.00    -0.285 C  
BRANCH   5   6
HETATM    6  C   UNL     1     -11.640  11.722  68.096  1.00  0.00    -0.391 C  
HETATM    7  C   UNL     1     -11.933  10.874  69.092  1.00  0.00    -0.359 C  
BRANCH   7   8
HETATM    8  C   UNL     1     -11.719  11.209  70.536  1.00  0.00    -0.392 C  
BRANCH   8   9
HETATM    9  C   UNL     1     -12.929  10.921  71.371  1.00  0.00    -0.527 C  
HETATM   10  C   UNL     1     -13.262   9.722  71.886  1.00  0.00    -0.545 C  
BRANCH  10  11
HETATM   11  C   UNL     1     -12.505   8.432  71.716  1.00  0.00    -0.375 C  
BRANCH  11  12
HETATM   12  C   UNL     1     -11.458   8.123  72.762  1.00  0.00    -0.397 C  
HETATM   13  C   UNL     1     -10.586   7.098  72.822  1.00  0.00    -0.303 C  
BRANCH  13  14
HETATM   14  C   UNL     1     -10.521   5.948  71.866  1.00  0.00    -0.267 C  
BRANCH  14  15
HETATM   15  C   UNL     1      -9.299   5.949  70.996  1.00  0.00    -0.178 C  
HETATM   16  C   UNL     1      -9.353   5.817  69.661  1.00  0.00    -0.166 C  
BRANCH  16  17
HETATM   17  C   UNL     1     -10.648   5.585  68.938  1.00  0.00    -0.258 C  
BRANCH  17  18
HETATM   18  C   UNL     1     -10.537   5.744  67.432  1.00  0.00    -0.340 C  
BRANCH  18  19
HETATM   19  C   UNL     1     -10.848   7.185  67.039  1.00  0.00    -0.382 C  
HETATM   20  C   UNL     1      -9.622   7.895  66.514  1.00  0.00    -0.212 C  
HETATM   21  O   UNL     1      -8.512   7.399  66.420  1.00  0.00    -0.117 OA 
HETATM   22  O   UNL     1      -9.890   9.166  66.149  1.00  0.00    -0.269 OA 
ENDBRANCH  18  19
ENDBRANCH  17  18
ENDBRANCH  16  17
ENDBRANCH  14  15
ENDBRANCH  13  14
ENDBRANCH  11  12
ENDBRANCH  10  11
ENDBRANCH   8   9
ENDBRANCH   7   8
ENDBRANCH   5   6
ENDBRANCH   4   5
ENDBRANCH   2   3
TORSDOF 12
ENDMDL
MODEL      231
REMARK 921   NORMALIZED FREE ENERGY PREDICTED BY IDOCK:   -3.78 KCAL/MOL
REMARK 922        TOTAL FREE ENERGY PREDICTED BY IDOCK:   -8.93 KCAL/MOL
REMARK 923 INTER-LIGAND FREE ENERGY PREDICTED BY IDOCK:   -7.03 KCAL/MOL
REMARK 924 INTRA-LIGAND FREE ENERGY PREDICTED BY IDOCK:   -1.90 KCAL/MOL
REMARK 927      BINDING AFFINITY PREDICTED BY RF-SCORE:    0.00 PKD
ROOT
HETATM    1  C   UNL     1      -8.631   4.678  66.064  1.00  0.00    -0.115 C  
HETATM    2  C   UNL     1      -9.328   6.017  66.245  1.00  0.00    -0.165 C  
ENDROOT
BRANCH   2   3
HETATM    3  C   UNL     1     -10.687   5.865  66.869  1.00  0.00    -0.395 C  
HETATM    4  C   UNL     1     -11.012   6.209  68.129  1.00  0.00    -0.398 C  
BRANCH   4   5
HETATM    5  C   UNL     1     -10.060   6.838  69.104  1.00  0.00    -0.180 C  
BRANCH   5   6
HETATM    6  C   UNL     1     -10.349   6.471  70.533  1.00  0.00    -0.240 C  
HETATM    7  C   UNL     1     -11.020   7.236  71.405  1.00  0.00    -0.256 C  
BRANCH   7   8
HETATM    8  C   UNL     1     -11.677   8.527  71.019  1.00  0.00    -0.310 C  
BRANCH   8   9
HETATM    9  C   UNL     1     -10.692   9.649  70.894  1.00  0.00    -0.402 C  
HETATM   10  C   UNL     1     -10.621  10.521  69.871  1.00  0.00    -0.261 C  
BRANCH  10  11
HETATM   11  C   UNL     1     -11.493  10.539  68.645  1.00  0.00    -0.290 C  
BRANCH  11  12
HETATM   12  C   UNL     1     -10.882   9.991  67.375  1.00  0.00    -0.313 C  
HETATM   13  C   UNL     1     -10.341  10.651  66.333  1.00  0.00    -0.291 C  
BRANCH  13  14
HETATM   14  C   UNL     1     -10.304  12.138  66.164  1.00  0.00    -0.264 C  
BRANCH  14  15
HETATM   15  C   UNL     1     -11.632  12.744  65.818  1.00  0.00    -0.419 C  
HETATM   16  C   UNL     1     -12.273  13.605  66.625  1.00  0.00    -0.437 C  
BRANCH  16  17
HETATM   17  C   UNL     1     -11.737  13.976  67.977  1.00  0.00    -0.394 C  
BRANCH  17  18
HETATM   18  C   UNL     1     -11.369  15.444  68.100  1.00  0.00    -0.353 C  
BRANCH  18  19
HETATM   19  C   UNL     1     -10.393  15.828  66.992  1.00  0.00    -0.292 C  
HETATM   20  C   UNL     1     -10.211  17.325  66.906  1.00  0.00    -0.322 C  
HETATM   21  O   UNL     1     -10.774  18.142  67.617  1.00  0.00    -0.416 OA 
HETATM   22  O   UNL     1      -9.337  17.674  65.939  1.00  0.00    -0.520 OA 
ENDBRANCH  18  19
ENDBRANCH  17  18
ENDBRANCH  16  17
ENDBRANCH  14  15
ENDBRANCH  13  14
ENDBRANCH  11  12
ENDBRANCH  10  11
ENDBRANCH   8   9
ENDBRANCH   7   8
ENDBRANCH   5   6
ENDBRANCH   4   5
ENDBRANCH   2   3
TORSDOF 12
ENDMDL
MODEL      232
REMARK 921   NORMALIZED FREE ENERGY PREDICTED BY IDOCK:   -3.76 KCAL/MOL
REMARK 922        TOTAL FREE ENERGY PREDICTED BY IDOCK:   -8.90 KCAL/MOL
REMARK 923 INTER-LIGAND FREE ENERGY PREDICTED BY IDOCK:   -6.97 KCAL/MOL
REMARK 924 INTRA-LIGAND FREE ENERGY PREDICTED BY IDOCK:   -1.93 KCAL/MOL
REMARK 927      BINDING AFFINITY PREDICTED BY RF-SCORE:    0.00 PKD
ROOT
HETATM    1  C   UNL     1     -10.626  11.360  63.438  1.00  0.00    -0.435 C  
HETATM    2  C   UNL     1      -9.553  11.188  64.501  1.00  0.00    -0.288 C  
ENDROOT
BRANCH   2   3
HETATM    3  C   UNL     1      -9.227   9.740  64.743  1.00  0.00    -0.319 C  
HETATM    4  C   UNL     1      -9.207   9.133  65.944  1.00  0.00    -0.286 C  
BRANCH   4   5
HETATM    5  C   UNL     1      -9.546   9.813  67.238  1.00  0.00    -0.194 C  
BRANCH   5   6
HETATM    6  C   UNL     1      -8.445  10.705  67.743  1.00  0.00    -0.116 C  
HETATM    7  C   UNL     1      -8.527  12.038  67.860  1.00  0.00    -0.160 C  
BRANCH   7   8
HETATM    8  C   UNL     1      -9.791  12.802  67.607  1.00  0.00    -0.214 C  
BRANCH   8   9
HETATM    9  C   UNL     1     -10.949  12.255  68.384  1.00  0.00    -0.270 C  
HETATM   10  C   UNL     1     -11.893  12.985  69.007  1.00  0.00    -0.362 C  
BRANCH  10  11
HETATM   11  C   UNL     1     -11.969  14.487  69.068  1.00  0.00    -0.334 C  
BRANCH  11  12
HETATM   12  C   UNL     1     -11.277  15.149  70.238  1.00  0.00    -0.306 C  
HETATM   13  C   UNL     1     -10.049  15.698  70.306  1.00  0.00    -0.021 C  
BRANCH  13  14
HETATM   14  C   UNL     1      -9.029  15.695  69.211  1.00  0.00    -0.267 C  
BRANCH  14  15
HETATM   15  C   UNL     1      -8.881  17.014  68.514  1.00  0.00    -0.253 C  
HETATM   16  C   UNL     1      -9.043  17.162  67.189  1.00  0.00    -0.237 C  
BRANCH  16  17
HETATM   17  C   UNL     1      -9.316  15.993  66.287  1.00  0.00    -0.356 C  
BRANCH  17  18
HETATM   18  C   UNL     1     -10.796  15.696  66.114  1.00  0.00    -0.264 C  
BRANCH  18  19
HETATM   19  C   UNL     1     -11.060  15.194  64.698  1.00  0.00    -0.338 C  
HETATM   20  C   UNL     1     -12.345  14.404  64.618  1.00  0.00    -0.418 C  
HETATM   21  O   UNL     1     -13.086  14.176  65.560  1.00  0.00    -0.691 OA 
HETATM   22  O   UNL     1     -12.596  13.969  63.366  1.00  0.00    -0.845 OA 
ENDBRANCH  18  19
ENDBRANCH  17  18
ENDBRANCH  16  17
ENDBRANCH  14  15
ENDBRANCH  13  14
ENDBRANCH  11  12
ENDBRANCH  10  11
ENDBRANCH   8   9
ENDBRANCH   7   8
ENDBRANCH   5   6
ENDBRANCH   4   5
ENDBRANCH   2   3
TORSDOF 12
ENDMDL
MODEL      233
REMARK 921   NORMALIZED FREE ENERGY PREDICTED BY IDOCK:   -3.76 KCAL/MOL
REMARK 922        TOTAL FREE ENERGY PREDICTED BY IDOCK:   -8.90 KCAL/MOL
REMARK 923 INTER-LIGAND FREE ENERGY PREDICTED BY IDOCK:   -5.63 KCAL/MOL
REMARK 924 INTRA-LIGAND FREE ENERGY PREDICTED BY IDOCK:   -3.27 KCAL/MOL
REMARK 927      BINDING AFFINITY PREDICTED BY RF-SCORE:    0.00 PKD
ROOT
HETATM    1  C   UNL     1     -10.935   6.454  67.132  1.00  0.00    -0.476 C  
HETATM    2  C   UNL     1      -9.951   7.606  66.995  1.00  0.00    -0.310 C  
ENDROOT
BRANCH   2   3
HETATM    3  C   UNL     1     -10.651   8.923  66.800  1.00  0.00    -0.212 C  
HETATM    4  C   UNL     1     -10.044  10.111  66.623  1.00  0.00    -0.283 C  
BRANCH   4   5
HETATM    5  C   UNL     1      -8.556  10.298  66.559  1.00  0.00    -0.136 C  
BRANCH   5   6
HETATM    6  C   UNL     1      -7.976  10.856  67.829  1.00  0.00    -0.111 C  
HETATM    7  C   UNL     1      -7.281  10.151  68.733  1.00  0.00    -0.081 C  
BRANCH   7   8
HETATM    8  C   UNL     1      -6.891   8.719  68.525  1.00  0.00    -0.064 C  
BRANCH   8   9
HETATM    9  C   UNL     1      -6.553   8.030  69.812  1.00  0.00    -0.037 C  
HETATM   10  C   UNL     1      -7.435   7.452  70.648  1.00  0.00    -0.078 C  
BRANCH  10  11
HETATM   11  C   UNL     1      -8.929   7.393  70.476  1.00  0.00    -0.156 C  
BRANCH  11  12
HETATM   12  C   UNL     1      -9.758   8.065  71.547  1.00  0.00    -0.213 C  
HETATM   13  C   UNL     1     -10.506   9.182  71.475  1.00  0.00    -0.422 C  
BRANCH  13  14
HETATM   14  C   UNL     1     -10.616  10.085  70.286  1.00  0.00    -0.354 C  
BRANCH  14  15
HETATM   15  C   UNL     1     -12.012  10.557  70.008  1.00  0.00    -0.367 C  
HETATM   16  C   UNL     1     -12.280  11.682  69.325  1.00  0.00    -0.228 C  
BRANCH  16  17
HETATM   17  C   UNL     1     -11.192  12.598  68.846  1.00  0.00    -0.329 C  
BRANCH  17  18
HETATM   18  C   UNL     1     -11.702  13.751  67.999  1.00  0.00    -0.390 C  
BRANCH  18  19
HETATM   19  C   UNL     1     -11.778  13.324  66.536  1.00  0.00    -0.423 C  
HETATM   20  C   UNL     1     -10.508  13.662  65.791  1.00  0.00    -0.293 C  
HETATM   21  O   UNL     1      -9.537  14.217  66.277  1.00  0.00    -0.285 OA 
HETATM   22  O   UNL     1     -10.560  13.274  64.499  1.00  0.00    -0.379 OA 
ENDBRANCH  18  19
ENDBRANCH  17  18
ENDBRANCH  16  17
ENDBRANCH  14  15
ENDBRANCH  13  14
ENDBRANCH  11  12
ENDBRANCH  10  11
ENDBRANCH   8   9
ENDBRANCH   7   8
ENDBRANCH   5   6
ENDBRANCH   4   5
ENDBRANCH   2   3
TORSDOF 12
ENDMDL
MODEL      234
REMARK 921   NORMALIZED FREE ENERGY PREDICTED BY IDOCK:   -3.75 KCAL/MOL
REMARK 922        TOTAL FREE ENERGY PREDICTED BY IDOCK:   -8.89 KCAL/MOL
REMARK 923 INTER-LIGAND FREE ENERGY PREDICTED BY IDOCK:   -6.91 KCAL/MOL
REMARK 924 INTRA-LIGAND FREE ENERGY PREDICTED BY IDOCK:   -1.98 KCAL/MOL
REMARK 927      BINDING AFFINITY PREDICTED BY RF-SCORE:    0.00 PKD
ROOT
HETATM    1  C   UNL     1      -7.539  20.458  67.266  1.00  0.00    -0.371 C  
HETATM    2  C   UNL     1      -8.587  19.998  68.266  1.00  0.00    -0.173 C  
ENDROOT
BRANCH   2   3
HETATM    3  C   UNL     1      -9.983  20.149  67.728  1.00  0.00    -0.549 C  
HETATM    4  C   UNL     1     -10.782  19.140  67.334  1.00  0.00    -0.578 C  
BRANCH   4   5
HETATM    5  C   UNL     1     -10.408  17.689  67.406  1.00  0.00    -0.360 C  
BRANCH   5   6
HETATM    6  C   UNL     1      -9.332  17.308  66.427  1.00  0.00    -0.281 C  
HETATM    7  C   UNL     1      -8.548  16.225  66.526  1.00  0.00    -0.332 C  
BRANCH   7   8
HETATM    8  C   UNL     1      -8.730  15.181  67.586  1.00  0.00    -0.177 C  
BRANCH   8   9
HETATM    9  C   UNL     1      -8.734  13.793  67.021  1.00  0.00    -0.212 C  
HETATM   10  C   UNL     1      -9.777  12.943  67.033  1.00  0.00    -0.230 C  
BRANCH  10  11
HETATM   11  C   UNL     1     -11.136  13.198  67.626  1.00  0.00    -0.295 C  
BRANCH  11  12
HETATM   12  C   UNL     1     -11.913  14.362  67.054  1.00  0.00    -0.424 C  
HETATM   13  C   UNL     1     -12.032  14.764  65.774  1.00  0.00    -0.155 C  
BRANCH  13  14
HETATM   14  C   UNL     1     -11.321  14.167  64.601  1.00  0.00    -0.374 C  
BRANCH  14  15
HETATM   15  C   UNL     1     -12.137  13.164  63.841  1.00  0.00    -0.536 C  
HETATM   16  C   UNL     1     -11.617  12.035  63.331  1.00  0.00    -0.495 C  
BRANCH  16  17
HETATM   17  C   UNL     1     -10.153  11.723  63.424  1.00  0.00    -0.470 C  
BRANCH  17  18
HETATM   18  C   UNL     1      -9.852  10.453  64.200  1.00  0.00    -0.379 C  
BRANCH  18  19
HETATM   19  C   UNL     1      -8.443  10.521  64.779  1.00  0.00    -0.150 C  
HETATM   20  C   UNL     1      -7.421   9.950  63.824  1.00  0.00    -0.136 C  
HETATM   21  O   UNL     1      -7.673   9.478  62.728  1.00  0.00    -0.113 OA 
HETATM   22  O   UNL     1      -6.168  10.020  64.321  1.00  0.00    -0.117 OA 
ENDBRANCH  18  19
ENDBRANCH  17  18
ENDBRANCH  16  17
ENDBRANCH  14  15
ENDBRANCH  13  14
ENDBRANCH  11  12
ENDBRANCH  10  11
ENDBRANCH   8   9
ENDBRANCH   7   8
ENDBRANCH   5   6
ENDBRANCH   4   5
ENDBRANCH   2   3
TORSDOF 12
ENDMDL
MODEL      235
REMARK 921   NORMALIZED FREE ENERGY PREDICTED BY IDOCK:   -3.75 KCAL/MOL
REMARK 922        TOTAL FREE ENERGY PREDICTED BY IDOCK:   -8.88 KCAL/MOL
REMARK 923 INTER-LIGAND FREE ENERGY PREDICTED BY IDOCK:   -6.96 KCAL/MOL
REMARK 924 INTRA-LIGAND FREE ENERGY PREDICTED BY IDOCK:   -1.92 KCAL/MOL
REMARK 927      BINDING AFFINITY PREDICTED BY RF-SCORE:    0.00 PKD
ROOT
HETATM    1  C   UNL     1     -10.891   4.631  73.433  1.00  0.00    -0.349 C  
HETATM    2  C   UNL     1     -10.801   5.773  72.433  1.00  0.00    -0.294 C  
ENDROOT
BRANCH   2   3
HETATM    3  C   UNL     1     -12.159   6.305  72.064  1.00  0.00    -0.321 C  
HETATM    4  C   UNL     1     -12.474   7.605  71.912  1.00  0.00    -0.338 C  
BRANCH   4   5
HETATM    5  C   UNL     1     -11.495   8.733  72.057  1.00  0.00    -0.441 C  
BRANCH   5   6
HETATM    6  C   UNL     1     -11.675   9.808  71.021  1.00  0.00    -0.453 C  
HETATM    7  C   UNL     1     -10.969   9.911  69.886  1.00  0.00    -0.321 C  
BRANCH   7   8
HETATM    8  C   UNL     1      -9.976   8.878  69.449  1.00  0.00    -0.192 C  
BRANCH   8   9
HETATM    9  C   UNL     1     -10.473   8.066  68.292  1.00  0.00    -0.210 C  
HETATM   10  C   UNL     1     -10.184   8.286  66.996  1.00  0.00    -0.380 C  
BRANCH  10  11
HETATM   11  C   UNL     1      -9.326   9.393  66.443  1.00  0.00    -0.241 C  
BRANCH  11  12
HETATM   12  C   UNL     1      -9.957  10.270  65.386  1.00  0.00    -0.371 C  
HETATM   13  C   UNL     1     -10.707  11.380  65.531  1.00  0.00    -0.313 C  
BRANCH  13  14
HETATM   14  C   UNL     1     -11.165  11.961  66.832  1.00  0.00    -0.382 C  
BRANCH  14  15
HETATM   15  C   UNL     1     -10.093  12.693  67.583  1.00  0.00    -0.218 C  
HETATM   16  C   UNL     1     -10.356  13.685  68.449  1.00  0.00    -0.248 C  
BRANCH  16  17
HETATM   17  C   UNL     1     -11.751  14.188  68.681  1.00  0.00    -0.385 C  
BRANCH  17  18
HETATM   18  C   UNL     1     -11.802  15.499  69.446  1.00  0.00    -0.392 C  
BRANCH  18  19
HETATM   19  C   UNL     1     -10.417  16.138  69.470  1.00  0.00    -0.295 C  
HETATM   20  C   UNL     1     -10.275  17.199  68.405  1.00  0.00    -0.340 C  
HETATM   21  O   UNL     1     -11.144  17.512  67.607  1.00  0.00    -0.209 OA 
HETATM   22  O   UNL     1      -9.058  17.782  68.428  1.00  0.00    -0.266 OA 
ENDBRANCH  18  19
ENDBRANCH  17  18
ENDBRANCH  16  17
ENDBRANCH  14  15
ENDBRANCH  13  14
ENDBRANCH  11  12
ENDBRANCH  10  11
ENDBRANCH   8   9
ENDBRANCH   7   8
ENDBRANCH   5   6
ENDBRANCH   4   5
ENDBRANCH   2   3
TORSDOF 12
ENDMDL
MODEL      236
REMARK 921   NORMALIZED FREE ENERGY PREDICTED BY IDOCK:   -3.74 KCAL/MOL
REMARK 922        TOTAL FREE ENERGY PREDICTED BY IDOCK:   -8.87 KCAL/MOL
REMARK 923 INTER-LIGAND FREE ENERGY PREDICTED BY IDOCK:   -6.27 KCAL/MOL
REMARK 924 INTRA-LIGAND FREE ENERGY PREDICTED BY IDOCK:   -2.60 KCAL/MOL
REMARK 927      BINDING AFFINITY PREDICTED BY RF-SCORE:    0.00 PKD
ROOT
HETATM    1  C   UNL     1     -12.204  14.313  65.951  1.00  0.00    -0.422 C  
HETATM    2  C   UNL     1     -12.644  13.030  65.264  1.00  0.00    -0.516 C  
ENDROOT
BRANCH   2   3
HETATM    3  C   UNL     1     -12.196  12.977  63.829  1.00  0.00    -0.536 C  
HETATM    4  C   UNL     1     -11.037  12.450  63.391  1.00  0.00    -0.465 C  
BRANCH   4   5
HETATM    5  C   UNL     1     -10.020  11.794  64.278  1.00  0.00    -0.287 C  
BRANCH   5   6
HETATM    6  C   UNL     1      -9.632  10.417  63.814  1.00  0.00    -0.366 C  
HETATM    7  C   UNL     1      -8.911   9.539  64.526  1.00  0.00    -0.249 C  
BRANCH   7   8
HETATM    8  C   UNL     1      -8.495   9.786  65.944  1.00  0.00    -0.136 C  
BRANCH   8   9
HETATM    9  C   UNL     1      -8.082   8.526  66.642  1.00  0.00    -0.104 C  
HETATM   10  C   UNL     1      -8.867   7.774  67.436  1.00  0.00    -0.128 C  
BRANCH  10  11
HETATM   11  C   UNL     1     -10.302   8.049  67.799  1.00  0.00    -0.294 C  
BRANCH  11  12
HETATM   12  C   UNL     1     -10.720   7.695  69.208  1.00  0.00    -0.169 C  
HETATM   13  C   UNL     1     -10.856   8.491  70.285  1.00  0.00    -0.249 C  
BRANCH  13  14
HETATM   14  C   UNL     1     -10.526   9.950  70.342  1.00  0.00    -0.347 C  
BRANCH  14  15
HETATM   15  C   UNL     1     -11.650  10.844  69.909  1.00  0.00    -0.410 C  
HETATM   16  C   UNL     1     -11.568  11.656  68.842  1.00  0.00    -0.377 C  
BRANCH  16  17
HETATM   17  C   UNL     1     -10.308  11.782  68.036  1.00  0.00    -0.212 C  
BRANCH  17  18
HETATM   18  C   UNL     1      -9.685  13.166  68.100  1.00  0.00    -0.228 C  
BRANCH  18  19
HETATM   19  C   UNL     1      -8.295  13.137  67.472  1.00  0.00    -0.185 C  
HETATM   20  C   UNL     1      -7.530  14.408  67.757  1.00  0.00    -0.170 C  
HETATM   21  O   UNL     1      -7.957  15.355  68.397  1.00  0.00    -0.125 OA 
HETATM   22  O   UNL     1      -6.292  14.386  67.219  1.00  0.00    -0.298 OA 
ENDBRANCH  18  19
ENDBRANCH  17  18
ENDBRANCH  16  17
ENDBRANCH  14  15
ENDBRANCH  13  14
ENDBRANCH  11  12
ENDBRANCH  10  11
ENDBRANCH   8   9
ENDBRANCH   7   8
ENDBRANCH   5   6
ENDBRANCH   4   5
ENDBRANCH   2   3
TORSDOF 12
ENDMDL
MODEL      237
REMARK 921   NORMALIZED FREE ENERGY PREDICTED BY IDOCK:   -3.74 KCAL/MOL
REMARK 922        TOTAL FREE ENERGY PREDICTED BY IDOCK:   -8.87 KCAL/MOL
REMARK 923 INTER-LIGAND FREE ENERGY PREDICTED BY IDOCK:   -5.86 KCAL/MOL
REMARK 924 INTRA-LIGAND FREE ENERGY PREDICTED BY IDOCK:   -3.01 KCAL/MOL
REMARK 927      BINDING AFFINITY PREDICTED BY RF-SCORE:    0.00 PKD
ROOT
HETATM    1  C   UNL     1     -10.089   8.558  72.186  1.00  0.00    -0.393 C  
HETATM    2  C   UNL     1      -9.980   7.365  71.251  1.00  0.00    -0.194 C  
ENDROOT
BRANCH   2   3
HETATM    3  C   UNL     1     -11.299   7.032  70.609  1.00  0.00    -0.349 C  
HETATM    4  C   UNL     1     -11.459   6.352  69.458  1.00  0.00    -0.412 C  
BRANCH   4   5
HETATM    5  C   UNL     1     -10.329   5.786  68.648  1.00  0.00    -0.283 C  
BRANCH   5   6
HETATM    6  C   UNL     1     -10.669   5.623  67.192  1.00  0.00    -0.316 C  
HETATM    7  C   UNL     1      -9.776   5.565  66.194  1.00  0.00    -0.147 C  
BRANCH   7   8
HETATM    8  C   UNL     1      -8.296   5.537  66.426  1.00  0.00    -0.111 C  
BRANCH   8   9
HETATM    9  C   UNL     1      -7.530   6.103  65.269  1.00  0.00    -0.084 C  
HETATM   10  C   UNL     1      -7.272   7.407  65.060  1.00  0.00    -0.067 C  
BRANCH  10  11
HETATM   11  C   UNL     1      -7.710   8.558  65.925  1.00  0.00    -0.097 C  
BRANCH  11  12
HETATM   12  C   UNL     1      -8.817   9.429  65.378  1.00  0.00    -0.220 C  
HETATM   13  C   UNL     1     -10.001   9.756  65.931  1.00  0.00    -0.345 C  
BRANCH  13  14
HETATM   14  C   UNL     1     -10.533   9.234  67.229  1.00  0.00    -0.334 C  
BRANCH  14  15
HETATM   15  C   UNL     1      -9.877   9.831  68.438  1.00  0.00    -0.168 C  
HETATM   16  C   UNL     1     -10.459  10.778  69.193  1.00  0.00    -0.243 C  
BRANCH  16  17
HETATM   17  C   UNL     1     -11.793  11.365  68.838  1.00  0.00    -0.413 C  
BRANCH  17  18
HETATM   18  C   UNL     1     -11.716  12.812  68.383  1.00  0.00    -0.380 C  
BRANCH  18  19
HETATM   19  C   UNL     1     -11.782  12.879  66.860  1.00  0.00    -0.445 C  
HETATM   20  C   UNL     1     -10.439  13.225  66.260  1.00  0.00    -0.287 C  
HETATM   21  O   UNL     1      -9.421  13.439  66.897  1.00  0.00    -0.237 OA 
HETATM   22  O   UNL     1     -10.483  13.271  64.912  1.00  0.00    -0.333 OA 
ENDBRANCH  18  19
ENDBRANCH  17  18
ENDBRANCH  16  17
ENDBRANCH  14  15
ENDBRANCH  13  14
ENDBRANCH  11  12
ENDBRANCH  10  11
ENDBRANCH   8   9
ENDBRANCH   7   8
ENDBRANCH   5   6
ENDBRANCH   4   5
ENDBRANCH   2   3
TORSDOF 12
ENDMDL
MODEL      238
REMARK 921   NORMALIZED FREE ENERGY PREDICTED BY IDOCK:   -3.73 KCAL/MOL
REMARK 922        TOTAL FREE ENERGY PREDICTED BY IDOCK:   -8.85 KCAL/MOL
REMARK 923 INTER-LIGAND FREE ENERGY PREDICTED BY IDOCK:   -7.25 KCAL/MOL
REMARK 924 INTRA-LIGAND FREE ENERGY PREDICTED BY IDOCK:   -1.60 KCAL/MOL
REMARK 927      BINDING AFFINITY PREDICTED BY RF-SCORE:    0.00 PKD
ROOT
HETATM    1  C   UNL     1      -9.321   3.485  66.724  1.00  0.00    -0.203 C  
HETATM    2  C   UNL     1      -9.377   3.321  68.235  1.00  0.00    -0.242 C  
ENDROOT
BRANCH   2   3
HETATM    3  C   UNL     1      -8.557   4.363  68.944  1.00  0.00    -0.104 C  
HETATM    4  C   UNL     1      -9.022   5.233  69.861  1.00  0.00    -0.146 C  
BRANCH   4   5
HETATM    5  C   UNL     1     -10.441   5.271  70.345  1.00  0.00    -0.322 C  
BRANCH   5   6
HETATM    6  C   UNL     1     -10.553   5.293  71.844  1.00  0.00    -0.274 C  
HETATM    7  C   UNL     1     -11.322   6.137  72.547  1.00  0.00    -0.328 C  
BRANCH   7   8
HETATM    8  C   UNL     1     -12.271   7.103  71.904  1.00  0.00    -0.358 C  
BRANCH   8   9
HETATM    9  C   UNL     1     -11.953   8.526  72.249  1.00  0.00    -0.454 C  
HETATM   10  C   UNL     1     -10.998   9.280  71.673  1.00  0.00    -0.433 C  
BRANCH  10  11
HETATM   11  C   UNL     1     -10.049   8.850  70.587  1.00  0.00    -0.262 C  
BRANCH  11  12
HETATM   12  C   UNL     1     -10.635   8.700  69.201  1.00  0.00    -0.193 C  
HETATM   13  C   UNL     1     -10.302   9.331  68.059  1.00  0.00    -0.270 C  
BRANCH  13  14
HETATM   14  C   UNL     1      -9.291  10.426  67.928  1.00  0.00    -0.147 C  
BRANCH  14  15
HETATM   15  C   UNL     1      -9.744  11.742  68.487  1.00  0.00    -0.181 C  
HETATM   16  C   UNL     1     -10.456  12.631  67.775  1.00  0.00    -0.228 C  
BRANCH  16  17
HETATM   17  C   UNL     1     -10.794  12.403  66.331  1.00  0.00    -0.291 C  
BRANCH  17  18
HETATM   18  C   UNL     1     -12.074  13.094  65.893  1.00  0.00    -0.501 C  
BRANCH  18  19
HETATM   19  C   UNL     1     -11.776  14.539  65.506  1.00  0.00    -0.343 C  
HETATM   20  C   UNL     1     -12.187  14.829  64.082  1.00  0.00    -0.295 C  
HETATM   21  O   UNL     1     -12.685  14.019  63.317  1.00  0.00    -0.750 OA 
HETATM   22  O   UNL     1     -11.941  16.110  63.734  1.00  0.00    -0.926 OA 
ENDBRANCH  18  19
ENDBRANCH  17  18
ENDBRANCH  16  17
ENDBRANCH  14  15
ENDBRANCH  13  14
ENDBRANCH  11  12
ENDBRANCH  10  11
ENDBRANCH   8   9
ENDBRANCH   7   8
ENDBRANCH   5   6
ENDBRANCH   4   5
ENDBRANCH   2   3
TORSDOF 12
ENDMDL
MODEL      239
REMARK 921   NORMALIZED FREE ENERGY PREDICTED BY IDOCK:   -3.72 KCAL/MOL
REMARK 922        TOTAL FREE ENERGY PREDICTED BY IDOCK:   -8.83 KCAL/MOL
REMARK 923 INTER-LIGAND FREE ENERGY PREDICTED BY IDOCK:   -7.13 KCAL/MOL
REMARK 924 INTRA-LIGAND FREE ENERGY PREDICTED BY IDOCK:   -1.70 KCAL/MOL
REMARK 927      BINDING AFFINITY PREDICTED BY RF-SCORE:    0.00 PKD
ROOT
HETATM    1  C   UNL     1      -9.169   8.976  71.171  1.00  0.00    -0.326 C  
HETATM    2  C   UNL     1     -10.612   9.452  71.235  1.00  0.00    -0.400 C  
ENDROOT
BRANCH   2   3
HETATM    3  C   UNL     1     -11.400   8.722  72.287  1.00  0.00    -0.356 C  
HETATM    4  C   UNL     1     -12.106   7.593  72.092  1.00  0.00    -0.325 C  
BRANCH   4   5
HETATM    5  C   UNL     1     -12.185   6.863  70.783  1.00  0.00    -0.364 C  
BRANCH   5   6
HETATM    6  C   UNL     1     -11.017   5.946  70.547  1.00  0.00    -0.362 C  
HETATM    7  C   UNL     1     -10.516   5.632  69.344  1.00  0.00    -0.367 C  
BRANCH   7   8
HETATM    8  C   UNL     1     -10.996   6.261  68.071  1.00  0.00    -0.418 C  
BRANCH   8   9
HETATM    9  C   UNL     1      -9.865   6.750  67.219  1.00  0.00    -0.187 C  
HETATM   10  C   UNL     1      -9.692   8.016  66.794  1.00  0.00    -0.305 C  
BRANCH  10  11
HETATM   11  C   UNL     1     -10.598   9.186  67.068  1.00  0.00    -0.266 C  
BRANCH  11  12
HETATM   12  C   UNL     1      -9.975  10.369  67.773  1.00  0.00    -0.203 C  
HETATM   13  C   UNL     1     -10.231  11.683  67.627  1.00  0.00    -0.206 C  
BRANCH  13  14
HETATM   14  C   UNL     1     -11.170  12.285  66.629  1.00  0.00    -0.367 C  
BRANCH  14  15
HETATM   15  C   UNL     1     -10.523  12.645  65.325  1.00  0.00    -0.312 C  
HETATM   16  C   UNL     1     -10.344  13.915  64.924  1.00  0.00    -0.430 C  
BRANCH  16  17
HETATM   17  C   UNL     1     -10.848  15.079  65.726  1.00  0.00    -0.355 C  
BRANCH  17  18
HETATM   18  C   UNL     1      -9.775  16.107  66.040  1.00  0.00    -0.376 C  
BRANCH  18  19
HETATM   19  C   UNL     1     -10.393  17.291  66.777  1.00  0.00    -0.308 C  
HETATM   20  C   UNL     1      -9.591  17.665  68.000  1.00  0.00    -0.289 C  
HETATM   21  O   UNL     1      -8.579  17.096  68.376  1.00  0.00    -0.230 OA 
HETATM   22  O   UNL     1     -10.121  18.722  68.651  1.00  0.00    -0.381 OA 
ENDBRANCH  18  19
ENDBRANCH  17  18
ENDBRANCH  16  17
ENDBRANCH  14  15
ENDBRANCH  13  14
ENDBRANCH  11  12
ENDBRANCH  10  11
ENDBRANCH   8   9
ENDBRANCH   7   8
ENDBRANCH   5   6
ENDBRANCH   4   5
ENDBRANCH   2   3
TORSDOF 12
ENDMDL
MODEL      240
REMARK 921   NORMALIZED FREE ENERGY PREDICTED BY IDOCK:   -3.71 KCAL/MOL
REMARK 922        TOTAL FREE ENERGY PREDICTED BY IDOCK:   -8.82 KCAL/MOL
REMARK 923 INTER-LIGAND FREE ENERGY PREDICTED BY IDOCK:   -6.94 KCAL/MOL
REMARK 924 INTRA-LIGAND FREE ENERGY PREDICTED BY IDOCK:   -1.88 KCAL/MOL
REMARK 927      BINDING AFFINITY PREDICTED BY RF-SCORE:    0.00 PKD
ROOT
HETATM    1  C   UNL     1      -9.989  13.934  68.288  1.00  0.00    -0.238 C  
HETATM    2  C   UNL     1     -10.018  14.183  66.789  1.00  0.00    -0.267 C  
ENDROOT
BRANCH   2   3
HETATM    3  C   UNL     1     -11.356  14.693  66.329  1.00  0.00    -0.347 C  
HETATM    4  C   UNL     1     -12.305  13.959  65.718  1.00  0.00    -0.518 C  
BRANCH   4   5
HETATM    5  C   UNL     1     -12.180  12.492  65.429  1.00  0.00    -0.475 C  
BRANCH   5   6
HETATM    6  C   UNL     1     -11.678  12.204  64.041  1.00  0.00    -0.515 C  
HETATM    7  C   UNL     1     -10.471  11.698  63.748  1.00  0.00    -0.454 C  
BRANCH   7   8
HETATM    8  C   UNL     1      -9.503  11.242  64.796  1.00  0.00    -0.221 C  
BRANCH   8   9
HETATM    9  C   UNL     1      -9.641   9.781  65.099  1.00  0.00    -0.356 C  
HETATM   10  C   UNL     1     -10.053   9.257  66.268  1.00  0.00    -0.322 C  
BRANCH  10  11
HETATM   11  C   UNL     1     -10.439  10.019  67.507  1.00  0.00    -0.307 C  
BRANCH  11  12
HETATM   12  C   UNL     1      -9.312  10.418  68.431  1.00  0.00    -0.150 C  
HETATM   13  C   UNL     1      -9.022   9.972  69.668  1.00  0.00    -0.221 C  
BRANCH  13  14
HETATM   14  C   UNL     1      -9.840   9.002  70.462  1.00  0.00    -0.263 C  
BRANCH  14  15
HETATM   15  C   UNL     1      -9.310   8.745  71.841  1.00  0.00    -0.343 C  
HETATM   16  C   UNL     1      -9.997   8.064  72.772  1.00  0.00    -0.364 C  
BRANCH  16  17
HETATM   17  C   UNL     1     -11.391   7.565  72.524  1.00  0.00    -0.384 C  
BRANCH  17  18
HETATM   18  C   UNL     1     -11.438   6.158  71.956  1.00  0.00    -0.366 C  
BRANCH  18  19
HETATM   19  C   UNL     1     -11.380   5.140  73.091  1.00  0.00    -0.385 C  
HETATM   20  C   UNL     1     -10.372   4.050  72.809  1.00  0.00    -0.168 C  
HETATM   21  O   UNL     1      -9.689   3.970  71.801  1.00  0.00    -0.152 OA 
HETATM   22  O   UNL     1     -10.301   3.153  73.815  1.00  0.00    -0.123 OA 
ENDBRANCH  18  19
ENDBRANCH  17  18
ENDBRANCH  16  17
ENDBRANCH  14  15
ENDBRANCH  13  14
ENDBRANCH  11  12
ENDBRANCH  10  11
ENDBRANCH   8   9
ENDBRANCH   7   8
ENDBRANCH   5   6
ENDBRANCH   4   5
ENDBRANCH   2   3
TORSDOF 12
ENDMDL
MODEL      241
REMARK 921   NORMALIZED FREE ENERGY PREDICTED BY IDOCK:   -3.70 KCAL/MOL
REMARK 922        TOTAL FREE ENERGY PREDICTED BY IDOCK:   -8.80 KCAL/MOL
REMARK 923 INTER-LIGAND FREE ENERGY PREDICTED BY IDOCK:   -6.33 KCAL/MOL
REMARK 924 INTRA-LIGAND FREE ENERGY PREDICTED BY IDOCK:   -2.47 KCAL/MOL
REMARK 927      BINDING AFFINITY PREDICTED BY RF-SCORE:    0.00 PKD
ROOT
HETATM    1  C   UNL     1      -6.460  14.486  68.998  1.00  0.00    -0.099 C  
HETATM    2  C   UNL     1      -7.114  13.453  68.095  1.00  0.00    -0.116 C  
ENDROOT
BRANCH   2   3
HETATM    3  C   UNL     1      -6.797  12.047  68.527  1.00  0.00    -0.078 C  
HETATM    4  C   UNL     1      -7.704  11.104  68.845  1.00  0.00    -0.137 C  
BRANCH   4   5
HETATM    5  C   UNL     1      -9.190  11.307  68.782  1.00  0.00    -0.133 C  
BRANCH   5   6
HETATM    6  C   UNL     1      -9.712  11.418  67.376  1.00  0.00    -0.196 C  
HETATM    7  C   UNL     1     -10.262  10.414  66.677  1.00  0.00    -0.292 C  
BRANCH   7   8
HETATM    8  C   UNL     1     -10.534   9.064  67.267  1.00  0.00    -0.343 C  
BRANCH   8   9
HETATM    9  C   UNL     1      -9.539   8.038  66.818  1.00  0.00    -0.281 C  
HETATM   10  C   UNL     1      -8.735   7.317  67.622  1.00  0.00    -0.125 C  
BRANCH  10  11
HETATM   11  C   UNL     1      -8.657   7.405  69.123  1.00  0.00    -0.136 C  
BRANCH  11  12
HETATM   12  C   UNL     1      -9.134   6.196  69.894  1.00  0.00    -0.146 C  
HETATM   13  C   UNL     1     -10.360   5.919  70.378  1.00  0.00    -0.294 C  
BRANCH  13  14
HETATM   14  C   UNL     1     -11.546   6.831  70.326  1.00  0.00    -0.417 C  
BRANCH  14  15
HETATM   15  C   UNL     1     -12.057   7.241  71.675  1.00  0.00    -0.359 C  
HETATM   16  C   UNL     1     -11.935   8.490  72.153  1.00  0.00    -0.451 C  
BRANCH  16  17
HETATM   17  C   UNL     1     -11.208   9.562  71.396  1.00  0.00    -0.452 C  
BRANCH  17  18
HETATM   18  C   UNL     1     -12.133  10.569  70.735  1.00  0.00    -0.470 C  
BRANCH  18  19
HETATM   19  C   UNL     1     -13.156  11.075  71.748  1.00  0.00    -0.554 C  
HETATM   20  C   UNL     1     -13.135  12.582  71.853  1.00  0.00    -0.368 C  
HETATM   21  O   UNL     1     -12.393  13.319  71.225  1.00  0.00    -0.308 OA 
HETATM   22  O   UNL     1     -14.047  13.041  72.736  1.00  0.00    -0.573 OA 
ENDBRANCH  18  19
ENDBRANCH  17  18
ENDBRANCH  16  17
ENDBRANCH  14  15
ENDBRANCH  13  14
ENDBRANCH  11  12
ENDBRANCH  10  11
ENDBRANCH   8   9
ENDBRANCH   7   8
ENDBRANCH   5   6
ENDBRANCH   4   5
ENDBRANCH   2   3
TORSDOF 12
ENDMDL
MODEL      242
REMARK 921   NORMALIZED FREE ENERGY PREDICTED BY IDOCK:   -3.70 KCAL/MOL
REMARK 922        TOTAL FREE ENERGY PREDICTED BY IDOCK:   -8.80 KCAL/MOL
REMARK 923 INTER-LIGAND FREE ENERGY PREDICTED BY IDOCK:   -7.06 KCAL/MOL
REMARK 924 INTRA-LIGAND FREE ENERGY PREDICTED BY IDOCK:   -1.74 KCAL/MOL
REMARK 927      BINDING AFFINITY PREDICTED BY RF-SCORE:    0.00 PKD
ROOT
HETATM    1  C   UNL     1      -7.681  20.079  66.651  1.00  0.00    -0.326 C  
HETATM    2  C   UNL     1      -8.494  19.800  67.905  1.00  0.00    -0.348 C  
ENDROOT
BRANCH   2   3
HETATM    3  C   UNL     1      -9.970  19.970  67.668  1.00  0.00    -0.566 C  
HETATM    4  C   UNL     1     -10.847  18.971  67.454  1.00  0.00    -0.496 C  
BRANCH   4   5
HETATM    5  C   UNL     1     -10.485  17.515  67.454  1.00  0.00    -0.342 C  
BRANCH   5   6
HETATM    6  C   UNL     1     -10.590  16.880  68.814  1.00  0.00    -0.355 C  
HETATM    7  C   UNL     1     -11.281  15.765  69.092  1.00  0.00    -0.322 C  
BRANCH   7   8
HETATM    8  C   UNL     1     -11.948  14.936  68.038  1.00  0.00    -0.216 C  
BRANCH   8   9
HETATM    9  C   UNL     1     -11.213  13.658  67.772  1.00  0.00    -0.310 C  
HETATM   10  C   UNL     1     -10.459  13.395  66.688  1.00  0.00    -0.280 C  
BRANCH  10  11
HETATM   11  C   UNL     1     -10.214  14.315  65.522  1.00  0.00    -0.379 C  
BRANCH  11  12
HETATM   12  C   UNL     1     -11.380  14.542  64.587  1.00  0.00    -0.372 C  
HETATM   13  C   UNL     1     -12.159  13.642  63.957  1.00  0.00    -0.474 C  
BRANCH  13  14
HETATM   14  C   UNL     1     -11.976  12.157  63.983  1.00  0.00    -0.533 C  
BRANCH  14  15
HETATM   15  C   UNL     1     -10.781  11.679  63.213  1.00  0.00    -0.404 C  
HETATM   16  C   UNL     1      -9.900  10.794  63.708  1.00  0.00    -0.396 C  
BRANCH  16  17
HETATM   17  C   UNL     1     -10.008  10.265  65.109  1.00  0.00    -0.395 C  
BRANCH  17  18
HETATM   18  C   UNL     1      -8.665  10.098  65.798  1.00  0.00    -0.166 C  
BRANCH  18  19
HETATM   19  C   UNL     1      -7.933   8.891  65.220  1.00  0.00    -0.116 C  
HETATM   20  C   UNL     1      -6.839   9.308  64.265  1.00  0.00    -0.090 C  
HETATM   21  O   UNL     1      -6.568  10.460  63.971  1.00  0.00    -0.105 OA 
HETATM   22  O   UNL     1      -6.176   8.247  63.760  1.00  0.00    -0.070 OA 
ENDBRANCH  18  19
ENDBRANCH  17  18
ENDBRANCH  16  17
ENDBRANCH  14  15
ENDBRANCH  13  14
ENDBRANCH  11  12
ENDBRANCH  10  11
ENDBRANCH   8   9
ENDBRANCH   7   8
ENDBRANCH   5   6
ENDBRANCH   4   5
ENDBRANCH   2   3
TORSDOF 12
ENDMDL
MODEL      243
REMARK 921   NORMALIZED FREE ENERGY PREDICTED BY IDOCK:   -3.69 KCAL/MOL
REMARK 922        TOTAL FREE ENERGY PREDICTED BY IDOCK:   -8.78 KCAL/MOL
REMARK 923 INTER-LIGAND FREE ENERGY PREDICTED BY IDOCK:   -6.98 KCAL/MOL
REMARK 924 INTRA-LIGAND FREE ENERGY PREDICTED BY IDOCK:   -1.80 KCAL/MOL
REMARK 927      BINDING AFFINITY PREDICTED BY RF-SCORE:    0.00 PKD
ROOT
HETATM    1  C   UNL     1     -10.149  20.170  66.232  1.00  0.00    -0.552 C  
HETATM    2  C   UNL     1     -10.835  19.583  67.455  1.00  0.00    -0.494 C  
ENDROOT
BRANCH   2   3
HETATM    3  C   UNL     1      -9.844  19.131  68.493  1.00  0.00    -0.483 C  
HETATM    4  C   UNL     1      -9.194  17.952  68.492  1.00  0.00    -0.288 C  
BRANCH   4   5
HETATM    5  C   UNL     1      -9.337  16.910  67.422  1.00  0.00    -0.235 C  
BRANCH   5   6
HETATM    6  C   UNL     1     -10.496  15.980  67.654  1.00  0.00    -0.292 C  
HETATM    7  C   UNL     1     -11.276  15.466  66.692  1.00  0.00    -0.175 C  
BRANCH   7   8
HETATM    8  C   UNL     1     -11.010  15.669  65.232  1.00  0.00    -0.375 C  
BRANCH   8   9
HETATM    9  C   UNL     1     -12.045  15.013  64.370  1.00  0.00    -0.373 C  
HETATM   10  C   UNL     1     -12.138  13.694  64.120  1.00  0.00    -0.484 C  
BRANCH  10  11
HETATM   11  C   UNL     1     -11.220  12.617  64.634  1.00  0.00    -0.348 C  
BRANCH  11  12
HETATM   12  C   UNL     1     -10.082  12.212  63.726  1.00  0.00    -0.404 C  
HETATM   13  C   UNL     1      -9.334  11.092  63.739  1.00  0.00    -0.247 C  
BRANCH  13  14
HETATM   14  C   UNL     1      -9.419   9.996  64.755  1.00  0.00    -0.366 C  
BRANCH  14  15
HETATM   15  C   UNL     1      -8.089   9.568  65.300  1.00  0.00    -0.124 C  
HETATM   16  C   UNL     1      -7.513  10.152  66.364  1.00  0.00    -0.108 C  
BRANCH  16  17
HETATM   17  C   UNL     1      -8.130  11.336  67.050  1.00  0.00    -0.149 C  
BRANCH  17  18
HETATM   18  C   UNL     1      -9.219  10.961  68.040  1.00  0.00    -0.156 C  
BRANCH  18  19
HETATM   19  C   UNL     1     -10.039  12.196  68.399  1.00  0.00    -0.210 C  
HETATM   20  C   UNL     1     -11.523  11.921  68.321  1.00  0.00    -0.311 C  
HETATM   21  O   UNL     1     -12.022  10.855  68.001  1.00  0.00    -0.586 OA 
HETATM   22  O   UNL     1     -12.257  13.004  68.652  1.00  0.00    -0.223 OA 
ENDBRANCH  18  19
ENDBRANCH  17  18
ENDBRANCH  16  17
ENDBRANCH  14  15
ENDBRANCH  13  14
ENDBRANCH  11  12
ENDBRANCH  10  11
ENDBRANCH   8   9
ENDBRANCH   7   8
ENDBRANCH   5   6
ENDBRANCH   4   5
ENDBRANCH   2   3
TORSDOF 12
ENDMDL
MODEL      244
REMARK 921   NORMALIZED FREE ENERGY PREDICTED BY IDOCK:   -3.69 KCAL/MOL
REMARK 922        TOTAL FREE ENERGY PREDICTED BY IDOCK:   -8.78 KCAL/MOL
REMARK 923 INTER-LIGAND FREE ENERGY PREDICTED BY IDOCK:   -6.97 KCAL/MOL
REMARK 924 INTRA-LIGAND FREE ENERGY PREDICTED BY IDOCK:   -1.81 KCAL/MOL
REMARK 927      BINDING AFFINITY PREDICTED BY RF-SCORE:    0.00 PKD
ROOT
HETATM    1  C   UNL     1      -9.514  10.023  63.965  1.00  0.00    -0.299 C  
HETATM    2  C   UNL     1      -9.699  11.474  63.549  1.00  0.00    -0.354 C  
ENDROOT
BRANCH   2   3
HETATM    3  C   UNL     1     -11.145  11.812  63.316  1.00  0.00    -0.370 C  
HETATM    4  C   UNL     1     -12.003  12.264  64.250  1.00  0.00    -0.489 C  
BRANCH   4   5
HETATM    5  C   UNL     1     -11.629  12.535  65.678  1.00  0.00    -0.435 C  
BRANCH   5   6
HETATM    6  C   UNL     1     -11.728  13.989  66.049  1.00  0.00    -0.378 C  
HETATM    7  C   UNL     1     -11.672  14.471  67.298  1.00  0.00    -0.429 C  
BRANCH   7   8
HETATM    8  C   UNL     1     -11.380  13.612  68.490  1.00  0.00    -0.325 C  
BRANCH   8   9
HETATM    9  C   UNL     1     -12.185  14.013  69.689  1.00  0.00    -0.383 C  
HETATM   10  C   UNL     1     -12.659  13.178  70.632  1.00  0.00    -0.286 C  
BRANCH  10  11
HETATM   11  C   UNL     1     -12.497  11.682  70.669  1.00  0.00    -0.386 C  
BRANCH  11  12
HETATM   12  C   UNL     1     -13.218  10.953  71.781  1.00  0.00    -0.513 C  
HETATM   13  C   UNL     1     -13.037   9.700  72.240  1.00  0.00    -0.468 C  
BRANCH  13  14
HETATM   14  C   UNL     1     -12.098   8.686  71.666  1.00  0.00    -0.385 C  
BRANCH  14  15
HETATM   15  C   UNL     1     -10.653   8.966  71.953  1.00  0.00    -0.419 C  
HETATM   16  C   UNL     1      -9.710   8.987  70.997  1.00  0.00    -0.348 C  
BRANCH  16  17
HETATM   17  C   UNL     1     -10.022   8.661  69.566  1.00  0.00    -0.196 C  
BRANCH  17  18
HETATM   18  C   UNL     1      -9.907   9.855  68.633  1.00  0.00    -0.168 C  
BRANCH  18  19
HETATM   19  C   UNL     1      -8.551   9.836  67.935  1.00  0.00    -0.125 C  
HETATM   20  C   UNL     1      -7.753  11.083  68.237  1.00  0.00    -0.113 C  
HETATM   21  O   UNL     1      -8.133  12.005  68.940  1.00  0.00    -0.041 OA 
HETATM   22  O   UNL     1      -6.545  11.070  67.636  1.00  0.00    -0.062 OA 
ENDBRANCH  18  19
ENDBRANCH  17  18
ENDBRANCH  16  17
ENDBRANCH  14  15
ENDBRANCH  13  14
ENDBRANCH  11  12
ENDBRANCH  10  11
ENDBRANCH   8   9
ENDBRANCH   7   8
ENDBRANCH   5   6
ENDBRANCH   4   5
ENDBRANCH   2   3
TORSDOF 12
ENDMDL
MODEL      245
REMARK 921   NORMALIZED FREE ENERGY PREDICTED BY IDOCK:   -3.68 KCAL/MOL
REMARK 922        TOTAL FREE ENERGY PREDICTED BY IDOCK:   -8.78 KCAL/MOL
REMARK 923 INTER-LIGAND FREE ENERGY PREDICTED BY IDOCK:   -6.80 KCAL/MOL
REMARK 924 INTRA-LIGAND FREE ENERGY PREDICTED BY IDOCK:   -1.97 KCAL/MOL
REMARK 927      BINDING AFFINITY PREDICTED BY RF-SCORE:    0.00 PKD
ROOT
HETATM    1  C   UNL     1      -9.006   3.977  64.858  1.00  0.00    -0.134 C  
HETATM    2  C   UNL     1      -9.305   4.569  66.226  1.00  0.00    -0.151 C  
ENDROOT
BRANCH   2   3
HETATM    3  C   UNL     1     -10.704   5.113  66.309  1.00  0.00    -0.272 C  
HETATM    4  C   UNL     1     -11.058   6.275  66.890  1.00  0.00    -0.329 C  
BRANCH   4   5
HETATM    5  C   UNL     1     -10.090   7.233  67.518  1.00  0.00    -0.250 C  
BRANCH   5   6
HETATM    6  C   UNL     1      -9.743   8.393  66.626  1.00  0.00    -0.320 C  
HETATM    7  C   UNL     1     -10.295   9.613  66.697  1.00  0.00    -0.279 C  
BRANCH   7   8
HETATM    8  C   UNL     1     -11.260  10.008  67.773  1.00  0.00    -0.137 C  
BRANCH   8   9
HETATM    9  C   UNL     1     -10.566  10.414  69.037  1.00  0.00    -0.247 C  
HETATM   10  C   UNL     1     -11.166  10.875  70.150  1.00  0.00    -0.317 C  
BRANCH  10  11
HETATM   11  C   UNL     1     -12.642  11.095  70.348  1.00  0.00    -0.328 C  
BRANCH  11  12
HETATM   12  C   UNL     1     -13.081  11.520  71.731  1.00  0.00    -0.503 C  
HETATM   13  C   UNL     1     -13.431  12.740  72.180  1.00  0.00    -0.591 C  
BRANCH  13  14
HETATM   14  C   UNL     1     -13.378  14.011  71.390  1.00  0.00    -0.387 C  
BRANCH  14  15
HETATM   15  C   UNL     1     -11.994  14.563  71.221  1.00  0.00    -0.396 C  
HETATM   16  C   UNL     1     -11.425  14.752  70.019  1.00  0.00    -0.321 C  
BRANCH  16  17
HETATM   17  C   UNL     1     -12.111  14.353  68.745  1.00  0.00    -0.276 C  
BRANCH  17  18
HETATM   18  C   UNL     1     -11.554  15.049  67.514  1.00  0.00    -0.315 C  
BRANCH  18  19
HETATM   19  C   UNL     1     -11.797  14.187  66.279  1.00  0.00    -0.427 C  
HETATM   20  C   UNL     1     -10.590  13.344  65.943  1.00  0.00    -0.283 C  
HETATM   21  O   UNL     1      -9.539  13.346  66.563  1.00  0.00    -0.265 OA 
HETATM   22  O   UNL     1     -10.800  12.566  64.861  1.00  0.00    -0.276 OA 
ENDBRANCH  18  19
ENDBRANCH  17  18
ENDBRANCH  16  17
ENDBRANCH  14  15
ENDBRANCH  13  14
ENDBRANCH  11  12
ENDBRANCH  10  11
ENDBRANCH   8   9
ENDBRANCH   7   8
ENDBRANCH   5   6
ENDBRANCH   4   5
ENDBRANCH   2   3
TORSDOF 12
ENDMDL
MODEL      246
REMARK 921   NORMALIZED FREE ENERGY PREDICTED BY IDOCK:   -3.68 KCAL/MOL
REMARK 922        TOTAL FREE ENERGY PREDICTED BY IDOCK:   -8.77 KCAL/MOL
REMARK 923 INTER-LIGAND FREE ENERGY PREDICTED BY IDOCK:   -7.30 KCAL/MOL
REMARK 924 INTRA-LIGAND FREE ENERGY PREDICTED BY IDOCK:   -1.47 KCAL/MOL
REMARK 927      BINDING AFFINITY PREDICTED BY RF-SCORE:    0.00 PKD
ROOT
HETATM    1  C   UNL     1     -10.197   2.175  72.325  1.00  0.00    -0.219 C  
HETATM    2  C   UNL     1      -9.983   3.074  73.533  1.00  0.00    -0.172 C  
ENDROOT
BRANCH   2   3
HETATM    3  C   UNL     1      -9.129   4.267  73.202  1.00  0.00    -0.119 C  
HETATM    4  C   UNL     1      -9.576   5.525  73.030  1.00  0.00    -0.161 C  
BRANCH   4   5
HETATM    5  C   UNL     1     -11.011   5.938  73.179  1.00  0.00    -0.286 C  
BRANCH   5   6
HETATM    6  C   UNL     1     -11.702   6.159  71.861  1.00  0.00    -0.337 C  
HETATM    7  C   UNL     1     -11.968   7.357  71.322  1.00  0.00    -0.343 C  
BRANCH   7   8
HETATM    8  C   UNL     1     -11.496   8.645  71.925  1.00  0.00    -0.419 C  
BRANCH   8   9
HETATM    9  C   UNL     1     -10.067   8.941  71.584  1.00  0.00    -0.411 C  
HETATM   10  C   UNL     1      -9.627   9.448  70.418  1.00  0.00    -0.319 C  
BRANCH  10  11
HETATM   11  C   UNL     1     -10.466   9.802  69.220  1.00  0.00    -0.236 C  
BRANCH  11  12
HETATM   12  C   UNL     1     -10.689   8.703  68.206  1.00  0.00    -0.107 C  
HETATM   13  C   UNL     1     -10.211   8.585  66.952  1.00  0.00    -0.375 C  
BRANCH  13  14
HETATM   14  C   UNL     1      -9.386   9.606  66.232  1.00  0.00    -0.238 C  
BRANCH  14  15
HETATM   15  C   UNL     1      -9.853   9.890  64.836  1.00  0.00    -0.282 C  
HETATM   16  C   UNL     1     -10.146  11.126  64.401  1.00  0.00    -0.377 C  
BRANCH  16  17
HETATM   17  C   UNL     1     -10.094  12.320  65.309  1.00  0.00    -0.295 C  
BRANCH  17  18
HETATM   18  C   UNL     1     -11.455  12.737  65.838  1.00  0.00    -0.399 C  
BRANCH  18  19
HETATM   19  C   UNL     1     -11.648  14.238  65.646  1.00  0.00    -0.346 C  
HETATM   20  C   UNL     1     -12.248  14.553  64.296  1.00  0.00    -0.415 C  
HETATM   21  O   UNL     1     -12.539  13.725  63.448  1.00  0.00    -0.842 OA 
HETATM   22  O   UNL     1     -12.437  15.878  64.122  1.00  0.00    -0.605 OA 
ENDBRANCH  18  19
ENDBRANCH  17  18
ENDBRANCH  16  17
ENDBRANCH  14  15
ENDBRANCH  13  14
ENDBRANCH  11  12
ENDBRANCH  10  11
ENDBRANCH   8   9
ENDBRANCH   7   8
ENDBRANCH   5   6
ENDBRANCH   4   5
ENDBRANCH   2   3
TORSDOF 12
ENDMDL
MODEL      247
REMARK 921   NORMALIZED FREE ENERGY PREDICTED BY IDOCK:   -3.68 KCAL/MOL
REMARK 922        TOTAL FREE ENERGY PREDICTED BY IDOCK:   -8.76 KCAL/MOL
REMARK 923 INTER-LIGAND FREE ENERGY PREDICTED BY IDOCK:   -6.89 KCAL/MOL
REMARK 924 INTRA-LIGAND FREE ENERGY PREDICTED BY IDOCK:   -1.87 KCAL/MOL
REMARK 927      BINDING AFFINITY PREDICTED BY RF-SCORE:    0.00 PKD
ROOT
HETATM    1  C   UNL     1     -10.068   5.136  71.040  1.00  0.00    -0.297 C  
HETATM    2  C   UNL     1     -11.080   5.469  72.124  1.00  0.00    -0.272 C  
ENDROOT
BRANCH   2   3
HETATM    3  C   UNL     1     -10.563   6.514  73.075  1.00  0.00    -0.276 C  
HETATM    4  C   UNL     1     -10.900   7.817  73.063  1.00  0.00    -0.451 C  
BRANCH   4   5
HETATM    5  C   UNL     1     -11.883   8.426  72.106  1.00  0.00    -0.441 C  
BRANCH   5   6
HETATM    6  C   UNL     1     -11.352   9.651  71.413  1.00  0.00    -0.444 C  
HETATM    7  C   UNL     1     -10.511   9.642  70.369  1.00  0.00    -0.352 C  
BRANCH   7   8
HETATM    8  C   UNL     1     -10.082   8.383  69.679  1.00  0.00    -0.199 C  
BRANCH   8   9
HETATM    9  C   UNL     1     -10.971   8.039  68.523  1.00  0.00     0.164 C  
HETATM   10  C   UNL     1     -10.572   7.865  67.249  1.00  0.00    -0.365 C  
BRANCH  10  11
HETATM   11  C   UNL     1      -9.167   7.996  66.724  1.00  0.00    -0.206 C  
BRANCH  11  12
HETATM   12  C   UNL     1      -8.588   9.392  66.692  1.00  0.00    -0.138 C  
HETATM   13  C   UNL     1      -9.021  10.483  66.032  1.00  0.00    -0.185 C  
BRANCH  13  14
HETATM   14  C   UNL     1     -10.174  10.527  65.079  1.00  0.00    -0.365 C  
BRANCH  14  15
HETATM   15  C   UNL     1      -9.879  11.253  63.800  1.00  0.00    -0.361 C  
HETATM   16  C   UNL     1     -10.759  12.076  63.207  1.00  0.00    -0.400 C  
BRANCH  16  17
HETATM   17  C   UNL     1     -12.145  12.278  63.747  1.00  0.00    -0.624 C  
BRANCH  17  18
HETATM   18  C   UNL     1     -12.352  13.640  64.388  1.00  0.00    -0.387 C  
BRANCH  18  19
HETATM   19  C   UNL     1     -12.880  13.468  65.809  1.00  0.00    -0.326 C  
HETATM   20  C   UNL     1     -11.784  13.643  66.834  1.00  0.00    -0.389 C  
HETATM   21  O   UNL     1     -10.615  13.881  66.576  1.00  0.00    -0.276 OA 
HETATM   22  O   UNL     1     -12.243  13.508  68.095  1.00  0.00    -0.302 OA 
ENDBRANCH  18  19
ENDBRANCH  17  18
ENDBRANCH  16  17
ENDBRANCH  14  15
ENDBRANCH  13  14
ENDBRANCH  11  12
ENDBRANCH  10  11
ENDBRANCH   8   9
ENDBRANCH   7   8
ENDBRANCH   5   6
ENDBRANCH   4   5
ENDBRANCH   2   3
TORSDOF 12
ENDMDL
MODEL      248
REMARK 921   NORMALIZED FREE ENERGY PREDICTED BY IDOCK:   -3.68 KCAL/MOL
REMARK 922        TOTAL FREE ENERGY PREDICTED BY IDOCK:   -8.76 KCAL/MOL
REMARK 923 INTER-LIGAND FREE ENERGY PREDICTED BY IDOCK:   -7.12 KCAL/MOL
REMARK 924 INTRA-LIGAND FREE ENERGY PREDICTED BY IDOCK:   -1.64 KCAL/MOL
REMARK 927      BINDING AFFINITY PREDICTED BY RF-SCORE:    0.00 PKD
ROOT
HETATM    1  C   UNL     1      -7.577   6.579  71.425  1.00  0.00    -0.094 C  
HETATM    2  C   UNL     1      -8.294   5.243  71.315  1.00  0.00    -0.123 C  
ENDROOT
BRANCH   2   3
HETATM    3  C   UNL     1      -8.263   4.480  72.611  1.00  0.00    -0.106 C  
HETATM    4  C   UNL     1      -9.289   4.364  73.475  1.00  0.00    -0.122 C  
BRANCH   4   5
HETATM    5  C   UNL     1     -10.649   4.958  73.254  1.00  0.00    -0.289 C  
BRANCH   5   6
HETATM    6  C   UNL     1     -10.711   6.426  73.573  1.00  0.00    -0.267 C  
HETATM    7  C   UNL     1     -11.345   7.349  72.835  1.00  0.00    -0.322 C  
BRANCH   7   8
HETATM    8  C   UNL     1     -12.183   7.003  71.642  1.00  0.00    -0.395 C  
BRANCH   8   9
HETATM    9  C   UNL     1     -11.381   6.961  70.377  1.00  0.00    -0.376 C  
HETATM   10  C   UNL     1     -10.550   7.926  69.941  1.00  0.00    -0.242 C  
BRANCH  10  11
HETATM   11  C   UNL     1     -10.272   9.242  70.617  1.00  0.00    -0.335 C  
BRANCH  11  12
HETATM   12  C   UNL     1     -11.425  10.216  70.696  1.00  0.00    -0.432 C  
HETATM   13  C   UNL     1     -11.932  11.021  69.743  1.00  0.00    -0.428 C  
BRANCH  13  14
HETATM   14  C   UNL     1     -11.383  11.194  68.362  1.00  0.00    -0.357 C  
BRANCH  14  15
HETATM   15  C   UNL     1     -10.264  12.188  68.273  1.00  0.00    -0.209 C  
HETATM   16  C   UNL     1     -10.461  13.485  67.985  1.00  0.00    -0.245 C  
BRANCH  16  17
HETATM   17  C   UNL     1     -11.821  14.028  67.658  1.00  0.00    -0.430 C  
BRANCH  17  18
HETATM   18  C   UNL     1     -11.927  14.590  66.251  1.00  0.00    -0.335 C  
BRANCH  18  19
HETATM   19  C   UNL     1     -12.837  13.702  65.407  1.00  0.00    -0.440 C  
HETATM   20  C   UNL     1     -12.071  13.011  64.303  1.00  0.00    -0.414 C  
HETATM   21  O   UNL     1     -10.877  13.142  64.090  1.00  0.00    -0.388 OA 
HETATM   22  O   UNL     1     -12.864  12.211  63.560  1.00  0.00    -0.768 OA 
ENDBRANCH  18  19
ENDBRANCH  17  18
ENDBRANCH  16  17
ENDBRANCH  14  15
ENDBRANCH  13  14
ENDBRANCH  11  12
ENDBRANCH  10  11
ENDBRANCH   8   9
ENDBRANCH   7   8
ENDBRANCH   5   6
ENDBRANCH   4   5
ENDBRANCH   2   3
TORSDOF 12
ENDMDL
MODEL      249
REMARK 921   NORMALIZED FREE ENERGY PREDICTED BY IDOCK:   -3.68 KCAL/MOL
REMARK 922        TOTAL FREE ENERGY PREDICTED BY IDOCK:   -8.76 KCAL/MOL
REMARK 923 INTER-LIGAND FREE ENERGY PREDICTED BY IDOCK:   -6.37 KCAL/MOL
REMARK 924 INTRA-LIGAND FREE ENERGY PREDICTED BY IDOCK:   -2.39 KCAL/MOL
REMARK 927      BINDING AFFINITY PREDICTED BY RF-SCORE:    0.00 PKD
ROOT
HETATM    1  C   UNL     1      -5.728  17.632  69.214  1.00  0.00    -0.205 C  
HETATM    2  C   UNL     1      -6.545  16.354  69.320  1.00  0.00    -0.206 C  
ENDROOT
BRANCH   2   3
HETATM    3  C   UNL     1      -7.049  15.895  67.979  1.00  0.00    -0.141 C  
HETATM    4  C   UNL     1      -6.894  14.660  67.466  1.00  0.00    -0.174 C  
BRANCH   4   5
HETATM    5  C   UNL     1      -6.216  13.529  68.181  1.00  0.00    -0.114 C  
BRANCH   5   6
HETATM    6  C   UNL     1      -7.144  12.757  69.079  1.00  0.00    -0.025 C  
HETATM    7  C   UNL     1      -8.084  11.897  68.659  1.00  0.00    -0.086 C  
BRANCH   7   8
HETATM    8  C   UNL     1      -8.248  11.507  67.221  1.00  0.00    -0.155 C  
BRANCH   8   9
HETATM    9  C   UNL     1      -9.536  10.783  66.973  1.00  0.00    -0.186 C  
HETATM   10  C   UNL     1     -10.252  10.821  65.834  1.00  0.00    -0.319 C  
BRANCH  10  11
HETATM   11  C   UNL     1      -9.921  11.605  64.593  1.00  0.00    -0.291 C  
BRANCH  11  12
HETATM   12  C   UNL     1     -11.049  11.815  63.608  1.00  0.00    -0.518 C  
HETATM   13  C   UNL     1     -11.876  12.869  63.467  1.00  0.00    -0.605 C  
BRANCH  13  14
HETATM   14  C   UNL     1     -11.911  14.077  64.349  1.00  0.00    -0.480 C  
BRANCH  14  15
HETATM   15  C   UNL     1     -12.663  13.873  65.631  1.00  0.00    -0.534 C  
HETATM   16  C   UNL     1     -12.114  14.076  66.840  1.00  0.00    -0.465 C  
BRANCH  16  17
HETATM   17  C   UNL     1     -10.672  14.458  67.003  1.00  0.00    -0.285 C  
BRANCH  17  18
HETATM   18  C   UNL     1     -10.466  15.684  67.876  1.00  0.00    -0.267 C  
BRANCH  18  19
HETATM   19  C   UNL     1     -11.111  16.901  67.220  1.00  0.00     0.091 C  
HETATM   20  C   UNL     1     -10.321  17.370  66.020  1.00  0.00    -0.304 C  
HETATM   21  O   UNL     1      -9.288  16.859  65.618  1.00  0.00    -0.519 OA 
HETATM   22  O   UNL     1     -10.892  18.436  65.423  1.00  0.00    -0.577 OA 
ENDBRANCH  18  19
ENDBRANCH  17  18
ENDBRANCH  16  17
ENDBRANCH  14  15
ENDBRANCH  13  14
ENDBRANCH  11  12
ENDBRANCH  10  11
ENDBRANCH   8   9
ENDBRANCH   7   8
ENDBRANCH   5   6
ENDBRANCH   4   5
ENDBRANCH   2   3
TORSDOF 12
ENDMDL
MODEL      250
REMARK 921   NORMALIZED FREE ENERGY PREDICTED BY IDOCK:   -3.68 KCAL/MOL
REMARK 922        TOTAL FREE ENERGY PREDICTED BY IDOCK:   -8.76 KCAL/MOL
REMARK 923 INTER-LIGAND FREE ENERGY PREDICTED BY IDOCK:   -5.69 KCAL/MOL
REMARK 924 INTRA-LIGAND FREE ENERGY PREDICTED BY IDOCK:   -3.07 KCAL/MOL
REMARK 927      BINDING AFFINITY PREDICTED BY RF-SCORE:    0.00 PKD
ROOT
HETATM    1  C   UNL     1     -10.583   5.728  69.012  1.00  0.00    -0.351 C  
HETATM    2  C   UNL     1     -11.075   6.393  67.736  1.00  0.00    -0.376 C  
ENDROOT
BRANCH   2   3
HETATM    3  C   UNL     1      -9.954   6.644  66.765  1.00  0.00    -0.238 C  
HETATM    4  C   UNL     1      -9.604   7.846  66.270  1.00  0.00    -0.200 C  
BRANCH   4   5
HETATM    5  C   UNL     1     -10.267   9.139  66.645  1.00  0.00    -0.328 C  
BRANCH   5   6
HETATM    6  C   UNL     1      -9.769  10.312  65.846  1.00  0.00    -0.283 C  
HETATM    7  C   UNL     1      -9.466  11.516  66.353  1.00  0.00    -0.230 C  
BRANCH   7   8
HETATM    8  C   UNL     1      -9.478  11.808  67.822  1.00  0.00    -0.181 C  
BRANCH   8   9
HETATM    9  C   UNL     1      -8.111  11.721  68.429  1.00  0.00    -0.150 C  
HETATM   10  C   UNL     1      -7.655  10.715  69.199  1.00  0.00    -0.131 C  
BRANCH  10  11
HETATM   11  C   UNL     1      -8.423   9.491  69.622  1.00  0.00    -0.174 C  
BRANCH  11  12
HETATM   12  C   UNL     1      -7.745   8.159  69.395  1.00  0.00    -0.103 C  
HETATM   13  C   UNL     1      -7.407   7.208  70.287  1.00  0.00    -0.083 C  
BRANCH  13  14
HETATM   14  C   UNL     1      -7.562   7.308  71.772  1.00  0.00    -0.086 C  
BRANCH  14  15
HETATM   15  C   UNL     1      -8.501   6.295  72.355  1.00  0.00    -0.114 C  
HETATM   16  C   UNL     1      -9.738   6.604  72.776  1.00  0.00    -0.166 C  
BRANCH  16  17
HETATM   17  C   UNL     1     -10.253   8.013  72.761  1.00  0.00    -0.389 C  
BRANCH  17  18
HETATM   18  C   UNL     1     -11.311   8.260  71.699  1.00  0.00    -0.329 C  
BRANCH  18  19
HETATM   19  C   UNL     1     -11.553   9.759  71.549  1.00  0.00    -0.424 C  
HETATM   20  C   UNL     1     -12.976  10.129  71.897  1.00  0.00    -0.447 C  
HETATM   21  O   UNL     1     -13.841   9.341  72.245  1.00  0.00    -0.453 OA 
HETATM   22  O   UNL     1     -13.197  11.455  71.783  1.00  0.00    -0.458 OA 
ENDBRANCH  18  19
ENDBRANCH  17  18
ENDBRANCH  16  17
ENDBRANCH  14  15
ENDBRANCH  13  14
ENDBRANCH  11  12
ENDBRANCH  10  11
ENDBRANCH   8   9
ENDBRANCH   7   8
ENDBRANCH   5   6
ENDBRANCH   4   5
ENDBRANCH   2   3
TORSDOF 12
ENDMDL
MODEL      251
REMARK 921   NORMALIZED FREE ENERGY PREDICTED BY IDOCK:   -3.67 KCAL/MOL
REMARK 922        TOTAL FREE ENERGY PREDICTED BY IDOCK:   -8.75 KCAL/MOL
REMARK 923 INTER-LIGAND FREE ENERGY PREDICTED BY IDOCK:   -6.93 KCAL/MOL
REMARK 924 INTRA-LIGAND FREE ENERGY PREDICTED BY IDOCK:   -1.82 KCAL/MOL
REMARK 927      BINDING AFFINITY PREDICTED BY RF-SCORE:    0.00 PKD
ROOT
HETATM    1  C   UNL     1     -14.391  14.864  71.720  1.00  0.00    -0.668 C  
HETATM    2  C   UNL     1     -12.873  14.847  71.817  1.00  0.00    -0.404 C  
ENDROOT
BRANCH   2   3
HETATM    3  C   UNL     1     -12.254  13.940  70.790  1.00  0.00    -0.441 C  
HETATM    4  C   UNL     1     -11.919  14.294  69.534  1.00  0.00    -0.384 C  
BRANCH   4   5
HETATM    5  C   UNL     1     -12.085  15.676  68.975  1.00  0.00    -0.227 C  
BRANCH   5   6
HETATM    6  C   UNL     1     -10.938  16.590  69.308  1.00  0.00    -0.302 C  
HETATM    7  C   UNL     1     -10.168  17.219  68.409  1.00  0.00    -0.358 C  
BRANCH   7   8
HETATM    8  C   UNL     1     -10.436  17.178  66.936  1.00  0.00    -0.274 C  
BRANCH   8   9
HETATM    9  C   UNL     1      -9.286  16.607  66.165  1.00  0.00    -0.312 C  
HETATM   10  C   UNL     1      -8.950  15.305  66.103  1.00  0.00    -0.251 C  
BRANCH  10  11
HETATM   11  C   UNL     1      -9.642  14.166  66.804  1.00  0.00    -0.290 C  
BRANCH  11  12
HETATM   12  C   UNL     1      -8.779  13.296  67.689  1.00  0.00    -0.195 C  
HETATM   13  C   UNL     1      -8.438  12.001  67.544  1.00  0.00    -0.165 C  
BRANCH  13  14
HETATM   14  C   UNL     1      -8.931  11.082  66.471  1.00  0.00    -0.181 C  
BRANCH  14  15
HETATM   15  C   UNL     1     -10.394  10.767  66.566  1.00  0.00    -0.300 C  
HETATM   16  C   UNL     1     -10.884   9.811  67.372  1.00  0.00    -0.265 C  
BRANCH  16  17
HETATM   17  C   UNL     1      -9.989   8.930  68.194  1.00  0.00    -0.208 C  
BRANCH  17  18
HETATM   18  C   UNL     1     -10.027   9.247  69.679  1.00  0.00    -0.201 C  
BRANCH  18  19
HETATM   19  C   UNL     1     -11.023  10.373  69.943  1.00  0.00    -0.364 C  
HETATM   20  C   UNL     1     -11.876  10.088  71.157  1.00  0.00    -0.393 C  
HETATM   21  O   UNL     1     -11.801   9.083  71.846  1.00  0.00    -0.344 OA 
HETATM   22  O   UNL     1     -12.750  11.085  71.408  1.00  0.00    -0.401 OA 
ENDBRANCH  18  19
ENDBRANCH  17  18
ENDBRANCH  16  17
ENDBRANCH  14  15
ENDBRANCH  13  14
ENDBRANCH  11  12
ENDBRANCH  10  11
ENDBRANCH   8   9
ENDBRANCH   7   8
ENDBRANCH   5   6
ENDBRANCH   4   5
ENDBRANCH   2   3
TORSDOF 12
ENDMDL
MODEL      252
REMARK 921   NORMALIZED FREE ENERGY PREDICTED BY IDOCK:   -3.65 KCAL/MOL
REMARK 922        TOTAL FREE ENERGY PREDICTED BY IDOCK:   -8.72 KCAL/MOL
REMARK 923 INTER-LIGAND FREE ENERGY PREDICTED BY IDOCK:   -6.25 KCAL/MOL
REMARK 924 INTRA-LIGAND FREE ENERGY PREDICTED BY IDOCK:   -2.47 KCAL/MOL
REMARK 927      BINDING AFFINITY PREDICTED BY RF-SCORE:    0.00 PKD
ROOT
HETATM    1  C   UNL     1      -8.986  15.305  67.644  1.00  0.00    -0.182 C  
HETATM    2  C   UNL     1      -9.857  14.307  66.899  1.00  0.00    -0.264 C  
ENDROOT
BRANCH   2   3
HETATM    3  C   UNL     1     -11.322  14.596  67.077  1.00  0.00    -0.362 C  
HETATM    4  C   UNL     1     -12.331  13.815  66.644  1.00  0.00    -0.403 C  
BRANCH   4   5
HETATM    5  C   UNL     1     -12.141  12.504  65.940  1.00  0.00    -0.420 C  
BRANCH   5   6
HETATM    6  C   UNL     1     -12.504  12.560  64.482  1.00  0.00    -0.539 C  
HETATM    7  C   UNL     1     -11.644  12.391  63.467  1.00  0.00    -0.577 C  
BRANCH   7   8
HETATM    8  C   UNL     1     -10.211  12.004  63.670  1.00  0.00    -0.470 C  
BRANCH   8   9
HETATM    9  C   UNL     1      -9.767  10.946  62.706  1.00  0.00    -0.307 C  
HETATM   10  C   UNL     1      -8.724  10.113  62.878  1.00  0.00    -0.209 C  
BRANCH  10  11
HETATM   11  C   UNL     1      -7.785  10.083  64.055  1.00  0.00    -0.143 C  
BRANCH  11  12
HETATM   12  C   UNL     1      -7.914   8.902  64.989  1.00  0.00    -0.125 C  
HETATM   13  C   UNL     1      -8.811   8.681  65.969  1.00  0.00    -0.213 C  
BRANCH  13  14
HETATM   14  C   UNL     1      -9.870   9.639  66.418  1.00  0.00    -0.309 C  
BRANCH  14  15
HETATM   15  C   UNL     1      -9.368  10.709  67.341  1.00  0.00    -0.157 C  
HETATM   16  C   UNL     1      -9.790  10.836  68.610  1.00  0.00    -0.187 C  
BRANCH  16  17
HETATM   17  C   UNL     1     -10.857   9.950  69.184  1.00  0.00    -0.248 C  
BRANCH  17  18
HETATM   18  C   UNL     1     -10.322   8.643  69.745  1.00  0.00    -0.212 C  
BRANCH  18  19
HETATM   19  C   UNL     1     -10.351   8.684  71.269  1.00  0.00    -0.308 C  
HETATM   20  C   UNL     1      -8.957   8.676  71.852  1.00  0.00    -0.231 C  
HETATM   21  O   UNL     1      -7.926   8.631  71.202  1.00  0.00    -0.112 OA 
HETATM   22  O   UNL     1      -8.971   8.728  73.200  1.00  0.00    -0.274 OA 
ENDBRANCH  18  19
ENDBRANCH  17  18
ENDBRANCH  16  17
ENDBRANCH  14  15
ENDBRANCH  13  14
ENDBRANCH  11  12
ENDBRANCH  10  11
ENDBRANCH   8   9
ENDBRANCH   7   8
ENDBRANCH   5   6
ENDBRANCH   4   5
ENDBRANCH   2   3
TORSDOF 12
ENDMDL
MODEL      253
REMARK 921   NORMALIZED FREE ENERGY PREDICTED BY IDOCK:   -3.64 KCAL/MOL
REMARK 922        TOTAL FREE ENERGY PREDICTED BY IDOCK:   -8.70 KCAL/MOL
REMARK 923 INTER-LIGAND FREE ENERGY PREDICTED BY IDOCK:   -6.31 KCAL/MOL
REMARK 924 INTRA-LIGAND FREE ENERGY PREDICTED BY IDOCK:   -2.39 KCAL/MOL
REMARK 927      BINDING AFFINITY PREDICTED BY RF-SCORE:    0.00 PKD
ROOT
HETATM    1  C   UNL     1     -11.071  11.710  63.383  1.00  0.00    -0.422 C  
HETATM    2  C   UNL     1     -12.372  12.453  63.646  1.00  0.00    -0.647 C  
ENDROOT
BRANCH   2   3
HETATM    3  C   UNL     1     -12.541  12.792  65.101  1.00  0.00    -0.513 C  
HETATM    4  C   UNL     1     -12.274  13.987  65.662  1.00  0.00    -0.462 C  
BRANCH   4   5
HETATM    5  C   UNL     1     -11.792  15.187  64.901  1.00  0.00    -0.239 C  
BRANCH   5   6
HETATM    6  C   UNL     1     -10.293  15.305  64.871  1.00  0.00    -0.273 C  
HETATM    7  C   UNL     1      -9.568  16.109  65.663  1.00  0.00    -0.185 C  
BRANCH   7   8
HETATM    8  C   UNL     1     -10.168  16.916  66.773  1.00  0.00    -0.306 C  
BRANCH   8   9
HETATM    9  C   UNL     1     -10.620  18.268  66.312  1.00  0.00    -0.320 C  
HETATM   10  C   UNL     1      -9.938  19.418  66.463  1.00  0.00    -0.485 C  
BRANCH  10  11
HETATM   11  C   UNL     1      -8.602  19.587  67.136  1.00  0.00    -0.337 C  
BRANCH  11  12
HETATM   12  C   UNL     1      -7.395  19.660  66.228  1.00  0.00    -0.284 C  
HETATM   13  C   UNL     1      -6.478  18.715  65.946  1.00  0.00    -0.278 C  
BRANCH  13  14
HETATM   14  C   UNL     1      -6.406  17.354  66.565  1.00  0.00    -0.260 C  
BRANCH  14  15
HETATM   15  C   UNL     1      -5.949  17.359  67.994  1.00  0.00    -0.148 C  
HETATM   16  C   UNL     1      -6.467  16.547  68.929  1.00  0.00    -0.163 C  
BRANCH  16  17
HETATM   17  C   UNL     1      -7.602  15.613  68.628  1.00  0.00    -0.143 C  
BRANCH  17  18
HETATM   18  C   UNL     1      -8.568  15.440  69.788  1.00  0.00    -0.006 C  
BRANCH  18  19
HETATM   19  C   UNL     1      -9.713  14.521  69.376  1.00  0.00     0.093 C  
HETATM   20  C   UNL     1     -11.046  15.039  69.863  1.00  0.00    -0.274 C  
HETATM   21  O   UNL     1     -11.205  16.057  70.516  1.00  0.00    -0.345 OA 
HETATM   22  O   UNL     1     -12.067  14.240  69.490  1.00  0.00    -0.313 OA 
ENDBRANCH  18  19
ENDBRANCH  17  18
ENDBRANCH  16  17
ENDBRANCH  14  15
ENDBRANCH  13  14
ENDBRANCH  11  12
ENDBRANCH  10  11
ENDBRANCH   8   9
ENDBRANCH   7   8
ENDBRANCH   5   6
ENDBRANCH   4   5
ENDBRANCH   2   3
TORSDOF 12
ENDMDL
MODEL      254
REMARK 921   NORMALIZED FREE ENERGY PREDICTED BY IDOCK:   -3.63 KCAL/MOL
REMARK 922        TOTAL FREE ENERGY PREDICTED BY IDOCK:   -8.68 KCAL/MOL
REMARK 923 INTER-LIGAND FREE ENERGY PREDICTED BY IDOCK:   -5.72 KCAL/MOL
REMARK 924 INTRA-LIGAND FREE ENERGY PREDICTED BY IDOCK:   -2.97 KCAL/MOL
REMARK 927      BINDING AFFINITY PREDICTED BY RF-SCORE:    0.00 PKD
ROOT
HETATM    1  C   UNL     1      -8.675   8.986  63.832  1.00  0.00    -0.110 C  
HETATM    2  C   UNL     1      -8.488  10.495  63.824  1.00  0.00    -0.127 C  
ENDROOT
BRANCH   2   3
HETATM    3  C   UNL     1      -9.676  11.205  63.237  1.00  0.00    -0.398 C  
HETATM    4  C   UNL     1     -10.799  11.534  63.904  1.00  0.00    -0.469 C  
BRANCH   4   5
HETATM    5  C   UNL     1     -11.021  11.267  65.364  1.00  0.00    -0.201 C  
BRANCH   5   6
HETATM    6  C   UNL     1     -11.692  12.409  66.077  1.00  0.00    -0.469 C  
HETATM    7  C   UNL     1     -11.055  13.446  66.640  1.00  0.00    -0.310 C  
BRANCH   7   8
HETATM    8  C   UNL     1      -9.576  13.655  66.522  1.00  0.00    -0.294 C  
BRANCH   8   9
HETATM    9  C   UNL     1      -8.847  13.268  67.773  1.00  0.00    -0.197 C  
HETATM   10  C   UNL     1      -7.956  12.265  67.885  1.00  0.00    -0.152 C  
BRANCH  10  11
HETATM   11  C   UNL     1      -7.524  11.323  66.793  1.00  0.00    -0.146 C  
BRANCH  11  12
HETATM   12  C   UNL     1      -6.893  10.023  67.236  1.00  0.00    -0.082 C  
HETATM   13  C   UNL     1      -7.475   8.839  67.507  1.00  0.00    -0.089 C  
BRANCH  13  14
HETATM   14  C   UNL     1      -8.947   8.568  67.508  1.00  0.00    -0.142 C  
BRANCH  14  15
HETATM   15  C   UNL     1      -9.453   7.967  68.786  1.00  0.00    -0.147 C  
HETATM   16  C   UNL     1      -9.992   8.701  69.774  1.00  0.00    -0.190 C  
BRANCH  16  17
HETATM   17  C   UNL     1     -10.064  10.198  69.703  1.00  0.00    -0.265 C  
BRANCH  17  18
HETATM   18  C   UNL     1     -11.431  10.720  69.297  1.00  0.00    -0.369 C  
BRANCH  18  19
HETATM   19  C   UNL     1     -12.337  10.803  70.522  1.00  0.00    -0.458 C  
HETATM   20  C   UNL     1     -12.564  12.234  70.949  1.00  0.00    -0.241 C  
HETATM   21  O   UNL     1     -12.082  13.213  70.403  1.00  0.00    -0.351 OA 
HETATM   22  O   UNL     1     -13.377  12.320  72.023  1.00  0.00    -0.506 OA 
ENDBRANCH  18  19
ENDBRANCH  17  18
ENDBRANCH  16  17
ENDBRANCH  14  15
ENDBRANCH  13  14
ENDBRANCH  11  12
ENDBRANCH  10  11
ENDBRANCH   8   9
ENDBRANCH   7   8
ENDBRANCH   5   6
ENDBRANCH   4   5
ENDBRANCH   2   3
TORSDOF 12
ENDMDL
MODEL      255
REMARK 921   NORMALIZED FREE ENERGY PREDICTED BY IDOCK:   -3.63 KCAL/MOL
REMARK 922        TOTAL FREE ENERGY PREDICTED BY IDOCK:   -8.68 KCAL/MOL
REMARK 923 INTER-LIGAND FREE ENERGY PREDICTED BY IDOCK:   -6.69 KCAL/MOL
REMARK 924 INTRA-LIGAND FREE ENERGY PREDICTED BY IDOCK:   -1.99 KCAL/MOL
REMARK 927      BINDING AFFINITY PREDICTED BY RF-SCORE:    0.00 PKD
ROOT
HETATM    1  C   UNL     1     -11.180  15.897  71.284  1.00  0.00    -0.325 C  
HETATM    2  C   UNL     1     -11.649  15.473  72.667  1.00  0.00    -0.503 C  
ENDROOT
BRANCH   2   3
HETATM    3  C   UNL     1     -13.026  15.991  72.976  1.00  0.00    -0.586 C  
HETATM    4  C   UNL     1     -14.180  15.454  72.537  1.00  0.00    -0.500 C  
BRANCH   4   5
HETATM    5  C   UNL     1     -14.268  14.220  71.688  1.00  0.00    -0.469 C  
BRANCH   5   6
HETATM    6  C   UNL     1     -13.967  12.958  72.449  1.00  0.00    -0.338 C  
HETATM    7  C   UNL     1     -13.105  12.010  72.057  1.00  0.00    -0.456 C  
BRANCH   7   8
HETATM    8  C   UNL     1     -12.232  12.151  70.848  1.00  0.00    -0.310 C  
BRANCH   8   9
HETATM    9  C   UNL     1     -12.341  10.974  69.928  1.00  0.00    -0.356 C  
HETATM   10  C   UNL     1     -11.727  10.847  68.737  1.00  0.00    -0.355 C  
BRANCH  10  11
HETATM   11  C   UNL     1     -10.828  11.860  68.079  1.00  0.00    -0.256 C  
BRANCH  11  12
HETATM   12  C   UNL     1      -9.368  11.486  67.959  1.00  0.00    -0.175 C  
HETATM   13  C   UNL     1      -8.771  10.636  67.102  1.00  0.00    -0.130 C  
BRANCH  13  14
HETATM   14  C   UNL     1      -9.468   9.777  66.095  1.00  0.00    -0.261 C  
BRANCH  14  15
HETATM   15  C   UNL     1      -8.863   8.413  65.936  1.00  0.00    -0.212 C  
HETATM   16  C   UNL     1      -9.465   7.293  66.366  1.00  0.00    -0.185 C  
BRANCH  16  17
HETATM   17  C   UNL     1     -10.769   7.327  67.108  1.00  0.00    -0.413 C  
BRANCH  17  18
HETATM   18  C   UNL     1     -10.695   6.702  68.491  1.00  0.00    -0.308 C  
BRANCH  18  19
HETATM   19  C   UNL     1     -10.146   7.718  69.488  1.00  0.00    -0.194 C  
HETATM   20  C   UNL     1      -8.753   7.353  69.944  1.00  0.00    -0.141 C  
HETATM   21  O   UNL     1      -8.132   6.367  69.580  1.00  0.00    -0.114 OA 
HETATM   22  O   UNL     1      -8.252   8.254  70.815  1.00  0.00    -0.103 OA 
ENDBRANCH  18  19
ENDBRANCH  17  18
ENDBRANCH  16  17
ENDBRANCH  14  15
ENDBRANCH  13  14
ENDBRANCH  11  12
ENDBRANCH  10  11
ENDBRANCH   8   9
ENDBRANCH   7   8
ENDBRANCH   5   6
ENDBRANCH   4   5
ENDBRANCH   2   3
TORSDOF 12
ENDMDL
MODEL      256
REMARK 921   NORMALIZED FREE ENERGY PREDICTED BY IDOCK:   -3.62 KCAL/MOL
REMARK 922        TOTAL FREE ENERGY PREDICTED BY IDOCK:   -8.67 KCAL/MOL
REMARK 923 INTER-LIGAND FREE ENERGY PREDICTED BY IDOCK:   -6.91 KCAL/MOL
REMARK 924 INTRA-LIGAND FREE ENERGY PREDICTED BY IDOCK:   -1.76 KCAL/MOL
REMARK 927      BINDING AFFINITY PREDICTED BY RF-SCORE:    0.00 PKD
ROOT
HETATM    1  C   UNL     1     -11.809   7.306  71.510  1.00  0.00    -0.335 C  
HETATM    2  C   UNL     1     -10.412   6.774  71.233  1.00  0.00    -0.237 C  
ENDROOT
BRANCH   2   3
HETATM    3  C   UNL     1     -10.349   5.275  71.345  1.00  0.00    -0.290 C  
HETATM    4  C   UNL     1      -9.725   4.453  70.480  1.00  0.00    -0.287 C  
BRANCH   4   5
HETATM    5  C   UNL     1      -8.960   4.918  69.276  1.00  0.00    -0.129 C  
BRANCH   5   6
HETATM    6  C   UNL     1      -9.566   4.459  67.978  1.00  0.00    -0.204 C  
HETATM    7  C   UNL     1     -10.533   5.103  67.309  1.00  0.00    -0.197 C  
BRANCH   7   8
HETATM    8  C   UNL     1     -11.055   6.445  67.724  1.00  0.00    -0.376 C  
BRANCH   8   9
HETATM    9  C   UNL     1     -10.539   7.549  66.852  1.00  0.00    -0.367 C  
HETATM   10  C   UNL     1     -10.245   8.798  67.258  1.00  0.00    -0.332 C  
BRANCH  10  11
HETATM   11  C   UNL     1     -10.388   9.345  68.653  1.00  0.00    -0.227 C  
BRANCH  11  12
HETATM   12  C   UNL     1      -9.910  10.762  68.874  1.00  0.00    -0.209 C  
HETATM   13  C   UNL     1     -10.501  11.926  68.543  1.00  0.00    -0.240 C  
BRANCH  13  14
HETATM   14  C   UNL     1     -11.778  12.070  67.776  1.00  0.00    -0.379 C  
BRANCH  14  15
HETATM   15  C   UNL     1     -11.585  12.472  66.344  1.00  0.00    -0.449 C  
HETATM   16  C   UNL     1     -11.460  13.752  65.955  1.00  0.00    -0.336 C  
BRANCH  16  17
HETATM   17  C   UNL     1     -11.575  14.891  66.925  1.00  0.00    -0.286 C  
BRANCH  17  18
HETATM   18  C   UNL     1     -10.299  15.703  67.060  1.00  0.00    -0.289 C  
BRANCH  18  19
HETATM   19  C   UNL     1     -10.589  17.003  67.804  1.00  0.00    -0.350 C  
HETATM   20  C   UNL     1     -10.566  18.193  66.873  1.00  0.00    -0.308 C  
HETATM   21  O   UNL     1     -10.335  18.143  65.676  1.00  0.00    -0.603 OA 
HETATM   22  O   UNL     1     -10.837  19.347  67.519  1.00  0.00    -0.478 OA 
ENDBRANCH  18  19
ENDBRANCH  17  18
ENDBRANCH  16  17
ENDBRANCH  14  15
ENDBRANCH  13  14
ENDBRANCH  11  12
ENDBRANCH  10  11
ENDBRANCH   8   9
ENDBRANCH   7   8
ENDBRANCH   5   6
ENDBRANCH   4   5
ENDBRANCH   2   3
TORSDOF 12
ENDMDL
MODEL      257
REMARK 921   NORMALIZED FREE ENERGY PREDICTED BY IDOCK:   -3.61 KCAL/MOL
REMARK 922        TOTAL FREE ENERGY PREDICTED BY IDOCK:   -8.65 KCAL/MOL
REMARK 923 INTER-LIGAND FREE ENERGY PREDICTED BY IDOCK:   -6.52 KCAL/MOL
REMARK 924 INTRA-LIGAND FREE ENERGY PREDICTED BY IDOCK:   -2.13 KCAL/MOL
REMARK 927      BINDING AFFINITY PREDICTED BY RF-SCORE:    0.00 PKD
ROOT
HETATM    1  C   UNL     1     -11.223   8.210  71.927  1.00  0.00    -0.351 C  
HETATM    2  C   UNL     1     -11.322   7.688  70.503  1.00  0.00    -0.266 C  
ENDROOT
BRANCH   2   3
HETATM    3  C   UNL     1     -10.587   6.387  70.328  1.00  0.00    -0.290 C  
HETATM    4  C   UNL     1     -10.521   5.673  69.189  1.00  0.00    -0.339 C  
BRANCH   4   5
HETATM    5  C   UNL     1     -11.152   6.092  67.893  1.00  0.00    -0.311 C  
BRANCH   5   6
HETATM    6  C   UNL     1     -10.155   6.278  66.783  1.00  0.00    -0.237 C  
HETATM    7  C   UNL     1      -9.477   7.408  66.538  1.00  0.00    -0.229 C  
BRANCH   7   8
HETATM    8  C   UNL     1      -9.547   8.610  67.430  1.00  0.00    -0.204 C  
BRANCH   8   9
HETATM    9  C   UNL     1     -10.749   9.458  67.145  1.00  0.00    -0.234 C  
HETATM   10  C   UNL     1     -11.188  10.478  67.905  1.00  0.00    -0.358 C  
BRANCH  10  11
HETATM   11  C   UNL     1     -10.582  10.962  69.195  1.00  0.00    -0.253 C  
BRANCH  11  12
HETATM   12  C   UNL     1     -11.540  11.519  70.223  1.00  0.00    -0.305 C  
HETATM   13  C   UNL     1     -12.201  12.692  70.230  1.00  0.00    -0.347 C  
BRANCH  13  14
HETATM   14  C   UNL     1     -12.056  13.783  69.215  1.00  0.00    -0.374 C  
BRANCH  14  15
HETATM   15  C   UNL     1     -10.989  14.783  69.546  1.00  0.00    -0.287 C  
HETATM   16  C   UNL     1      -9.840  14.880  68.858  1.00  0.00    -0.230 C  
BRANCH  16  17
HETATM   17  C   UNL     1      -9.503  13.938  67.739  1.00  0.00    -0.214 C  
BRANCH  17  18
HETATM   18  C   UNL     1      -9.536  14.591  66.368  1.00  0.00    -0.316 C  
BRANCH  18  19
HETATM   19  C   UNL     1      -8.577  15.778  66.337  1.00  0.00    -0.346 C  
HETATM   20  C   UNL     1      -9.318  17.088  66.209  1.00  0.00    -0.248 C  
HETATM   21  O   UNL     1     -10.530  17.203  66.128  1.00  0.00    -0.332 OA 
HETATM   22  O   UNL     1      -8.480  18.145  66.197  1.00  0.00    -0.452 OA 
ENDBRANCH  18  19
ENDBRANCH  17  18
ENDBRANCH  16  17
ENDBRANCH  14  15
ENDBRANCH  13  14
ENDBRANCH  11  12
ENDBRANCH  10  11
ENDBRANCH   8   9
ENDBRANCH   7   8
ENDBRANCH   5   6
ENDBRANCH   4   5
ENDBRANCH   2   3
TORSDOF 12
ENDMDL
MODEL      258
REMARK 921   NORMALIZED FREE ENERGY PREDICTED BY IDOCK:   -3.60 KCAL/MOL
REMARK 922        TOTAL FREE ENERGY PREDICTED BY IDOCK:   -8.63 KCAL/MOL
REMARK 923 INTER-LIGAND FREE ENERGY PREDICTED BY IDOCK:   -7.54 KCAL/MOL
REMARK 924 INTRA-LIGAND FREE ENERGY PREDICTED BY IDOCK:   -1.10 KCAL/MOL
REMARK 927      BINDING AFFINITY PREDICTED BY RF-SCORE:    0.00 PKD
ROOT
HETATM    1  C   UNL     1      -6.847   7.210  65.467  1.00  0.00    -0.052 C  
HETATM    2  C   UNL     1      -8.080   7.549  66.289  1.00  0.00    -0.113 C  
ENDROOT
BRANCH   2   3
HETATM    3  C   UNL     1      -8.386   6.486  67.308  1.00  0.00    -0.113 C  
HETATM    4  C   UNL     1      -9.148   6.652  68.405  1.00  0.00    -0.124 C  
BRANCH   4   5
HETATM    5  C   UNL     1      -9.844   7.932  68.764  1.00  0.00    -0.171 C  
BRANCH   5   6
HETATM    6  C   UNL     1      -9.265   8.599  69.981  1.00  0.00    -0.160 C  
HETATM    7  C   UNL     1      -9.785   9.672  70.593  1.00  0.00    -0.239 C  
BRANCH   7   8
HETATM    8  C   UNL     1     -11.098  10.278  70.198  1.00  0.00    -0.385 C  
BRANCH   8   9
HETATM    9  C   UNL     1     -12.179   9.987  71.194  1.00  0.00    -0.477 C  
HETATM   10  C   UNL     1     -13.015  10.893  71.734  1.00  0.00    -0.557 C  
BRANCH  10  11
HETATM   11  C   UNL     1     -13.024  12.375  71.468  1.00  0.00    -0.385 C  
BRANCH  11  12
HETATM   12  C   UNL     1     -13.617  13.250  72.550  1.00  0.00    -0.637 C  
HETATM   13  C   UNL     1     -13.782  14.586  72.573  1.00  0.00    -0.580 C  
BRANCH  13  14
HETATM   14  C   UNL     1     -13.318  15.543  71.521  1.00  0.00    -0.593 C  
BRANCH  14  15
HETATM   15  C   UNL     1     -11.829  15.577  71.345  1.00  0.00    -0.461 C  
HETATM   16  C   UNL     1     -11.236  15.555  70.140  1.00  0.00    -0.331 C  
BRANCH  16  17
HETATM   17  C   UNL     1     -12.024  15.421  68.869  1.00  0.00    -0.298 C  
BRANCH  17  18
HETATM   18  C   UNL     1     -11.365  14.517  67.841  1.00  0.00    -0.329 C  
BRANCH  18  19
HETATM   19  C   UNL     1     -12.246  14.419  66.599  1.00  0.00    -0.340 C  
HETATM   20  C   UNL     1     -11.469  14.729  65.341  1.00  0.00    -0.341 C  
HETATM   21  O   UNL     1     -10.288  15.033  65.304  1.00  0.00    -0.354 OA 
HETATM   22  O   UNL     1     -12.235  14.630  64.235  1.00  0.00    -0.495 OA 
ENDBRANCH  18  19
ENDBRANCH  17  18
ENDBRANCH  16  17
ENDBRANCH  14  15
ENDBRANCH  13  14
ENDBRANCH  11  12
ENDBRANCH  10  11
ENDBRANCH   8   9
ENDBRANCH   7   8
ENDBRANCH   5   6
ENDBRANCH   4   5
ENDBRANCH   2   3
TORSDOF 12
ENDMDL
MODEL      259
REMARK 921   NORMALIZED FREE ENERGY PREDICTED BY IDOCK:   -3.60 KCAL/MOL
REMARK 922        TOTAL FREE ENERGY PREDICTED BY IDOCK:   -8.63 KCAL/MOL
REMARK 923 INTER-LIGAND FREE ENERGY PREDICTED BY IDOCK:   -6.75 KCAL/MOL
REMARK 924 INTRA-LIGAND FREE ENERGY PREDICTED BY IDOCK:   -1.89 KCAL/MOL
REMARK 927      BINDING AFFINITY PREDICTED BY RF-SCORE:    0.00 PKD
ROOT
HETATM    1  C   UNL     1      -9.917   3.963  65.196  1.00  0.00    -0.171 C  
HETATM    2  C   UNL     1      -9.702   4.667  66.526  1.00  0.00    -0.212 C  
ENDROOT
BRANCH   2   3
HETATM    3  C   UNL     1     -10.088   6.119  66.463  1.00  0.00    -0.179 C  
HETATM    4  C   UNL     1     -10.318   6.914  67.525  1.00  0.00    -0.277 C  
BRANCH   4   5
HETATM    5  C   UNL     1     -10.188   6.472  68.953  1.00  0.00    -0.206 C  
BRANCH   5   6
HETATM    6  C   UNL     1     -11.515   6.235  69.621  1.00  0.00    -0.425 C  
HETATM    7  C   UNL     1     -11.889   6.755  70.798  1.00  0.00    -0.446 C  
BRANCH   7   8
HETATM    8  C   UNL     1     -11.058   7.750  71.550  1.00  0.00    -0.270 C  
BRANCH   8   9
HETATM    9  C   UNL     1     -11.137   9.122  70.953  1.00  0.00    -0.356 C  
HETATM   10  C   UNL     1     -10.092   9.851  70.520  1.00  0.00    -0.207 C  
BRANCH  10  11
HETATM   11  C   UNL     1      -8.641   9.453  70.561  1.00  0.00    -0.265 C  
BRANCH  11  12
HETATM   12  C   UNL     1      -7.983   9.165  69.231  1.00  0.00    -0.097 C  
HETATM   13  C   UNL     1      -7.524  10.024  68.301  1.00  0.00    -0.079 C  
BRANCH  13  14
HETATM   14  C   UNL     1      -7.648  11.514  68.350  1.00  0.00    -0.125 C  
BRANCH  14  15
HETATM   15  C   UNL     1      -8.030  12.136  67.039  1.00  0.00    -0.138 C  
HETATM   16  C   UNL     1      -9.211  12.743  66.836  1.00  0.00    -0.229 C  
BRANCH  16  17
HETATM   17  C   UNL     1     -10.275  12.783  67.893  1.00  0.00    -0.229 C  
BRANCH  17  18
HETATM   18  C   UNL     1     -11.681  12.909  67.331  1.00  0.00    -0.428 C  
BRANCH  18  19
HETATM   19  C   UNL     1     -11.743  14.076  66.350  1.00  0.00    -0.407 C  
HETATM   20  C   UNL     1     -12.525  13.717  65.108  1.00  0.00    -0.449 C  
HETATM   21  O   UNL     1     -13.040  12.632  64.894  1.00  0.00    -0.850 OA 
HETATM   22  O   UNL     1     -12.599  14.747  64.240  1.00  0.00    -0.706 OA 
ENDBRANCH  18  19
ENDBRANCH  17  18
ENDBRANCH  16  17
ENDBRANCH  14  15
ENDBRANCH  13  14
ENDBRANCH  11  12
ENDBRANCH  10  11
ENDBRANCH   8   9
ENDBRANCH   7   8
ENDBRANCH   5   6
ENDBRANCH   4   5
ENDBRANCH   2   3
TORSDOF 12
ENDMDL
MODEL      260
REMARK 921   NORMALIZED FREE ENERGY PREDICTED BY IDOCK:   -3.60 KCAL/MOL
REMARK 922        TOTAL FREE ENERGY PREDICTED BY IDOCK:   -8.63 KCAL/MOL
REMARK 923 INTER-LIGAND FREE ENERGY PREDICTED BY IDOCK:   -5.71 KCAL/MOL
REMARK 924 INTRA-LIGAND FREE ENERGY PREDICTED BY IDOCK:   -2.93 KCAL/MOL
REMARK 927      BINDING AFFINITY PREDICTED BY RF-SCORE:    0.00 PKD
ROOT
HETATM    1  C   UNL     1      -9.313   5.128  71.177  1.00  0.00    -0.194 C  
HETATM    2  C   UNL     1     -10.143   4.909  69.922  1.00  0.00    -0.332 C  
ENDROOT
BRANCH   2   3
HETATM    3  C   UNL     1      -9.460   3.990  68.949  1.00  0.00    -0.237 C  
HETATM    4  C   UNL     1      -9.607   4.019  67.611  1.00  0.00    -0.210 C  
BRANCH   4   5
HETATM    5  C   UNL     1     -10.461   5.010  66.877  1.00  0.00    -0.243 C  
BRANCH   5   6
HETATM    6  C   UNL     1      -9.662   6.081  66.186  1.00  0.00    -0.060 C  
HETATM    7  C   UNL     1      -9.617   7.369  66.557  1.00  0.00    -0.228 C  
BRANCH   7   8
HETATM    8  C   UNL     1     -10.280   7.883  67.799  1.00  0.00    -0.276 C  
BRANCH   8   9
HETATM    9  C   UNL     1      -9.291   8.417  68.790  1.00  0.00    -0.143 C  
HETATM   10  C   UNL     1      -8.851   9.687  68.856  1.00  0.00    -0.136 C  
BRANCH  10  11
HETATM   11  C   UNL     1      -9.243  10.820  67.945  1.00  0.00    -0.151 C  
BRANCH  11  12
HETATM   12  C   UNL     1      -9.910  12.009  68.598  1.00  0.00    -0.126 C  
HETATM   13  C   UNL     1     -11.106  12.088  69.212  1.00  0.00    -0.246 C  
BRANCH  13  14
HETATM   14  C   UNL     1     -12.113  10.986  69.310  1.00  0.00    -0.363 C  
BRANCH  14  15
HETATM   15  C   UNL     1     -12.867  10.965  70.606  1.00  0.00    -0.340 C  
HETATM   16  C   UNL     1     -12.858   9.911  71.439  1.00  0.00    -0.505 C  
BRANCH  16  17
HETATM   17  C   UNL     1     -12.143   8.636  71.098  1.00  0.00    -0.297 C  
BRANCH  17  18
HETATM   18  C   UNL     1     -11.382   8.038  72.269  1.00  0.00    -0.413 C  
BRANCH  18  19
HETATM   19  C   UNL     1      -9.984   8.646  72.341  1.00  0.00    -0.320 C  
HETATM   20  C   UNL     1      -9.153   8.000  73.425  1.00  0.00    -0.273 C  
HETATM   21  O   UNL     1      -9.537   7.110  74.167  1.00  0.00    -0.257 OA 
HETATM   22  O   UNL     1      -7.909   8.519  73.487  1.00  0.00    -0.357 OA 
ENDBRANCH  18  19
ENDBRANCH  17  18
ENDBRANCH  16  17
ENDBRANCH  14  15
ENDBRANCH  13  14
ENDBRANCH  11  12
ENDBRANCH  10  11
ENDBRANCH   8   9
ENDBRANCH   7   8
ENDBRANCH   5   6
ENDBRANCH   4   5
ENDBRANCH   2   3
TORSDOF 12
ENDMDL
MODEL      261
REMARK 921   NORMALIZED FREE ENERGY PREDICTED BY IDOCK:   -3.59 KCAL/MOL
REMARK 922        TOTAL FREE ENERGY PREDICTED BY IDOCK:   -8.61 KCAL/MOL
REMARK 923 INTER-LIGAND FREE ENERGY PREDICTED BY IDOCK:   -6.67 KCAL/MOL
REMARK 924 INTRA-LIGAND FREE ENERGY PREDICTED BY IDOCK:   -1.95 KCAL/MOL
REMARK 927      BINDING AFFINITY PREDICTED BY RF-SCORE:    0.00 PKD
ROOT
HETATM    1  C   UNL     1     -11.836  10.623  69.728  1.00  0.00    -0.377 C  
HETATM    2  C   UNL     1     -10.537  10.372  68.978  1.00  0.00    -0.247 C  
ENDROOT
BRANCH   2   3
HETATM    3  C   UNL     1     -10.755   9.563  67.730  1.00  0.00    -0.302 C  
HETATM    4  C   UNL     1     -10.548   9.996  66.472  1.00  0.00    -0.165 C  
BRANCH   4   5
HETATM    5  C   UNL     1     -10.028  11.359  66.123  1.00  0.00    -0.265 C  
BRANCH   5   6
HETATM    6  C   UNL     1     -10.953  12.469  66.543  1.00  0.00    -0.303 C  
HETATM    7  C   UNL     1     -10.612  13.762  66.638  1.00  0.00    -0.274 C  
BRANCH   7   8
HETATM    8  C   UNL     1      -9.272  14.284  66.216  1.00  0.00    -0.181 C  
BRANCH   8   9
HETATM    9  C   UNL     1      -8.365  14.529  67.383  1.00  0.00    -0.217 C  
HETATM   10  C   UNL     1      -7.556  15.593  67.541  1.00  0.00    -0.200 C  
BRANCH  10  11
HETATM   11  C   UNL     1      -7.383  16.737  66.579  1.00  0.00    -0.306 C  
BRANCH  11  12
HETATM   12  C   UNL     1      -6.260  17.704  66.877  1.00  0.00    -0.199 C  
HETATM   13  C   UNL     1      -6.312  18.934  67.424  1.00  0.00    -0.195 C  
BRANCH  13  14
HETATM   14  C   UNL     1      -7.560  19.674  67.793  1.00  0.00    -0.313 C  
BRANCH  14  15
HETATM   15  C   UNL     1      -8.379  20.109  66.615  1.00  0.00    -0.338 C  
HETATM   16  C   UNL     1      -9.722  20.073  66.605  1.00  0.00    -0.566 C  
BRANCH  16  17
HETATM   17  C   UNL     1     -10.509  19.521  67.757  1.00  0.00    -0.574 C  
BRANCH  17  18
HETATM   18  C   UNL     1     -10.730  18.021  67.677  1.00  0.00    -0.360 C  
BRANCH  18  19
HETATM   19  C   UNL     1     -10.265  17.359  68.971  1.00  0.00    -0.317 C  
HETATM   20  C   UNL     1     -11.155  16.200  69.353  1.00  0.00    -0.335 C  
HETATM   21  O   UNL     1     -12.135  15.831  68.725  1.00  0.00    -0.314 OA 
HETATM   22  O   UNL     1     -10.744  15.598  70.488  1.00  0.00    -0.320 OA 
ENDBRANCH  18  19
ENDBRANCH  17  18
ENDBRANCH  16  17
ENDBRANCH  14  15
ENDBRANCH  13  14
ENDBRANCH  11  12
ENDBRANCH  10  11
ENDBRANCH   8   9
ENDBRANCH   7   8
ENDBRANCH   5   6
ENDBRANCH   4   5
ENDBRANCH   2   3
TORSDOF 12
ENDMDL
MODEL      262
REMARK 921   NORMALIZED FREE ENERGY PREDICTED BY IDOCK:   -3.58 KCAL/MOL
REMARK 922        TOTAL FREE ENERGY PREDICTED BY IDOCK:   -8.59 KCAL/MOL
REMARK 923 INTER-LIGAND FREE ENERGY PREDICTED BY IDOCK:   -6.91 KCAL/MOL
REMARK 924 INTRA-LIGAND FREE ENERGY PREDICTED BY IDOCK:   -1.68 KCAL/MOL
REMARK 927      BINDING AFFINITY PREDICTED BY RF-SCORE:    0.00 PKD
ROOT
HETATM    1  C   UNL     1     -10.990   6.343  70.250  1.00  0.00    -0.378 C  
HETATM    2  C   UNL     1     -11.732   6.917  71.447  1.00  0.00    -0.358 C  
ENDROOT
BRANCH   2   3
HETATM    3  C   UNL     1     -11.084   8.173  71.960  1.00  0.00    -0.370 C  
HETATM    4  C   UNL     1     -11.486   9.429  71.685  1.00  0.00    -0.463 C  
BRANCH   4   5
HETATM    5  C   UNL     1     -12.678   9.767  70.840  1.00  0.00    -0.329 C  
BRANCH   5   6
HETATM    6  C   UNL     1     -12.737  11.220  70.455  1.00  0.00    -0.257 C  
HETATM    7  C   UNL     1     -12.186  11.748  69.353  1.00  0.00    -0.219 C  
BRANCH   7   8
HETATM    8  C   UNL     1     -11.532  10.918  68.291  1.00  0.00    -0.376 C  
BRANCH   8   9
HETATM    9  C   UNL     1     -11.561  11.585  66.950  1.00  0.00    -0.166 C  
HETATM   10  C   UNL     1     -10.484  11.923  66.217  1.00  0.00    -0.274 C  
BRANCH  10  11
HETATM   11  C   UNL     1      -9.042  11.719  66.594  1.00  0.00    -0.194 C  
BRANCH  11  12
HETATM   12  C   UNL     1      -8.593  12.339  67.898  1.00  0.00    -0.169 C  
HETATM   13  C   UNL     1      -8.653  13.623  68.300  1.00  0.00    -0.170 C  
BRANCH  13  14
HETATM   14  C   UNL     1      -9.122  14.777  67.471  1.00  0.00    -0.191 C  
BRANCH  14  15
HETATM   15  C   UNL     1     -10.609  14.978  67.494  1.00  0.00    -0.265 C  
HETATM   16  C   UNL     1     -11.250  15.564  68.518  1.00  0.00    -0.334 C  
BRANCH  16  17
HETATM   17  C   UNL     1     -10.530  16.004  69.758  1.00  0.00    -0.300 C  
BRANCH  17  18
HETATM   18  C   UNL     1     -11.399  15.980  71.004  1.00  0.00    -0.423 C  
BRANCH  18  19
HETATM   19  C   UNL     1     -12.613  15.086  70.770  1.00  0.00    -0.429 C  
HETATM   20  C   UNL     1     -13.286  14.711  72.069  1.00  0.00    -0.365 C  
HETATM   21  O   UNL     1     -12.914  15.060  73.177  1.00  0.00    -0.452 OA 
HETATM   22  O   UNL     1     -14.371  13.933  71.872  1.00  0.00    -0.428 OA 
ENDBRANCH  18  19
ENDBRANCH  17  18
ENDBRANCH  16  17
ENDBRANCH  14  15
ENDBRANCH  13  14
ENDBRANCH  11  12
ENDBRANCH  10  11
ENDBRANCH   8   9
ENDBRANCH   7   8
ENDBRANCH   5   6
ENDBRANCH   4   5
ENDBRANCH   2   3
TORSDOF 12
ENDMDL
MODEL      263
REMARK 921   NORMALIZED FREE ENERGY PREDICTED BY IDOCK:   -3.56 KCAL/MOL
REMARK 922        TOTAL FREE ENERGY PREDICTED BY IDOCK:   -8.57 KCAL/MOL
REMARK 923 INTER-LIGAND FREE ENERGY PREDICTED BY IDOCK:   -5.87 KCAL/MOL
REMARK 924 INTRA-LIGAND FREE ENERGY PREDICTED BY IDOCK:   -2.70 KCAL/MOL
REMARK 927      BINDING AFFINITY PREDICTED BY RF-SCORE:    0.00 PKD
ROOT
HETATM    1  C   UNL     1      -9.978  10.093  65.025  1.00  0.00    -0.375 C  
HETATM    2  C   UNL     1      -9.918  11.394  64.241  1.00  0.00    -0.329 C  
ENDROOT
BRANCH   2   3
HETATM    3  C   UNL     1     -11.155  11.609  63.413  1.00  0.00    -0.422 C  
HETATM    4  C   UNL     1     -12.100  12.540  63.646  1.00  0.00    -0.642 C  
BRANCH   4   5
HETATM    5  C   UNL     1     -12.041  13.540  64.763  1.00  0.00    -0.442 C  
BRANCH   5   6
HETATM    6  C   UNL     1     -10.954  14.563  64.584  1.00  0.00    -0.351 C  
HETATM    7  C   UNL     1     -10.193  15.060  65.570  1.00  0.00    -0.406 C  
BRANCH   7   8
HETATM    8  C   UNL     1     -10.257  14.558  66.980  1.00  0.00    -0.262 C  
BRANCH   8   9
HETATM    9  C   UNL     1      -9.266  13.464  67.239  1.00  0.00    -0.222 C  
HETATM   10  C   UNL     1      -9.542  12.269  67.793  1.00  0.00    -0.200 C  
BRANCH  10  11
HETATM   11  C   UNL     1     -10.884  11.794  68.279  1.00  0.00    -0.259 C  
BRANCH  11  12
HETATM   12  C   UNL     1     -11.104  10.298  68.296  1.00  0.00    -0.311 C  
HETATM   13  C   UNL     1     -10.754   9.393  69.230  1.00  0.00    -0.228 C  
BRANCH  13  14
HETATM   14  C   UNL     1      -9.962   9.676  70.468  1.00  0.00    -0.318 C  
BRANCH  14  15
HETATM   15  C   UNL     1      -8.814   8.735  70.684  1.00  0.00    -0.212 C  
HETATM   16  C   UNL     1      -7.533   9.091  70.497  1.00  0.00    -0.099 C  
BRANCH  16  17
HETATM   17  C   UNL     1      -7.153  10.450  69.986  1.00  0.00    -0.155 C  
BRANCH  17  18
HETATM   18  C   UNL     1      -6.022  10.421  68.973  1.00  0.00    -0.040 C  
BRANCH  18  19
HETATM   19  C   UNL     1      -6.562  10.011  67.606  1.00  0.00    -0.067 C  
HETATM   20  C   UNL     1      -6.282  11.064  66.560  1.00  0.00    -0.133 C  
HETATM   21  O   UNL     1      -5.708  12.121  66.765  1.00  0.00    -0.288 OA 
HETATM   22  O   UNL     1      -6.742  10.705  65.343  1.00  0.00    -0.107 OA 
ENDBRANCH  18  19
ENDBRANCH  17  18
ENDBRANCH  16  17
ENDBRANCH  14  15
ENDBRANCH  13  14
ENDBRANCH  11  12
ENDBRANCH  10  11
ENDBRANCH   8   9
ENDBRANCH   7   8
ENDBRANCH   5   6
ENDBRANCH   4   5
ENDBRANCH   2   3
TORSDOF 12
ENDMDL
MODEL      264
REMARK 921   NORMALIZED FREE ENERGY PREDICTED BY IDOCK:   -3.56 KCAL/MOL
REMARK 922        TOTAL FREE ENERGY PREDICTED BY IDOCK:   -8.56 KCAL/MOL
REMARK 923 INTER-LIGAND FREE ENERGY PREDICTED BY IDOCK:   -6.91 KCAL/MOL
REMARK 924 INTRA-LIGAND FREE ENERGY PREDICTED BY IDOCK:   -1.64 KCAL/MOL
REMARK 927      BINDING AFFINITY PREDICTED BY RF-SCORE:    0.00 PKD
ROOT
HETATM    1  C   UNL     1     -14.219  15.307  72.311  1.00  0.00    -0.642 C  
HETATM    2  C   UNL     1     -13.072  14.309  72.334  1.00  0.00    -0.519 C  
ENDROOT
BRANCH   2   3
HETATM    3  C   UNL     1     -12.892  13.627  71.006  1.00  0.00    -0.360 C  
HETATM    4  C   UNL     1     -12.245  14.142  69.943  1.00  0.00    -0.416 C  
BRANCH   4   5
HETATM    5  C   UNL     1     -11.565  15.480  69.937  1.00  0.00    -0.348 C  
BRANCH   5   6
HETATM    6  C   UNL     1     -10.078  15.387  70.146  1.00  0.00    -0.156 C  
HETATM    7  C   UNL     1      -9.153  15.951  69.356  1.00  0.00    -0.222 C  
BRANCH   7   8
HETATM    8  C   UNL     1      -9.499  16.856  68.214  1.00  0.00    -0.250 C  
BRANCH   8   9
HETATM    9  C   UNL     1      -8.742  16.512  66.967  1.00  0.00    -0.221 C  
HETATM   10  C   UNL     1      -9.288  16.220  65.772  1.00  0.00    -0.194 C  
BRANCH  10  11
HETATM   11  C   UNL     1     -10.756  16.161  65.447  1.00  0.00    -0.374 C  
BRANCH  11  12
HETATM   12  C   UNL     1     -11.540  15.030  66.073  1.00  0.00    -0.158 C  
HETATM   13  C   UNL     1     -12.127  13.969  65.487  1.00  0.00    -0.423 C  
BRANCH  13  14
HETATM   14  C   UNL     1     -12.206  13.716  64.014  1.00  0.00    -0.443 C  
BRANCH  14  15
HETATM   15  C   UNL     1     -12.316  12.265  63.651  1.00  0.00    -0.664 C  
HETATM   16  C   UNL     1     -11.269  11.425  63.673  1.00  0.00    -0.366 C  
BRANCH  16  17
HETATM   17  C   UNL     1      -9.881  11.895  63.997  1.00  0.00    -0.259 C  
BRANCH  17  18
HETATM   18  C   UNL     1      -9.087  10.906  64.832  1.00  0.00    -0.201 C  
BRANCH  18  19
HETATM   19  C   UNL     1      -9.856   9.593  64.950  1.00  0.00    -0.067 C  
HETATM   20  C   UNL     1      -9.768   9.020  66.345  1.00  0.00    -0.268 C  
HETATM   21  O   UNL     1      -9.153   9.523  67.272  1.00  0.00    -0.130 OA 
HETATM   22  O   UNL     1     -10.458   7.867  66.463  1.00  0.00    -0.233 OA 
ENDBRANCH  18  19
ENDBRANCH  17  18
ENDBRANCH  16  17
ENDBRANCH  14  15
ENDBRANCH  13  14
ENDBRANCH  11  12
ENDBRANCH  10  11
ENDBRANCH   8   9
ENDBRANCH   7   8
ENDBRANCH   5   6
ENDBRANCH   4   5
ENDBRANCH   2   3
TORSDOF 12
ENDMDL
MODEL      265
REMARK 921   NORMALIZED FREE ENERGY PREDICTED BY IDOCK:   -3.56 KCAL/MOL
REMARK 922        TOTAL FREE ENERGY PREDICTED BY IDOCK:   -8.56 KCAL/MOL
REMARK 923 INTER-LIGAND FREE ENERGY PREDICTED BY IDOCK:   -6.83 KCAL/MOL
REMARK 924 INTRA-LIGAND FREE ENERGY PREDICTED BY IDOCK:   -1.72 KCAL/MOL
REMARK 927      BINDING AFFINITY PREDICTED BY RF-SCORE:    0.00 PKD
ROOT
HETATM    1  C   UNL     1      -9.924   4.122  64.887  1.00  0.00    -0.208 C  
HETATM    2  C   UNL     1      -9.572   5.077  66.016  1.00  0.00    -0.179 C  
ENDROOT
BRANCH   2   3
HETATM    3  C   UNL     1      -9.554   4.386  67.352  1.00  0.00    -0.218 C  
HETATM    4  C   UNL     1     -10.222   4.788  68.449  1.00  0.00    -0.052 C  
BRANCH   4   5
HETATM    5  C   UNL     1     -11.126   5.984  68.495  1.00  0.00    -0.279 C  
BRANCH   5   6
HETATM    6  C   UNL     1     -10.828   6.906  69.645  1.00  0.00    -0.294 C  
HETATM    7  C   UNL     1     -10.044   7.992  69.579  1.00  0.00    -0.196 C  
BRANCH   7   8
HETATM    8  C   UNL     1      -9.454   8.493  68.296  1.00  0.00    -0.143 C  
BRANCH   8   9
HETATM    9  C   UNL     1     -10.489   9.083  67.387  1.00  0.00    -0.338 C  
HETATM   10  C   UNL     1     -10.941  10.350  67.427  1.00  0.00    -0.335 C  
BRANCH  10  11
HETATM   11  C   UNL     1     -10.519  11.422  68.396  1.00  0.00    -0.221 C  
BRANCH  11  12
HETATM   12  C   UNL     1     -11.240  11.452  69.724  1.00  0.00    -0.266 C  
HETATM   13  C   UNL     1     -12.008  12.420  70.259  1.00  0.00    -0.371 C  
BRANCH  13  14
HETATM   14  C   UNL     1     -12.256  13.770  69.660  1.00  0.00    -0.359 C  
BRANCH  14  15
HETATM   15  C   UNL     1     -11.004  14.511  69.296  1.00  0.00    -0.282 C  
HETATM   16  C   UNL     1     -10.783  15.012  68.069  1.00  0.00    -0.262 C  
BRANCH  16  17
HETATM   17  C   UNL     1     -11.750  14.803  66.941  1.00  0.00    -0.316 C  
BRANCH  17  18
HETATM   18  C   UNL     1     -11.263  13.808  65.902  1.00  0.00    -0.305 C  
BRANCH  18  19
HETATM   19  C   UNL     1     -12.456  13.121  65.244  1.00  0.00    -0.550 C  
HETATM   20  C   UNL     1     -12.079  12.500  63.920  1.00  0.00    -0.498 C  
HETATM   21  O   UNL     1     -10.968  12.542  63.417  1.00  0.00    -0.452 OA 
HETATM   22  O   UNL     1     -13.124  11.876  63.337  1.00  0.00    -0.710 OA 
ENDBRANCH  18  19
ENDBRANCH  17  18
ENDBRANCH  16  17
ENDBRANCH  14  15
ENDBRANCH  13  14
ENDBRANCH  11  12
ENDBRANCH  10  11
ENDBRANCH   8   9
ENDBRANCH   7   8
ENDBRANCH   5   6
ENDBRANCH   4   5
ENDBRANCH   2   3
TORSDOF 12
ENDMDL
MODEL      266
REMARK 921   NORMALIZED FREE ENERGY PREDICTED BY IDOCK:   -3.56 KCAL/MOL
REMARK 922        TOTAL FREE ENERGY PREDICTED BY IDOCK:   -8.56 KCAL/MOL
REMARK 923 INTER-LIGAND FREE ENERGY PREDICTED BY IDOCK:   -7.96 KCAL/MOL
REMARK 924 INTRA-LIGAND FREE ENERGY PREDICTED BY IDOCK:   -0.60 KCAL/MOL
REMARK 927      BINDING AFFINITY PREDICTED BY RF-SCORE:    0.00 PKD
ROOT
HETATM    1  C   UNL     1     -11.865  16.123  72.297  1.00  0.00    -0.631 C  
HETATM    2  C   UNL     1     -13.288  15.589  72.253  1.00  0.00    -0.567 C  
ENDROOT
BRANCH   2   3
HETATM    3  C   UNL     1     -13.400  14.236  72.902  1.00  0.00    -0.561 C  
HETATM    4  C   UNL     1     -13.206  13.055  72.285  1.00  0.00    -0.539 C  
BRANCH   4   5
HETATM    5  C   UNL     1     -12.808  12.910  70.846  1.00  0.00    -0.203 C  
BRANCH   5   6
HETATM    6  C   UNL     1     -12.292  11.538  70.511  1.00  0.00    -0.432 C  
HETATM    7  C   UNL     1     -11.465  11.252  69.495  1.00  0.00    -0.376 C  
BRANCH   7   8
HETATM    8  C   UNL     1     -10.852  12.305  68.623  1.00  0.00    -0.268 C  
BRANCH   8   9
HETATM    9  C   UNL     1     -11.406  13.669  68.905  1.00  0.00    -0.332 C  
HETATM   10  C   UNL     1     -11.524  14.669  68.012  1.00  0.00    -0.346 C  
BRANCH  10  11
HETATM   11  C   UNL     1     -11.111  14.632  66.565  1.00  0.00    -0.329 C  
BRANCH  11  12
HETATM   12  C   UNL     1      -9.765  15.234  66.233  1.00  0.00    -0.325 C  
HETATM   13  C   UNL     1      -9.395  16.529  66.186  1.00  0.00    -0.339 C  
BRANCH  13  14
HETATM   14  C   UNL     1     -10.300  17.704  66.381  1.00  0.00    -0.345 C  
BRANCH  14  15
HETATM   15  C   UNL     1     -10.542  18.053  67.819  1.00  0.00    -0.409 C  
HETATM   16  C   UNL     1      -9.920  19.070  68.439  1.00  0.00    -0.473 C  
BRANCH  16  17
HETATM   17  C   UNL     1      -8.873  19.897  67.751  1.00  0.00    -0.390 C  
BRANCH  17  18
HETATM   18  C   UNL     1      -7.478  19.700  68.317  1.00  0.00    -0.349 C  
BRANCH  18  19
HETATM   19  C   UNL     1      -6.715  18.686  67.471  1.00  0.00    -0.201 C  
HETATM   20  C   UNL     1      -6.632  17.341  68.154  1.00  0.00    -0.164 C  
HETATM   21  O   UNL     1      -7.101  17.082  69.251  1.00  0.00    -0.237 OA 
HETATM   22  O   UNL     1      -5.973  16.432  67.406  1.00  0.00    -0.139 OA 
ENDBRANCH  18  19
ENDBRANCH  17  18
ENDBRANCH  16  17
ENDBRANCH  14  15
ENDBRANCH  13  14
ENDBRANCH  11  12
ENDBRANCH  10  11
ENDBRANCH   8   9
ENDBRANCH   7   8
ENDBRANCH   5   6
ENDBRANCH   4   5
ENDBRANCH   2   3
TORSDOF 12
ENDMDL
MODEL      267
REMARK 921   NORMALIZED FREE ENERGY PREDICTED BY IDOCK:   -3.56 KCAL/MOL
REMARK 922        TOTAL FREE ENERGY PREDICTED BY IDOCK:   -8.56 KCAL/MOL
REMARK 923 INTER-LIGAND FREE ENERGY PREDICTED BY IDOCK:   -7.04 KCAL/MOL
REMARK 924 INTRA-LIGAND FREE ENERGY PREDICTED BY IDOCK:   -1.52 KCAL/MOL
REMARK 927      BINDING AFFINITY PREDICTED BY RF-SCORE:    0.00 PKD
ROOT
HETATM    1  C   UNL     1     -10.179   4.372  72.351  1.00  0.00    -0.255 C  
HETATM    2  C   UNL     1     -11.194   5.135  73.186  1.00  0.00    -0.398 C  
ENDROOT
BRANCH   2   3
HETATM    3  C   UNL     1     -10.674   6.480  73.615  1.00  0.00    -0.245 C  
HETATM    4  C   UNL     1     -11.076   7.667  73.121  1.00  0.00    -0.373 C  
BRANCH   4   5
HETATM    5  C   UNL     1     -12.143   7.830  72.079  1.00  0.00    -0.351 C  
BRANCH   5   6
HETATM    6  C   UNL     1     -12.443   9.269  71.763  1.00  0.00    -0.458 C  
HETATM    7  C   UNL     1     -11.646  10.086  71.060  1.00  0.00    -0.476 C  
BRANCH   7   8
HETATM    8  C   UNL     1     -10.388   9.621  70.392  1.00  0.00    -0.350 C  
BRANCH   8   9
HETATM    9  C   UNL     1     -10.638   9.103  69.008  1.00  0.00    -0.219 C  
HETATM   10  C   UNL     1     -10.456   9.793  67.867  1.00  0.00    -0.288 C  
BRANCH  10  11
HETATM   11  C   UNL     1      -9.987  11.217  67.744  1.00  0.00    -0.193 C  
BRANCH  11  12
HETATM   12  C   UNL     1     -11.045  12.289  67.881  1.00  0.00    -0.290 C  
HETATM   13  C   UNL     1     -11.922  12.746  66.966  1.00  0.00    -0.364 C  
BRANCH  13  14
HETATM   14  C   UNL     1     -11.983  12.330  65.530  1.00  0.00    -0.387 C  
BRANCH  14  15
HETATM   15  C   UNL     1     -10.788  12.746  64.725  1.00  0.00    -0.335 C  
HETATM   16  C   UNL     1     -10.495  14.030  64.463  1.00  0.00    -0.285 C  
BRANCH  16  17
HETATM   17  C   UNL     1     -11.389  15.153  64.901  1.00  0.00    -0.402 C  
BRANCH  17  18
HETATM   18  C   UNL     1     -10.643  16.294  65.571  1.00  0.00    -0.369 C  
BRANCH  18  19
HETATM   19  C   UNL     1      -9.542  15.736  66.468  1.00  0.00    -0.288 C  
HETATM   20  C   UNL     1      -9.946  15.756  67.923  1.00  0.00    -0.227 C  
HETATM   21  O   UNL     1     -11.010  16.173  68.349  1.00  0.00    -0.309 OA 
HETATM   22  O   UNL     1      -8.985  15.249  68.723  1.00  0.00    -0.178 OA 
ENDBRANCH  18  19
ENDBRANCH  17  18
ENDBRANCH  16  17
ENDBRANCH  14  15
ENDBRANCH  13  14
ENDBRANCH  11  12
ENDBRANCH  10  11
ENDBRANCH   8   9
ENDBRANCH   7   8
ENDBRANCH   5   6
ENDBRANCH   4   5
ENDBRANCH   2   3
TORSDOF 12
ENDMDL
MODEL      268
REMARK 921   NORMALIZED FREE ENERGY PREDICTED BY IDOCK:   -3.55 KCAL/MOL
REMARK 922        TOTAL FREE ENERGY PREDICTED BY IDOCK:   -8.55 KCAL/MOL
REMARK 923 INTER-LIGAND FREE ENERGY PREDICTED BY IDOCK:   -5.90 KCAL/MOL
REMARK 924 INTRA-LIGAND FREE ENERGY PREDICTED BY IDOCK:   -2.65 KCAL/MOL
REMARK 927      BINDING AFFINITY PREDICTED BY RF-SCORE:    0.00 PKD
ROOT
HETATM    1  C   UNL     1     -11.980  13.260  70.237  1.00  0.00    -0.372 C  
HETATM    2  C   UNL     1     -11.998  13.785  68.811  1.00  0.00    -0.400 C  
ENDROOT
BRANCH   2   3
HETATM    3  C   UNL     1     -11.840  12.680  67.803  1.00  0.00    -0.381 C  
HETATM    4  C   UNL     1     -11.926  12.822  66.467  1.00  0.00    -0.428 C  
BRANCH   4   5
HETATM    5  C   UNL     1     -12.162  14.130  65.771  1.00  0.00    -0.458 C  
BRANCH   5   6
HETATM    6  C   UNL     1     -10.956  14.625  65.021  1.00  0.00    -0.415 C  
HETATM    7  C   UNL     1     -10.369  15.817  65.205  1.00  0.00    -0.387 C  
BRANCH   7   8
HETATM    8  C   UNL     1     -10.783  16.769  66.285  1.00  0.00    -0.106 C  
BRANCH   8   9
HETATM    9  C   UNL     1      -9.771  17.853  66.504  1.00  0.00    -0.331 C  
HETATM   10  C   UNL     1      -8.480  17.667  66.836  1.00  0.00    -0.261 C  
BRANCH  10  11
HETATM   11  C   UNL     1      -7.795  16.347  67.072  1.00  0.00    -0.247 C  
BRANCH  11  12
HETATM   12  C   UNL     1      -8.181  15.604  68.331  1.00  0.00    -0.146 C  
HETATM   13  C   UNL     1      -8.392  14.287  68.515  1.00  0.00    -0.156 C  
BRANCH  13  14
HETATM   14  C   UNL     1      -8.371  13.240  67.446  1.00  0.00    -0.193 C  
BRANCH  14  15
HETATM   15  C   UNL     1      -8.100  11.856  67.957  1.00  0.00    -0.151 C  
HETATM   16  C   UNL     1      -8.231  10.758  67.194  1.00  0.00    -0.123 C  
BRANCH  16  17
HETATM   17  C   UNL     1      -8.729  10.828  65.780  1.00  0.00    -0.194 C  
BRANCH  17  18
HETATM   18  C   UNL     1      -9.766   9.768  65.450  1.00  0.00    -0.383 C  
BRANCH  18  19
HETATM   19  C   UNL     1      -9.821   8.733  66.570  1.00  0.00    -0.349 C  
HETATM   20  C   UNL     1      -8.999   7.510  66.238  1.00  0.00    -0.167 C  
HETATM   21  O   UNL     1      -8.372   7.347  65.205  1.00  0.00    -0.135 OA 
HETATM   22  O   UNL     1      -9.029   6.595  67.230  1.00  0.00    -0.115 OA 
ENDBRANCH  18  19
ENDBRANCH  17  18
ENDBRANCH  16  17
ENDBRANCH  14  15
ENDBRANCH  13  14
ENDBRANCH  11  12
ENDBRANCH  10  11
ENDBRANCH   8   9
ENDBRANCH   7   8
ENDBRANCH   5   6
ENDBRANCH   4   5
ENDBRANCH   2   3
TORSDOF 12
ENDMDL
MODEL      269
REMARK 921   NORMALIZED FREE ENERGY PREDICTED BY IDOCK:   -3.55 KCAL/MOL
REMARK 922        TOTAL FREE ENERGY PREDICTED BY IDOCK:   -8.55 KCAL/MOL
REMARK 923 INTER-LIGAND FREE ENERGY PREDICTED BY IDOCK:   -5.40 KCAL/MOL
REMARK 924 INTRA-LIGAND FREE ENERGY PREDICTED BY IDOCK:   -3.15 KCAL/MOL
REMARK 927      BINDING AFFINITY PREDICTED BY RF-SCORE:    0.00 PKD
ROOT
HETATM    1  C   UNL     1     -14.300   7.459  71.607  1.00  0.00    -0.614 C  
HETATM    2  C   UNL     1     -12.878   7.225  71.121  1.00  0.00    -0.334 C  
ENDROOT
BRANCH   2   3
HETATM    3  C   UNL     1     -11.919   8.240  71.680  1.00  0.00    -0.346 C  
HETATM    4  C   UNL     1     -11.042   8.021  72.677  1.00  0.00    -0.453 C  
BRANCH   4   5
HETATM    5  C   UNL     1     -10.862   6.701  73.367  1.00  0.00    -0.264 C  
BRANCH   5   6
HETATM    6  C   UNL     1      -9.667   6.669  74.281  1.00  0.00    -0.328 C  
HETATM    7  C   UNL     1      -8.489   6.101  73.988  1.00  0.00    -0.116 C  
BRANCH   7   8
HETATM    8  C   UNL     1      -8.176   5.519  72.643  1.00  0.00    -0.113 C  
BRANCH   8   9
HETATM    9  C   UNL     1      -8.668   4.111  72.507  1.00  0.00    -0.112 C  
HETATM   10  C   UNL     1      -9.551   3.672  71.590  1.00  0.00    -0.226 C  
BRANCH  10  11
HETATM   11  C   UNL     1     -10.235   4.500  70.536  1.00  0.00    -0.152 C  
BRANCH  11  12
HETATM   12  C   UNL     1      -9.633   4.455  69.149  1.00  0.00    -0.252 C  
HETATM   13  C   UNL     1      -9.922   5.203  68.067  1.00  0.00    -0.200 C  
BRANCH  13  14
HETATM   14  C   UNL     1     -11.008   6.229  67.979  1.00  0.00    -0.418 C  
BRANCH  14  15
HETATM   15  C   UNL     1     -10.725   7.331  67.001  1.00  0.00    -0.406 C  
HETATM   16  C   UNL     1     -10.406   8.580  67.381  1.00  0.00    -0.356 C  
BRANCH  16  17
HETATM   17  C   UNL     1     -10.378   8.988  68.824  1.00  0.00    -0.236 C  
BRANCH  17  18
HETATM   18  C   UNL     1      -8.985   9.315  69.334  1.00  0.00    -0.147 C  
BRANCH  18  19
HETATM   19  C   UNL     1      -8.350   8.068  69.942  1.00  0.00    -0.121 C  
HETATM   20  C   UNL     1      -7.254   7.516  69.062  1.00  0.00    -0.085 C  
HETATM   21  O   UNL     1      -6.912   7.988  67.989  1.00  0.00    -0.070 OA 
HETATM   22  O   UNL     1      -6.675   6.422  69.598  1.00  0.00    -0.049 OA 
ENDBRANCH  18  19
ENDBRANCH  17  18
ENDBRANCH  16  17
ENDBRANCH  14  15
ENDBRANCH  13  14
ENDBRANCH  11  12
ENDBRANCH  10  11
ENDBRANCH   8   9
ENDBRANCH   7   8
ENDBRANCH   5   6
ENDBRANCH   4   5
ENDBRANCH   2   3
TORSDOF 12
ENDMDL
MODEL      270
REMARK 921   NORMALIZED FREE ENERGY PREDICTED BY IDOCK:   -3.55 KCAL/MOL
REMARK 922        TOTAL FREE ENERGY PREDICTED BY IDOCK:   -8.54 KCAL/MOL
REMARK 923 INTER-LIGAND FREE ENERGY PREDICTED BY IDOCK:   -6.20 KCAL/MOL
REMARK 924 INTRA-LIGAND FREE ENERGY PREDICTED BY IDOCK:   -2.34 KCAL/MOL
REMARK 927      BINDING AFFINITY PREDICTED BY RF-SCORE:    0.00 PKD
ROOT
HETATM    1  C   UNL     1     -12.578   9.307  72.174  1.00  0.00    -0.443 C  
HETATM    2  C   UNL     1     -12.113  10.502  71.359  1.00  0.00    -0.380 C  
ENDROOT
BRANCH   2   3
HETATM    3  C   UNL     1     -11.807  10.128  69.935  1.00  0.00    -0.206 C  
HETATM    4  C   UNL     1     -11.630  10.994  68.919  1.00  0.00    -0.383 C  
BRANCH   4   5
HETATM    5  C   UNL     1     -11.677  12.486  69.066  1.00  0.00    -0.368 C  
BRANCH   5   6
HETATM    6  C   UNL     1     -10.722  13.200  68.149  1.00  0.00    -0.258 C  
HETATM    7  C   UNL     1     -10.967  13.505  66.867  1.00  0.00    -0.296 C  
BRANCH   7   8
HETATM    8  C   UNL     1     -12.295  13.271  66.214  1.00  0.00    -0.382 C  
BRANCH   8   9
HETATM    9  C   UNL     1     -12.384  13.914  64.863  1.00  0.00    -0.445 C  
HETATM   10  C   UNL     1     -12.065  13.330  63.693  1.00  0.00    -0.551 C  
BRANCH  10  11
HETATM   11  C   UNL     1     -11.540  11.933  63.501  1.00  0.00    -0.537 C  
BRANCH  11  12
HETATM   12  C   UNL     1     -10.063  11.803  63.206  1.00  0.00    -0.448 C  
HETATM   13  C   UNL     1      -9.191  10.858  63.608  1.00  0.00    -0.242 C  
BRANCH  13  14
HETATM   14  C   UNL     1      -9.494   9.729  64.543  1.00  0.00    -0.269 C  
BRANCH  14  15
HETATM   15  C   UNL     1      -9.675  10.154  65.970  1.00  0.00    -0.285 C  
HETATM   16  C   UNL     1      -8.645  10.357  66.807  1.00  0.00    -0.125 C  
BRANCH  16  17
HETATM   17  C   UNL     1      -7.225  10.103  66.396  1.00  0.00    -0.108 C  
BRANCH  17  18
HETATM   18  C   UNL     1      -6.229  11.051  67.041  1.00  0.00    -0.084 C  
BRANCH  18  19
HETATM   19  C   UNL     1      -6.827  12.452  67.123  1.00  0.00    -0.077 C  
HETATM   20  C   UNL     1      -6.730  13.017  68.521  1.00  0.00    -0.092 C  
HETATM   21  O   UNL     1      -6.249  12.436  69.480  1.00  0.00    -0.108 OA 
HETATM   22  O   UNL     1      -7.243  14.263  68.601  1.00  0.00    -0.110 OA 
ENDBRANCH  18  19
ENDBRANCH  17  18
ENDBRANCH  16  17
ENDBRANCH  14  15
ENDBRANCH  13  14
ENDBRANCH  11  12
ENDBRANCH  10  11
ENDBRANCH   8   9
ENDBRANCH   7   8
ENDBRANCH   5   6
ENDBRANCH   4   5
ENDBRANCH   2   3
TORSDOF 12
ENDMDL
MODEL      271
REMARK 921   NORMALIZED FREE ENERGY PREDICTED BY IDOCK:   -3.55 KCAL/MOL
REMARK 922        TOTAL FREE ENERGY PREDICTED BY IDOCK:   -8.54 KCAL/MOL
REMARK 923 INTER-LIGAND FREE ENERGY PREDICTED BY IDOCK:   -6.46 KCAL/MOL
REMARK 924 INTRA-LIGAND FREE ENERGY PREDICTED BY IDOCK:   -2.08 KCAL/MOL
REMARK 927      BINDING AFFINITY PREDICTED BY RF-SCORE:    0.00 PKD
ROOT
HETATM    1  C   UNL     1      -9.267   7.312  66.439  1.00  0.00    -0.201 C  
HETATM    2  C   UNL     1      -7.944   7.974  66.088  1.00  0.00    -0.103 C  
ENDROOT
BRANCH   2   3
HETATM    3  C   UNL     1      -7.809   9.330  66.723  1.00  0.00    -0.104 C  
HETATM    4  C   UNL     1      -8.000  10.508  66.099  1.00  0.00    -0.147 C  
BRANCH   4   5
HETATM    5  C   UNL     1      -8.418  10.645  64.665  1.00  0.00    -0.088 C  
BRANCH   5   6
HETATM    6  C   UNL     1      -9.855  10.268  64.430  1.00  0.00    -0.374 C  
HETATM    7  C   UNL     1     -10.840  11.129  64.138  1.00  0.00    -0.355 C  
BRANCH   7   8
HETATM    8  C   UNL     1     -10.600  12.588  63.890  1.00  0.00    -0.472 C  
BRANCH   8   9
HETATM    9  C   UNL     1     -11.873  13.339  63.647  1.00  0.00    -0.515 C  
HETATM   10  C   UNL     1     -12.593  13.990  64.580  1.00  0.00    -0.281 C  
BRANCH  10  11
HETATM   11  C   UNL     1     -12.281  14.082  66.050  1.00  0.00    -0.484 C  
BRANCH  11  12
HETATM   12  C   UNL     1     -10.863  14.460  66.415  1.00  0.00    -0.314 C  
HETATM   13  C   UNL     1     -10.040  13.909  67.328  1.00  0.00    -0.242 C  
BRANCH  13  14
HETATM   14  C   UNL     1     -10.397  12.809  68.277  1.00  0.00    -0.248 C  
BRANCH  14  15
HETATM   15  C   UNL     1     -11.076  11.641  67.626  1.00  0.00    -0.314 C  
HETATM   16  C   UNL     1     -11.059  10.403  68.147  1.00  0.00    -0.344 C  
BRANCH  16  17
HETATM   17  C   UNL     1     -10.292  10.078  69.395  1.00  0.00    -0.245 C  
BRANCH  17  18
HETATM   18  C   UNL     1     -11.178   9.864  70.611  1.00  0.00    -0.416 C  
BRANCH  18  19
HETATM   19  C   UNL     1     -11.405   8.372  70.830  1.00  0.00    -0.290 C  
HETATM   20  C   UNL     1     -12.318   8.114  72.005  1.00  0.00    -0.338 C  
HETATM   21  O   UNL     1     -12.812   8.979  72.711  1.00  0.00    -0.334 OA 
HETATM   22  O   UNL     1     -12.538   6.797  72.198  1.00  0.00    -0.248 OA 
ENDBRANCH  18  19
ENDBRANCH  17  18
ENDBRANCH  16  17
ENDBRANCH  14  15
ENDBRANCH  13  14
ENDBRANCH  11  12
ENDBRANCH  10  11
ENDBRANCH   8   9
ENDBRANCH   7   8
ENDBRANCH   5   6
ENDBRANCH   4   5
ENDBRANCH   2   3
TORSDOF 12
ENDMDL
MODEL      272
REMARK 921   NORMALIZED FREE ENERGY PREDICTED BY IDOCK:   -3.54 KCAL/MOL
REMARK 922        TOTAL FREE ENERGY PREDICTED BY IDOCK:   -8.53 KCAL/MOL
REMARK 923 INTER-LIGAND FREE ENERGY PREDICTED BY IDOCK:   -5.91 KCAL/MOL
REMARK 924 INTRA-LIGAND FREE ENERGY PREDICTED BY IDOCK:   -2.62 KCAL/MOL
REMARK 927      BINDING AFFINITY PREDICTED BY RF-SCORE:    0.00 PKD
ROOT
HETATM    1  C   UNL     1      -9.962  10.882  67.194  1.00  0.00    -0.221 C  
HETATM    2  C   UNL     1      -8.873  11.162  66.169  1.00  0.00    -0.195 C  
ENDROOT
BRANCH   2   3
HETATM    3  C   UNL     1      -9.009  10.289  64.952  1.00  0.00    -0.231 C  
HETATM    4  C   UNL     1      -9.652  10.626  63.817  1.00  0.00    -0.354 C  
BRANCH   4   5
HETATM    5  C   UNL     1     -10.308  11.954  63.581  1.00  0.00    -0.477 C  
BRANCH   5   6
HETATM    6  C   UNL     1     -11.808  11.867  63.509  1.00  0.00    -0.560 C  
HETATM    7  C   UNL     1     -12.654  12.380  64.414  1.00  0.00    -0.489 C  
BRANCH   7   8
HETATM    8  C   UNL     1     -12.201  13.219  65.569  1.00  0.00    -0.506 C  
BRANCH   8   9
HETATM    9  C   UNL     1     -12.347  14.686  65.296  1.00  0.00    -0.215 C  
HETATM   10  C   UNL     1     -11.342  15.580  65.247  1.00  0.00    -0.189 C  
BRANCH  10  11
HETATM   11  C   UNL     1      -9.880  15.300  65.471  1.00  0.00    -0.362 C  
BRANCH  11  12
HETATM   12  C   UNL     1      -9.023  16.478  65.875  1.00  0.00    -0.165 C  
HETATM   13  C   UNL     1      -7.881  16.499  66.589  1.00  0.00    -0.321 C  
BRANCH  13  14
HETATM   14  C   UNL     1      -7.233  15.317  67.237  1.00  0.00    -0.213 C  
BRANCH  14  15
HETATM   15  C   UNL     1      -7.400  15.271  68.727  1.00  0.00    -0.131 C  
HETATM   16  C   UNL     1      -8.472  14.727  69.325  1.00  0.00    -0.043 C  
BRANCH  16  17
HETATM   17  C   UNL     1      -9.628  14.180  68.539  1.00  0.00    -0.214 C  
BRANCH  17  18
HETATM   18  C   UNL     1     -10.790  13.728  69.406  1.00  0.00    -0.081 C  
BRANCH  18  19
HETATM   19  C   UNL     1     -11.984  14.654  69.194  1.00  0.00    -0.329 C  
HETATM   20  C   UNL     1     -12.775  14.841  70.468  1.00  0.00    -0.343 C  
HETATM   21  O   UNL     1     -12.514  14.316  71.538  1.00  0.00    -0.334 OA 
HETATM   22  O   UNL     1     -13.824  15.671  70.296  1.00  0.00     0.067 OA 
ENDBRANCH  18  19
ENDBRANCH  17  18
ENDBRANCH  16  17
ENDBRANCH  14  15
ENDBRANCH  13  14
ENDBRANCH  11  12
ENDBRANCH  10  11
ENDBRANCH   8   9
ENDBRANCH   7   8
ENDBRANCH   5   6
ENDBRANCH   4   5
ENDBRANCH   2   3
TORSDOF 12
ENDMDL
MODEL      273
REMARK 921   NORMALIZED FREE ENERGY PREDICTED BY IDOCK:   -3.51 KCAL/MOL
REMARK 922        TOTAL FREE ENERGY PREDICTED BY IDOCK:   -8.49 KCAL/MOL
REMARK 923 INTER-LIGAND FREE ENERGY PREDICTED BY IDOCK:   -6.96 KCAL/MOL
REMARK 924 INTRA-LIGAND FREE ENERGY PREDICTED BY IDOCK:   -1.53 KCAL/MOL
REMARK 927      BINDING AFFINITY PREDICTED BY RF-SCORE:    0.00 PKD
ROOT
HETATM    1  C   UNL     1     -10.539   6.663  73.560  1.00  0.00    -0.334 C  
HETATM    2  C   UNL     1     -11.248   5.794  72.533  1.00  0.00    -0.347 C  
ENDROOT
BRANCH   2   3
HETATM    3  C   UNL     1     -10.292   5.229  71.518  1.00  0.00    -0.287 C  
HETATM    4  C   UNL     1     -10.359   5.423  70.188  1.00  0.00    -0.361 C  
BRANCH   4   5
HETATM    5  C   UNL     1     -11.394   6.273  69.510  1.00  0.00    -0.475 C  
BRANCH   5   6
HETATM    6  C   UNL     1     -11.273   6.268  68.011  1.00  0.00    -0.223 C  
HETATM    7  C   UNL     1     -10.709   7.241  67.281  1.00  0.00    -0.391 C  
BRANCH   7   8
HETATM    8  C   UNL     1     -10.014   8.420  67.892  1.00  0.00    -0.228 C  
BRANCH   8   9
HETATM    9  C   UNL     1      -8.537   8.205  68.018  1.00  0.00    -0.129 C  
HETATM   10  C   UNL     1      -7.621   8.458  67.065  1.00  0.00    -0.092 C  
BRANCH  10  11
HETATM   11  C   UNL     1      -7.889   8.986  65.681  1.00  0.00    -0.102 C  
BRANCH  11  12
HETATM   12  C   UNL     1      -7.963  10.489  65.537  1.00  0.00    -0.145 C  
HETATM   13  C   UNL     1      -8.987  11.259  65.121  1.00  0.00    -0.047 C  
BRANCH  13  14
HETATM   14  C   UNL     1     -10.302  10.762  64.608  1.00  0.00    -0.394 C  
BRANCH  14  15
HETATM   15  C   UNL     1     -10.848  11.559  63.460  1.00  0.00    -0.473 C  
HETATM   16  C   UNL     1     -11.890  12.397  63.583  1.00  0.00    -0.610 C  
BRANCH  16  17
HETATM   17  C   UNL     1     -12.639  12.549  64.875  1.00  0.00    -0.469 C  
BRANCH  17  18
HETATM   18  C   UNL     1     -12.484  13.921  65.507  1.00  0.00    -0.541 C  
BRANCH  18  19
HETATM   19  C   UNL     1     -11.187  13.978  66.308  1.00  0.00    -0.320 C  
HETATM   20  C   UNL     1     -11.203  13.005  67.463  1.00  0.00    -0.284 C  
HETATM   21  O   UNL     1     -12.133  12.266  67.744  1.00  0.00    -0.478 OA 
HETATM   22  O   UNL     1     -10.054  13.036  68.169  1.00  0.00    -0.225 OA 
ENDBRANCH  18  19
ENDBRANCH  17  18
ENDBRANCH  16  17
ENDBRANCH  14  15
ENDBRANCH  13  14
ENDBRANCH  11  12
ENDBRANCH  10  11
ENDBRANCH   8   9
ENDBRANCH   7   8
ENDBRANCH   5   6
ENDBRANCH   4   5
ENDBRANCH   2   3
TORSDOF 12
ENDMDL
MODEL      274
REMARK 921   NORMALIZED FREE ENERGY PREDICTED BY IDOCK:   -3.51 KCAL/MOL
REMARK 922        TOTAL FREE ENERGY PREDICTED BY IDOCK:   -8.47 KCAL/MOL
REMARK 923 INTER-LIGAND FREE ENERGY PREDICTED BY IDOCK:   -6.45 KCAL/MOL
REMARK 924 INTRA-LIGAND FREE ENERGY PREDICTED BY IDOCK:   -2.02 KCAL/MOL
REMARK 927      BINDING AFFINITY PREDICTED BY RF-SCORE:    0.00 PKD
ROOT
HETATM    1  C   UNL     1     -12.746  13.800  65.180  1.00  0.00    -0.439 C  
HETATM    2  C   UNL     1     -11.435  13.737  64.413  1.00  0.00    -0.392 C  
ENDROOT
BRANCH   2   3
HETATM    3  C   UNL     1     -11.295  12.451  63.644  1.00  0.00    -0.556 C  
HETATM    4  C   UNL     1     -10.785  11.303  64.128  1.00  0.00    -0.436 C  
BRANCH   4   5
HETATM    5  C   UNL     1     -10.305  11.121  65.538  1.00  0.00    -0.326 C  
BRANCH   5   6
HETATM    6  C   UNL     1      -9.033  10.324  65.631  1.00  0.00    -0.198 C  
HETATM    7  C   UNL     1      -8.935   9.087  66.140  1.00  0.00    -0.216 C  
BRANCH   7   8
HETATM    8  C   UNL     1     -10.125   8.291  66.581  1.00  0.00    -0.351 C  
BRANCH   8   9
HETATM    9  C   UNL     1     -10.486   8.555  68.011  1.00  0.00    -0.249 C  
HETATM   10  C   UNL     1     -10.054   7.852  69.074  1.00  0.00    -0.204 C  
BRANCH  10  11
HETATM   11  C   UNL     1      -9.141   6.656  69.047  1.00  0.00    -0.133 C  
BRANCH  11  12
HETATM   12  C   UNL     1      -7.681   6.916  69.341  1.00  0.00    -0.105 C  
HETATM   13  C   UNL     1      -7.036   6.928  70.524  1.00  0.00    -0.063 C  
BRANCH  13  14
HETATM   14  C   UNL     1      -7.671   6.761  71.868  1.00  0.00    -0.096 C  
BRANCH  14  15
HETATM   15  C   UNL     1      -8.232   8.030  72.437  1.00  0.00    -0.193 C  
HETATM   16  C   UNL     1      -9.518   8.161  72.802  1.00  0.00    -0.349 C  
BRANCH  16  17
HETATM   17  C   UNL     1     -10.517   7.059  72.601  1.00  0.00    -0.254 C  
BRANCH  17  18
HETATM   18  C   UNL     1     -11.943   7.556  72.441  1.00  0.00    -0.264 C  
BRANCH  18  19
HETATM   19  C   UNL     1     -11.936   9.037  72.072  1.00  0.00    -0.433 C  
HETATM   20  C   UNL     1     -13.338   9.573  71.901  1.00  0.00    -0.437 C  
HETATM   21  O   UNL     1     -14.359   8.918  72.026  1.00  0.00    -0.392 OA 
HETATM   22  O   UNL     1     -13.343  10.886  71.590  1.00  0.00    -0.363 OA 
ENDBRANCH  18  19
ENDBRANCH  17  18
ENDBRANCH  16  17
ENDBRANCH  14  15
ENDBRANCH  13  14
ENDBRANCH  11  12
ENDBRANCH  10  11
ENDBRANCH   8   9
ENDBRANCH   7   8
ENDBRANCH   5   6
ENDBRANCH   4   5
ENDBRANCH   2   3
TORSDOF 12
ENDMDL
MODEL      275
REMARK 921   NORMALIZED FREE ENERGY PREDICTED BY IDOCK:   -3.50 KCAL/MOL
REMARK 922        TOTAL FREE ENERGY PREDICTED BY IDOCK:   -8.46 KCAL/MOL
REMARK 923 INTER-LIGAND FREE ENERGY PREDICTED BY IDOCK:   -5.44 KCAL/MOL
REMARK 924 INTRA-LIGAND FREE ENERGY PREDICTED BY IDOCK:   -3.03 KCAL/MOL
REMARK 927      BINDING AFFINITY PREDICTED BY RF-SCORE:    0.00 PKD
ROOT
HETATM    1  C   UNL     1      -6.659  12.632  67.251  1.00  0.00    -0.109 C  
HETATM    2  C   UNL     1      -6.948  11.534  68.262  1.00  0.00    -0.073 C  
ENDROOT
BRANCH   2   3
HETATM    3  C   UNL     1      -7.547  10.316  67.614  1.00  0.00    -0.090 C  
HETATM    4  C   UNL     1      -8.781   9.832  67.850  1.00  0.00    -0.125 C  
BRANCH   4   5
HETATM    5  C   UNL     1      -9.772  10.464  68.782  1.00  0.00    -0.184 C  
BRANCH   5   6
HETATM    6  C   UNL     1     -10.971  11.031  68.073  1.00  0.00    -0.312 C  
HETATM    7  C   UNL     1     -11.174  12.333  67.823  1.00  0.00    -0.331 C  
BRANCH   7   8
HETATM    8  C   UNL     1     -10.155  13.389  68.123  1.00  0.00    -0.244 C  
BRANCH   8   9
HETATM    9  C   UNL     1     -10.757  14.760  68.178  1.00  0.00    -0.247 C  
HETATM   10  C   UNL     1     -10.783  15.648  67.167  1.00  0.00    -0.314 C  
BRANCH  10  11
HETATM   11  C   UNL     1     -10.203  15.458  65.792  1.00  0.00    -0.378 C  
BRANCH  11  12
HETATM   12  C   UNL     1     -11.160  15.605  64.631  1.00  0.00    -0.387 C  
HETATM   13  C   UNL     1     -12.135  14.774  64.216  1.00  0.00    -0.415 C  
BRANCH  13  14
HETATM   14  C   UNL     1     -12.438  13.426  64.791  1.00  0.00    -0.416 C  
BRANCH  14  15
HETATM   15  C   UNL     1     -12.405  12.314  63.786  1.00  0.00    -0.637 C  
HETATM   16  C   UNL     1     -11.343  11.508  63.624  1.00  0.00    -0.412 C  
BRANCH  16  17
HETATM   17  C   UNL     1     -10.071  11.707  64.395  1.00  0.00    -0.322 C  
BRANCH  17  18
HETATM   18  C   UNL     1      -8.836  11.207  63.665  1.00  0.00     0.049 C  
BRANCH  18  19
HETATM   19  C   UNL     1      -8.446   9.829  64.192  1.00  0.00    -0.182 C  
HETATM   20  C   UNL     1      -6.964   9.576  64.044  1.00  0.00    -0.105 C  
HETATM   21  O   UNL     1      -6.165  10.357  63.555  1.00  0.00    -0.139 OA 
HETATM   22  O   UNL     1      -6.606   8.365  64.522  1.00  0.00    -0.065 OA 
ENDBRANCH  18  19
ENDBRANCH  17  18
ENDBRANCH  16  17
ENDBRANCH  14  15
ENDBRANCH  13  14
ENDBRANCH  11  12
ENDBRANCH  10  11
ENDBRANCH   8   9
ENDBRANCH   7   8
ENDBRANCH   5   6
ENDBRANCH   4   5
ENDBRANCH   2   3
TORSDOF 12
ENDMDL
MODEL      276
REMARK 921   NORMALIZED FREE ENERGY PREDICTED BY IDOCK:   -3.49 KCAL/MOL
REMARK 922        TOTAL FREE ENERGY PREDICTED BY IDOCK:   -8.45 KCAL/MOL
REMARK 923 INTER-LIGAND FREE ENERGY PREDICTED BY IDOCK:   -6.50 KCAL/MOL
REMARK 924 INTRA-LIGAND FREE ENERGY PREDICTED BY IDOCK:   -1.95 KCAL/MOL
REMARK 927      BINDING AFFINITY PREDICTED BY RF-SCORE:    0.00 PKD
ROOT
HETATM    1  C   UNL     1     -10.058   7.714  73.351  1.00  0.00    -0.379 C  
HETATM    2  C   UNL     1     -10.682   7.747  71.965  1.00  0.00    -0.282 C  
ENDROOT
BRANCH   2   3
HETATM    3  C   UNL     1     -11.846   8.696  71.895  1.00  0.00    -0.420 C  
HETATM    4  C   UNL     1     -12.049   9.615  70.931  1.00  0.00    -0.383 C  
BRANCH   4   5
HETATM    5  C   UNL     1     -11.148   9.808  69.747  1.00  0.00    -0.272 C  
BRANCH   5   6
HETATM    6  C   UNL     1     -11.256  11.180  69.140  1.00  0.00    -0.328 C  
HETATM    7  C   UNL     1     -10.662  11.568  68.003  1.00  0.00    -0.241 C  
BRANCH   7   8
HETATM    8  C   UNL     1      -9.899  10.628  67.120  1.00  0.00    -0.208 C  
BRANCH   8   9
HETATM    9  C   UNL     1      -8.447  10.562  67.482  1.00  0.00    -0.118 C  
HETATM   10  C   UNL     1      -7.616  11.615  67.596  1.00  0.00    -0.128 C  
BRANCH  10  11
HETATM   11  C   UNL     1      -7.965  13.061  67.368  1.00  0.00    -0.173 C  
BRANCH  11  12
HETATM   12  C   UNL     1      -7.629  14.021  68.487  1.00  0.00    -0.130 C  
HETATM   13  C   UNL     1      -8.436  14.859  69.166  1.00  0.00    -0.152 C  
BRANCH  13  14
HETATM   14  C   UNL     1      -9.888  15.092  68.887  1.00  0.00    -0.233 C  
BRANCH  14  15
HETATM   15  C   UNL     1     -10.147  16.157  67.864  1.00  0.00    -0.244 C  
HETATM   16  C   UNL     1     -10.973  15.980  66.820  1.00  0.00    -0.112 C  
BRANCH  16  17
HETATM   17  C   UNL     1     -11.650  14.667  66.556  1.00  0.00    -0.350 C  
BRANCH  17  18
HETATM   18  C   UNL     1     -11.840  14.370  65.079  1.00  0.00    -0.400 C  
BRANCH  18  19
HETATM   19  C   UNL     1     -10.943  13.207  64.666  1.00  0.00    -0.374 C  
HETATM   20  C   UNL     1     -11.717  12.143  63.924  1.00  0.00    -0.458 C  
HETATM   21  O   UNL     1     -12.913  12.184  63.686  1.00  0.00    -0.780 OA 
HETATM   22  O   UNL     1     -10.929  11.117  63.540  1.00  0.00    -0.336 OA 
ENDBRANCH  18  19
ENDBRANCH  17  18
ENDBRANCH  16  17
ENDBRANCH  14  15
ENDBRANCH  13  14
ENDBRANCH  11  12
ENDBRANCH  10  11
ENDBRANCH   8   9
ENDBRANCH   7   8
ENDBRANCH   5   6
ENDBRANCH   4   5
ENDBRANCH   2   3
TORSDOF 12
ENDMDL
MODEL      277
REMARK 921   NORMALIZED FREE ENERGY PREDICTED BY IDOCK:   -3.49 KCAL/MOL
REMARK 922        TOTAL FREE ENERGY PREDICTED BY IDOCK:   -8.45 KCAL/MOL
REMARK 923 INTER-LIGAND FREE ENERGY PREDICTED BY IDOCK:   -6.45 KCAL/MOL
REMARK 924 INTRA-LIGAND FREE ENERGY PREDICTED BY IDOCK:   -1.99 KCAL/MOL
REMARK 927      BINDING AFFINITY PREDICTED BY RF-SCORE:    0.00 PKD
ROOT
HETATM    1  C   UNL     1      -7.679  20.452  67.203  1.00  0.00    -0.369 C  
HETATM    2  C   UNL     1      -8.704  19.594  66.478  1.00  0.00    -0.402 C  
ENDROOT
BRANCH   2   3
HETATM    3  C   UNL     1      -9.788  19.111  67.403  1.00  0.00    -0.404 C  
HETATM    4  C   UNL     1     -10.352  17.889  67.374  1.00  0.00    -0.383 C  
BRANCH   4   5
HETATM    5  C   UNL     1      -9.955  16.798  66.425  1.00  0.00    -0.317 C  
BRANCH   5   6
HETATM    6  C   UNL     1     -10.900  16.651  65.265  1.00  0.00    -0.194 C  
HETATM    7  C   UNL     1     -11.159  15.504  64.622  1.00  0.00    -0.373 C  
BRANCH   7   8
HETATM    8  C   UNL     1     -10.613  14.180  65.065  1.00  0.00    -0.436 C  
BRANCH   8   9
HETATM    9  C   UNL     1     -11.699  13.206  65.408  1.00  0.00    -0.383 C  
HETATM   10  C   UNL     1     -11.888  12.632  66.611  1.00  0.00    -0.449 C  
BRANCH  10  11
HETATM   11  C   UNL     1     -11.048  12.834  67.843  1.00  0.00    -0.281 C  
BRANCH  11  12
HETATM   12  C   UNL     1     -11.657  12.391  69.154  1.00  0.00    -0.369 C  
HETATM   13  C   UNL     1     -11.331  11.345  69.938  1.00  0.00    -0.300 C  
BRANCH  13  14
HETATM   14  C   UNL     1     -10.305  10.302  69.623  1.00  0.00    -0.281 C  
BRANCH  14  15
HETATM   15  C   UNL     1     -10.748   9.304  68.595  1.00  0.00    -0.180 C  
HETATM   16  C   UNL     1     -10.051   9.050  67.475  1.00  0.00    -0.285 C  
BRANCH  16  17
HETATM   17  C   UNL     1      -8.800   9.804  67.131  1.00  0.00    -0.141 C  
BRANCH  17  18
HETATM   18  C   UNL     1      -8.419   9.706  65.664  1.00  0.00    -0.141 C  
BRANCH  18  19
HETATM   19  C   UNL     1      -9.560  10.227  64.797  1.00  0.00    -0.369 C  
HETATM   20  C   UNL     1      -9.167  10.290  63.339  1.00  0.00    -0.292 C  
HETATM   21  O   UNL     1      -8.075   9.978  62.894  1.00  0.00    -0.131 OA 
HETATM   22  O   UNL     1     -10.176  10.734  62.561  1.00  0.00     0.023 OA 
ENDBRANCH  18  19
ENDBRANCH  17  18
ENDBRANCH  16  17
ENDBRANCH  14  15
ENDBRANCH  13  14
ENDBRANCH  11  12
ENDBRANCH  10  11
ENDBRANCH   8   9
ENDBRANCH   7   8
ENDBRANCH   5   6
ENDBRANCH   4   5
ENDBRANCH   2   3
TORSDOF 12
ENDMDL
MODEL      278
REMARK 921   NORMALIZED FREE ENERGY PREDICTED BY IDOCK:   -3.48 KCAL/MOL
REMARK 922        TOTAL FREE ENERGY PREDICTED BY IDOCK:   -8.43 KCAL/MOL
REMARK 923 INTER-LIGAND FREE ENERGY PREDICTED BY IDOCK:   -6.62 KCAL/MOL
REMARK 924 INTRA-LIGAND FREE ENERGY PREDICTED BY IDOCK:   -1.81 KCAL/MOL
REMARK 927      BINDING AFFINITY PREDICTED BY RF-SCORE:    0.00 PKD
ROOT
HETATM    1  C   UNL     1      -8.859   2.962  72.657  1.00  0.00    -0.100 C  
HETATM    2  C   UNL     1      -9.807   3.296  73.798  1.00  0.00    -0.154 C  
ENDROOT
BRANCH   2   3
HETATM    3  C   UNL     1      -9.694   4.735  74.220  1.00  0.00    -0.160 C  
HETATM    4  C   UNL     1     -10.419   5.755  73.723  1.00  0.00    -0.291 C  
BRANCH   4   5
HETATM    5  C   UNL     1     -11.488   5.601  72.682  1.00  0.00    -0.339 C  
BRANCH   5   6
HETATM    6  C   UNL     1     -11.022   5.963  71.299  1.00  0.00    -0.325 C  
HETATM    7  C   UNL     1     -11.394   7.059  70.622  1.00  0.00    -0.349 C  
BRANCH   7   8
HETATM    8  C   UNL     1     -12.246   8.136  71.222  1.00  0.00    -0.302 C  
BRANCH   8   9
HETATM    9  C   UNL     1     -11.473   9.394  71.479  1.00  0.00    -0.467 C  
HETATM   10  C   UNL     1     -11.336  10.421  70.620  1.00  0.00    -0.411 C  
BRANCH  10  11
HETATM   11  C   UNL     1     -11.909  10.511  69.231  1.00  0.00    -0.242 C  
BRANCH  11  12
HETATM   12  C   UNL     1     -10.976  10.164  68.093  1.00  0.00    -0.313 C  
HETATM   13  C   UNL     1     -10.156  10.963  67.385  1.00  0.00    -0.223 C  
BRANCH  13  14
HETATM   14  C   UNL     1     -10.052  12.450  67.522  1.00  0.00    -0.205 C  
BRANCH  14  15
HETATM   15  C   UNL     1     -11.139  13.204  66.816  1.00  0.00    -0.314 C  
HETATM   16  C   UNL     1     -11.982  14.035  67.450  1.00  0.00    -0.439 C  
BRANCH  16  17
HETATM   17  C   UNL     1     -11.945  14.219  68.939  1.00  0.00    -0.356 C  
BRANCH  17  18
HETATM   18  C   UNL     1     -11.831  15.672  69.367  1.00  0.00    -0.391 C  
BRANCH  18  19
HETATM   19  C   UNL     1     -10.360  16.065  69.476  1.00  0.00    -0.278 C  
HETATM   20  C   UNL     1      -9.997  17.142  68.481  1.00  0.00    -0.309 C  
HETATM   21  O   UNL     1     -10.767  17.640  67.675  1.00  0.00    -0.374 OA 
HETATM   22  O   UNL     1      -8.702  17.508  68.580  1.00  0.00    -0.279 OA 
ENDBRANCH  18  19
ENDBRANCH  17  18
ENDBRANCH  16  17
ENDBRANCH  14  15
ENDBRANCH  13  14
ENDBRANCH  11  12
ENDBRANCH  10  11
ENDBRANCH   8   9
ENDBRANCH   7   8
ENDBRANCH   5   6
ENDBRANCH   4   5
ENDBRANCH   2   3
TORSDOF 12
ENDMDL
MODEL      279
REMARK 921   NORMALIZED FREE ENERGY PREDICTED BY IDOCK:   -3.47 KCAL/MOL
REMARK 922        TOTAL FREE ENERGY PREDICTED BY IDOCK:   -8.41 KCAL/MOL
REMARK 923 INTER-LIGAND FREE ENERGY PREDICTED BY IDOCK:   -7.20 KCAL/MOL
REMARK 924 INTRA-LIGAND FREE ENERGY PREDICTED BY IDOCK:   -1.21 KCAL/MOL
REMARK 927      BINDING AFFINITY PREDICTED BY RF-SCORE:    0.00 PKD
ROOT
HETATM    1  C   UNL     1     -10.386  19.346  67.839  1.00  0.00    -0.542 C  
HETATM    2  C   UNL     1      -9.567  18.558  66.829  1.00  0.00    -0.329 C  
ENDROOT
BRANCH   2   3
HETATM    3  C   UNL     1     -10.428  17.659  65.984  1.00  0.00    -0.278 C  
HETATM    4  C   UNL     1     -10.539  16.325  66.125  1.00  0.00    -0.272 C  
BRANCH   4   5
HETATM    5  C   UNL     1      -9.837  15.527  67.184  1.00  0.00    -0.236 C  
BRANCH   5   6
HETATM    6  C   UNL     1     -10.614  15.437  68.468  1.00  0.00    -0.240 C  
HETATM    7  C   UNL     1     -11.667  14.635  68.678  1.00  0.00    -0.362 C  
BRANCH   7   8
HETATM    8  C   UNL     1     -12.134  13.625  67.674  1.00  0.00    -0.328 C  
BRANCH   8   9
HETATM    9  C   UNL     1     -11.528  12.274  67.904  1.00  0.00    -0.390 C  
HETATM   10  C   UNL     1     -11.512  11.609  69.074  1.00  0.00    -0.356 C  
BRANCH  10  11
HETATM   11  C   UNL     1     -12.077  12.087  70.385  1.00  0.00    -0.407 C  
BRANCH  11  12
HETATM   12  C   UNL     1     -12.906  11.091  71.164  1.00  0.00    -0.491 C  
HETATM   13  C   UNL     1     -12.550   9.899  71.680  1.00  0.00    -0.519 C  
BRANCH  13  14
HETATM   14  C   UNL     1     -11.218   9.237  71.512  1.00  0.00    -0.457 C  
BRANCH  14  15
HETATM   15  C   UNL     1     -11.303   7.783  71.155  1.00  0.00    -0.290 C  
HETATM   16  C   UNL     1     -10.646   7.248  70.113  1.00  0.00    -0.245 C  
BRANCH  16  17
HETATM   17  C   UNL     1      -9.826   8.086  69.176  1.00  0.00    -0.178 C  
BRANCH  17  18
HETATM   18  C   UNL     1     -10.298   8.020  67.734  1.00  0.00    -0.294 C  
BRANCH  18  19
HETATM   19  C   UNL     1     -10.843   6.628  67.431  1.00  0.00    -0.434 C  
HETATM   20  C   UNL     1      -9.831   5.783  66.693  1.00  0.00    -0.165 C  
HETATM   21  O   UNL     1      -8.717   6.155  66.362  1.00  0.00    -0.128 OA 
HETATM   22  O   UNL     1     -10.297   4.544  66.434  1.00  0.00    -0.253 OA 
ENDBRANCH  18  19
ENDBRANCH  17  18
ENDBRANCH  16  17
ENDBRANCH  14  15
ENDBRANCH  13  14
ENDBRANCH  11  12
ENDBRANCH  10  11
ENDBRANCH   8   9
ENDBRANCH   7   8
ENDBRANCH   5   6
ENDBRANCH   4   5
ENDBRANCH   2   3
TORSDOF 12
ENDMDL
MODEL      280
REMARK 921   NORMALIZED FREE ENERGY PREDICTED BY IDOCK:   -3.46 KCAL/MOL
REMARK 922        TOTAL FREE ENERGY PREDICTED BY IDOCK:   -8.40 KCAL/MOL
REMARK 923 INTER-LIGAND FREE ENERGY PREDICTED BY IDOCK:   -5.82 KCAL/MOL
REMARK 924 INTRA-LIGAND FREE ENERGY PREDICTED BY IDOCK:   -2.59 KCAL/MOL
REMARK 927      BINDING AFFINITY PREDICTED BY RF-SCORE:    0.00 PKD
ROOT
HETATM    1  C   UNL     1      -7.103  12.560  68.589  1.00  0.00    -0.100 C  
HETATM    2  C   UNL     1      -7.056  11.853  67.244  1.00  0.00    -0.143 C  
ENDROOT
BRANCH   2   3
HETATM    3  C   UNL     1      -6.247  10.587  67.302  1.00  0.00    -0.058 C  
HETATM    4  C   UNL     1      -6.750   9.338  67.321  1.00  0.00    -0.069 C  
BRANCH   4   5
HETATM    5  C   UNL     1      -8.214   9.017  67.252  1.00  0.00    -0.103 C  
BRANCH   5   6
HETATM    6  C   UNL     1      -8.515   7.813  66.401  1.00  0.00    -0.136 C  
HETATM    7  C   UNL     1      -9.607   7.044  66.513  1.00  0.00    -0.201 C  
BRANCH   7   8
HETATM    8  C   UNL     1     -10.739   7.367  67.441  1.00  0.00    -0.348 C  
BRANCH   8   9
HETATM    9  C   UNL     1     -10.973   6.282  68.448  1.00  0.00    -0.409 C  
HETATM   10  C   UNL     1     -10.448   6.233  69.687  1.00  0.00    -0.295 C  
BRANCH  10  11
HETATM   11  C   UNL     1      -9.511   7.236  70.304  1.00  0.00    -0.165 C  
BRANCH  11  12
HETATM   12  C   UNL     1      -9.824   7.670  71.717  1.00  0.00    -0.200 C  
HETATM   13  C   UNL     1     -10.942   8.235  72.211  1.00  0.00    -0.418 C  
BRANCH  13  14
HETATM   14  C   UNL     1     -12.137   8.650  71.412  1.00  0.00    -0.351 C  
BRANCH  14  15
HETATM   15  C   UNL     1     -12.399  10.127  71.431  1.00  0.00    -0.515 C  
HETATM   16  C   UNL     1     -11.862  10.975  70.538  1.00  0.00    -0.464 C  
BRANCH  16  17
HETATM   17  C   UNL     1     -10.896  10.514  69.487  1.00  0.00    -0.298 C  
BRANCH  17  18
HETATM   18  C   UNL     1     -11.155  11.120  68.118  1.00  0.00    -0.324 C  
BRANCH  18  19
HETATM   19  C   UNL     1     -11.887  12.450  68.272  1.00  0.00    -0.364 C  
HETATM   20  C   UNL     1     -11.136  13.578  67.604  1.00  0.00    -0.269 C  
HETATM   21  O   UNL     1     -10.071  13.462  67.020  1.00  0.00    -0.241 OA 
HETATM   22  O   UNL     1     -11.783  14.757  67.721  1.00  0.00    -0.346 OA 
ENDBRANCH  18  19
ENDBRANCH  17  18
ENDBRANCH  16  17
ENDBRANCH  14  15
ENDBRANCH  13  14
ENDBRANCH  11  12
ENDBRANCH  10  11
ENDBRANCH   8   9
ENDBRANCH   7   8
ENDBRANCH   5   6
ENDBRANCH   4   5
ENDBRANCH   2   3
TORSDOF 12
ENDMDL
MODEL      281
REMARK 921   NORMALIZED FREE ENERGY PREDICTED BY IDOCK:   -3.46 KCAL/MOL
REMARK 922        TOTAL FREE ENERGY PREDICTED BY IDOCK:   -8.39 KCAL/MOL
REMARK 923 INTER-LIGAND FREE ENERGY PREDICTED BY IDOCK:   -6.55 KCAL/MOL
REMARK 924 INTRA-LIGAND FREE ENERGY PREDICTED BY IDOCK:   -1.83 KCAL/MOL
REMARK 927      BINDING AFFINITY PREDICTED BY RF-SCORE:    0.00 PKD
ROOT
HETATM    1  C   UNL     1     -11.573  16.215  70.870  1.00  0.00    -0.406 C  
HETATM    2  C   UNL     1     -11.394  15.417  72.152  1.00  0.00    -0.447 C  
ENDROOT
BRANCH   2   3
HETATM    3  C   UNL     1     -12.596  15.518  73.050  1.00  0.00    -0.557 C  
HETATM    4  C   UNL     1     -13.757  14.857  72.879  1.00  0.00    -0.427 C  
BRANCH   4   5
HETATM    5  C   UNL     1     -14.016  13.880  71.769  1.00  0.00    -0.422 C  
BRANCH   5   6
HETATM    6  C   UNL     1     -13.348  12.550  71.986  1.00  0.00    -0.528 C  
HETATM    7  C   UNL     1     -12.495  11.968  71.131  1.00  0.00    -0.353 C  
BRANCH   7   8
HETATM    8  C   UNL     1     -12.004  12.641  69.885  1.00  0.00    -0.365 C  
BRANCH   8   9
HETATM    9  C   UNL     1     -11.906  11.693  68.729  1.00  0.00    -0.387 C  
HETATM   10  C   UNL     1     -11.197  11.898  67.603  1.00  0.00    -0.340 C  
BRANCH  10  11
HETATM   11  C   UNL     1     -10.380  13.116  67.267  1.00  0.00    -0.243 C  
BRANCH  11  12
HETATM   12  C   UNL     1     -11.104  14.442  67.295  1.00  0.00    -0.318 C  
HETATM   13  C   UNL     1     -10.601  15.691  67.323  1.00  0.00    -0.305 C  
BRANCH  13  14
HETATM   14  C   UNL     1      -9.151  16.047  67.421  1.00  0.00    -0.207 C  
BRANCH  14  15
HETATM   15  C   UNL     1      -8.653  16.189  68.829  1.00  0.00    -0.236 C  
HETATM   16  C   UNL     1      -7.406  15.857  69.199  1.00  0.00    -0.198 C  
BRANCH  16  17
HETATM   17  C   UNL     1      -6.428  15.249  68.237  1.00  0.00    -0.115 C  
BRANCH  17  18
HETATM   18  C   UNL     1      -6.332  13.737  68.347  1.00  0.00    -0.099 C  
BRANCH  18  19
HETATM   19  C   UNL     1      -6.226  13.331  69.814  1.00  0.00    -0.110 C  
HETATM   20  C   UNL     1      -5.571  11.978  69.971  1.00  0.00    -0.123 C  
HETATM   21  O   UNL     1      -5.180  11.278  69.051  1.00  0.00    -0.041 OA 
HETATM   22  O   UNL     1      -5.458  11.616  71.266  1.00  0.00    -0.324 OA 
ENDBRANCH  18  19
ENDBRANCH  17  18
ENDBRANCH  16  17
ENDBRANCH  14  15
ENDBRANCH  13  14
ENDBRANCH  11  12
ENDBRANCH  10  11
ENDBRANCH   8   9
ENDBRANCH   7   8
ENDBRANCH   5   6
ENDBRANCH   4   5
ENDBRANCH   2   3
TORSDOF 12
ENDMDL
MODEL      282
REMARK 921   NORMALIZED FREE ENERGY PREDICTED BY IDOCK:   -3.46 KCAL/MOL
REMARK 922        TOTAL FREE ENERGY PREDICTED BY IDOCK:   -8.39 KCAL/MOL
REMARK 923 INTER-LIGAND FREE ENERGY PREDICTED BY IDOCK:   -5.99 KCAL/MOL
REMARK 924 INTRA-LIGAND FREE ENERGY PREDICTED BY IDOCK:   -2.39 KCAL/MOL
REMARK 927      BINDING AFFINITY PREDICTED BY RF-SCORE:    0.00 PKD
ROOT
HETATM    1  C   UNL     1     -11.949  13.420  63.793  1.00  0.00    -0.517 C  
HETATM    2  C   UNL     1     -12.911  13.112  64.930  1.00  0.00    -0.349 C  
ENDROOT
BRANCH   2   3
HETATM    3  C   UNL     1     -12.434  13.680  66.239  1.00  0.00    -0.420 C  
HETATM    4  C   UNL     1     -11.756  13.002  67.184  1.00  0.00    -0.439 C  
BRANCH   4   5
HETATM    5  C   UNL     1     -11.338  11.566  67.057  1.00  0.00    -0.340 C  
BRANCH   5   6
HETATM    6  C   UNL     1     -10.046  11.392  66.308  1.00  0.00    -0.263 C  
HETATM    7  C   UNL     1      -8.823  11.486  66.849  1.00  0.00    -0.182 C  
BRANCH   7   8
HETATM    8  C   UNL     1      -8.594  11.664  68.319  1.00  0.00    -0.162 C  
BRANCH   8   9
HETATM    9  C   UNL     1      -7.920  10.477  68.936  1.00  0.00    -0.128 C  
HETATM   10  C   UNL     1      -8.530   9.345  69.332  1.00  0.00    -0.142 C  
BRANCH  10  11
HETATM   11  C   UNL     1     -10.003   9.046  69.255  1.00  0.00    -0.188 C  
BRANCH  11  12
HETATM   12  C   UNL     1     -10.886   9.743  70.265  1.00  0.00    -0.356 C  
HETATM   13  C   UNL     1     -11.047   9.491  71.578  1.00  0.00    -0.406 C  
BRANCH  13  14
HETATM   14  C   UNL     1     -10.421   8.361  72.335  1.00  0.00    -0.402 C  
BRANCH  14  15
HETATM   15  C   UNL     1     -11.400   7.324  72.798  1.00  0.00    -0.318 C  
HETATM   16  C   UNL     1     -11.664   6.206  72.102  1.00  0.00    -0.361 C  
BRANCH  16  17
HETATM   17  C   UNL     1     -11.046   5.943  70.760  1.00  0.00    -0.324 C  
BRANCH  17  18
HETATM   18  C   UNL     1      -9.800   5.077  70.826  1.00  0.00    -0.279 C  
BRANCH  18  19
HETATM   19  C   UNL     1      -8.660   5.753  70.071  1.00  0.00    -0.128 C  
HETATM   20  C   UNL     1      -8.537   5.226  68.661  1.00  0.00    -0.087 C  
HETATM   21  O   UNL     1      -9.244   4.360  68.172  1.00  0.00    -0.121 OA 
HETATM   22  O   UNL     1      -7.541   5.829  67.979  1.00  0.00    -0.083 OA 
ENDBRANCH  18  19
ENDBRANCH  17  18
ENDBRANCH  16  17
ENDBRANCH  14  15
ENDBRANCH  13  14
ENDBRANCH  11  12
ENDBRANCH  10  11
ENDBRANCH   8   9
ENDBRANCH   7   8
ENDBRANCH   5   6
ENDBRANCH   4   5
ENDBRANCH   2   3
TORSDOF 12
ENDMDL
MODEL      283
REMARK 921   NORMALIZED FREE ENERGY PREDICTED BY IDOCK:   -3.45 KCAL/MOL
REMARK 922        TOTAL FREE ENERGY PREDICTED BY IDOCK:   -8.38 KCAL/MOL
REMARK 923 INTER-LIGAND FREE ENERGY PREDICTED BY IDOCK:   -6.22 KCAL/MOL
REMARK 924 INTRA-LIGAND FREE ENERGY PREDICTED BY IDOCK:   -2.15 KCAL/MOL
REMARK 927      BINDING AFFINITY PREDICTED BY RF-SCORE:    0.00 PKD
ROOT
HETATM    1  C   UNL     1      -5.870  10.138  63.701  1.00  0.00    -0.138 C  
HETATM    2  C   UNL     1      -7.328   9.995  64.108  1.00  0.00    -0.132 C  
ENDROOT
BRANCH   2   3
HETATM    3  C   UNL     1      -7.705   8.560  64.354  1.00  0.00    -0.128 C  
HETATM    4  C   UNL     1      -8.488   8.118  65.355  1.00  0.00    -0.164 C  
BRANCH   4   5
HETATM    5  C   UNL     1      -9.141   9.008  66.372  1.00  0.00    -0.213 C  
BRANCH   5   6
HETATM    6  C   UNL     1     -10.432   8.450  66.904  1.00  0.00    -0.359 C  
HETATM    7  C   UNL     1     -10.543   7.658  67.980  1.00  0.00    -0.213 C  
BRANCH   7   8
HETATM    8  C   UNL     1      -9.384   7.322  68.868  1.00  0.00    -0.144 C  
BRANCH   8   9
HETATM    9  C   UNL     1      -9.314   5.859  69.181  1.00  0.00    -0.137 C  
HETATM   10  C   UNL     1      -9.553   5.300  70.382  1.00  0.00    -0.241 C  
BRANCH  10  11
HETATM   11  C   UNL     1      -9.918   6.022  71.651  1.00  0.00    -0.211 C  
BRANCH  11  12
HETATM   12  C   UNL     1     -11.358   5.914  72.098  1.00  0.00    -0.344 C  
HETATM   13  C   UNL     1     -12.401   6.723  71.826  1.00  0.00    -0.400 C  
BRANCH  13  14
HETATM   14  C   UNL     1     -12.335   8.005  71.057  1.00  0.00    -0.164 C  
BRANCH  14  15
HETATM   15  C   UNL     1     -12.025   9.205  71.902  1.00  0.00    -0.443 C  
HETATM   16  C   UNL     1     -12.008  10.456  71.414  1.00  0.00    -0.379 C  
BRANCH  16  17
HETATM   17  C   UNL     1     -12.232  10.744  69.959  1.00  0.00    -0.409 C  
BRANCH  17  18
HETATM   18  C   UNL     1     -11.004  11.297  69.255  1.00  0.00    -0.297 C  
BRANCH  18  19
HETATM   19  C   UNL     1     -11.256  12.741  68.832  1.00  0.00    -0.332 C  
HETATM   20  C   UNL     1     -11.785  12.822  67.420  1.00  0.00    -0.366 C  
HETATM   21  O   UNL     1     -11.982  11.865  66.688  1.00  0.00    -0.601 OA 
HETATM   22  O   UNL     1     -12.026  14.095  67.041  1.00  0.00    -0.408 OA 
ENDBRANCH  18  19
ENDBRANCH  17  18
ENDBRANCH  16  17
ENDBRANCH  14  15
ENDBRANCH  13  14
ENDBRANCH  11  12
ENDBRANCH  10  11
ENDBRANCH   8   9
ENDBRANCH   7   8
ENDBRANCH   5   6
ENDBRANCH   4   5
ENDBRANCH   2   3
TORSDOF 12
ENDMDL
MODEL      284
REMARK 921   NORMALIZED FREE ENERGY PREDICTED BY IDOCK:   -3.43 KCAL/MOL
REMARK 922        TOTAL FREE ENERGY PREDICTED BY IDOCK:   -8.34 KCAL/MOL
REMARK 923 INTER-LIGAND FREE ENERGY PREDICTED BY IDOCK:   -6.98 KCAL/MOL
REMARK 924 INTRA-LIGAND FREE ENERGY PREDICTED BY IDOCK:   -1.36 KCAL/MOL
REMARK 927      BINDING AFFINITY PREDICTED BY RF-SCORE:    0.00 PKD
ROOT
HETATM    1  C   UNL     1      -7.873  19.570  66.043  1.00  0.00    -0.318 C  
HETATM    2  C   UNL     1      -8.256  19.952  67.464  1.00  0.00    -0.358 C  
ENDROOT
BRANCH   2   3
HETATM    3  C   UNL     1      -9.736  19.831  67.699  1.00  0.00    -0.490 C  
HETATM    4  C   UNL     1     -10.465  18.712  67.533  1.00  0.00    -0.473 C  
BRANCH   4   5
HETATM    5  C   UNL     1      -9.896  17.388  67.115  1.00  0.00    -0.278 C  
BRANCH   5   6
HETATM    6  C   UNL     1      -9.653  16.458  68.272  1.00  0.00    -0.221 C  
HETATM    7  C   UNL     1     -10.521  15.539  68.717  1.00  0.00    -0.234 C  
BRANCH   7   8
HETATM    8  C   UNL     1     -11.818  15.242  68.029  1.00  0.00    -0.176 C  
BRANCH   8   9
HETATM    9  C   UNL     1     -12.021  13.774  67.809  1.00  0.00    -0.391 C  
HETATM   10  C   UNL     1     -11.358  13.014  66.917  1.00  0.00    -0.352 C  
BRANCH  10  11
HETATM   11  C   UNL     1     -10.301  13.479  65.952  1.00  0.00    -0.301 C  
BRANCH  11  12
HETATM   12  C   UNL     1     -10.673  13.464  64.487  1.00  0.00    -0.434 C  
HETATM   13  C   UNL     1     -10.802  12.419  63.648  1.00  0.00    -0.509 C  
BRANCH  13  14
HETATM   14  C   UNL     1     -10.510  10.989  63.981  1.00  0.00    -0.433 C  
BRANCH  14  15
HETATM   15  C   UNL     1      -9.048  10.655  63.998  1.00  0.00    -0.246 C  
HETATM   16  C   UNL     1      -8.453  10.032  65.028  1.00  0.00    -0.167 C  
BRANCH  16  17
HETATM   17  C   UNL     1      -9.199   9.683  66.282  1.00  0.00    -0.213 C  
BRANCH  17  18
HETATM   18  C   UNL     1      -9.557   8.210  66.384  1.00  0.00    -0.286 C  
BRANCH  18  19
HETATM   19  C   UNL     1     -10.393   7.966  67.636  1.00  0.00    -0.307 C  
HETATM   20  C   UNL     1     -10.585   6.491  67.898  1.00  0.00    -0.252 C  
HETATM   21  O   UNL     1     -10.146   5.592  67.199  1.00  0.00    -0.145 OA 
HETATM   22  O   UNL     1     -11.311   6.264  69.013  1.00  0.00    -0.390 OA 
ENDBRANCH  18  19
ENDBRANCH  17  18
ENDBRANCH  16  17
ENDBRANCH  14  15
ENDBRANCH  13  14
ENDBRANCH  11  12
ENDBRANCH  10  11
ENDBRANCH   8   9
ENDBRANCH   7   8
ENDBRANCH   5   6
ENDBRANCH   4   5
ENDBRANCH   2   3
TORSDOF 12
ENDMDL
MODEL      285
REMARK 921   NORMALIZED FREE ENERGY PREDICTED BY IDOCK:   -3.41 KCAL/MOL
REMARK 922        TOTAL FREE ENERGY PREDICTED BY IDOCK:   -8.31 KCAL/MOL
REMARK 923 INTER-LIGAND FREE ENERGY PREDICTED BY IDOCK:   -6.06 KCAL/MOL
REMARK 924 INTRA-LIGAND FREE ENERGY PREDICTED BY IDOCK:   -2.24 KCAL/MOL
REMARK 927      BINDING AFFINITY PREDICTED BY RF-SCORE:    0.00 PKD
ROOT
HETATM    1  C   UNL     1     -10.442   9.611  70.670  1.00  0.00    -0.379 C  
HETATM    2  C   UNL     1     -11.603  10.588  70.574  1.00  0.00    -0.441 C  
ENDROOT
BRANCH   2   3
HETATM    3  C   UNL     1     -11.888  10.985  69.151  1.00  0.00    -0.407 C  
HETATM    4  C   UNL     1     -12.034  12.247  68.706  1.00  0.00    -0.281 C  
BRANCH   4   5
HETATM    5  C   UNL     1     -11.898  13.467  69.569  1.00  0.00    -0.392 C  
BRANCH   5   6
HETATM    6  C   UNL     1     -10.655  14.262  69.276  1.00  0.00    -0.160 C  
HETATM    7  C   UNL     1     -10.388  14.874  68.114  1.00  0.00    -0.237 C  
BRANCH   7   8
HETATM    8  C   UNL     1     -11.368  14.938  66.983  1.00  0.00    -0.345 C  
BRANCH   8   9
HETATM    9  C   UNL     1     -10.693  14.924  65.645  1.00  0.00    -0.352 C  
HETATM   10  C   UNL     1     -10.317  13.825  64.966  1.00  0.00    -0.402 C  
BRANCH  10  11
HETATM   11  C   UNL     1     -10.477  12.396  65.412  1.00  0.00    -0.306 C  
BRANCH  11  12
HETATM   12  C   UNL     1      -9.330  11.803  66.198  1.00  0.00    -0.236 C  
HETATM   13  C   UNL     1      -9.006  10.510  66.395  1.00  0.00    -0.174 C  
BRANCH  13  14
HETATM   14  C   UNL     1      -9.798   9.330  65.926  1.00  0.00    -0.335 C  
BRANCH  14  15
HETATM   15  C   UNL     1     -10.643   8.702  66.994  1.00  0.00    -0.293 C  
HETATM   16  C   UNL     1     -10.464   7.440  67.418  1.00  0.00    -0.366 C  
BRANCH  16  17
HETATM   17  C   UNL     1      -9.442   6.532  66.800  1.00  0.00    -0.188 C  
BRANCH  17  18
HETATM   18  C   UNL     1      -8.785   5.593  67.797  1.00  0.00    -0.107 C  
BRANCH  18  19
HETATM   19  C   UNL     1      -8.795   6.224  69.186  1.00  0.00    -0.128 C  
HETATM   20  C   UNL     1      -9.444   5.316  70.204  1.00  0.00    -0.160 C  
HETATM   21  O   UNL     1      -9.917   4.218  69.963  1.00  0.00    -0.223 OA 
HETATM   22  O   UNL     1      -9.445   5.859  71.440  1.00  0.00    -0.149 OA 
ENDBRANCH  18  19
ENDBRANCH  17  18
ENDBRANCH  16  17
ENDBRANCH  14  15
ENDBRANCH  13  14
ENDBRANCH  11  12
ENDBRANCH  10  11
ENDBRANCH   8   9
ENDBRANCH   7   8
ENDBRANCH   5   6
ENDBRANCH   4   5
ENDBRANCH   2   3
TORSDOF 12
ENDMDL
MODEL      286
REMARK 921   NORMALIZED FREE ENERGY PREDICTED BY IDOCK:   -3.41 KCAL/MOL
REMARK 922        TOTAL FREE ENERGY PREDICTED BY IDOCK:   -8.30 KCAL/MOL
REMARK 923 INTER-LIGAND FREE ENERGY PREDICTED BY IDOCK:   -6.44 KCAL/MOL
REMARK 924 INTRA-LIGAND FREE ENERGY PREDICTED BY IDOCK:   -1.86 KCAL/MOL
REMARK 927      BINDING AFFINITY PREDICTED BY RF-SCORE:    0.00 PKD
ROOT
HETATM    1  C   UNL     1     -10.724   3.708  63.407  1.00  0.00    -0.235 C  
HETATM    2  C   UNL     1      -9.571   3.242  64.281  1.00  0.00    -0.151 C  
ENDROOT
BRANCH   2   3
HETATM    3  C   UNL     1      -8.756   4.395  64.799  1.00  0.00    -0.140 C  
HETATM    4  C   UNL     1      -9.172   5.305  65.699  1.00  0.00    -0.145 C  
BRANCH   4   5
HETATM    5  C   UNL     1     -10.520   5.285  66.357  1.00  0.00    -0.347 C  
BRANCH   5   6
HETATM    6  C   UNL     1     -10.805   6.526  67.159  1.00  0.00    -0.472 C  
HETATM    7  C   UNL     1     -10.866   6.581  68.497  1.00  0.00    -0.353 C  
BRANCH   7   8
HETATM    8  C   UNL     1     -10.536   5.414  69.377  1.00  0.00    -0.331 C  
BRANCH   8   9
HETATM    9  C   UNL     1      -9.058   5.192  69.495  1.00  0.00    -0.145 C  
HETATM   10  C   UNL     1      -8.254   5.736  70.426  1.00  0.00    -0.107 C  
BRANCH  10  11
HETATM   11  C   UNL     1      -8.663   6.684  71.521  1.00  0.00    -0.131 C  
BRANCH  11  12
HETATM   12  C   UNL     1      -9.510   6.107  72.632  1.00  0.00    -0.147 C  
HETATM   13  C   UNL     1     -10.630   6.597  73.197  1.00  0.00    -0.299 C  
BRANCH  13  14
HETATM   14  C   UNL     1     -11.256   7.921  72.889  1.00  0.00    -0.429 C  
BRANCH  14  15
HETATM   15  C   UNL     1     -12.381   7.847  71.900  1.00  0.00    -0.350 C  
HETATM   16  C   UNL     1     -12.844   8.920  71.238  1.00  0.00    -0.272 C  
BRANCH  16  17
HETATM   17  C   UNL     1     -12.312  10.300  71.492  1.00  0.00    -0.488 C  
BRANCH  17  18
HETATM   18  C   UNL     1     -12.068  11.098  70.223  1.00  0.00    -0.462 C  
BRANCH  18  19
HETATM   19  C   UNL     1     -11.150  10.315  69.289  1.00  0.00    -0.293 C  
HETATM   20  C   UNL     1     -11.316  10.752  67.852  1.00  0.00    -0.299 C  
HETATM   21  O   UNL     1     -12.090  11.613  67.466  1.00  0.00    -0.611 OA 
HETATM   22  O   UNL     1     -10.498  10.076  67.019  1.00  0.00    -0.237 OA 
ENDBRANCH  18  19
ENDBRANCH  17  18
ENDBRANCH  16  17
ENDBRANCH  14  15
ENDBRANCH  13  14
ENDBRANCH  11  12
ENDBRANCH  10  11
ENDBRANCH   8   9
ENDBRANCH   7   8
ENDBRANCH   5   6
ENDBRANCH   4   5
ENDBRANCH   2   3
TORSDOF 12
ENDMDL
MODEL      287
REMARK 921   NORMALIZED FREE ENERGY PREDICTED BY IDOCK:   -3.40 KCAL/MOL
REMARK 922        TOTAL FREE ENERGY PREDICTED BY IDOCK:   -8.29 KCAL/MOL
REMARK 923 INTER-LIGAND FREE ENERGY PREDICTED BY IDOCK:   -6.16 KCAL/MOL
REMARK 924 INTRA-LIGAND FREE ENERGY PREDICTED BY IDOCK:   -2.13 KCAL/MOL
REMARK 927      BINDING AFFINITY PREDICTED BY RF-SCORE:    0.00 PKD
ROOT
HETATM    1  C   UNL     1     -12.341  15.375  70.576  1.00  0.00    -0.452 C  
HETATM    2  C   UNL     1     -12.306  13.945  71.090  1.00  0.00    -0.440 C  
ENDROOT
BRANCH   2   3
HETATM    3  C   UNL     1     -12.127  12.951  69.976  1.00  0.00    -0.357 C  
HETATM    4  C   UNL     1     -12.018  11.618  70.128  1.00  0.00    -0.441 C  
BRANCH   4   5
HETATM    5  C   UNL     1     -12.094  10.910  71.449  1.00  0.00    -0.241 C  
BRANCH   5   6
HETATM    6  C   UNL     1     -13.409  10.214  71.672  1.00  0.00    -0.463 C  
HETATM    7  C   UNL     1     -13.555   8.906  71.926  1.00  0.00    -0.474 C  
BRANCH   7   8
HETATM    8  C   UNL     1     -12.394   7.983  72.139  1.00  0.00    -0.358 C  
BRANCH   8   9
HETATM    9  C   UNL     1     -12.354   6.879  71.127  1.00  0.00    -0.419 C  
HETATM   10  C   UNL     1     -11.389   6.690  70.208  1.00  0.00    -0.431 C  
BRANCH  10  11
HETATM   11  C   UNL     1     -10.172   7.549  69.996  1.00  0.00    -0.215 C  
BRANCH  11  12
HETATM   12  C   UNL     1     -10.350   8.764  69.113  1.00  0.00    -0.227 C  
HETATM   13  C   UNL     1     -10.541   8.833  67.782  1.00  0.00    -0.256 C  
BRANCH  13  14
HETATM   14  C   UNL     1     -10.532   7.673  66.836  1.00  0.00    -0.388 C  
BRANCH  14  15
HETATM   15  C   UNL     1      -9.166   7.306  66.337  1.00  0.00    -0.201 C  
HETATM   16  C   UNL     1      -8.791   6.037  66.102  1.00  0.00    -0.152 C  
BRANCH  16  17
HETATM   17  C   UNL     1      -9.696   4.876  66.391  1.00  0.00    -0.200 C  
BRANCH  17  18
HETATM   18  C   UNL     1      -9.525   4.309  67.790  1.00  0.00    -0.215 C  
BRANCH  18  19
HETATM   19  C   UNL     1      -8.190   3.578  67.893  1.00  0.00    -0.090 C  
HETATM   20  C   UNL     1      -7.233   4.295  68.815  1.00  0.00    -0.055 C  
HETATM   21  O   UNL     1      -7.474   5.337  69.403  1.00  0.00    -0.063 OA 
HETATM   22  O   UNL     1      -6.054   3.648  68.925  1.00  0.00    -0.026 OA 
ENDBRANCH  18  19
ENDBRANCH  17  18
ENDBRANCH  16  17
ENDBRANCH  14  15
ENDBRANCH  13  14
ENDBRANCH  11  12
ENDBRANCH  10  11
ENDBRANCH   8   9
ENDBRANCH   7   8
ENDBRANCH   5   6
ENDBRANCH   4   5
ENDBRANCH   2   3
TORSDOF 12
ENDMDL
MODEL      288
REMARK 921   NORMALIZED FREE ENERGY PREDICTED BY IDOCK:   -3.39 KCAL/MOL
REMARK 922        TOTAL FREE ENERGY PREDICTED BY IDOCK:   -8.28 KCAL/MOL
REMARK 923 INTER-LIGAND FREE ENERGY PREDICTED BY IDOCK:   -6.48 KCAL/MOL
REMARK 924 INTRA-LIGAND FREE ENERGY PREDICTED BY IDOCK:   -1.81 KCAL/MOL
REMARK 927      BINDING AFFINITY PREDICTED BY RF-SCORE:    0.00 PKD
ROOT
HETATM    1  C   UNL     1     -10.803   3.601  62.373  1.00  0.00    -0.138 C  
HETATM    2  C   UNL     1     -10.485   2.509  63.383  1.00  0.00    -0.194 C  
ENDROOT
BRANCH   2   3
HETATM    3  C   UNL     1      -9.115   2.677  63.980  1.00  0.00    -0.109 C  
HETATM    4  C   UNL     1      -8.805   3.485  65.011  1.00  0.00    -0.124 C  
BRANCH   4   5
HETATM    5  C   UNL     1      -9.801   4.328  65.752  1.00  0.00    -0.228 C  
BRANCH   5   6
HETATM    6  C   UNL     1      -9.287   5.704  66.075  1.00  0.00    -0.150 C  
HETATM    7  C   UNL     1      -9.805   6.521  67.003  1.00  0.00    -0.200 C  
BRANCH   7   8
HETATM    8  C   UNL     1     -10.907   6.107  67.930  1.00  0.00    -0.406 C  
BRANCH   8   9
HETATM    9  C   UNL     1     -10.409   5.260  69.061  1.00  0.00    -0.246 C  
HETATM   10  C   UNL     1     -10.450   5.587  70.366  1.00  0.00    -0.356 C  
BRANCH  10  11
HETATM   11  C   UNL     1     -10.983   6.867  70.953  1.00  0.00    -0.290 C  
BRANCH  11  12
HETATM   12  C   UNL     1     -12.485   6.975  71.081  1.00  0.00    -0.407 C  
HETATM   13  C   UNL     1     -13.230   7.971  71.597  1.00  0.00    -0.358 C  
BRANCH  13  14
HETATM   14  C   UNL     1     -12.701   9.204  72.261  1.00  0.00    -0.447 C  
BRANCH  14  15
HETATM   15  C   UNL     1     -13.087  10.479  71.572  1.00  0.00    -0.532 C  
HETATM   16  C   UNL     1     -12.368  11.016  70.573  1.00  0.00    -0.462 C  
BRANCH  16  17
HETATM   17  C   UNL     1     -11.072  10.413  70.115  1.00  0.00    -0.383 C  
BRANCH  17  18
HETATM   18  C   UNL     1     -11.141   9.820  68.718  1.00  0.00    -0.140 C  
BRANCH  18  19
HETATM   19  C   UNL     1     -10.169  10.552  67.797  1.00  0.00    -0.223 C  
HETATM   20  C   UNL     1     -10.879  11.569  66.935  1.00  0.00    -0.284 C  
HETATM   21  O   UNL     1     -12.080  11.785  66.949  1.00  0.00    -0.566 OA 
HETATM   22  O   UNL     1     -10.025  12.234  66.128  1.00  0.00    -0.233 OA 
ENDBRANCH  18  19
ENDBRANCH  17  18
ENDBRANCH  16  17
ENDBRANCH  14  15
ENDBRANCH  13  14
ENDBRANCH  11  12
ENDBRANCH  10  11
ENDBRANCH   8   9
ENDBRANCH   7   8
ENDBRANCH   5   6
ENDBRANCH   4   5
ENDBRANCH   2   3
TORSDOF 12
ENDMDL
MODEL      289
REMARK 921   NORMALIZED FREE ENERGY PREDICTED BY IDOCK:   -3.39 KCAL/MOL
REMARK 922        TOTAL FREE ENERGY PREDICTED BY IDOCK:   -8.28 KCAL/MOL
REMARK 923 INTER-LIGAND FREE ENERGY PREDICTED BY IDOCK:   -6.37 KCAL/MOL
REMARK 924 INTRA-LIGAND FREE ENERGY PREDICTED BY IDOCK:   -1.90 KCAL/MOL
REMARK 927      BINDING AFFINITY PREDICTED BY RF-SCORE:    0.00 PKD
ROOT
HETATM    1  C   UNL     1     -10.312  13.227  67.345  1.00  0.00    -0.243 C  
HETATM    2  C   UNL     1     -11.743  12.887  66.959  1.00  0.00    -0.447 C  
ENDROOT
BRANCH   2   3
HETATM    3  C   UNL     1     -12.321  13.893  66.002  1.00  0.00    -0.511 C  
HETATM    4  C   UNL     1     -12.551  13.683  64.692  1.00  0.00    -0.289 C  
BRANCH   4   5
HETATM    5  C   UNL     1     -12.293  12.384  63.988  1.00  0.00    -0.579 C  
BRANCH   5   6
HETATM    6  C   UNL     1     -10.939  12.324  63.336  1.00  0.00    -0.467 C  
HETATM    7  C   UNL     1      -9.964  11.464  63.662  1.00  0.00    -0.402 C  
BRANCH   7   8
HETATM    8  C   UNL     1     -10.150  10.360  64.657  1.00  0.00    -0.378 C  
BRANCH   8   9
HETATM    9  C   UNL     1      -9.173  10.445  65.790  1.00  0.00    -0.210 C  
HETATM   10  C   UNL     1      -7.927   9.935  65.792  1.00  0.00    -0.120 C  
BRANCH  10  11
HETATM   11  C   UNL     1      -7.271   9.165  64.678  1.00  0.00    -0.098 C  
BRANCH  11  12
HETATM   12  C   UNL     1      -7.627   7.699  64.571  1.00  0.00    -0.112 C  
HETATM   13  C   UNL     1      -8.168   6.881  65.494  1.00  0.00    -0.135 C  
BRANCH  13  14
HETATM   14  C   UNL     1      -8.469   7.244  66.915  1.00  0.00    -0.119 C  
BRANCH  14  15
HETATM   15  C   UNL     1      -9.898   7.019  67.309  1.00  0.00    -0.214 C  
HETATM   16  C   UNL     1     -10.534   7.780  68.215  1.00  0.00    -0.215 C  
BRANCH  16  17
HETATM   17  C   UNL     1      -9.835   8.880  68.959  1.00  0.00    -0.182 C  
BRANCH  17  18
HETATM   18  C   UNL     1     -10.710   9.559  69.998  1.00  0.00    -0.278 C  
BRANCH  18  19
HETATM   19  C   UNL     1     -10.368   9.032  71.388  1.00  0.00    -0.396 C  
HETATM   20  C   UNL     1     -11.407   8.053  71.882  1.00  0.00    -0.283 C  
HETATM   21  O   UNL     1     -12.407   7.723  71.267  1.00  0.00    -0.310 OA 
HETATM   22  O   UNL     1     -11.105   7.568  73.105  1.00  0.00    -0.383 OA 
ENDBRANCH  18  19
ENDBRANCH  17  18
ENDBRANCH  16  17
ENDBRANCH  14  15
ENDBRANCH  13  14
ENDBRANCH  11  12
ENDBRANCH  10  11
ENDBRANCH   8   9
ENDBRANCH   7   8
ENDBRANCH   5   6
ENDBRANCH   4   5
ENDBRANCH   2   3
TORSDOF 12
ENDMDL
MODEL      290
REMARK 921   NORMALIZED FREE ENERGY PREDICTED BY IDOCK:   -3.38 KCAL/MOL
REMARK 922        TOTAL FREE ENERGY PREDICTED BY IDOCK:   -8.26 KCAL/MOL
REMARK 923 INTER-LIGAND FREE ENERGY PREDICTED BY IDOCK:   -6.04 KCAL/MOL
REMARK 924 INTRA-LIGAND FREE ENERGY PREDICTED BY IDOCK:   -2.23 KCAL/MOL
REMARK 927      BINDING AFFINITY PREDICTED BY RF-SCORE:    0.00 PKD
ROOT
HETATM    1  C   UNL     1     -13.554   9.119  71.564  1.00  0.00    -0.406 C  
HETATM    2  C   UNL     1     -12.278   8.359  71.239  1.00  0.00    -0.305 C  
ENDROOT
BRANCH   2   3
HETATM    3  C   UNL     1     -11.500   8.009  72.478  1.00  0.00    -0.471 C  
HETATM    4  C   UNL     1     -10.190   7.704  72.517  1.00  0.00    -0.298 C  
BRANCH   4   5
HETATM    5  C   UNL     1      -9.288   7.699  71.318  1.00  0.00    -0.161 C  
BRANCH   5   6
HETATM    6  C   UNL     1      -8.535   6.408  71.150  1.00  0.00    -0.124 C  
HETATM    7  C   UNL     1      -9.062   5.263  70.693  1.00  0.00    -0.175 C  
BRANCH   7   8
HETATM    8  C   UNL     1     -10.464   5.162  70.174  1.00  0.00    -0.305 C  
BRANCH   8   9
HETATM    9  C   UNL     1     -10.506   4.844  68.710  1.00  0.00     0.050 C  
HETATM   10  C   UNL     1     -10.607   5.743  67.713  1.00  0.00    -0.310 C  
BRANCH  10  11
HETATM   11  C   UNL     1     -10.717   7.237  67.861  1.00  0.00    -0.239 C  
BRANCH  11  12
HETATM   12  C   UNL     1      -9.446   8.029  67.654  1.00  0.00    -0.171 C  
HETATM   13  C   UNL     1      -9.145   9.281  68.050  1.00  0.00    -0.132 C  
BRANCH  13  14
HETATM   14  C   UNL     1     -10.077  10.229  68.737  1.00  0.00    -0.198 C  
BRANCH  14  15
HETATM   15  C   UNL     1     -11.100  10.842  67.828  1.00  0.00    -0.381 C  
HETATM   16  C   UNL     1     -10.805  11.810  66.944  1.00  0.00    -0.312 C  
BRANCH  16  17
HETATM   17  C   UNL     1      -9.432  12.406  66.849  1.00  0.00    -0.219 C  
BRANCH  17  18
HETATM   18  C   UNL     1      -9.401  13.901  67.117  1.00  0.00    -0.244 C  
BRANCH  18  19
HETATM   19  C   UNL     1     -10.339  14.619  66.152  1.00  0.00    -0.309 C  
HETATM   20  C   UNL     1      -9.766  15.941  65.699  1.00  0.00    -0.271 C  
HETATM   21  O   UNL     1      -8.694  16.400  66.058  1.00  0.00    -0.366 OA 
HETATM   22  O   UNL     1     -10.581  16.577  64.832  1.00  0.00    -0.689 OA 
ENDBRANCH  18  19
ENDBRANCH  17  18
ENDBRANCH  16  17
ENDBRANCH  14  15
ENDBRANCH  13  14
ENDBRANCH  11  12
ENDBRANCH  10  11
ENDBRANCH   8   9
ENDBRANCH   7   8
ENDBRANCH   5   6
ENDBRANCH   4   5
ENDBRANCH   2   3
TORSDOF 12
ENDMDL
MODEL      291
REMARK 921   NORMALIZED FREE ENERGY PREDICTED BY IDOCK:   -3.38 KCAL/MOL
REMARK 922        TOTAL FREE ENERGY PREDICTED BY IDOCK:   -8.26 KCAL/MOL
REMARK 923 INTER-LIGAND FREE ENERGY PREDICTED BY IDOCK:   -6.18 KCAL/MOL
REMARK 924 INTRA-LIGAND FREE ENERGY PREDICTED BY IDOCK:   -2.08 KCAL/MOL
REMARK 927      BINDING AFFINITY PREDICTED BY RF-SCORE:    0.00 PKD
ROOT
HETATM    1  C   UNL     1      -5.596   9.993  68.481  1.00  0.00    -0.038 C  
HETATM    2  C   UNL     1      -6.919  10.186  67.756  1.00  0.00    -0.084 C  
ENDROOT
BRANCH   2   3
HETATM    3  C   UNL     1      -8.003  10.665  68.682  1.00  0.00    -0.128 C  
HETATM    4  C   UNL     1      -9.017  11.483  68.340  1.00  0.00    -0.173 C  
BRANCH   4   5
HETATM    5  C   UNL     1      -9.239  12.019  66.957  1.00  0.00    -0.195 C  
BRANCH   5   6
HETATM    6  C   UNL     1     -10.602  11.694  66.410  1.00  0.00    -0.299 C  
HETATM    7  C   UNL     1     -11.750  12.254  66.818  1.00  0.00    -0.411 C  
BRANCH   7   8
HETATM    8  C   UNL     1     -11.801  13.377  67.808  1.00  0.00    -0.395 C  
BRANCH   8   9
HETATM    9  C   UNL     1     -11.419  14.691  67.195  1.00  0.00    -0.380 C  
HETATM   10  C   UNL     1     -10.708  15.662  67.798  1.00  0.00    -0.297 C  
BRANCH  10  11
HETATM   11  C   UNL     1     -10.170  15.639  69.204  1.00  0.00    -0.233 C  
BRANCH  11  12
HETATM   12  C   UNL     1     -10.856  16.543  70.202  1.00  0.00    -0.208 C  
HETATM   13  C   UNL     1     -11.438  16.235  71.377  1.00  0.00    -0.361 C  
BRANCH  13  14
HETATM   14  C   UNL     1     -11.612  14.856  71.931  1.00  0.00    -0.335 C  
BRANCH  14  15
HETATM   15  C   UNL     1     -12.968  14.604  72.521  1.00  0.00    -0.492 C  
HETATM   16  C   UNL     1     -13.762  13.598  72.121  1.00  0.00    -0.649 C  
BRANCH  16  17
HETATM   17  C   UNL     1     -13.379  12.683  70.994  1.00  0.00     0.291 C  
BRANCH  17  18
HETATM   18  C   UNL     1     -12.798  11.359  71.460  1.00  0.00    -0.508 C  
BRANCH  18  19
HETATM   19  C   UNL     1     -12.049  10.691  70.312  1.00  0.00    -0.423 C  
HETATM   20  C   UNL     1     -11.422   9.386  70.743  1.00  0.00    -0.300 C  
HETATM   21  O   UNL     1     -11.485   8.914  71.866  1.00  0.00    -0.333 OA 
HETATM   22  O   UNL     1     -10.769   8.778  69.730  1.00  0.00    -0.228 OA 
ENDBRANCH  18  19
ENDBRANCH  17  18
ENDBRANCH  16  17
ENDBRANCH  14  15
ENDBRANCH  13  14
ENDBRANCH  11  12
ENDBRANCH  10  11
ENDBRANCH   8   9
ENDBRANCH   7   8
ENDBRANCH   5   6
ENDBRANCH   4   5
ENDBRANCH   2   3
TORSDOF 12
ENDMDL
MODEL      292
REMARK 921   NORMALIZED FREE ENERGY PREDICTED BY IDOCK:   -3.38 KCAL/MOL
REMARK 922        TOTAL FREE ENERGY PREDICTED BY IDOCK:   -8.26 KCAL/MOL
REMARK 923 INTER-LIGAND FREE ENERGY PREDICTED BY IDOCK:   -6.28 KCAL/MOL
REMARK 924 INTRA-LIGAND FREE ENERGY PREDICTED BY IDOCK:   -1.98 KCAL/MOL
REMARK 927      BINDING AFFINITY PREDICTED BY RF-SCORE:    0.00 PKD
ROOT
HETATM    1  C   UNL     1     -10.075   3.619  63.137  1.00  0.00    -0.174 C  
HETATM    2  C   UNL     1      -8.961   3.516  64.167  1.00  0.00    -0.106 C  
ENDROOT
BRANCH   2   3
HETATM    3  C   UNL     1      -8.449   4.869  64.579  1.00  0.00    -0.144 C  
HETATM    4  C   UNL     1      -8.876   5.576  65.643  1.00  0.00    -0.154 C  
BRANCH   4   5
HETATM    5  C   UNL     1      -9.916   5.096  66.611  1.00  0.00    -0.235 C  
BRANCH   5   6
HETATM    6  C   UNL     1     -10.833   6.191  67.084  1.00  0.00    -0.442 C  
HETATM    7  C   UNL     1     -10.678   6.890  68.217  1.00  0.00    -0.265 C  
BRANCH   7   8
HETATM    8  C   UNL     1      -9.483   6.741  69.109  1.00  0.00    -0.141 C  
BRANCH   8   9
HETATM    9  C   UNL     1      -8.546   7.905  69.002  1.00  0.00    -0.135 C  
HETATM   10  C   UNL     1      -8.415   8.894  69.905  1.00  0.00    -0.135 C  
BRANCH  10  11
HETATM   11  C   UNL     1      -9.189   9.046  71.187  1.00  0.00    -0.326 C  
BRANCH  11  12
HETATM   12  C   UNL     1      -8.694   8.247  72.371  1.00  0.00    -0.279 C  
HETATM   13  C   UNL     1      -9.382   7.457  73.218  1.00  0.00    -0.247 C  
BRANCH  13  14
HETATM   14  C   UNL     1     -10.865   7.258  73.217  1.00  0.00    -0.404 C  
BRANCH  14  15
HETATM   15  C   UNL     1     -11.382   6.544  72.004  1.00  0.00    -0.326 C  
HETATM   16  C   UNL     1     -12.442   6.974  71.300  1.00  0.00    -0.430 C  
BRANCH  16  17
HETATM   17  C   UNL     1     -13.240   8.174  71.720  1.00  0.00    -0.365 C  
BRANCH  17  18
HETATM   18  C   UNL     1     -12.683   9.486  71.193  1.00  0.00    -0.371 C  
BRANCH  18  19
HETATM   19  C   UNL     1     -13.214  10.646  72.030  1.00  0.00    -0.473 C  
HETATM   20  C   UNL     1     -12.834  11.981  71.434  1.00  0.00    -0.288 C  
HETATM   21  O   UNL     1     -12.175  12.133  70.418  1.00  0.00    -0.341 OA 
HETATM   22  O   UNL     1     -13.312  13.014  72.158  1.00  0.00    -0.498 OA 
ENDBRANCH  18  19
ENDBRANCH  17  18
ENDBRANCH  16  17
ENDBRANCH  14  15
ENDBRANCH  13  14
ENDBRANCH  11  12
ENDBRANCH  10  11
ENDBRANCH   8   9
ENDBRANCH   7   8
ENDBRANCH   5   6
ENDBRANCH   4   5
ENDBRANCH   2   3
TORSDOF 12
ENDMDL
MODEL      293
REMARK 921   NORMALIZED FREE ENERGY PREDICTED BY IDOCK:   -3.38 KCAL/MOL
REMARK 922        TOTAL FREE ENERGY PREDICTED BY IDOCK:   -8.25 KCAL/MOL
REMARK 923 INTER-LIGAND FREE ENERGY PREDICTED BY IDOCK:   -6.29 KCAL/MOL
REMARK 924 INTRA-LIGAND FREE ENERGY PREDICTED BY IDOCK:   -1.97 KCAL/MOL
REMARK 927      BINDING AFFINITY PREDICTED BY RF-SCORE:    0.00 PKD
ROOT
HETATM    1  C   UNL     1     -11.365  15.149  66.212  1.00  0.00    -0.219 C  
HETATM    2  C   UNL     1     -11.803  13.789  65.692  1.00  0.00    -0.383 C  
ENDROOT
BRANCH   2   3
HETATM    3  C   UNL     1     -10.648  13.000  65.139  1.00  0.00    -0.327 C  
HETATM    4  C   UNL     1     -10.196  11.830  65.628  1.00  0.00    -0.284 C  
BRANCH   4   5
HETATM    5  C   UNL     1     -10.807  11.110  66.794  1.00  0.00    -0.322 C  
BRANCH   5   6
HETATM    6  C   UNL     1     -10.265  11.568  68.120  1.00  0.00    -0.205 C  
HETATM    7  C   UNL     1     -10.919  11.491  69.287  1.00  0.00    -0.261 C  
BRANCH   7   8
HETATM    8  C   UNL     1     -12.251  10.820  69.433  1.00  0.00    -0.242 C  
BRANCH   8   9
HETATM    9  C   UNL     1     -12.735  10.820  70.851  1.00  0.00    -0.478 C  
HETATM   10  C   UNL     1     -12.402   9.921  71.795  1.00  0.00    -0.456 C  
BRANCH  10  11
HETATM   11  C   UNL     1     -11.499   8.729  71.620  1.00  0.00    -0.386 C  
BRANCH  11  12
HETATM   12  C   UNL     1     -12.146   7.464  71.103  1.00  0.00    -0.357 C  
HETATM   13  C   UNL     1     -11.677   6.565  70.217  1.00  0.00    -0.430 C  
BRANCH  13  14
HETATM   14  C   UNL     1     -10.392   6.674  69.457  1.00  0.00    -0.232 C  
BRANCH  14  15
HETATM   15  C   UNL     1     -10.397   7.742  68.405  1.00  0.00    -0.231 C  
HETATM   16  C   UNL     1     -10.648   7.489  67.110  1.00  0.00    -0.415 C  
BRANCH  16  17
HETATM   17  C   UNL     1     -10.875   6.095  66.602  1.00  0.00    -0.279 C  
BRANCH  17  18
HETATM   18  C   UNL     1      -9.601   5.400  66.152  1.00  0.00    -0.169 C  
BRANCH  18  19
HETATM   19  C   UNL     1      -9.920   3.978  65.701  1.00  0.00    -0.162 C  
HETATM   20  C   UNL     1      -9.545   3.756  64.255  1.00  0.00    -0.166 C  
HETATM   21  O   UNL     1      -9.058   4.599  63.519  1.00  0.00    -0.141 OA 
HETATM   22  O   UNL     1      -9.809   2.496  63.850  1.00  0.00    -0.139 OA 
ENDBRANCH  18  19
ENDBRANCH  17  18
ENDBRANCH  16  17
ENDBRANCH  14  15
ENDBRANCH  13  14
ENDBRANCH  11  12
ENDBRANCH  10  11
ENDBRANCH   8   9
ENDBRANCH   7   8
ENDBRANCH   5   6
ENDBRANCH   4   5
ENDBRANCH   2   3
TORSDOF 12
ENDMDL
MODEL      294
REMARK 921   NORMALIZED FREE ENERGY PREDICTED BY IDOCK:   -3.38 KCAL/MOL
REMARK 922        TOTAL FREE ENERGY PREDICTED BY IDOCK:   -8.25 KCAL/MOL
REMARK 923 INTER-LIGAND FREE ENERGY PREDICTED BY IDOCK:   -6.93 KCAL/MOL
REMARK 924 INTRA-LIGAND FREE ENERGY PREDICTED BY IDOCK:   -1.32 KCAL/MOL
REMARK 927      BINDING AFFINITY PREDICTED BY RF-SCORE:    0.00 PKD
ROOT
HETATM    1  C   UNL     1     -10.302  19.078  67.847  1.00  0.00    -0.485 C  
HETATM    2  C   UNL     1      -9.727  17.700  67.561  1.00  0.00    -0.280 C  
ENDROOT
BRANCH   2   3
HETATM    3  C   UNL     1     -10.620  16.894  66.659  1.00  0.00    -0.189 C  
HETATM    4  C   UNL     1     -10.743  15.553  66.675  1.00  0.00    -0.306 C  
BRANCH   4   5
HETATM    5  C   UNL     1     -10.022  14.651  67.634  1.00  0.00    -0.227 C  
BRANCH   5   6
HETATM    6  C   UNL     1     -10.710  14.534  68.966  1.00  0.00    -0.258 C  
HETATM    7  C   UNL     1     -11.587  13.576  69.298  1.00  0.00    -0.369 C  
BRANCH   7   8
HETATM    8  C   UNL     1     -11.905  12.417  68.404  1.00  0.00    -0.361 C  
BRANCH   8   9
HETATM    9  C   UNL     1     -11.213  11.160  68.836  1.00  0.00    -0.317 C  
HETATM   10  C   UNL     1     -11.415  10.511  69.998  1.00  0.00    -0.393 C  
BRANCH  10  11
HETATM   11  C   UNL     1     -12.355  10.918  71.100  1.00  0.00    -0.479 C  
BRANCH  11  12
HETATM   12  C   UNL     1     -13.157   9.810  71.745  1.00  0.00    -0.528 C  
HETATM   13  C   UNL     1     -12.730   8.670  72.323  1.00  0.00    -0.450 C  
BRANCH  13  14
HETATM   14  C   UNL     1     -11.311   8.196  72.378  1.00  0.00    -0.456 C  
BRANCH  14  15
HETATM   15  C   UNL     1     -11.170   6.703  72.401  1.00  0.00    -0.302 C  
HETATM   16  C   UNL     1     -11.284   5.943  71.300  1.00  0.00    -0.280 C  
BRANCH  16  17
HETATM   17  C   UNL     1     -11.635   6.528  69.963  1.00  0.00    -0.455 C  
BRANCH  17  18
HETATM   18  C   UNL     1     -10.577   6.286  68.900  1.00  0.00    -0.321 C  
BRANCH  18  19
HETATM   19  C   UNL     1      -9.735   7.544  68.713  1.00  0.00    -0.151 C  
HETATM   20  C   UNL     1      -8.329   7.354  69.232  1.00  0.00    -0.132 C  
HETATM   21  O   UNL     1      -7.905   6.334  69.750  1.00  0.00    -0.105 OA 
HETATM   22  O   UNL     1      -7.570   8.457  69.058  1.00  0.00    -0.088 OA 
ENDBRANCH  18  19
ENDBRANCH  17  18
ENDBRANCH  16  17
ENDBRANCH  14  15
ENDBRANCH  13  14
ENDBRANCH  11  12
ENDBRANCH  10  11
ENDBRANCH   8   9
ENDBRANCH   7   8
ENDBRANCH   5   6
ENDBRANCH   4   5
ENDBRANCH   2   3
TORSDOF 12
ENDMDL
MODEL      295
REMARK 921   NORMALIZED FREE ENERGY PREDICTED BY IDOCK:   -3.37 KCAL/MOL
REMARK 922        TOTAL FREE ENERGY PREDICTED BY IDOCK:   -8.24 KCAL/MOL
REMARK 923 INTER-LIGAND FREE ENERGY PREDICTED BY IDOCK:   -6.76 KCAL/MOL
REMARK 924 INTRA-LIGAND FREE ENERGY PREDICTED BY IDOCK:   -1.48 KCAL/MOL
REMARK 927      BINDING AFFINITY PREDICTED BY RF-SCORE:    0.00 PKD
ROOT
HETATM    1  C   UNL     1     -10.535   6.892  73.452  1.00  0.00    -0.360 C  
HETATM    2  C   UNL     1     -11.320   6.387  72.252  1.00  0.00    -0.330 C  
ENDROOT
BRANCH   2   3
HETATM    3  C   UNL     1     -10.477   5.527  71.351  1.00  0.00    -0.305 C  
HETATM    4  C   UNL     1     -10.379   5.657  70.014  1.00  0.00    -0.345 C  
BRANCH   4   5
HETATM    5  C   UNL     1     -11.080   6.716  69.216  1.00  0.00    -0.345 C  
BRANCH   5   6
HETATM    6  C   UNL     1     -11.013   6.479  67.732  1.00  0.00    -0.407 C  
HETATM    7  C   UNL     1     -10.162   7.085  66.892  1.00  0.00    -0.318 C  
BRANCH   7   8
HETATM    8  C   UNL     1      -9.075   8.005  67.358  1.00  0.00    -0.147 C  
BRANCH   8   9
HETATM    9  C   UNL     1      -7.769   7.293  67.539  1.00  0.00    -0.111 C  
HETATM   10  C   UNL     1      -6.879   7.024  66.566  1.00  0.00    -0.061 C  
BRANCH  10  11
HETATM   11  C   UNL     1      -7.017   7.361  65.106  1.00  0.00    -0.058 C  
BRANCH  11  12
HETATM   12  C   UNL     1      -6.704   8.785  64.710  1.00  0.00    -0.069 C  
HETATM   13  C   UNL     1      -7.536   9.764  64.307  1.00  0.00    -0.135 C  
BRANCH  13  14
HETATM   14  C   UNL     1      -9.007   9.619  64.072  1.00  0.00    -0.261 C  
BRANCH  14  15
HETATM   15  C   UNL     1      -9.549  10.543  63.023  1.00  0.00    -0.369 C  
HETATM   16  C   UNL     1     -10.268  11.639  63.316  1.00  0.00    -0.445 C  
BRANCH  16  17
HETATM   17  C   UNL     1     -10.646  11.986  64.726  1.00  0.00    -0.340 C  
BRANCH  17  18
HETATM   18  C   UNL     1     -11.560  13.195  64.828  1.00  0.00    -0.368 C  
BRANCH  18  19
HETATM   19  C   UNL     1     -10.727  14.460  65.013  1.00  0.00    -0.440 C  
HETATM   20  C   UNL     1     -11.477  15.691  64.563  1.00  0.00    -0.300 C  
HETATM   21  O   UNL     1     -12.605  15.693  64.096  1.00  0.00    -0.517 OA 
HETATM   22  O   UNL     1     -10.755  16.817  64.738  1.00  0.00    -0.726 OA 
ENDBRANCH  18  19
ENDBRANCH  17  18
ENDBRANCH  16  17
ENDBRANCH  14  15
ENDBRANCH  13  14
ENDBRANCH  11  12
ENDBRANCH  10  11
ENDBRANCH   8   9
ENDBRANCH   7   8
ENDBRANCH   5   6
ENDBRANCH   4   5
ENDBRANCH   2   3
TORSDOF 12
ENDMDL
MODEL      296
REMARK 921   NORMALIZED FREE ENERGY PREDICTED BY IDOCK:   -3.36 KCAL/MOL
REMARK 922        TOTAL FREE ENERGY PREDICTED BY IDOCK:   -8.22 KCAL/MOL
REMARK 923 INTER-LIGAND FREE ENERGY PREDICTED BY IDOCK:   -6.99 KCAL/MOL
REMARK 924 INTRA-LIGAND FREE ENERGY PREDICTED BY IDOCK:   -1.23 KCAL/MOL
REMARK 927      BINDING AFFINITY PREDICTED BY RF-SCORE:    0.00 PKD
ROOT
HETATM    1  C   UNL     1     -10.534   3.872  62.660  1.00  0.00    -0.196 C  
HETATM    2  C   UNL     1     -10.569   3.179  64.013  1.00  0.00    -0.126 C  
ENDROOT
BRANCH   2   3
HETATM    3  C   UNL     1      -9.385   3.546  64.863  1.00  0.00    -0.153 C  
HETATM    4  C   UNL     1      -9.368   4.506  65.808  1.00  0.00    -0.162 C  
BRANCH   4   5
HETATM    5  C   UNL     1     -10.556   5.342  66.183  1.00  0.00    -0.251 C  
BRANCH   5   6
HETATM    6  C   UNL     1     -10.607   5.671  67.650  1.00  0.00    -0.279 C  
HETATM    7  C   UNL     1     -10.111   6.785  68.207  1.00  0.00    -0.173 C  
BRANCH   7   8
HETATM    8  C   UNL     1      -9.539   7.913  67.403  1.00  0.00    -0.195 C  
BRANCH   8   9
HETATM    9  C   UNL     1     -10.541   9.000  67.156  1.00  0.00    -0.291 C  
HETATM   10  C   UNL     1     -10.719  10.093  67.921  1.00  0.00    -0.317 C  
BRANCH  10  11
HETATM   11  C   UNL     1      -9.968  10.439  69.179  1.00  0.00    -0.237 C  
BRANCH  11  12
HETATM   12  C   UNL     1     -10.392   9.716  70.436  1.00  0.00    -0.350 C  
HETATM   13  C   UNL     1     -11.562   9.771  71.101  1.00  0.00    -0.469 C  
BRANCH  13  14
HETATM   14  C   UNL     1     -12.716  10.664  70.769  1.00  0.00    -0.468 C  
BRANCH  14  15
HETATM   15  C   UNL     1     -13.232  11.451  71.937  1.00  0.00    -0.485 C  
HETATM   16  C   UNL     1     -13.258  12.794  71.958  1.00  0.00    -0.538 C  
BRANCH  16  17
HETATM   17  C   UNL     1     -12.703  13.616  70.833  1.00  0.00    -0.382 C  
BRANCH  17  18
HETATM   18  C   UNL     1     -12.966  15.105  70.984  1.00  0.00    -0.494 C  
BRANCH  18  19
HETATM   19  C   UNL     1     -11.657  15.877  70.857  1.00  0.00    -0.456 C  
HETATM   20  C   UNL     1     -11.256  16.059  69.412  1.00  0.00    -0.349 C  
HETATM   21  O   UNL     1     -11.881  15.638  68.453  1.00  0.00    -0.346 OA 
HETATM   22  O   UNL     1     -10.106  16.755  69.289  1.00  0.00    -0.271 OA 
ENDBRANCH  18  19
ENDBRANCH  17  18
ENDBRANCH  16  17
ENDBRANCH  14  15
ENDBRANCH  13  14
ENDBRANCH  11  12
ENDBRANCH  10  11
ENDBRANCH   8   9
ENDBRANCH   7   8
ENDBRANCH   5   6
ENDBRANCH   4   5
ENDBRANCH   2   3
TORSDOF 12
ENDMDL
MODEL      297
REMARK 921   NORMALIZED FREE ENERGY PREDICTED BY IDOCK:   -3.35 KCAL/MOL
REMARK 922        TOTAL FREE ENERGY PREDICTED BY IDOCK:   -8.21 KCAL/MOL
REMARK 923 INTER-LIGAND FREE ENERGY PREDICTED BY IDOCK:   -6.27 KCAL/MOL
REMARK 924 INTRA-LIGAND FREE ENERGY PREDICTED BY IDOCK:   -1.94 KCAL/MOL
REMARK 927      BINDING AFFINITY PREDICTED BY RF-SCORE:    0.00 PKD
ROOT
HETATM    1  C   UNL     1      -7.797  20.449  67.561  1.00  0.00    -0.332 C  
HETATM    2  C   UNL     1      -8.287  19.657  66.359  1.00  0.00    -0.376 C  
ENDROOT
BRANCH   2   3
HETATM    3  C   UNL     1      -9.786  19.690  66.237  1.00  0.00    -0.511 C  
HETATM    4  C   UNL     1     -10.584  18.612  66.116  1.00  0.00    -0.409 C  
BRANCH   4   5
HETATM    5  C   UNL     1     -10.094  17.194  66.120  1.00  0.00    -0.317 C  
BRANCH   5   6
HETATM    6  C   UNL     1     -10.803  16.322  65.121  1.00  0.00    -0.333 C  
HETATM    7  C   UNL     1     -11.189  15.057  65.340  1.00  0.00    -0.356 C  
BRANCH   7   8
HETATM    8  C   UNL     1     -11.062  14.385  66.673  1.00  0.00    -0.326 C  
BRANCH   8   9
HETATM    9  C   UNL     1     -11.875  15.067  67.731  1.00  0.00    -0.228 C  
HETATM   10  C   UNL     1     -11.966  14.686  69.019  1.00  0.00    -0.318 C  
BRANCH  10  11
HETATM   11  C   UNL     1     -11.293  13.498  69.653  1.00  0.00    -0.219 C  
BRANCH  11  12
HETATM   12  C   UNL     1     -12.196  12.372  70.102  1.00  0.00    -0.303 C  
HETATM   13  C   UNL     1     -12.068  11.045  69.910  1.00  0.00    -0.435 C  
BRANCH  13  14
HETATM   14  C   UNL     1     -11.000  10.378  69.102  1.00  0.00    -0.285 C  
BRANCH  14  15
HETATM   15  C   UNL     1     -11.053  10.701  67.639  1.00  0.00    -0.385 C  
HETATM   16  C   UNL     1      -9.955  10.954  66.907  1.00  0.00    -0.232 C  
BRANCH  16  17
HETATM   17  C   UNL     1      -8.586  11.001  67.519  1.00  0.00    -0.128 C  
BRANCH  17  18
HETATM   18  C   UNL     1      -7.870  12.323  67.300  1.00  0.00    -0.171 C  
BRANCH  18  19
HETATM   19  C   UNL     1      -8.135  13.256  68.478  1.00  0.00    -0.094 C  
HETATM   20  C   UNL     1      -7.631  14.653  68.206  1.00  0.00    -0.118 C  
HETATM   21  O   UNL     1      -7.068  15.008  67.183  1.00  0.00    -0.198 OA 
HETATM   22  O   UNL     1      -7.874  15.490  69.236  1.00  0.00    -0.196 OA 
ENDBRANCH  18  19
ENDBRANCH  17  18
ENDBRANCH  16  17
ENDBRANCH  14  15
ENDBRANCH  13  14
ENDBRANCH  11  12
ENDBRANCH  10  11
ENDBRANCH   8   9
ENDBRANCH   7   8
ENDBRANCH   5   6
ENDBRANCH   4   5
ENDBRANCH   2   3
TORSDOF 12
ENDMDL
MODEL      298
REMARK 921   NORMALIZED FREE ENERGY PREDICTED BY IDOCK:   -3.35 KCAL/MOL
REMARK 922        TOTAL FREE ENERGY PREDICTED BY IDOCK:   -8.21 KCAL/MOL
REMARK 923 INTER-LIGAND FREE ENERGY PREDICTED BY IDOCK:   -5.69 KCAL/MOL
REMARK 924 INTRA-LIGAND FREE ENERGY PREDICTED BY IDOCK:   -2.52 KCAL/MOL
REMARK 927      BINDING AFFINITY PREDICTED BY RF-SCORE:    0.00 PKD
ROOT
HETATM    1  C   UNL     1     -11.421  12.188  66.453  1.00  0.00    -0.430 C  
HETATM    2  C   UNL     1     -11.384  11.272  67.666  1.00  0.00    -0.352 C  
ENDROOT
BRANCH   2   3
HETATM    3  C   UNL     1     -11.854  11.971  68.912  1.00  0.00    -0.356 C  
HETATM    4  C   UNL     1     -11.887  11.431  70.146  1.00  0.00    -0.440 C  
BRANCH   4   5
HETATM    5  C   UNL     1     -11.422  10.043  70.472  1.00  0.00    -0.407 C  
BRANCH   5   6
HETATM    6  C   UNL     1     -12.378   9.292  71.358  1.00  0.00    -0.421 C  
HETATM    7  C   UNL     1     -12.024   8.376  72.270  1.00  0.00    -0.455 C  
BRANCH   7   8
HETATM    8  C   UNL     1     -10.597   8.067  72.604  1.00  0.00    -0.419 C  
BRANCH   8   9
HETATM    9  C   UNL     1     -10.477   7.115  73.756  1.00  0.00    -0.371 C  
HETATM   10  C   UNL     1     -10.635   5.780  73.692  1.00  0.00    -0.302 C  
BRANCH  10  11
HETATM   11  C   UNL     1     -10.981   4.976  72.468  1.00  0.00    -0.241 C  
BRANCH  11  12
HETATM   12  C   UNL     1      -9.897   4.070  71.928  1.00  0.00    -0.247 C  
HETATM   13  C   UNL     1      -8.765   4.389  71.271  1.00  0.00    -0.135 C  
BRANCH  13  14
HETATM   14  C   UNL     1      -8.362   5.765  70.842  1.00  0.00    -0.125 C  
BRANCH  14  15
HETATM   15  C   UNL     1      -9.106   6.270  69.642  1.00  0.00    -0.142 C  
HETATM   16  C   UNL     1      -8.984   7.526  69.182  1.00  0.00    -0.135 C  
BRANCH  16  17
HETATM   17  C   UNL     1      -8.140   8.549  69.884  1.00  0.00    -0.118 C  
BRANCH  17  18
HETATM   18  C   UNL     1      -7.353   9.438  68.936  1.00  0.00    -0.073 C  
BRANCH  18  19
HETATM   19  C   UNL     1      -7.655  10.904  69.232  1.00  0.00    -0.113 C  
HETATM   20  C   UNL     1      -7.820  11.704  67.961  1.00  0.00    -0.128 C  
HETATM   21  O   UNL     1      -7.717  11.255  66.831  1.00  0.00    -0.139 OA 
HETATM   22  O   UNL     1      -8.103  13.000  68.211  1.00  0.00    -0.143 OA 
ENDBRANCH  18  19
ENDBRANCH  17  18
ENDBRANCH  16  17
ENDBRANCH  14  15
ENDBRANCH  13  14
ENDBRANCH  11  12
ENDBRANCH  10  11
ENDBRANCH   8   9
ENDBRANCH   7   8
ENDBRANCH   5   6
ENDBRANCH   4   5
ENDBRANCH   2   3
TORSDOF 12
ENDMDL
MODEL      299
REMARK 921   NORMALIZED FREE ENERGY PREDICTED BY IDOCK:   -3.35 KCAL/MOL
REMARK 922        TOTAL FREE ENERGY PREDICTED BY IDOCK:   -8.21 KCAL/MOL
REMARK 923 INTER-LIGAND FREE ENERGY PREDICTED BY IDOCK:   -7.03 KCAL/MOL
REMARK 924 INTRA-LIGAND FREE ENERGY PREDICTED BY IDOCK:   -1.18 KCAL/MOL
REMARK 927      BINDING AFFINITY PREDICTED BY RF-SCORE:    0.00 PKD
ROOT
HETATM    1  C   UNL     1      -7.526  19.041  66.281  1.00  0.00    -0.288 C  
HETATM    2  C   UNL     1      -8.529  19.911  67.022  1.00  0.00    -0.380 C  
ENDROOT
BRANCH   2   3
HETATM    3  C   UNL     1      -9.862  19.951  66.326  1.00  0.00    -0.570 C  
HETATM    4  C   UNL     1     -10.638  18.882  66.064  1.00  0.00    -0.470 C  
BRANCH   4   5
HETATM    5  C   UNL     1     -10.301  17.476  66.463  1.00  0.00    -0.325 C  
BRANCH   5   6
HETATM    6  C   UNL     1     -10.717  17.145  67.870  1.00  0.00    -0.355 C  
HETATM    7  C   UNL     1     -11.268  15.986  68.258  1.00  0.00    -0.350 C  
BRANCH   7   8
HETATM    8  C   UNL     1     -11.431  14.814  67.339  1.00  0.00    -0.376 C  
BRANCH   8   9
HETATM    9  C   UNL     1     -11.537  13.519  68.086  1.00  0.00    -0.368 C  
HETATM   10  C   UNL     1     -10.681  12.484  67.989  1.00  0.00    -0.242 C  
BRANCH  10  11
HETATM   11  C   UNL     1      -9.464  12.406  67.107  1.00  0.00    -0.198 C  
BRANCH  11  12
HETATM   12  C   UNL     1      -9.625  11.663  65.801  1.00  0.00    -0.255 C  
HETATM   13  C   UNL     1     -10.013  10.392  65.582  1.00  0.00    -0.337 C  
BRANCH  13  14
HETATM   14  C   UNL     1     -10.301   9.372  66.639  1.00  0.00    -0.284 C  
BRANCH  14  15
HETATM   15  C   UNL     1      -9.073   8.744  67.229  1.00  0.00    -0.151 C  
HETATM   16  C   UNL     1      -8.775   8.812  68.537  1.00  0.00    -0.135 C  
BRANCH  16  17
HETATM   17  C   UNL     1      -9.619   9.589  69.504  1.00  0.00    -0.198 C  
BRANCH  17  18
HETATM   18  C   UNL     1     -10.760   8.780  70.097  1.00  0.00    -0.239 C  
BRANCH  18  19
HETATM   19  C   UNL     1     -11.611   9.670  70.998  1.00  0.00    -0.436 C  
HETATM   20  C   UNL     1     -12.686   8.879  71.705  1.00  0.00    -0.349 C  
HETATM   21  O   UNL     1     -12.874   7.680  71.576  1.00  0.00    -0.332 OA 
HETATM   22  O   UNL     1     -13.435   9.654  72.517  1.00  0.00    -0.394 OA 
ENDBRANCH  18  19
ENDBRANCH  17  18
ENDBRANCH  16  17
ENDBRANCH  14  15
ENDBRANCH  13  14
ENDBRANCH  11  12
ENDBRANCH  10  11
ENDBRANCH   8   9
ENDBRANCH   7   8
ENDBRANCH   5   6
ENDBRANCH   4   5
ENDBRANCH   2   3
TORSDOF 12
ENDMDL
MODEL      300
REMARK 921   NORMALIZED FREE ENERGY PREDICTED BY IDOCK:   -3.34 KCAL/MOL
REMARK 922        TOTAL FREE ENERGY PREDICTED BY IDOCK:   -8.19 KCAL/MOL
REMARK 923 INTER-LIGAND FREE ENERGY PREDICTED BY IDOCK:   -6.56 KCAL/MOL
REMARK 924 INTRA-LIGAND FREE ENERGY PREDICTED BY IDOCK:   -1.63 KCAL/MOL
REMARK 927      BINDING AFFINITY PREDICTED BY RF-SCORE:    0.00 PKD
ROOT
HETATM    1  C   UNL     1     -10.164   9.462  70.991  1.00  0.00    -0.369 C  
HETATM    2  C   UNL     1     -11.494  10.112  70.643  1.00  0.00    -0.432 C  
ENDROOT
BRANCH   2   3
HETATM    3  C   UNL     1     -11.598  10.430  69.177  1.00  0.00    -0.234 C  
HETATM    4  C   UNL     1     -11.746  11.661  68.653  1.00  0.00    -0.386 C  
BRANCH   4   5
HETATM    5  C   UNL     1     -11.796  12.923  69.463  1.00  0.00    -0.383 C  
BRANCH   5   6
HETATM    6  C   UNL     1     -11.137  14.090  68.780  1.00  0.00    -0.287 C  
HETATM    7  C   UNL     1     -11.421  14.518  67.542  1.00  0.00    -0.375 C  
BRANCH   7   8
HETATM    8  C   UNL     1     -12.533  13.946  66.717  1.00  0.00    -0.254 C  
BRANCH   8   9
HETATM    9  C   UNL     1     -12.302  14.130  65.248  1.00  0.00    -0.469 C  
HETATM   10  C   UNL     1     -11.354  13.514  64.518  1.00  0.00    -0.386 C  
BRANCH  10  11
HETATM   11  C   UNL     1     -10.327  12.537  65.024  1.00  0.00    -0.323 C  
BRANCH  11  12
HETATM   12  C   UNL     1     -10.553  11.083  64.677  1.00  0.00    -0.369 C  
HETATM   13  C   UNL     1     -10.113   9.976  65.306  1.00  0.00    -0.299 C  
BRANCH  13  14
HETATM   14  C   UNL     1      -9.197   9.947  66.489  1.00  0.00    -0.190 C  
BRANCH  14  15
HETATM   15  C   UNL     1      -8.392   8.687  66.604  1.00  0.00    -0.108 C  
HETATM   16  C   UNL     1      -8.840   7.591  67.238  1.00  0.00    -0.124 C  
BRANCH  16  17
HETATM   17  C   UNL     1     -10.163   7.568  67.947  1.00  0.00    -0.245 C  
BRANCH  17  18
HETATM   18  C   UNL     1     -10.835   6.206  67.931  1.00  0.00    -0.406 C  
BRANCH  18  19
HETATM   19  C   UNL     1     -10.605   5.531  66.582  1.00  0.00    -0.365 C  
HETATM   20  C   UNL     1      -9.843   4.236  66.731  1.00  0.00    -0.205 C  
HETATM   21  O   UNL     1      -9.442   3.775  67.788  1.00  0.00    -0.182 OA 
HETATM   22  O   UNL     1      -9.647   3.623  65.544  1.00  0.00    -0.169 OA 
ENDBRANCH  18  19
ENDBRANCH  17  18
ENDBRANCH  16  17
ENDBRANCH  14  15
ENDBRANCH  13  14
ENDBRANCH  11  12
ENDBRANCH  10  11
ENDBRANCH   8   9
ENDBRANCH   7   8
ENDBRANCH   5   6
ENDBRANCH   4   5
ENDBRANCH   2   3
TORSDOF 12
ENDMDL
MODEL      301
REMARK 921   NORMALIZED FREE ENERGY PREDICTED BY IDOCK:   -3.33 KCAL/MOL
REMARK 922        TOTAL FREE ENERGY PREDICTED BY IDOCK:   -8.17 KCAL/MOL
REMARK 923 INTER-LIGAND FREE ENERGY PREDICTED BY IDOCK:   -5.98 KCAL/MOL
REMARK 924 INTRA-LIGAND FREE ENERGY PREDICTED BY IDOCK:   -2.20 KCAL/MOL
REMARK 927      BINDING AFFINITY PREDICTED BY RF-SCORE:    0.00 PKD
ROOT
HETATM    1  C   UNL     1     -10.838  13.153  67.567  1.00  0.00    -0.269 C  
HETATM    2  C   UNL     1     -12.066  12.729  66.778  1.00  0.00    -0.290 C  
ENDROOT
BRANCH   2   3
HETATM    3  C   UNL     1     -12.383  13.696  65.670  1.00  0.00    -0.518 C  
HETATM    4  C   UNL     1     -12.253  13.446  64.353  1.00  0.00    -0.444 C  
BRANCH   4   5
HETATM    5  C   UNL     1     -11.797  12.135  63.785  1.00  0.00    -0.592 C  
BRANCH   5   6
HETATM    6  C   UNL     1     -10.307  12.060  63.594  1.00  0.00    -0.482 C  
HETATM    7  C   UNL     1      -9.497  11.177  64.196  1.00  0.00    -0.237 C  
BRANCH   7   8
HETATM    8  C   UNL     1     -10.004  10.062  65.059  1.00  0.00    -0.320 C  
BRANCH   8   9
HETATM    9  C   UNL     1      -9.343  10.040  66.403  1.00  0.00    -0.211 C  
HETATM   10  C   UNL     1      -9.015   8.935  67.100  1.00  0.00    -0.141 C  
BRANCH  10  11
HETATM   11  C   UNL     1      -9.259   7.509  66.685  1.00  0.00    -0.201 C  
BRANCH  11  12
HETATM   12  C   UNL     1     -10.641   6.957  66.952  1.00  0.00    -0.372 C  
HETATM   13  C   UNL     1     -11.097   6.270  68.017  1.00  0.00    -0.365 C  
BRANCH  13  14
HETATM   14  C   UNL     1     -10.273   5.814  69.181  1.00  0.00    -0.289 C  
BRANCH  14  15
HETATM   15  C   UNL     1     -10.445   6.652  70.412  1.00  0.00    -0.249 C  
HETATM   16  C   UNL     1      -9.418   7.010  71.201  1.00  0.00    -0.165 C  
BRANCH  16  17
HETATM   17  C   UNL     1      -8.018   6.535  70.945  1.00  0.00    -0.111 C  
BRANCH  17  18
HETATM   18  C   UNL     1      -7.291   7.338  69.880  1.00  0.00    -0.084 C  
BRANCH  18  19
HETATM   19  C   UNL     1      -6.240   8.230  70.534  1.00  0.00    -0.035 C  
HETATM   20  C   UNL     1      -6.760   9.632  70.754  1.00  0.00    -0.094 C  
HETATM   21  O   UNL     1      -7.874  10.023  70.444  1.00  0.00    -0.216 OA 
HETATM   22  O   UNL     1      -5.843  10.426  71.345  1.00  0.00    -0.292 OA 
ENDBRANCH  18  19
ENDBRANCH  17  18
ENDBRANCH  16  17
ENDBRANCH  14  15
ENDBRANCH  13  14
ENDBRANCH  11  12
ENDBRANCH  10  11
ENDBRANCH   8   9
ENDBRANCH   7   8
ENDBRANCH   5   6
ENDBRANCH   4   5
ENDBRANCH   2   3
TORSDOF 12
ENDMDL
MODEL      302
REMARK 921   NORMALIZED FREE ENERGY PREDICTED BY IDOCK:   -3.33 KCAL/MOL
REMARK 922        TOTAL FREE ENERGY PREDICTED BY IDOCK:   -8.16 KCAL/MOL
REMARK 923 INTER-LIGAND FREE ENERGY PREDICTED BY IDOCK:   -6.04 KCAL/MOL
REMARK 924 INTRA-LIGAND FREE ENERGY PREDICTED BY IDOCK:   -2.12 KCAL/MOL
REMARK 927      BINDING AFFINITY PREDICTED BY RF-SCORE:    0.00 PKD
ROOT
HETATM    1  C   UNL     1     -14.284   8.645  72.144  1.00  0.00    -0.520 C  
HETATM    2  C   UNL     1     -12.910   8.318  71.582  1.00  0.00    -0.350 C  
ENDROOT
BRANCH   2   3
HETATM    3  C   UNL     1     -12.030   9.536  71.504  1.00  0.00    -0.475 C  
HETATM    4  C   UNL     1     -10.684   9.530  71.524  1.00  0.00    -0.269 C  
BRANCH   4   5
HETATM    5  C   UNL     1      -9.846   8.287  71.592  1.00  0.00    -0.263 C  
BRANCH   5   6
HETATM    6  C   UNL     1      -9.960   7.429  70.362  1.00  0.00    -0.188 C  
HETATM    7  C   UNL     1      -9.091   7.428  69.341  1.00  0.00    -0.139 C  
BRANCH   7   8
HETATM    8  C   UNL     1      -7.813   8.211  69.357  1.00  0.00    -0.105 C  
BRANCH   8   9
HETATM    9  C   UNL     1      -7.565   8.917  68.059  1.00  0.00    -0.093 C  
HETATM   10  C   UNL     1      -8.131  10.075  67.674  1.00  0.00    -0.110 C  
BRANCH  10  11
HETATM   11  C   UNL     1      -9.136  10.884  68.449  1.00  0.00    -0.164 C  
BRANCH  11  12
HETATM   12  C   UNL     1     -10.582  10.746  68.028  1.00  0.00    -0.245 C  
HETATM   13  C   UNL     1     -11.644  11.507  68.353  1.00  0.00    -0.375 C  
BRANCH  13  14
HETATM   14  C   UNL     1     -11.635  12.657  69.311  1.00  0.00    -0.376 C  
BRANCH  14  15
HETATM   15  C   UNL     1     -12.093  13.953  68.710  1.00  0.00    -0.344 C  
HETATM   16  C   UNL     1     -11.244  14.877  68.233  1.00  0.00    -0.306 C  
BRANCH  16  17
HETATM   17  C   UNL     1      -9.756  14.713  68.330  1.00  0.00    -0.217 C  
BRANCH  17  18
HETATM   18  C   UNL     1      -8.990  16.012  68.143  1.00  0.00    -0.183 C  
BRANCH  18  19
HETATM   19  C   UNL     1      -9.809  17.178  68.689  1.00  0.00    -0.300 C  
HETATM   20  C   UNL     1      -9.072  18.489  68.548  1.00  0.00    -0.328 C  
HETATM   21  O   UNL     1      -7.956  18.618  68.071  1.00  0.00    -0.260 OA 
HETATM   22  O   UNL     1      -9.794  19.529  69.013  1.00  0.00    -0.431 OA 
ENDBRANCH  18  19
ENDBRANCH  17  18
ENDBRANCH  16  17
ENDBRANCH  14  15
ENDBRANCH  13  14
ENDBRANCH  11  12
ENDBRANCH  10  11
ENDBRANCH   8   9
ENDBRANCH   7   8
ENDBRANCH   5   6
ENDBRANCH   4   5
ENDBRANCH   2   3
TORSDOF 12
ENDMDL
MODEL      303
REMARK 921   NORMALIZED FREE ENERGY PREDICTED BY IDOCK:   -3.32 KCAL/MOL
REMARK 922        TOTAL FREE ENERGY PREDICTED BY IDOCK:   -8.16 KCAL/MOL
REMARK 923 INTER-LIGAND FREE ENERGY PREDICTED BY IDOCK:   -6.28 KCAL/MOL
REMARK 924 INTRA-LIGAND FREE ENERGY PREDICTED BY IDOCK:   -1.88 KCAL/MOL
REMARK 927      BINDING AFFINITY PREDICTED BY RF-SCORE:    0.00 PKD
ROOT
HETATM    1  C   UNL     1     -12.788   9.387  72.209  1.00  0.00    -0.452 C  
HETATM    2  C   UNL     1     -12.305  10.558  71.368  1.00  0.00    -0.477 C  
ENDROOT
BRANCH   2   3
HETATM    3  C   UNL     1     -12.237  10.212  69.907  1.00  0.00    -0.050 C  
HETATM    4  C   UNL     1     -11.898  11.059  68.917  1.00  0.00    -0.378 C  
BRANCH   4   5
HETATM    5  C   UNL     1     -11.497  12.489  69.131  1.00  0.00    -0.361 C  
BRANCH   5   6
HETATM    6  C   UNL     1     -10.799  13.091  67.943  1.00  0.00    -0.260 C  
HETATM    7  C   UNL     1      -9.511  12.897  67.625  1.00  0.00    -0.197 C  
BRANCH   7   8
HETATM    8  C   UNL     1      -8.625  11.943  68.367  1.00  0.00    -0.152 C  
BRANCH   8   9
HETATM    9  C   UNL     1      -7.393  11.591  67.589  1.00  0.00    -0.105 C  
HETATM   10  C   UNL     1      -6.251  12.302  67.562  1.00  0.00    -0.140 C  
BRANCH  10  11
HETATM   11  C   UNL     1      -5.981  13.595  68.284  1.00  0.00    -0.106 C  
BRANCH  11  12
HETATM   12  C   UNL     1      -6.207  14.866  67.498  1.00  0.00    -0.036 C  
HETATM   13  C   UNL     1      -6.763  16.027  67.892  1.00  0.00    -0.158 C  
BRANCH  13  14
HETATM   14  C   UNL     1      -7.382  16.292  69.229  1.00  0.00    -0.221 C  
BRANCH  14  15
HETATM   15  C   UNL     1      -8.769  15.741  69.377  1.00  0.00    -0.230 C  
HETATM   16  C   UNL     1      -9.862  16.391  68.946  1.00  0.00    -0.260 C  
BRANCH  16  17
HETATM   17  C   UNL     1      -9.784  17.763  68.342  1.00  0.00    -0.333 C  
BRANCH  17  18
HETATM   18  C   UNL     1      -9.754  17.755  66.823  1.00  0.00    -0.309 C  
BRANCH  18  19
HETATM   19  C   UNL     1      -9.756  16.316  66.314  1.00  0.00    -0.329 C  
HETATM   20  C   UNL     1     -10.578  16.174  65.054  1.00  0.00    -0.276 C  
HETATM   21  O   UNL     1     -11.181  17.081  64.505  1.00  0.00    -1.091 OA 
HETATM   22  O   UNL     1     -10.574  14.908  64.586  1.00  0.00    -0.360 OA 
ENDBRANCH  18  19
ENDBRANCH  17  18
ENDBRANCH  16  17
ENDBRANCH  14  15
ENDBRANCH  13  14
ENDBRANCH  11  12
ENDBRANCH  10  11
ENDBRANCH   8   9
ENDBRANCH   7   8
ENDBRANCH   5   6
ENDBRANCH   4   5
ENDBRANCH   2   3
TORSDOF 12
ENDMDL
MODEL      304
REMARK 921   NORMALIZED FREE ENERGY PREDICTED BY IDOCK:   -3.32 KCAL/MOL
REMARK 922        TOTAL FREE ENERGY PREDICTED BY IDOCK:   -8.15 KCAL/MOL
REMARK 923 INTER-LIGAND FREE ENERGY PREDICTED BY IDOCK:   -6.64 KCAL/MOL
REMARK 924 INTRA-LIGAND FREE ENERGY PREDICTED BY IDOCK:   -1.51 KCAL/MOL
REMARK 927      BINDING AFFINITY PREDICTED BY RF-SCORE:    0.00 PKD
ROOT
HETATM    1  C   UNL     1     -11.160  12.022  67.191  1.00  0.00    -0.344 C  
HETATM    2  C   UNL     1     -11.225  10.510  67.342  1.00  0.00    -0.249 C  
ENDROOT
BRANCH   2   3
HETATM    3  C   UNL     1     -10.614  10.047  68.635  1.00  0.00    -0.239 C  
HETATM    4  C   UNL     1     -10.853  10.580  69.848  1.00  0.00    -0.334 C  
BRANCH   4   5
HETATM    5  C   UNL     1     -11.806  11.712  70.099  1.00  0.00    -0.428 C  
BRANCH   5   6
HETATM    6  C   UNL     1     -12.965  11.324  70.976  1.00  0.00    -0.304 C  
HETATM    7  C   UNL     1     -13.384  12.011  72.048  1.00  0.00    -0.447 C  
BRANCH   7   8
HETATM    8  C   UNL     1     -12.808  13.337  72.442  1.00  0.00    -0.210 C  
BRANCH   8   9
HETATM    9  C   UNL     1     -13.740  14.472  72.144  1.00  0.00    -0.547 C  
HETATM   10  C   UNL     1     -13.661  15.295  71.081  1.00  0.00    -0.519 C  
BRANCH  10  11
HETATM   11  C   UNL     1     -12.622  15.258  69.993  1.00  0.00    -0.277 C  
BRANCH  11  12
HETATM   12  C   UNL     1     -11.362  16.057  70.239  1.00  0.00    -0.391 C  
HETATM   13  C   UNL     1     -10.563  16.686  69.356  1.00  0.00    -0.333 C  
BRANCH  13  14
HETATM   14  C   UNL     1     -10.711  16.657  67.867  1.00  0.00    -0.344 C  
BRANCH  14  15
HETATM   15  C   UNL     1      -9.531  17.214  67.127  1.00  0.00    -0.249 C  
HETATM   16  C   UNL     1      -8.636  16.440  66.491  1.00  0.00    -0.329 C  
BRANCH  16  17
HETATM   17  C   UNL     1      -8.711  14.942  66.533  1.00  0.00    -0.204 C  
BRANCH  17  18
HETATM   18  C   UNL     1      -7.985  14.333  67.720  1.00  0.00    -0.174 C  
BRANCH  18  19
HETATM   19  C   UNL     1      -7.740  12.847  67.470  1.00  0.00    -0.174 C  
HETATM   20  C   UNL     1      -6.272  12.550  67.277  1.00  0.00    -0.122 C  
HETATM   21  O   UNL     1      -5.379  13.382  67.302  1.00  0.00    -0.346 OA 
HETATM   22  O   UNL     1      -6.043  11.237  67.070  1.00  0.00    -0.080 OA 
ENDBRANCH  18  19
ENDBRANCH  17  18
ENDBRANCH  16  17
ENDBRANCH  14  15
ENDBRANCH  13  14
ENDBRANCH  11  12
ENDBRANCH  10  11
ENDBRANCH   8   9
ENDBRANCH   7   8
ENDBRANCH   5   6
ENDBRANCH   4   5
ENDBRANCH   2   3
TORSDOF 12
ENDMDL
MODEL      305
REMARK 921   NORMALIZED FREE ENERGY PREDICTED BY IDOCK:   -3.32 KCAL/MOL
REMARK 922        TOTAL FREE ENERGY PREDICTED BY IDOCK:   -8.15 KCAL/MOL
REMARK 923 INTER-LIGAND FREE ENERGY PREDICTED BY IDOCK:   -7.19 KCAL/MOL
REMARK 924 INTRA-LIGAND FREE ENERGY PREDICTED BY IDOCK:   -0.95 KCAL/MOL
REMARK 927      BINDING AFFINITY PREDICTED BY RF-SCORE:    0.00 PKD
ROOT
HETATM    1  C   UNL     1      -9.281   4.557  65.794  1.00  0.00    -0.146 C  
HETATM    2  C   UNL     1      -9.364   5.178  67.179  1.00  0.00    -0.129 C  
ENDROOT
BRANCH   2   3
HETATM    3  C   UNL     1     -10.646   5.940  67.377  1.00  0.00    -0.356 C  
HETATM    4  C   UNL     1     -10.739   7.256  67.648  1.00  0.00    -0.294 C  
BRANCH   4   5
HETATM    5  C   UNL     1      -9.562   8.180  67.760  1.00  0.00    -0.180 C  
BRANCH   5   6
HETATM    6  C   UNL     1      -9.448   9.134  66.604  1.00  0.00    -0.242 C  
HETATM    7  C   UNL     1     -10.138  10.276  66.476  1.00  0.00    -0.290 C  
BRANCH   7   8
HETATM    8  C   UNL     1     -11.039  10.808  67.549  1.00  0.00    -0.374 C  
BRANCH   8   9
HETATM    9  C   UNL     1     -10.347  10.905  68.874  1.00  0.00    -0.222 C  
HETATM   10  C   UNL     1     -10.945  10.856  70.079  1.00  0.00    -0.221 C  
BRANCH  10  11
HETATM   11  C   UNL     1     -12.420  10.713  70.343  1.00  0.00    -0.421 C  
BRANCH  11  12
HETATM   12  C   UNL     1     -12.955  11.410  71.573  1.00  0.00    -0.505 C  
HETATM   13  C   UNL     1     -13.203  12.719  71.775  1.00  0.00    -0.471 C  
BRANCH  13  14
HETATM   14  C   UNL     1     -12.909  13.823  70.809  1.00  0.00    -0.302 C  
BRANCH  14  15
HETATM   15  C   UNL     1     -12.054  14.916  71.377  1.00  0.00    -0.392 C  
HETATM   16  C   UNL     1     -11.387  15.795  70.610  1.00  0.00    -0.412 C  
BRANCH  16  17
HETATM   17  C   UNL     1     -11.391  15.705  69.112  1.00  0.00    -0.341 C  
BRANCH  17  18
HETATM   18  C   UNL     1     -10.205  16.393  68.461  1.00  0.00    -0.257 C  
BRANCH  18  19
HETATM   19  C   UNL     1     -10.456  17.896  68.387  1.00  0.00    -0.338 C  
HETATM   20  C   UNL     1     -10.493  18.384  66.958  1.00  0.00    -0.399 C  
HETATM   21  O   UNL     1     -10.332  17.681  65.973  1.00  0.00    -0.432 OA 
HETATM   22  O   UNL     1     -10.730  19.710  66.881  1.00  0.00    -0.469 OA 
ENDBRANCH  18  19
ENDBRANCH  17  18
ENDBRANCH  16  17
ENDBRANCH  14  15
ENDBRANCH  13  14
ENDBRANCH  11  12
ENDBRANCH  10  11
ENDBRANCH   8   9
ENDBRANCH   7   8
ENDBRANCH   5   6
ENDBRANCH   4   5
ENDBRANCH   2   3
TORSDOF 12
ENDMDL
MODEL      306
REMARK 921   NORMALIZED FREE ENERGY PREDICTED BY IDOCK:   -3.31 KCAL/MOL
REMARK 922        TOTAL FREE ENERGY PREDICTED BY IDOCK:   -8.14 KCAL/MOL
REMARK 923 INTER-LIGAND FREE ENERGY PREDICTED BY IDOCK:   -5.69 KCAL/MOL
REMARK 924 INTRA-LIGAND FREE ENERGY PREDICTED BY IDOCK:   -2.45 KCAL/MOL
REMARK 927      BINDING AFFINITY PREDICTED BY RF-SCORE:    0.00 PKD
ROOT
HETATM    1  C   UNL     1     -10.237   4.668  65.782  1.00  0.00    -0.283 C  
HETATM    2  C   UNL     1      -9.332   5.191  66.886  1.00  0.00    -0.129 C  
ENDROOT
BRANCH   2   3
HETATM    3  C   UNL     1      -9.597   6.640  67.191  1.00  0.00    -0.168 C  
HETATM    4  C   UNL     1     -10.481   7.099  68.097  1.00  0.00    -0.244 C  
BRANCH   4   5
HETATM    5  C   UNL     1     -11.322   6.221  68.975  1.00  0.00    -0.319 C  
BRANCH   5   6
HETATM    6  C   UNL     1     -10.530   5.528  70.050  1.00  0.00    -0.373 C  
HETATM    7  C   UNL     1     -10.599   5.807  71.359  1.00  0.00    -0.313 C  
BRANCH   7   8
HETATM    8  C   UNL     1     -11.581   6.783  71.934  1.00  0.00    -0.330 C  
BRANCH   8   9
HETATM    9  C   UNL     1     -10.915   8.028  72.435  1.00  0.00    -0.402 C  
HETATM   10  C   UNL     1     -11.051   9.259  71.908  1.00  0.00    -0.308 C  
BRANCH  10  11
HETATM   11  C   UNL     1     -11.877   9.633  70.707  1.00  0.00    -0.378 C  
BRANCH  11  12
HETATM   12  C   UNL     1     -12.145  11.108  70.507  1.00  0.00    -0.474 C  
HETATM   13  C   UNL     1     -11.999  11.861  69.400  1.00  0.00    -0.350 C  
BRANCH  13  14
HETATM   14  C   UNL     1     -11.434  11.397  68.094  1.00  0.00    -0.375 C  
BRANCH  14  15
HETATM   15  C   UNL     1     -10.263  12.202  67.618  1.00  0.00    -0.206 C  
HETATM   16  C   UNL     1      -9.083  11.651  67.289  1.00  0.00    -0.167 C  
BRANCH  16  17
HETATM   17  C   UNL     1      -8.824  10.181  67.442  1.00  0.00    -0.135 C  
BRANCH  17  18
HETATM   18  C   UNL     1      -7.562   9.868  68.228  1.00  0.00    -0.080 C  
BRANCH  18  19
HETATM   19  C   UNL     1      -7.816  10.078  69.718  1.00  0.00    -0.185 C  
HETATM   20  C   UNL     1      -7.411   8.869  70.528  1.00  0.00    -0.089 C  
HETATM   21  O   UNL     1      -6.949   7.839  70.065  1.00  0.00    -0.049 OA 
HETATM   22  O   UNL     1      -7.617   9.051  71.849  1.00  0.00    -0.334 OA 
ENDBRANCH  18  19
ENDBRANCH  17  18
ENDBRANCH  16  17
ENDBRANCH  14  15
ENDBRANCH  13  14
ENDBRANCH  11  12
ENDBRANCH  10  11
ENDBRANCH   8   9
ENDBRANCH   7   8
ENDBRANCH   5   6
ENDBRANCH   4   5
ENDBRANCH   2   3
TORSDOF 12
ENDMDL
MODEL      307
REMARK 921   NORMALIZED FREE ENERGY PREDICTED BY IDOCK:   -3.30 KCAL/MOL
REMARK 922        TOTAL FREE ENERGY PREDICTED BY IDOCK:   -8.11 KCAL/MOL
REMARK 923 INTER-LIGAND FREE ENERGY PREDICTED BY IDOCK:   -6.31 KCAL/MOL
REMARK 924 INTRA-LIGAND FREE ENERGY PREDICTED BY IDOCK:   -1.81 KCAL/MOL
REMARK 927      BINDING AFFINITY PREDICTED BY RF-SCORE:    0.00 PKD
ROOT
HETATM    1  C   UNL     1      -6.499  10.135  63.379  1.00  0.00    -0.136 C  
HETATM    2  C   UNL     1      -7.858   9.880  64.012  1.00  0.00    -0.145 C  
ENDROOT
BRANCH   2   3
HETATM    3  C   UNL     1      -8.041   8.435  64.387  1.00  0.00    -0.158 C  
HETATM    4  C   UNL     1      -8.539   7.988  65.556  1.00  0.00    -0.158 C  
BRANCH   4   5
HETATM    5  C   UNL     1      -9.024   8.879  66.662  1.00  0.00    -0.165 C  
BRANCH   5   6
HETATM    6  C   UNL     1     -10.368   8.471  67.201  1.00  0.00    -0.377 C  
HETATM    7  C   UNL     1     -10.569   7.811  68.350  1.00  0.00    -0.157 C  
BRANCH   7   8
HETATM    8  C   UNL     1      -9.465   7.496  69.313  1.00  0.00    -0.154 C  
BRANCH   8   9
HETATM    9  C   UNL     1      -9.976   6.889  70.584  1.00  0.00    -0.198 C  
HETATM   10  C   UNL     1     -10.532   7.562  71.608  1.00  0.00    -0.226 C  
BRANCH  10  11
HETATM   11  C   UNL     1     -10.737   9.051  71.697  1.00  0.00    -0.441 C  
BRANCH  11  12
HETATM   12  C   UNL     1     -12.157   9.546  71.541  1.00  0.00    -0.468 C  
HETATM   13  C   UNL     1     -12.669  10.404  70.638  1.00  0.00    -0.417 C  
BRANCH  13  14
HETATM   14  C   UNL     1     -11.889  11.151  69.602  1.00  0.00    -0.419 C  
BRANCH  14  15
HETATM   15  C   UNL     1     -11.843  12.633  69.826  1.00  0.00    -0.379 C  
HETATM   16  C   UNL     1     -11.847  13.524  68.821  1.00  0.00    -0.390 C  
BRANCH  16  17
HETATM   17  C   UNL     1     -11.826  13.097  67.382  1.00  0.00    -0.412 C  
BRANCH  17  18
HETATM   18  C   UNL     1     -10.435  13.088  66.773  1.00  0.00    -0.264 C  
BRANCH  18  19
HETATM   19  C   UNL     1     -10.515  13.451  65.293  1.00  0.00    -0.334 C  
HETATM   20  C   UNL     1     -10.761  12.233  64.435  1.00  0.00    -0.331 C  
HETATM   21  O   UNL     1     -10.872  11.092  64.852  1.00  0.00    -0.250 OA 
HETATM   22  O   UNL     1     -10.849  12.545  63.125  1.00  0.00    -0.326 OA 
ENDBRANCH  18  19
ENDBRANCH  17  18
ENDBRANCH  16  17
ENDBRANCH  14  15
ENDBRANCH  13  14
ENDBRANCH  11  12
ENDBRANCH  10  11
ENDBRANCH   8   9
ENDBRANCH   7   8
ENDBRANCH   5   6
ENDBRANCH   4   5
ENDBRANCH   2   3
TORSDOF 12
ENDMDL
MODEL      308
REMARK 921   NORMALIZED FREE ENERGY PREDICTED BY IDOCK:   -3.29 KCAL/MOL
REMARK 922        TOTAL FREE ENERGY PREDICTED BY IDOCK:   -8.11 KCAL/MOL
REMARK 923 INTER-LIGAND FREE ENERGY PREDICTED BY IDOCK:   -6.71 KCAL/MOL
REMARK 924 INTRA-LIGAND FREE ENERGY PREDICTED BY IDOCK:   -1.40 KCAL/MOL
REMARK 927      BINDING AFFINITY PREDICTED BY RF-SCORE:    0.00 PKD
ROOT
HETATM    1  C   UNL     1      -9.182   8.617  71.173  1.00  0.00    -0.269 C  
HETATM    2  C   UNL     1     -10.610   9.085  70.941  1.00  0.00    -0.316 C  
ENDROOT
BRANCH   2   3
HETATM    3  C   UNL     1     -11.616   8.043  71.346  1.00  0.00    -0.301 C  
HETATM    4  C   UNL     1     -11.613   6.757  70.947  1.00  0.00    -0.403 C  
BRANCH   4   5
HETATM    5  C   UNL     1     -10.570   6.153  70.054  1.00  0.00    -0.323 C  
BRANCH   5   6
HETATM    6  C   UNL     1     -10.987   6.103  68.609  1.00  0.00    -0.415 C  
HETATM    7  C   UNL     1     -10.267   6.580  67.584  1.00  0.00    -0.210 C  
BRANCH   7   8
HETATM    8  C   UNL     1      -8.881   7.126  67.744  1.00  0.00    -0.124 C  
BRANCH   8   9
HETATM    9  C   UNL     1      -7.910   6.498  66.792  1.00  0.00    -0.104 C  
HETATM   10  C   UNL     1      -7.631   6.936  65.550  1.00  0.00    -0.091 C  
BRANCH  10  11
HETATM   11  C   UNL     1      -8.245   8.124  64.860  1.00  0.00    -0.150 C  
BRANCH  11  12
HETATM   12  C   UNL     1      -7.675   9.478  65.217  1.00  0.00    -0.111 C  
HETATM   13  C   UNL     1      -8.272  10.526  65.816  1.00  0.00    -0.160 C  
BRANCH  13  14
HETATM   14  C   UNL     1      -9.717  10.608  66.198  1.00  0.00    -0.253 C  
BRANCH  14  15
HETATM   15  C   UNL     1     -10.024  11.696  67.183  1.00  0.00    -0.219 C  
HETATM   16  C   UNL     1     -10.921  12.667  66.943  1.00  0.00    -0.297 C  
BRANCH  16  17
HETATM   17  C   UNL     1     -11.637  12.778  65.629  1.00  0.00    -0.410 C  
BRANCH  17  18
HETATM   18  C   UNL     1     -11.262  14.020  64.838  1.00  0.00    -0.362 C  
BRANCH  18  19
HETATM   19  C   UNL     1     -10.315  14.889  65.659  1.00  0.00    -0.370 C  
HETATM   20  C   UNL     1     -10.359  16.332  65.214  1.00  0.00    -0.219 C  
HETATM   21  O   UNL     1     -11.050  16.765  64.306  1.00  0.00    -1.106 OA 
HETATM   22  O   UNL     1      -9.536  17.113  65.945  1.00  0.00    -0.496 OA 
ENDBRANCH  18  19
ENDBRANCH  17  18
ENDBRANCH  16  17
ENDBRANCH  14  15
ENDBRANCH  13  14
ENDBRANCH  11  12
ENDBRANCH  10  11
ENDBRANCH   8   9
ENDBRANCH   7   8
ENDBRANCH   5   6
ENDBRANCH   4   5
ENDBRANCH   2   3
TORSDOF 12
ENDMDL
MODEL      309
REMARK 921   NORMALIZED FREE ENERGY PREDICTED BY IDOCK:   -3.29 KCAL/MOL
REMARK 922        TOTAL FREE ENERGY PREDICTED BY IDOCK:   -8.11 KCAL/MOL
REMARK 923 INTER-LIGAND FREE ENERGY PREDICTED BY IDOCK:   -6.64 KCAL/MOL
REMARK 924 INTRA-LIGAND FREE ENERGY PREDICTED BY IDOCK:   -1.47 KCAL/MOL
REMARK 927      BINDING AFFINITY PREDICTED BY RF-SCORE:    0.00 PKD
ROOT
HETATM    1  C   UNL     1     -12.485  13.910  65.404  1.00  0.00    -0.528 C  
HETATM    2  C   UNL     1     -11.262  13.859  64.503  1.00  0.00    -0.372 C  
ENDROOT
BRANCH   2   3
HETATM    3  C   UNL     1     -11.310  12.691  63.556  1.00  0.00    -0.527 C  
HETATM    4  C   UNL     1     -10.939  11.430  63.850  1.00  0.00    -0.442 C  
BRANCH   4   5
HETATM    5  C   UNL     1     -10.447  10.988  65.197  1.00  0.00    -0.329 C  
BRANCH   5   6
HETATM    6  C   UNL     1      -9.310  10.007  65.118  1.00  0.00    -0.302 C  
HETATM    7  C   UNL     1      -9.252   8.840  65.775  1.00  0.00    -0.269 C  
BRANCH   7   8
HETATM    8  C   UNL     1     -10.389   8.309  66.593  1.00  0.00    -0.293 C  
BRANCH   8   9
HETATM    9  C   UNL     1     -10.130   8.422  68.065  1.00  0.00    -0.245 C  
HETATM   10  C   UNL     1     -10.345   7.456  68.977  1.00  0.00    -0.214 C  
BRANCH  10  11
HETATM   11  C   UNL     1     -10.901   6.083  68.715  1.00  0.00    -0.391 C  
BRANCH  11  12
HETATM   12  C   UNL     1      -9.893   4.989  68.443  1.00  0.00    -0.209 C  
HETATM   13  C   UNL     1      -9.336   4.108  69.296  1.00  0.00    -0.237 C  
BRANCH  13  14
HETATM   14  C   UNL     1      -9.540   4.077  70.778  1.00  0.00    -0.263 C  
BRANCH  14  15
HETATM   15  C   UNL     1      -8.506   4.841  71.551  1.00  0.00    -0.121 C  
HETATM   16  C   UNL     1      -8.722   5.313  72.790  1.00  0.00    -0.119 C  
BRANCH  16  17
HETATM   17  C   UNL     1     -10.050   5.171  73.473  1.00  0.00    -0.205 C  
BRANCH  17  18
HETATM   18  C   UNL     1     -10.480   6.420  74.224  1.00  0.00    -0.218 C  
BRANCH  18  19
HETATM   19  C   UNL     1      -9.991   7.662  73.485  1.00  0.00    -0.354 C  
HETATM   20  C   UNL     1     -11.051   8.211  72.559  1.00  0.00    -0.377 C  
HETATM   21  O   UNL     1     -12.160   7.730  72.399  1.00  0.00    -0.304 OA 
HETATM   22  O   UNL     1     -10.633   9.320  71.912  1.00  0.00    -0.324 OA 
ENDBRANCH  18  19
ENDBRANCH  17  18
ENDBRANCH  16  17
ENDBRANCH  14  15
ENDBRANCH  13  14
ENDBRANCH  11  12
ENDBRANCH  10  11
ENDBRANCH   8   9
ENDBRANCH   7   8
ENDBRANCH   5   6
ENDBRANCH   4   5
ENDBRANCH   2   3
TORSDOF 12
ENDMDL
MODEL      310
REMARK 921   NORMALIZED FREE ENERGY PREDICTED BY IDOCK:   -3.29 KCAL/MOL
REMARK 922        TOTAL FREE ENERGY PREDICTED BY IDOCK:   -8.10 KCAL/MOL
REMARK 923 INTER-LIGAND FREE ENERGY PREDICTED BY IDOCK:   -6.80 KCAL/MOL
REMARK 924 INTRA-LIGAND FREE ENERGY PREDICTED BY IDOCK:   -1.29 KCAL/MOL
REMARK 927      BINDING AFFINITY PREDICTED BY RF-SCORE:    0.00 PKD
ROOT
HETATM    1  C   UNL     1      -8.927   4.445  63.336  1.00  0.00    -0.139 C  
HETATM    2  C   UNL     1      -8.200   4.573  64.666  1.00  0.00    -0.109 C  
ENDROOT
BRANCH   2   3
HETATM    3  C   UNL     1      -8.272   5.972  65.213  1.00  0.00    -0.138 C  
HETATM    4  C   UNL     1      -9.085   6.382  66.205  1.00  0.00    -0.167 C  
BRANCH   4   5
HETATM    5  C   UNL     1     -10.030   5.484  66.948  1.00  0.00    -0.204 C  
BRANCH   5   6
HETATM    6  C   UNL     1     -11.019   6.237  67.793  1.00  0.00    -0.427 C  
HETATM    7  C   UNL     1     -10.870   6.506  69.098  1.00  0.00    -0.354 C  
BRANCH   7   8
HETATM    8  C   UNL     1      -9.621   6.184  69.859  1.00  0.00    -0.183 C  
BRANCH   8   9
HETATM    9  C   UNL     1      -9.725   4.883  70.596  1.00  0.00    -0.271 C  
HETATM   10  C   UNL     1     -10.355   4.694  71.771  1.00  0.00    -0.208 C  
BRANCH  10  11
HETATM   11  C   UNL     1     -11.062   5.741  72.588  1.00  0.00    -0.325 C  
BRANCH  11  12
HETATM   12  C   UNL     1     -10.213   6.883  73.100  1.00  0.00    -0.264 C  
HETATM   13  C   UNL     1     -10.290   8.198  72.819  1.00  0.00    -0.384 C  
BRANCH  13  14
HETATM   14  C   UNL     1     -11.220   8.828  71.831  1.00  0.00    -0.438 C  
BRANCH  14  15
HETATM   15  C   UNL     1     -12.631   8.960  72.322  1.00  0.00    -0.455 C  
HETATM   16  C   UNL     1     -13.324  10.109  72.254  1.00  0.00    -0.337 C  
BRANCH  16  17
HETATM   17  C   UNL     1     -12.708  11.377  71.740  1.00  0.00    -0.359 C  
BRANCH  17  18
HETATM   18  C   UNL     1     -13.488  12.625  72.119  1.00  0.00    -0.561 C  
BRANCH  18  19
HETATM   19  C   UNL     1     -12.994  13.812  71.298  1.00  0.00    -0.409 C  
HETATM   20  C   UNL     1     -12.313  14.844  72.166  1.00  0.00    -0.351 C  
HETATM   21  O   UNL     1     -12.175  14.761  73.376  1.00  0.00    -0.331 OA 
HETATM   22  O   UNL     1     -11.859  15.891  71.447  1.00  0.00    -0.390 OA 
ENDBRANCH  18  19
ENDBRANCH  17  18
ENDBRANCH  16  17
ENDBRANCH  14  15
ENDBRANCH  13  14
ENDBRANCH  11  12
ENDBRANCH  10  11
ENDBRANCH   8   9
ENDBRANCH   7   8
ENDBRANCH   5   6
ENDBRANCH   4   5
ENDBRANCH   2   3
TORSDOF 12
ENDMDL
MODEL      311
REMARK 921   NORMALIZED FREE ENERGY PREDICTED BY IDOCK:   -3.28 KCAL/MOL
REMARK 922        TOTAL FREE ENERGY PREDICTED BY IDOCK:   -8.09 KCAL/MOL
REMARK 923 INTER-LIGAND FREE ENERGY PREDICTED BY IDOCK:   -5.78 KCAL/MOL
REMARK 924 INTRA-LIGAND FREE ENERGY PREDICTED BY IDOCK:   -2.31 KCAL/MOL
REMARK 927      BINDING AFFINITY PREDICTED BY RF-SCORE:    0.00 PKD
ROOT
HETATM    1  C   UNL     1     -11.769  12.858  63.537  1.00  0.00    -0.576 C  
HETATM    2  C   UNL     1     -12.645  12.364  64.678  1.00  0.00    -0.459 C  
ENDROOT
BRANCH   2   3
HETATM    3  C   UNL     1     -12.384  13.117  65.954  1.00  0.00    -0.462 C  
HETATM    4  C   UNL     1     -11.780  12.615  67.048  1.00  0.00    -0.438 C  
BRANCH   4   5
HETATM    5  C   UNL     1     -11.238  11.220  67.147  1.00  0.00    -0.344 C  
BRANCH   5   6
HETATM    6  C   UNL     1      -9.876  11.070  66.528  1.00  0.00    -0.241 C  
HETATM    7  C   UNL     1      -8.713  11.236  67.175  1.00  0.00    -0.151 C  
BRANCH   7   8
HETATM    8  C   UNL     1      -8.630  11.482  68.651  1.00  0.00    -0.109 C  
BRANCH   8   9
HETATM    9  C   UNL     1      -7.989  10.341  69.381  1.00  0.00    -0.162 C  
HETATM   10  C   UNL     1      -8.641   9.349  70.015  1.00  0.00    -0.218 C  
BRANCH  10  11
HETATM   11  C   UNL     1     -10.133   9.191  70.138  1.00  0.00    -0.233 C  
BRANCH  11  12
HETATM   12  C   UNL     1     -10.621   8.039  70.987  1.00  0.00    -0.239 C  
HETATM   13  C   UNL     1     -10.617   6.719  70.720  1.00  0.00    -0.254 C  
BRANCH  13  14
HETATM   14  C   UNL     1     -10.187   6.088  69.433  1.00  0.00    -0.269 C  
BRANCH  14  15
HETATM   15  C   UNL     1     -11.102   6.374  68.280  1.00  0.00    -0.359 C  
HETATM   16  C   UNL     1     -10.681   6.937  67.136  1.00  0.00    -0.436 C  
BRANCH  16  17
HETATM   17  C   UNL     1      -9.262   7.391  66.949  1.00  0.00    -0.183 C  
BRANCH  17  18
HETATM   18  C   UNL     1      -8.469   6.518  65.992  1.00  0.00    -0.145 C  
BRANCH  18  19
HETATM   19  C   UNL     1      -9.267   5.263  65.654  1.00  0.00    -0.145 C  
HETATM   20  C   UNL     1      -8.844   4.676  64.328  1.00  0.00    -0.146 C  
HETATM   21  O   UNL     1      -7.983   5.140  63.598  1.00  0.00    -0.085 OA 
HETATM   22  O   UNL     1      -9.534   3.555  64.027  1.00  0.00    -0.123 OA 
ENDBRANCH  18  19
ENDBRANCH  17  18
ENDBRANCH  16  17
ENDBRANCH  14  15
ENDBRANCH  13  14
ENDBRANCH  11  12
ENDBRANCH  10  11
ENDBRANCH   8   9
ENDBRANCH   7   8
ENDBRANCH   5   6
ENDBRANCH   4   5
ENDBRANCH   2   3
TORSDOF 12
ENDMDL
MODEL      312
REMARK 921   NORMALIZED FREE ENERGY PREDICTED BY IDOCK:   -3.28 KCAL/MOL
REMARK 922        TOTAL FREE ENERGY PREDICTED BY IDOCK:   -8.08 KCAL/MOL
REMARK 923 INTER-LIGAND FREE ENERGY PREDICTED BY IDOCK:   -5.94 KCAL/MOL
REMARK 924 INTRA-LIGAND FREE ENERGY PREDICTED BY IDOCK:   -2.14 KCAL/MOL
REMARK 927      BINDING AFFINITY PREDICTED BY RF-SCORE:    0.00 PKD
ROOT
HETATM    1  C   UNL     1     -10.214  10.409  65.460  1.00  0.00    -0.316 C  
HETATM    2  C   UNL     1     -10.113  11.599  64.519  1.00  0.00    -0.321 C  
ENDROOT
BRANCH   2   3
HETATM    3  C   UNL     1     -11.399  11.842  63.779  1.00  0.00    -0.524 C  
HETATM    4  C   UNL     1     -12.297  12.803  64.067  1.00  0.00    -0.492 C  
BRANCH   4   5
HETATM    5  C   UNL     1     -12.130  13.812  65.165  1.00  0.00    -0.416 C  
BRANCH   5   6
HETATM    6  C   UNL     1     -11.012  14.785  64.906  1.00  0.00    -0.425 C  
HETATM    7  C   UNL     1     -10.283  15.390  65.855  1.00  0.00    -0.365 C  
BRANCH   7   8
HETATM    8  C   UNL     1     -10.420  15.074  67.313  1.00  0.00    -0.265 C  
BRANCH   8   9
HETATM    9  C   UNL     1      -9.736  13.793  67.682  1.00  0.00    -0.227 C  
HETATM   10  C   UNL     1     -10.273  12.797  68.411  1.00  0.00    -0.237 C  
BRANCH  10  11
HETATM   11  C   UNL     1     -11.651  12.772  69.016  1.00  0.00    -0.366 C  
BRANCH  11  12
HETATM   12  C   UNL     1     -12.377  11.446  68.983  1.00  0.00    -0.033 C  
HETATM   13  C   UNL     1     -12.375  10.447  69.886  1.00  0.00    -0.176 C  
BRANCH  13  14
HETATM   14  C   UNL     1     -11.551  10.399  71.134  1.00  0.00    -0.315 C  
BRANCH  14  15
HETATM   15  C   UNL     1     -11.046   9.029  71.477  1.00  0.00    -0.419 C  
HETATM   16  C   UNL     1      -9.884   8.542  71.013  1.00  0.00    -0.245 C  
BRANCH  16  17
HETATM   17  C   UNL     1      -9.028   9.313  70.050  1.00  0.00    -0.216 C  
BRANCH  17  18
HETATM   18  C   UNL     1      -8.173   8.429  69.158  1.00  0.00    -0.120 C  
BRANCH  18  19
HETATM   19  C   UNL     1      -9.067   7.619  68.224  1.00  0.00    -0.136 C  
HETATM   20  C   UNL     1      -8.582   7.687  66.794  1.00  0.00    -0.129 C  
HETATM   21  O   UNL     1      -7.608   8.316  66.414  1.00  0.00    -0.088 OA 
HETATM   22  O   UNL     1      -9.357   6.961  65.961  1.00  0.00    -0.104 OA 
ENDBRANCH  18  19
ENDBRANCH  17  18
ENDBRANCH  16  17
ENDBRANCH  14  15
ENDBRANCH  13  14
ENDBRANCH  11  12
ENDBRANCH  10  11
ENDBRANCH   8   9
ENDBRANCH   7   8
ENDBRANCH   5   6
ENDBRANCH   4   5
ENDBRANCH   2   3
TORSDOF 12
ENDMDL
MODEL      313
REMARK 921   NORMALIZED FREE ENERGY PREDICTED BY IDOCK:   -3.28 KCAL/MOL
REMARK 922        TOTAL FREE ENERGY PREDICTED BY IDOCK:   -8.08 KCAL/MOL
REMARK 923 INTER-LIGAND FREE ENERGY PREDICTED BY IDOCK:   -5.81 KCAL/MOL
REMARK 924 INTRA-LIGAND FREE ENERGY PREDICTED BY IDOCK:   -2.27 KCAL/MOL
REMARK 927      BINDING AFFINITY PREDICTED BY RF-SCORE:    0.00 PKD
ROOT
HETATM    1  C   UNL     1     -12.322  13.720  65.593  1.00  0.00    -0.517 C  
HETATM    2  C   UNL     1     -12.373  12.253  65.195  1.00  0.00    -0.279 C  
ENDROOT
BRANCH   2   3
HETATM    3  C   UNL     1     -11.548  11.974  63.969  1.00  0.00    -0.495 C  
HETATM    4  C   UNL     1     -10.462  11.179  63.923  1.00  0.00    -0.445 C  
BRANCH   4   5
HETATM    5  C   UNL     1      -9.925  10.415  65.097  1.00  0.00    -0.390 C  
BRANCH   5   6
HETATM    6  C   UNL     1      -8.874   9.409  64.715  1.00  0.00    -0.243 C  
HETATM    7  C   UNL     1      -8.616   8.274  65.381  1.00  0.00    -0.176 C  
BRANCH   7   8
HETATM    8  C   UNL     1      -9.439   7.806  66.542  1.00  0.00    -0.262 C  
BRANCH   8   9
HETATM    9  C   UNL     1      -8.719   6.790  67.376  1.00  0.00    -0.119 C  
HETATM   10  C   UNL     1      -9.256   6.075  68.382  1.00  0.00    -0.114 C  
BRANCH  10  11
HETATM   11  C   UNL     1     -10.672   6.159  68.885  1.00  0.00    -0.376 C  
BRANCH  11  12
HETATM   12  C   UNL     1     -10.942   5.550  70.242  1.00  0.00    -0.206 C  
HETATM   13  C   UNL     1     -10.681   6.043  71.468  1.00  0.00    -0.309 C  
BRANCH  13  14
HETATM   14  C   UNL     1      -9.960   7.322  71.760  1.00  0.00    -0.186 C  
BRANCH  14  15
HETATM   15  C   UNL     1     -10.866   8.468  72.096  1.00  0.00    -0.427 C  
HETATM   16  C   UNL     1     -11.259   9.378  71.189  1.00  0.00    -0.427 C  
BRANCH  16  17
HETATM   17  C   UNL     1     -10.759   9.355  69.774  1.00  0.00    -0.250 C  
BRANCH  17  18
HETATM   18  C   UNL     1      -9.592  10.297  69.530  1.00  0.00    -0.225 C  
BRANCH  18  19
HETATM   19  C   UNL     1      -8.286   9.508  69.513  1.00  0.00    -0.145 C  
HETATM   20  C   UNL     1      -7.355   9.998  68.428  1.00  0.00    -0.077 C  
HETATM   21  O   UNL     1      -7.604  10.901  67.646  1.00  0.00    -0.094 OA 
HETATM   22  O   UNL     1      -6.190   9.317  68.415  1.00  0.00    -0.052 OA 
ENDBRANCH  18  19
ENDBRANCH  17  18
ENDBRANCH  16  17
ENDBRANCH  14  15
ENDBRANCH  13  14
ENDBRANCH  11  12
ENDBRANCH  10  11
ENDBRANCH   8   9
ENDBRANCH   7   8
ENDBRANCH   5   6
ENDBRANCH   4   5
ENDBRANCH   2   3
TORSDOF 12
ENDMDL
MODEL      314
REMARK 921   NORMALIZED FREE ENERGY PREDICTED BY IDOCK:   -3.27 KCAL/MOL
REMARK 922        TOTAL FREE ENERGY PREDICTED BY IDOCK:   -8.08 KCAL/MOL
REMARK 923 INTER-LIGAND FREE ENERGY PREDICTED BY IDOCK:   -6.43 KCAL/MOL
REMARK 924 INTRA-LIGAND FREE ENERGY PREDICTED BY IDOCK:   -1.65 KCAL/MOL
REMARK 927      BINDING AFFINITY PREDICTED BY RF-SCORE:    0.00 PKD
ROOT
HETATM    1  C   UNL     1     -12.482   8.654  72.074  1.00  0.00    -0.433 C  
HETATM    2  C   UNL     1     -11.010   8.349  72.300  1.00  0.00    -0.431 C  
ENDROOT
BRANCH   2   3
HETATM    3  C   UNL     1     -10.807   7.347  73.403  1.00  0.00    -0.362 C  
HETATM    4  C   UNL     1      -9.616   6.966  73.903  1.00  0.00    -0.280 C  
BRANCH   4   5
HETATM    5  C   UNL     1      -8.296   7.518  73.452  1.00  0.00    -0.181 C  
BRANCH   5   6
HETATM    6  C   UNL     1      -7.230   6.465  73.319  1.00  0.00    -0.086 C  
HETATM    7  C   UNL     1      -7.004   5.731  72.220  1.00  0.00    -0.082 C  
BRANCH   7   8
HETATM    8  C   UNL     1      -7.725   5.958  70.927  1.00  0.00    -0.098 C  
BRANCH   8   9
HETATM    9  C   UNL     1      -6.954   6.841  69.994  1.00  0.00    -0.062 C  
HETATM   10  C   UNL     1      -7.470   7.830  69.241  1.00  0.00    -0.093 C  
BRANCH  10  11
HETATM   11  C   UNL     1      -8.917   8.238  69.166  1.00  0.00    -0.147 C  
BRANCH  11  12
HETATM   12  C   UNL     1      -9.246   9.640  69.626  1.00  0.00    -0.225 C  
HETATM   13  C   UNL     1     -10.157  10.507  69.144  1.00  0.00    -0.240 C  
BRANCH  13  14
HETATM   14  C   UNL     1     -11.020  10.288  67.941  1.00  0.00    -0.350 C  
BRANCH  14  15
HETATM   15  C   UNL     1     -10.329  10.566  66.639  1.00  0.00    -0.295 C  
HETATM   16  C   UNL     1     -10.023  11.806  66.225  1.00  0.00    -0.246 C  
BRANCH  16  17
HETATM   17  C   UNL     1     -10.415  13.024  67.008  1.00  0.00    -0.249 C  
BRANCH  17  18
HETATM   18  C   UNL     1     -11.802  13.541  66.668  1.00  0.00    -0.450 C  
BRANCH  18  19
HETATM   19  C   UNL     1     -11.690  14.849  65.891  1.00  0.00    -0.175 C  
HETATM   20  C   UNL     1     -12.252  14.716  64.495  1.00  0.00    -0.456 C  
HETATM   21  O   UNL     1     -12.728  13.696  64.025  1.00  0.00    -0.666 OA 
HETATM   22  O   UNL     1     -12.172  15.873  63.804  1.00  0.00    -0.817 OA 
ENDBRANCH  18  19
ENDBRANCH  17  18
ENDBRANCH  16  17
ENDBRANCH  14  15
ENDBRANCH  13  14
ENDBRANCH  11  12
ENDBRANCH  10  11
ENDBRANCH   8   9
ENDBRANCH   7   8
ENDBRANCH   5   6
ENDBRANCH   4   5
ENDBRANCH   2   3
TORSDOF 12
ENDMDL
MODEL      315
REMARK 921   NORMALIZED FREE ENERGY PREDICTED BY IDOCK:   -3.27 KCAL/MOL
REMARK 922        TOTAL FREE ENERGY PREDICTED BY IDOCK:   -8.07 KCAL/MOL
REMARK 923 INTER-LIGAND FREE ENERGY PREDICTED BY IDOCK:   -6.12 KCAL/MOL
REMARK 924 INTRA-LIGAND FREE ENERGY PREDICTED BY IDOCK:   -1.95 KCAL/MOL
REMARK 927      BINDING AFFINITY PREDICTED BY RF-SCORE:    0.00 PKD
ROOT
HETATM    1  C   UNL     1     -10.497   7.989  70.908  1.00  0.00    -0.223 C  
HETATM    2  C   UNL     1      -9.622   6.748  71.001  1.00  0.00    -0.175 C  
ENDROOT
BRANCH   2   3
HETATM    3  C   UNL     1     -10.428   5.483  70.893  1.00  0.00    -0.319 C  
HETATM    4  C   UNL     1     -10.090   4.401  70.166  1.00  0.00    -0.155 C  
BRANCH   4   5
HETATM    5  C   UNL     1      -8.824   4.281  69.371  1.00  0.00    -0.138 C  
BRANCH   5   6
HETATM    6  C   UNL     1      -8.861   3.159  68.369  1.00  0.00    -0.165 C  
HETATM    7  C   UNL     1      -9.360   3.250  67.128  1.00  0.00    -0.212 C  
BRANCH   7   8
HETATM    8  C   UNL     1      -9.847   4.539  66.538  1.00  0.00    -0.244 C  
BRANCH   8   9
HETATM    9  C   UNL     1      -8.728   5.367  65.983  1.00  0.00    -0.137 C  
HETATM   10  C   UNL     1      -8.404   6.613  66.373  1.00  0.00    -0.121 C  
BRANCH  10  11
HETATM   11  C   UNL     1      -9.101   7.434  67.425  1.00  0.00    -0.129 C  
BRANCH  11  12
HETATM   12  C   UNL     1      -8.706   8.890  67.514  1.00  0.00    -0.124 C  
HETATM   13  C   UNL     1      -9.145   9.941  66.796  1.00  0.00    -0.164 C  
BRANCH  13  14
HETATM   14  C   UNL     1     -10.101   9.876  65.647  1.00  0.00    -0.307 C  
BRANCH  14  15
HETATM   15  C   UNL     1      -9.470  10.151  64.314  1.00  0.00    -0.366 C  
HETATM   16  C   UNL     1      -9.933  11.084  63.466  1.00  0.00    -0.421 C  
BRANCH  16  17
HETATM   17  C   UNL     1     -11.171  11.879  63.759  1.00  0.00    -0.519 C  
BRANCH  17  18
HETATM   18  C   UNL     1     -10.891  13.335  64.089  1.00  0.00    -0.369 C  
BRANCH  18  19
HETATM   19  C   UNL     1     -10.860  13.524  65.603  1.00  0.00    -0.292 C  
HETATM   20  C   UNL     1     -12.221  13.894  66.145  1.00  0.00    -0.464 C  
HETATM   21  O   UNL     1     -13.228  14.039  65.471  1.00  0.00    -0.710 OA 
HETATM   22  O   UNL     1     -12.208  14.048  67.485  1.00  0.00    -0.366 OA 
ENDBRANCH  18  19
ENDBRANCH  17  18
ENDBRANCH  16  17
ENDBRANCH  14  15
ENDBRANCH  13  14
ENDBRANCH  11  12
ENDBRANCH  10  11
ENDBRANCH   8   9
ENDBRANCH   7   8
ENDBRANCH   5   6
ENDBRANCH   4   5
ENDBRANCH   2   3
TORSDOF 12
ENDMDL
MODEL      316
REMARK 921   NORMALIZED FREE ENERGY PREDICTED BY IDOCK:   -3.27 KCAL/MOL
REMARK 922        TOTAL FREE ENERGY PREDICTED BY IDOCK:   -8.06 KCAL/MOL
REMARK 923 INTER-LIGAND FREE ENERGY PREDICTED BY IDOCK:   -6.15 KCAL/MOL
REMARK 924 INTRA-LIGAND FREE ENERGY PREDICTED BY IDOCK:   -1.91 KCAL/MOL
REMARK 927      BINDING AFFINITY PREDICTED BY RF-SCORE:    0.00 PKD
ROOT
HETATM    1  C   UNL     1      -7.368   6.883  71.307  1.00  0.00    -0.081 C  
HETATM    2  C   UNL     1      -7.875   5.793  70.376  1.00  0.00    -0.104 C  
ENDROOT
BRANCH   2   3
HETATM    3  C   UNL     1      -7.607   4.418  70.921  1.00  0.00    -0.052 C  
HETATM    4  C   UNL     1      -8.491   3.656  71.593  1.00  0.00    -0.102 C  
BRANCH   4   5
HETATM    5  C   UNL     1      -9.910   4.058  71.872  1.00  0.00    -0.247 C  
BRANCH   5   6
HETATM    6  C   UNL     1     -10.042   4.968  73.062  1.00  0.00    -0.202 C  
HETATM    7  C   UNL     1     -10.902   5.993  73.157  1.00  0.00    -0.287 C  
BRANCH   7   8
HETATM    8  C   UNL     1     -11.935   6.288  72.113  1.00  0.00    -0.338 C  
BRANCH   8   9
HETATM    9  C   UNL     1     -11.324   6.745  70.823  1.00  0.00    -0.374 C  
HETATM   10  C   UNL     1     -10.806   7.965  70.588  1.00  0.00    -0.238 C  
BRANCH  10  11
HETATM   11  C   UNL     1     -10.750   9.117  71.554  1.00  0.00    -0.437 C  
BRANCH  11  12
HETATM   12  C   UNL     1     -12.055   9.830  71.830  1.00  0.00    -0.425 C  
HETATM   13  C   UNL     1     -12.629  10.850  71.164  1.00  0.00    -0.532 C  
BRANCH  13  14
HETATM   14  C   UNL     1     -12.031  11.585  70.005  1.00  0.00    -0.435 C  
BRANCH  14  15
HETATM   15  C   UNL     1     -12.146  10.857  68.699  1.00  0.00    -0.065 C  
HETATM   16  C   UNL     1     -11.178  10.869  67.769  1.00  0.00    -0.384 C  
BRANCH  16  17
HETATM   17  C   UNL     1      -9.924  11.677  67.938  1.00  0.00    -0.190 C  
BRANCH  17  18
HETATM   18  C   UNL     1      -9.568  12.504  66.714  1.00  0.00    -0.231 C  
BRANCH  18  19
HETATM   19  C   UNL     1     -10.820  12.764  65.883  1.00  0.00    -0.295 C  
HETATM   20  C   UNL     1     -11.454  14.091  66.233  1.00  0.00    -0.351 C  
HETATM   21  O   UNL     1     -11.037  14.865  67.079  1.00  0.00    -0.323 OA 
HETATM   22  O   UNL     1     -12.554  14.338  65.492  1.00  0.00    -0.458 OA 
ENDBRANCH  18  19
ENDBRANCH  17  18
ENDBRANCH  16  17
ENDBRANCH  14  15
ENDBRANCH  13  14
ENDBRANCH  11  12
ENDBRANCH  10  11
ENDBRANCH   8   9
ENDBRANCH   7   8
ENDBRANCH   5   6
ENDBRANCH   4   5
ENDBRANCH   2   3
TORSDOF 12
ENDMDL
MODEL      317
REMARK 921   NORMALIZED FREE ENERGY PREDICTED BY IDOCK:   -3.26 KCAL/MOL
REMARK 922        TOTAL FREE ENERGY PREDICTED BY IDOCK:   -8.06 KCAL/MOL
REMARK 923 INTER-LIGAND FREE ENERGY PREDICTED BY IDOCK:   -5.93 KCAL/MOL
REMARK 924 INTRA-LIGAND FREE ENERGY PREDICTED BY IDOCK:   -2.13 KCAL/MOL
REMARK 927      BINDING AFFINITY PREDICTED BY RF-SCORE:    0.00 PKD
ROOT
HETATM    1  C   UNL     1      -7.826  20.494  67.419  1.00  0.00    -0.355 C  
HETATM    2  C   UNL     1      -8.362  19.745  66.210  1.00  0.00    -0.383 C  
ENDROOT
BRANCH   2   3
HETATM    3  C   UNL     1      -9.866  19.717  66.187  1.00  0.00    -0.544 C  
HETATM    4  C   UNL     1     -10.625  18.613  66.060  1.00  0.00    -0.410 C  
BRANCH   4   5
HETATM    5  C   UNL     1     -10.078  17.220  65.956  1.00  0.00    -0.275 C  
BRANCH   5   6
HETATM    6  C   UNL     1     -10.815  16.369  64.958  1.00  0.00    -0.289 C  
HETATM    7  C   UNL     1     -11.087  15.065  65.109  1.00  0.00    -0.408 C  
BRANCH   7   8
HETATM    8  C   UNL     1     -10.787  14.311  66.368  1.00  0.00    -0.307 C  
BRANCH   8   9
HETATM    9  C   UNL     1     -12.017  14.061  67.187  1.00  0.00    -0.465 C  
HETATM   10  C   UNL     1     -12.065  13.376  68.345  1.00  0.00    -0.270 C  
BRANCH  10  11
HETATM   11  C   UNL     1     -10.908  12.712  69.042  1.00  0.00    -0.192 C  
BRANCH  11  12
HETATM   12  C   UNL     1     -10.744  11.227  68.808  1.00  0.00    -0.240 C  
HETATM   13  C   UNL     1      -9.617  10.502  68.672  1.00  0.00    -0.171 C  
BRANCH  13  14
HETATM   14  C   UNL     1      -8.224  11.049  68.638  1.00  0.00    -0.151 C  
BRANCH  14  15
HETATM   15  C   UNL     1      -7.897  11.802  67.382  1.00  0.00    -0.155 C  
HETATM   16  C   UNL     1      -7.222  12.963  67.382  1.00  0.00    -0.130 C  
BRANCH  16  17
HETATM   17  C   UNL     1      -6.801  13.637  68.655  1.00  0.00    -0.097 C  
BRANCH  17  18
HETATM   18  C   UNL     1      -7.246  15.086  68.748  1.00  0.00    -0.125 C  
BRANCH  18  19
HETATM   19  C   UNL     1      -8.729  15.150  69.101  1.00  0.00    -0.216 C  
HETATM   20  C   UNL     1      -9.227  16.575  69.152  1.00  0.00    -0.197 C  
HETATM   21  O   UNL     1      -8.542  17.565  68.952  1.00  0.00    -0.238 OA 
HETATM   22  O   UNL     1     -10.542  16.643  69.448  1.00  0.00    -0.312 OA 
ENDBRANCH  18  19
ENDBRANCH  17  18
ENDBRANCH  16  17
ENDBRANCH  14  15
ENDBRANCH  13  14
ENDBRANCH  11  12
ENDBRANCH  10  11
ENDBRANCH   8   9
ENDBRANCH   7   8
ENDBRANCH   5   6
ENDBRANCH   4   5
ENDBRANCH   2   3
TORSDOF 12
ENDMDL
MODEL      318
REMARK 921   NORMALIZED FREE ENERGY PREDICTED BY IDOCK:   -3.26 KCAL/MOL
REMARK 922        TOTAL FREE ENERGY PREDICTED BY IDOCK:   -8.05 KCAL/MOL
REMARK 923 INTER-LIGAND FREE ENERGY PREDICTED BY IDOCK:   -6.02 KCAL/MOL
REMARK 924 INTRA-LIGAND FREE ENERGY PREDICTED BY IDOCK:   -2.03 KCAL/MOL
REMARK 927      BINDING AFFINITY PREDICTED BY RF-SCORE:    0.00 PKD
ROOT
HETATM    1  C   UNL     1     -11.818  16.445  72.408  1.00  0.00    -0.548 C  
HETATM    2  C   UNL     1     -11.759  15.041  72.986  1.00  0.00    -0.321 C  
ENDROOT
BRANCH   2   3
HETATM    3  C   UNL     1     -13.111  14.382  73.002  1.00  0.00    -0.581 C  
HETATM    4  C   UNL     1     -13.826  14.038  71.914  1.00  0.00    -0.533 C  
BRANCH   4   5
HETATM    5  C   UNL     1     -13.359  14.232  70.502  1.00  0.00     0.058 C  
BRANCH   5   6
HETATM    6  C   UNL     1     -12.204  13.341  70.134  1.00  0.00    -0.376 C  
HETATM    7  C   UNL     1     -11.301  13.604  69.179  1.00  0.00    -0.335 C  
BRANCH   7   8
HETATM    8  C   UNL     1     -11.266  14.899  68.426  1.00  0.00    -0.304 C  
BRANCH   8   9
HETATM    9  C   UNL     1     -12.063  14.841  67.158  1.00  0.00    -0.121 C  
HETATM   10  C   UNL     1     -11.557  14.854  65.911  1.00  0.00    -0.228 C  
BRANCH  10  11
HETATM   11  C   UNL     1     -10.103  14.948  65.534  1.00  0.00    -0.400 C  
BRANCH  11  12
HETATM   12  C   UNL     1      -9.429  16.279  65.778  1.00  0.00    -0.229 C  
HETATM   13  C   UNL     1      -8.236  16.541  66.345  1.00  0.00    -0.364 C  
BRANCH  13  14
HETATM   14  C   UNL     1      -7.317  15.531  66.957  1.00  0.00    -0.172 C  
BRANCH  14  15
HETATM   15  C   UNL     1      -7.875  14.864  68.179  1.00  0.00    -0.122 C  
HETATM   16  C   UNL     1      -7.695  13.560  68.446  1.00  0.00    -0.135 C  
BRANCH  16  17
HETATM   17  C   UNL     1      -6.975  12.648  67.497  1.00  0.00    -0.150 C  
BRANCH  17  18
HETATM   18  C   UNL     1      -7.905  11.761  66.686  1.00  0.00    -0.043 C  
BRANCH  18  19
HETATM   19  C   UNL     1      -9.324  11.861  67.237  1.00  0.00    -0.177 C  
HETATM   20  C   UNL     1     -10.306  11.088  66.387  1.00  0.00    -0.250 C  
HETATM   21  O   UNL     1     -10.020  10.466  65.377  1.00  0.00    -0.261 OA 
HETATM   22  O   UNL     1     -11.562  11.156  66.875  1.00  0.00    -0.428 OA 
ENDBRANCH  18  19
ENDBRANCH  17  18
ENDBRANCH  16  17
ENDBRANCH  14  15
ENDBRANCH  13  14
ENDBRANCH  11  12
ENDBRANCH  10  11
ENDBRANCH   8   9
ENDBRANCH   7   8
ENDBRANCH   5   6
ENDBRANCH   4   5
ENDBRANCH   2   3
TORSDOF 12
ENDMDL
MODEL      319
REMARK 921   NORMALIZED FREE ENERGY PREDICTED BY IDOCK:   -3.25 KCAL/MOL
REMARK 922        TOTAL FREE ENERGY PREDICTED BY IDOCK:   -8.04 KCAL/MOL
REMARK 923 INTER-LIGAND FREE ENERGY PREDICTED BY IDOCK:   -6.10 KCAL/MOL
REMARK 924 INTRA-LIGAND FREE ENERGY PREDICTED BY IDOCK:   -1.94 KCAL/MOL
REMARK 927      BINDING AFFINITY PREDICTED BY RF-SCORE:    0.00 PKD
ROOT
HETATM    1  C   UNL     1     -10.538  18.681  67.627  1.00  0.00    -0.458 C  
HETATM    2  C   UNL     1      -9.330  17.820  67.295  1.00  0.00    -0.254 C  
ENDROOT
BRANCH   2   3
HETATM    3  C   UNL     1      -9.572  16.953  66.090  1.00  0.00    -0.280 C  
HETATM    4  C   UNL     1      -9.810  15.628  66.115  1.00  0.00    -0.340 C  
BRANCH   4   5
HETATM    5  C   UNL     1      -9.905  14.812  67.371  1.00  0.00    -0.222 C  
BRANCH   5   6
HETATM    6  C   UNL     1     -11.312  14.685  67.887  1.00  0.00    -0.332 C  
HETATM    7  C   UNL     1     -12.116  13.632  67.681  1.00  0.00    -0.328 C  
BRANCH   7   8
HETATM    8  C   UNL     1     -11.659  12.380  66.996  1.00  0.00    -0.434 C  
BRANCH   8   9
HETATM    9  C   UNL     1     -11.588  11.214  67.934  1.00  0.00    -0.328 C  
HETATM   10  C   UNL     1     -11.006  10.029  67.671  1.00  0.00    -0.297 C  
BRANCH  10  11
HETATM   11  C   UNL     1     -10.330   9.626  66.388  1.00  0.00    -0.246 C  
BRANCH  11  12
HETATM   12  C   UNL     1      -9.306   8.518  66.485  1.00  0.00    -0.260 C  
HETATM   13  C   UNL     1      -9.480   7.217  66.785  1.00  0.00    -0.214 C  
BRANCH  13  14
HETATM   14  C   UNL     1     -10.772   6.577  67.187  1.00  0.00    -0.438 C  
BRANCH  14  15
HETATM   15  C   UNL     1     -10.641   5.601  68.318  1.00  0.00    -0.253 C  
HETATM   16  C   UNL     1     -10.890   5.927  69.597  1.00  0.00    -0.444 C  
BRANCH  16  17
HETATM   17  C   UNL     1     -11.253   7.326  70.003  1.00  0.00    -0.234 C  
BRANCH  17  18
HETATM   18  C   UNL     1     -10.252   7.958  70.956  1.00  0.00    -0.217 C  
BRANCH  18  19
HETATM   19  C   UNL     1      -8.833   7.707  70.456  1.00  0.00    -0.149 C  
HETATM   20  C   UNL     1      -8.178   8.982  69.979  1.00  0.00    -0.127 C  
HETATM   21  O   UNL     1      -8.706  10.082  69.975  1.00  0.00    -0.191 OA 
HETATM   22  O   UNL     1      -6.916   8.774  69.549  1.00  0.00    -0.053 OA 
ENDBRANCH  18  19
ENDBRANCH  17  18
ENDBRANCH  16  17
ENDBRANCH  14  15
ENDBRANCH  13  14
ENDBRANCH  11  12
ENDBRANCH  10  11
ENDBRANCH   8   9
ENDBRANCH   7   8
ENDBRANCH   5   6
ENDBRANCH   4   5
ENDBRANCH   2   3
TORSDOF 12
ENDMDL
MODEL      320
REMARK 921   NORMALIZED FREE ENERGY PREDICTED BY IDOCK:   -3.25 KCAL/MOL
REMARK 922        TOTAL FREE ENERGY PREDICTED BY IDOCK:   -8.04 KCAL/MOL
REMARK 923 INTER-LIGAND FREE ENERGY PREDICTED BY IDOCK:   -6.30 KCAL/MOL
REMARK 924 INTRA-LIGAND FREE ENERGY PREDICTED BY IDOCK:   -1.74 KCAL/MOL
REMARK 927      BINDING AFFINITY PREDICTED BY RF-SCORE:    0.00 PKD
ROOT
HETATM    1  C   UNL     1      -9.379  10.335  62.866  1.00  0.00    -0.336 C  
HETATM    2  C   UNL     1     -10.527  11.186  63.387  1.00  0.00    -0.382 C  
ENDROOT
BRANCH   2   3
HETATM    3  C   UNL     1     -10.507  11.300  64.886  1.00  0.00    -0.375 C  
HETATM    4  C   UNL     1     -11.373  12.016  65.627  1.00  0.00    -0.381 C  
BRANCH   4   5
HETATM    5  C   UNL     1     -12.527  12.791  65.062  1.00  0.00    -0.572 C  
BRANCH   5   6
HETATM    6  C   UNL     1     -12.097  13.949  64.205  1.00  0.00    -0.464 C  
HETATM    7  C   UNL     1     -11.529  15.075  64.660  1.00  0.00    -0.382 C  
BRANCH   7   8
HETATM    8  C   UNL     1     -11.139  15.269  66.093  1.00  0.00    -0.280 C  
BRANCH   8   9
HETATM    9  C   UNL     1      -9.736  15.774  66.237  1.00  0.00    -0.328 C  
HETATM   10  C   UNL     1      -8.752  15.175  66.933  1.00  0.00    -0.289 C  
BRANCH  10  11
HETATM   11  C   UNL     1      -8.861  13.897  67.720  1.00  0.00    -0.189 C  
BRANCH  11  12
HETATM   12  C   UNL     1      -7.887  12.798  67.359  1.00  0.00    -0.172 C  
HETATM   13  C   UNL     1      -7.772  11.556  67.867  1.00  0.00    -0.120 C  
BRANCH  13  14
HETATM   14  C   UNL     1      -8.566  11.001  69.008  1.00  0.00    -0.076 C  
BRANCH  14  15
HETATM   15  C   UNL     1     -10.045  10.975  68.762  1.00  0.00    -0.214 C  
HETATM   16  C   UNL     1     -10.701   9.870  68.369  1.00  0.00    -0.271 C  
BRANCH  16  17
HETATM   17  C   UNL     1      -9.984   8.585  68.074  1.00  0.00    -0.221 C  
BRANCH  17  18
HETATM   18  C   UNL     1     -10.773   7.643  67.181  1.00  0.00    -0.361 C  
BRANCH  18  19
HETATM   19  C   UNL     1     -10.696   6.222  67.732  1.00  0.00    -0.383 C  
HETATM   20  C   UNL     1      -9.775   5.355  66.905  1.00  0.00    -0.153 C  
HETATM   21  O   UNL     1      -9.170   5.724  65.911  1.00  0.00    -0.161 OA 
HETATM   22  O   UNL     1      -9.687   4.100  67.392  1.00  0.00    -0.190 OA 
ENDBRANCH  18  19
ENDBRANCH  17  18
ENDBRANCH  16  17
ENDBRANCH  14  15
ENDBRANCH  13  14
ENDBRANCH  11  12
ENDBRANCH  10  11
ENDBRANCH   8   9
ENDBRANCH   7   8
ENDBRANCH   5   6
ENDBRANCH   4   5
ENDBRANCH   2   3
TORSDOF 12
ENDMDL
MODEL      321
REMARK 921   NORMALIZED FREE ENERGY PREDICTED BY IDOCK:   -3.24 KCAL/MOL
REMARK 922        TOTAL FREE ENERGY PREDICTED BY IDOCK:   -8.02 KCAL/MOL
REMARK 923 INTER-LIGAND FREE ENERGY PREDICTED BY IDOCK:   -6.16 KCAL/MOL
REMARK 924 INTRA-LIGAND FREE ENERGY PREDICTED BY IDOCK:   -1.85 KCAL/MOL
REMARK 927      BINDING AFFINITY PREDICTED BY RF-SCORE:    0.00 PKD
ROOT
HETATM    1  C   UNL     1      -8.179   2.332  69.159  1.00  0.00    -0.071 C  
HETATM    2  C   UNL     1      -8.130   3.684  68.466  1.00  0.00    -0.076 C  
ENDROOT
BRANCH   2   3
HETATM    3  C   UNL     1      -9.438   4.028  67.810  1.00  0.00    -0.228 C  
HETATM    4  C   UNL     1     -10.236   5.059  68.149  1.00  0.00    -0.141 C  
BRANCH   4   5
HETATM    5  C   UNL     1      -9.917   6.054  69.225  1.00  0.00    -0.207 C  
BRANCH   5   6
HETATM    6  C   UNL     1     -10.498   5.685  70.562  1.00  0.00    -0.347 C  
HETATM    7  C   UNL     1     -11.261   6.488  71.318  1.00  0.00    -0.338 C  
BRANCH   7   8
HETATM    8  C   UNL     1     -11.731   7.834  70.859  1.00  0.00    -0.281 C  
BRANCH   8   9
HETATM    9  C   UNL     1     -10.678   8.888  71.019  1.00  0.00    -0.315 C  
HETATM   10  C   UNL     1     -10.423   9.883  70.149  1.00  0.00    -0.339 C  
BRANCH  10  11
HETATM   11  C   UNL     1     -11.123  10.130  68.840  1.00  0.00    -0.251 C  
BRANCH  11  12
HETATM   12  C   UNL     1     -10.691   9.272  67.672  1.00  0.00    -0.276 C  
HETATM   13  C   UNL     1     -10.095   9.633  66.520  1.00  0.00    -0.314 C  
BRANCH  13  14
HETATM   14  C   UNL     1      -9.794  11.036  66.093  1.00  0.00    -0.268 C  
BRANCH  14  15
HETATM   15  C   UNL     1     -10.771  11.592  65.100  1.00  0.00    -0.351 C  
HETATM   16  C   UNL     1     -11.677  12.532  65.414  1.00  0.00    -0.444 C  
BRANCH  16  17
HETATM   17  C   UNL     1     -11.830  13.050  66.814  1.00  0.00    -0.451 C  
BRANCH  17  18
HETATM   18  C   UNL     1     -10.912  14.218  67.131  1.00  0.00    -0.305 C  
BRANCH  18  19
HETATM   19  C   UNL     1     -10.528  14.189  68.607  1.00  0.00    -0.250 C  
HETATM   20  C   UNL     1     -11.051  15.401  69.342  1.00  0.00    -0.282 C  
HETATM   21  O   UNL     1     -11.691  16.306  68.833  1.00  0.00    -0.313 OA 
HETATM   22  O   UNL     1     -10.730  15.377  70.652  1.00  0.00    -0.312 OA 
ENDBRANCH  18  19
ENDBRANCH  17  18
ENDBRANCH  16  17
ENDBRANCH  14  15
ENDBRANCH  13  14
ENDBRANCH  11  12
ENDBRANCH  10  11
ENDBRANCH   8   9
ENDBRANCH   7   8
ENDBRANCH   5   6
ENDBRANCH   4   5
ENDBRANCH   2   3
TORSDOF 12
ENDMDL
MODEL      322
REMARK 921   NORMALIZED FREE ENERGY PREDICTED BY IDOCK:   -3.23 KCAL/MOL
REMARK 922        TOTAL FREE ENERGY PREDICTED BY IDOCK:   -8.00 KCAL/MOL
REMARK 923 INTER-LIGAND FREE ENERGY PREDICTED BY IDOCK:   -5.90 KCAL/MOL
REMARK 924 INTRA-LIGAND FREE ENERGY PREDICTED BY IDOCK:   -2.11 KCAL/MOL
REMARK 927      BINDING AFFINITY PREDICTED BY RF-SCORE:    0.00 PKD
ROOT
HETATM    1  C   UNL     1     -10.424  11.035  64.204  1.00  0.00    -0.434 C  
HETATM    2  C   UNL     1      -9.362  10.538  65.172  1.00  0.00    -0.262 C  
ENDROOT
BRANCH   2   3
HETATM    3  C   UNL     1      -9.800   9.296  65.897  1.00  0.00    -0.335 C  
HETATM    4  C   UNL     1     -10.507   9.268  67.043  1.00  0.00    -0.303 C  
BRANCH   4   5
HETATM    5  C   UNL     1     -11.001  10.490  67.759  1.00  0.00    -0.372 C  
BRANCH   5   6
HETATM    6  C   UNL     1     -10.498  10.590  69.173  1.00  0.00    -0.250 C  
HETATM    7  C   UNL     1     -11.268  10.548  70.270  1.00  0.00    -0.391 C  
BRANCH   7   8
HETATM    8  C   UNL     1     -12.740  10.274  70.222  1.00  0.00    -0.167 C  
BRANCH   8   9
HETATM    9  C   UNL     1     -13.327  10.084  71.587  1.00  0.00    -0.468 C  
HETATM   10  C   UNL     1     -13.005   9.104  72.451  1.00  0.00    -0.468 C  
BRANCH  10  11
HETATM   11  C   UNL     1     -12.013   7.996  72.221  1.00  0.00    -0.412 C  
BRANCH  11  12
HETATM   12  C   UNL     1     -12.301   7.062  71.068  1.00  0.00    -0.402 C  
HETATM   13  C   UNL     1     -11.478   6.202  70.437  1.00  0.00    -0.342 C  
BRANCH  13  14
HETATM   14  C   UNL     1     -10.014   6.041  70.702  1.00  0.00    -0.232 C  
BRANCH  14  15
HETATM   15  C   UNL     1      -9.171   7.157  70.159  1.00  0.00    -0.155 C  
HETATM   16  C   UNL     1      -8.480   7.058  69.012  1.00  0.00    -0.129 C  
BRANCH  16  17
HETATM   17  C   UNL     1      -8.441   5.787  68.215  1.00  0.00    -0.113 C  
BRANCH  17  18
HETATM   18  C   UNL     1      -9.573   5.669  67.210  1.00  0.00    -0.125 C  
BRANCH  18  19
HETATM   19  C   UNL     1      -9.007   5.644  65.793  1.00  0.00    -0.153 C  
HETATM   20  C   UNL     1      -8.931   4.237  65.249  1.00  0.00    -0.137 C  
HETATM   21  O   UNL     1      -9.264   3.232  65.856  1.00  0.00    -0.151 OA 
HETATM   22  O   UNL     1      -8.445   4.205  63.991  1.00  0.00    -0.096 OA 
ENDBRANCH  18  19
ENDBRANCH  17  18
ENDBRANCH  16  17
ENDBRANCH  14  15
ENDBRANCH  13  14
ENDBRANCH  11  12
ENDBRANCH  10  11
ENDBRANCH   8   9
ENDBRANCH   7   8
ENDBRANCH   5   6
ENDBRANCH   4   5
ENDBRANCH   2   3
TORSDOF 12
ENDMDL
MODEL      323
REMARK 921   NORMALIZED FREE ENERGY PREDICTED BY IDOCK:   -3.23 KCAL/MOL
REMARK 922        TOTAL FREE ENERGY PREDICTED BY IDOCK:   -8.00 KCAL/MOL
REMARK 923 INTER-LIGAND FREE ENERGY PREDICTED BY IDOCK:   -6.27 KCAL/MOL
REMARK 924 INTRA-LIGAND FREE ENERGY PREDICTED BY IDOCK:   -1.72 KCAL/MOL
REMARK 927      BINDING AFFINITY PREDICTED BY RF-SCORE:    0.00 PKD
ROOT
HETATM    1  C   UNL     1      -7.876  10.798  67.154  1.00  0.00    -0.124 C  
HETATM    2  C   UNL     1      -7.587   9.307  67.082  1.00  0.00    -0.091 C  
ENDROOT
BRANCH   2   3
HETATM    3  C   UNL     1      -8.689   8.491  67.701  1.00  0.00    -0.136 C  
HETATM    4  C   UNL     1      -8.790   8.178  69.007  1.00  0.00    -0.144 C  
BRANCH   4   5
HETATM    5  C   UNL     1      -7.825   8.633  70.061  1.00  0.00    -0.103 C  
BRANCH   5   6
HETATM    6  C   UNL     1      -7.437   7.539  71.017  1.00  0.00    -0.072 C  
HETATM    7  C   UNL     1      -8.008   7.320  72.210  1.00  0.00    -0.103 C  
BRANCH   7   8
HETATM    8  C   UNL     1      -9.204   8.083  72.693  1.00  0.00    -0.304 C  
BRANCH   8   9
HETATM    9  C   UNL     1     -10.109   7.242  73.540  1.00  0.00    -0.387 C  
HETATM   10  C   UNL     1     -10.719   6.107  73.152  1.00  0.00    -0.283 C  
BRANCH  10  11
HETATM   11  C   UNL     1     -10.634   5.463  71.794  1.00  0.00    -0.286 C  
BRANCH  11  12
HETATM   12  C   UNL     1     -11.250   6.228  70.645  1.00  0.00    -0.401 C  
HETATM   13  C   UNL     1     -12.349   7.008  70.629  1.00  0.00    -0.239 C  
BRANCH  13  14
HETATM   14  C   UNL     1     -13.283   7.225  71.777  1.00  0.00    -0.368 C  
BRANCH  14  15
HETATM   15  C   UNL     1     -14.117   8.466  71.656  1.00  0.00    -0.487 C  
HETATM   16  C   UNL     1     -13.586   9.699  71.601  1.00  0.00    -0.402 C  
BRANCH  16  17
HETATM   17  C   UNL     1     -12.110   9.935  71.730  1.00  0.00    -0.382 C  
BRANCH  17  18
HETATM   18  C   UNL     1     -11.431  10.258  70.410  1.00  0.00    -0.415 C  
BRANCH  18  19
HETATM   19  C   UNL     1     -11.833  11.656  69.950  1.00  0.00    -0.434 C  
HETATM   20  C   UNL     1     -11.786  11.782  68.446  1.00  0.00    -0.325 C  
HETATM   21  O   UNL     1     -11.458  10.892  67.678  1.00  0.00    -0.468 OA 
HETATM   22  O   UNL     1     -12.155  13.011  68.028  1.00  0.00    -0.318 OA 
ENDBRANCH  18  19
ENDBRANCH  17  18
ENDBRANCH  16  17
ENDBRANCH  14  15
ENDBRANCH  13  14
ENDBRANCH  11  12
ENDBRANCH  10  11
ENDBRANCH   8   9
ENDBRANCH   7   8
ENDBRANCH   5   6
ENDBRANCH   4   5
ENDBRANCH   2   3
TORSDOF 12
ENDMDL
MODEL      324
REMARK 921   NORMALIZED FREE ENERGY PREDICTED BY IDOCK:   -3.22 KCAL/MOL
REMARK 922        TOTAL FREE ENERGY PREDICTED BY IDOCK:   -7.99 KCAL/MOL
REMARK 923 INTER-LIGAND FREE ENERGY PREDICTED BY IDOCK:   -6.09 KCAL/MOL
REMARK 924 INTRA-LIGAND FREE ENERGY PREDICTED BY IDOCK:   -1.90 KCAL/MOL
REMARK 927      BINDING AFFINITY PREDICTED BY RF-SCORE:    0.00 PKD
ROOT
HETATM    1  C   UNL     1     -14.411   7.490  71.809  1.00  0.00    -0.588 C  
HETATM    2  C   UNL     1     -12.978   7.168  71.415  1.00  0.00    -0.419 C  
ENDROOT
BRANCH   2   3
HETATM    3  C   UNL     1     -12.055   8.333  71.646  1.00  0.00    -0.346 C  
HETATM    4  C   UNL     1     -11.011   8.346  72.496  1.00  0.00    -0.388 C  
BRANCH   4   5
HETATM    5  C   UNL     1     -10.584   7.171  73.326  1.00  0.00    -0.405 C  
BRANCH   5   6
HETATM    6  C   UNL     1      -9.174   7.289  73.835  1.00  0.00    -0.290 C  
HETATM    7  C   UNL     1      -8.081   6.865  73.184  1.00  0.00    -0.116 C  
BRANCH   7   8
HETATM    8  C   UNL     1      -8.125   6.316  71.791  1.00  0.00    -0.103 C  
BRANCH   8   9
HETATM    9  C   UNL     1      -8.797   4.977  71.729  1.00  0.00    -0.144 C  
HETATM   10  C   UNL     1      -9.736   4.610  70.838  1.00  0.00    -0.262 C  
BRANCH  10  11
HETATM   11  C   UNL     1     -10.315   5.463  69.742  1.00  0.00    -0.375 C  
BRANCH  11  12
HETATM   12  C   UNL     1     -10.157   4.946  68.330  1.00  0.00    -0.148 C  
HETATM   13  C   UNL     1     -10.338   5.586  67.159  1.00  0.00    -0.301 C  
BRANCH  13  14
HETATM   14  C   UNL     1     -10.840   6.986  66.997  1.00  0.00    -0.413 C  
BRANCH  14  15
HETATM   15  C   UNL     1      -9.767   7.983  66.674  1.00  0.00    -0.313 C  
HETATM   16  C   UNL     1      -9.713   9.204  67.232  1.00  0.00    -0.225 C  
BRANCH  16  17
HETATM   17  C   UNL     1     -10.771   9.693  68.176  1.00  0.00    -0.266 C  
BRANCH  17  18
HETATM   18  C   UNL     1     -10.292  10.797  69.103  1.00  0.00    -0.238 C  
BRANCH  18  19
HETATM   19  C   UNL     1      -8.996  11.396  68.566  1.00  0.00    -0.158 C  
HETATM   20  C   UNL     1      -9.255  12.635  67.742  1.00  0.00    -0.195 C  
HETATM   21  O   UNL     1     -10.358  13.106  67.512  1.00  0.00    -0.222 OA 
HETATM   22  O   UNL     1      -8.114  13.182  67.275  1.00  0.00    -0.174 OA 
ENDBRANCH  18  19
ENDBRANCH  17  18
ENDBRANCH  16  17
ENDBRANCH  14  15
ENDBRANCH  13  14
ENDBRANCH  11  12
ENDBRANCH  10  11
ENDBRANCH   8   9
ENDBRANCH   7   8
ENDBRANCH   5   6
ENDBRANCH   4   5
ENDBRANCH   2   3
TORSDOF 12
ENDMDL
MODEL      325
REMARK 921   NORMALIZED FREE ENERGY PREDICTED BY IDOCK:   -3.21 KCAL/MOL
REMARK 922        TOTAL FREE ENERGY PREDICTED BY IDOCK:   -7.97 KCAL/MOL
REMARK 923 INTER-LIGAND FREE ENERGY PREDICTED BY IDOCK:   -7.17 KCAL/MOL
REMARK 924 INTRA-LIGAND FREE ENERGY PREDICTED BY IDOCK:   -0.80 KCAL/MOL
REMARK 927      BINDING AFFINITY PREDICTED BY RF-SCORE:    0.00 PKD
ROOT
HETATM    1  C   UNL     1      -8.183   5.660  72.418  1.00  0.00    -0.111 C  
HETATM    2  C   UNL     1      -8.692   5.098  71.100  1.00  0.00    -0.139 C  
ENDROOT
BRANCH   2   3
HETATM    3  C   UNL     1     -10.190   4.966  71.086  1.00  0.00    -0.261 C  
HETATM    4  C   UNL     1     -11.036   5.729  70.368  1.00  0.00    -0.333 C  
BRANCH   4   5
HETATM    5  C   UNL     1     -10.602   6.818  69.432  1.00  0.00    -0.265 C  
BRANCH   5   6
HETATM    6  C   UNL     1     -11.032   6.583  68.011  1.00  0.00    -0.368 C  
HETATM    7  C   UNL     1     -10.666   7.331  66.961  1.00  0.00    -0.406 C  
BRANCH   7   8
HETATM    8  C   UNL     1      -9.670   8.446  67.063  1.00  0.00    -0.268 C  
BRANCH   8   9
HETATM    9  C   UNL     1     -10.324   9.769  67.322  1.00  0.00    -0.308 C  
HETATM   10  C   UNL     1     -10.439  10.776  66.436  1.00  0.00    -0.293 C  
BRANCH  10  11
HETATM   11  C   UNL     1      -9.923  10.790  65.022  1.00  0.00    -0.361 C  
BRANCH  11  12
HETATM   12  C   UNL     1     -10.900  11.224  63.953  1.00  0.00    -0.427 C  
HETATM   13  C   UNL     1     -11.551  12.395  63.814  1.00  0.00    -0.553 C  
BRANCH  13  14
HETATM   14  C   UNL     1     -11.508  13.539  64.779  1.00  0.00    -0.365 C  
BRANCH  14  15
HETATM   15  C   UNL     1     -12.023  14.829  64.214  1.00  0.00    -0.387 C  
HETATM   16  C   UNL     1     -11.526  16.028  64.562  1.00  0.00    -0.274 C  
BRANCH  16  17
HETATM   17  C   UNL     1     -10.456  16.171  65.605  1.00  0.00    -0.402 C  
BRANCH  17  18
HETATM   18  C   UNL     1     -10.095  17.616  65.906  1.00  0.00    -0.192 C  
BRANCH  18  19
HETATM   19  C   UNL     1     -10.433  17.941  67.358  1.00  0.00    -0.390 C  
HETATM   20  C   UNL     1      -9.685  19.160  67.843  1.00  0.00    -0.333 C  
HETATM   21  O   UNL     1      -8.897  19.811  67.176  1.00  0.00    -0.299 OA 
HETATM   22  O   UNL     1      -9.989  19.466  69.122  1.00  0.00    -0.435 OA 
ENDBRANCH  18  19
ENDBRANCH  17  18
ENDBRANCH  16  17
ENDBRANCH  14  15
ENDBRANCH  13  14
ENDBRANCH  11  12
ENDBRANCH  10  11
ENDBRANCH   8   9
ENDBRANCH   7   8
ENDBRANCH   5   6
ENDBRANCH   4   5
ENDBRANCH   2   3
TORSDOF 12
ENDMDL
MODEL      326
REMARK 921   NORMALIZED FREE ENERGY PREDICTED BY IDOCK:   -3.19 KCAL/MOL
REMARK 922        TOTAL FREE ENERGY PREDICTED BY IDOCK:   -7.93 KCAL/MOL
REMARK 923 INTER-LIGAND FREE ENERGY PREDICTED BY IDOCK:   -5.85 KCAL/MOL
REMARK 924 INTRA-LIGAND FREE ENERGY PREDICTED BY IDOCK:   -2.08 KCAL/MOL
REMARK 927      BINDING AFFINITY PREDICTED BY RF-SCORE:    0.00 PKD
ROOT
HETATM    1  C   UNL     1     -11.339  12.662  67.337  1.00  0.00    -0.367 C  
HETATM    2  C   UNL     1     -11.877  11.982  68.586  1.00  0.00    -0.366 C  
ENDROOT
BRANCH   2   3
HETATM    3  C   UNL     1     -11.182  10.676  68.859  1.00  0.00    -0.333 C  
HETATM    4  C   UNL     1     -11.188  10.018  70.033  1.00  0.00    -0.345 C  
BRANCH   4   5
HETATM    5  C   UNL     1     -11.929  10.478  71.254  1.00  0.00    -0.386 C  
BRANCH   5   6
HETATM    6  C   UNL     1     -13.380  10.082  71.249  1.00  0.00    -0.410 C  
HETATM    7  C   UNL     1     -13.864   8.922  71.716  1.00  0.00    -0.465 C  
BRANCH   7   8
HETATM    8  C   UNL     1     -13.013   7.909  72.420  1.00  0.00    -0.030 C  
BRANCH   8   9
HETATM    9  C   UNL     1     -12.539   6.827  71.498  1.00  0.00    -0.371 C  
HETATM   10  C   UNL     1     -11.447   6.062  71.680  1.00  0.00    -0.293 C  
BRANCH  10  11
HETATM   11  C   UNL     1     -10.476   6.144  72.827  1.00  0.00    -0.240 C  
BRANCH  11  12
HETATM   12  C   UNL     1     -10.098   7.532  73.291  1.00  0.00    -0.386 C  
HETATM   13  C   UNL     1      -9.287   8.437  72.710  1.00  0.00    -0.312 C  
BRANCH  13  14
HETATM   14  C   UNL     1      -8.483   8.220  71.466  1.00  0.00    -0.179 C  
BRANCH  14  15
HETATM   15  C   UNL     1      -7.368   7.230  71.628  1.00  0.00    -0.080 C  
HETATM   16  C   UNL     1      -7.064   6.314  70.694  1.00  0.00    -0.069 C  
BRANCH  16  17
HETATM   17  C   UNL     1      -7.869   6.164  69.436  1.00  0.00    -0.100 C  
BRANCH  17  18
HETATM   18  C   UNL     1      -8.988   5.144  69.552  1.00  0.00    -0.128 C  
BRANCH  18  19
HETATM   19  C   UNL     1      -9.440   4.711  68.161  1.00  0.00    -0.195 C  
HETATM   20  C   UNL     1     -10.511   5.626  67.614  1.00  0.00    -0.219 C  
HETATM   21  O   UNL     1     -10.978   6.588  68.202  1.00  0.00    -0.280 OA 
HETATM   22  O   UNL     1     -10.907   5.261  66.377  1.00  0.00    -0.292 OA 
ENDBRANCH  18  19
ENDBRANCH  17  18
ENDBRANCH  16  17
ENDBRANCH  14  15
ENDBRANCH  13  14
ENDBRANCH  11  12
ENDBRANCH  10  11
ENDBRANCH   8   9
ENDBRANCH   7   8
ENDBRANCH   5   6
ENDBRANCH   4   5
ENDBRANCH   2   3
TORSDOF 12
ENDMDL
MODEL      327
REMARK 921   NORMALIZED FREE ENERGY PREDICTED BY IDOCK:   -3.19 KCAL/MOL
REMARK 922        TOTAL FREE ENERGY PREDICTED BY IDOCK:   -7.93 KCAL/MOL
REMARK 923 INTER-LIGAND FREE ENERGY PREDICTED BY IDOCK:   -6.24 KCAL/MOL
REMARK 924 INTRA-LIGAND FREE ENERGY PREDICTED BY IDOCK:   -1.69 KCAL/MOL
REMARK 927      BINDING AFFINITY PREDICTED BY RF-SCORE:    0.00 PKD
ROOT
HETATM    1  C   UNL     1      -9.628   4.617  66.325  1.00  0.00    -0.187 C  
HETATM    2  C   UNL     1      -8.649   4.833  67.468  1.00  0.00    -0.104 C  
ENDROOT
BRANCH   2   3
HETATM    3  C   UNL     1      -8.863   6.156  68.149  1.00  0.00    -0.112 C  
HETATM    4  C   UNL     1      -9.734   6.389  69.149  1.00  0.00    -0.148 C  
BRANCH   4   5
HETATM    5  C   UNL     1     -10.610   5.339  69.767  1.00  0.00    -0.283 C  
BRANCH   5   6
HETATM    6  C   UNL     1      -9.882   4.468  70.754  1.00  0.00    -0.280 C  
HETATM    7  C   UNL     1      -9.981   4.566  72.087  1.00  0.00    -0.246 C  
BRANCH   7   8
HETATM    8  C   UNL     1     -10.937   5.497  72.767  1.00  0.00    -0.324 C  
BRANCH   8   9
HETATM    9  C   UNL     1     -10.348   6.858  72.983  1.00  0.00    -0.269 C  
HETATM   10  C   UNL     1     -10.948   8.028  72.698  1.00  0.00    -0.448 C  
BRANCH  10  11
HETATM   11  C   UNL     1     -12.314   8.212  72.092  1.00  0.00    -0.383 C  
BRANCH  11  12
HETATM   12  C   UNL     1     -12.957   9.567  72.279  1.00  0.00    -0.466 C  
HETATM   13  C   UNL     1     -13.152  10.553  71.382  1.00  0.00    -0.509 C  
BRANCH  13  14
HETATM   14  C   UNL     1     -12.675  10.550  69.963  1.00  0.00    -0.125 C  
BRANCH  14  15
HETATM   15  C   UNL     1     -11.492  11.440  69.718  1.00  0.00    -0.376 C  
HETATM   16  C   UNL     1     -10.600  11.215  68.740  1.00  0.00    -0.233 C  
BRANCH  16  17
HETATM   17  C   UNL     1     -10.680  10.006  67.855  1.00  0.00    -0.322 C  
BRANCH  17  18
HETATM   18  C   UNL     1      -9.560   9.930  66.832  1.00  0.00    -0.225 C  
BRANCH  18  19
HETATM   19  C   UNL     1     -10.145   9.934  65.423  1.00  0.00    -0.270 C  
HETATM   20  C   UNL     1     -10.538  11.326  64.988  1.00  0.00    -0.289 C  
HETATM   21  O   UNL     1     -10.421  12.333  65.669  1.00  0.00    -0.248 OA 
HETATM   22  O   UNL     1     -11.043  11.343  63.737  1.00  0.00    -0.392 OA 
ENDBRANCH  18  19
ENDBRANCH  17  18
ENDBRANCH  16  17
ENDBRANCH  14  15
ENDBRANCH  13  14
ENDBRANCH  11  12
ENDBRANCH  10  11
ENDBRANCH   8   9
ENDBRANCH   7   8
ENDBRANCH   5   6
ENDBRANCH   4   5
ENDBRANCH   2   3
TORSDOF 12
ENDMDL
MODEL      328
REMARK 921   NORMALIZED FREE ENERGY PREDICTED BY IDOCK:   -3.17 KCAL/MOL
REMARK 922        TOTAL FREE ENERGY PREDICTED BY IDOCK:   -7.91 KCAL/MOL
REMARK 923 INTER-LIGAND FREE ENERGY PREDICTED BY IDOCK:   -6.39 KCAL/MOL
REMARK 924 INTRA-LIGAND FREE ENERGY PREDICTED BY IDOCK:   -1.52 KCAL/MOL
REMARK 927      BINDING AFFINITY PREDICTED BY RF-SCORE:    0.00 PKD
ROOT
HETATM    1  C   UNL     1      -8.756   2.781  69.766  1.00  0.00    -0.130 C  
HETATM    2  C   UNL     1      -9.639   3.523  70.757  1.00  0.00    -0.246 C  
ENDROOT
BRANCH   2   3
HETATM    3  C   UNL     1      -8.987   4.781  71.259  1.00  0.00    -0.162 C  
HETATM    4  C   UNL     1      -9.500   6.022  71.156  1.00  0.00    -0.182 C  
BRANCH   4   5
HETATM    5  C   UNL     1     -10.835   6.335  70.548  1.00  0.00    -0.348 C  
BRANCH   5   6
HETATM    6  C   UNL     1     -10.793   6.431  69.048  1.00  0.00    -0.385 C  
HETATM    7  C   UNL     1     -10.575   7.556  68.353  1.00  0.00    -0.177 C  
BRANCH   7   8
HETATM    8  C   UNL     1     -10.224   8.860  69.003  1.00  0.00    -0.217 C  
BRANCH   8   9
HETATM    9  C   UNL     1      -8.743   9.045  69.141  1.00  0.00    -0.135 C  
HETATM   10  C   UNL     1      -7.953   9.719  68.284  1.00  0.00    -0.096 C  
BRANCH  10  11
HETATM   11  C   UNL     1      -8.384  10.403  67.015  1.00  0.00    -0.127 C  
BRANCH  11  12
HETATM   12  C   UNL     1      -8.235  11.907  66.976  1.00  0.00    -0.170 C  
HETATM   13  C   UNL     1      -8.965  12.855  67.593  1.00  0.00    -0.192 C  
BRANCH  13  14
HETATM   14  C   UNL     1     -10.188  12.615  68.422  1.00  0.00    -0.233 C  
BRANCH  14  15
HETATM   15  C   UNL     1     -11.446  13.172  67.824  1.00  0.00    -0.352 C  
HETATM   16  C   UNL     1     -12.069  14.257  68.313  1.00  0.00    -0.278 C  
BRANCH  16  17
HETATM   17  C   UNL     1     -11.588  14.959  69.549  1.00  0.00    -0.333 C  
BRANCH  17  18
HETATM   18  C   UNL     1     -12.657  15.101  70.619  1.00  0.00    -0.450 C  
BRANCH  18  19
HETATM   19  C   UNL     1     -12.002  15.336  71.977  1.00  0.00    -0.488 C  
HETATM   20  C   UNL     1     -12.800  14.706  73.094  1.00  0.00    -0.481 C  
HETATM   21  O   UNL     1     -13.845  14.093  72.950  1.00  0.00    -0.639 OA 
HETATM   22  O   UNL     1     -12.221  14.894  74.299  1.00  0.00    -0.568 OA 
ENDBRANCH  18  19
ENDBRANCH  17  18
ENDBRANCH  16  17
ENDBRANCH  14  15
ENDBRANCH  13  14
ENDBRANCH  11  12
ENDBRANCH  10  11
ENDBRANCH   8   9
ENDBRANCH   7   8
ENDBRANCH   5   6
ENDBRANCH   4   5
ENDBRANCH   2   3
TORSDOF 12
ENDMDL
MODEL      329
REMARK 921   NORMALIZED FREE ENERGY PREDICTED BY IDOCK:   -3.17 KCAL/MOL
REMARK 922        TOTAL FREE ENERGY PREDICTED BY IDOCK:   -7.90 KCAL/MOL
REMARK 923 INTER-LIGAND FREE ENERGY PREDICTED BY IDOCK:   -5.48 KCAL/MOL
REMARK 924 INTRA-LIGAND FREE ENERGY PREDICTED BY IDOCK:   -2.41 KCAL/MOL
REMARK 927      BINDING AFFINITY PREDICTED BY RF-SCORE:    0.00 PKD
ROOT
HETATM    1  C   UNL     1      -8.285   7.171  68.411  1.00  0.00    -0.125 C  
HETATM    2  C   UNL     1      -8.115   8.219  69.499  1.00  0.00    -0.114 C  
ENDROOT
BRANCH   2   3
HETATM    3  C   UNL     1      -6.799   8.080  70.212  1.00  0.00    -0.037 C  
HETATM    4  C   UNL     1      -6.633   7.612  71.464  1.00  0.00    -0.045 C  
BRANCH   4   5
HETATM    5  C   UNL     1      -7.750   7.117  72.334  1.00  0.00    -0.094 C  
BRANCH   5   6
HETATM    6  C   UNL     1      -8.579   8.228  72.919  1.00  0.00    -0.276 C  
HETATM    7  C   UNL     1      -9.914   8.214  73.035  1.00  0.00    -0.303 C  
BRANCH   7   8
HETATM    8  C   UNL     1     -10.749   7.016  72.696  1.00  0.00    -0.291 C  
BRANCH   8   9
HETATM    9  C   UNL     1     -11.153   6.996  71.253  1.00  0.00    -0.282 C  
HETATM   10  C   UNL     1     -12.408   7.135  70.786  1.00  0.00    -0.273 C  
BRANCH  10  11
HETATM   11  C   UNL     1     -13.655   7.319  71.608  1.00  0.00    -0.435 C  
BRANCH  11  12
HETATM   12  C   UNL     1     -13.772   8.617  72.374  1.00  0.00    -0.410 C  
HETATM   13  C   UNL     1     -13.518   9.876  71.967  1.00  0.00    -0.478 C  
BRANCH  13  14
HETATM   14  C   UNL     1     -12.960  10.268  70.635  1.00  0.00    -0.338 C  
BRANCH  14  15
HETATM   15  C   UNL     1     -11.526  10.705  70.681  1.00  0.00    -0.374 C  
HETATM   16  C   UNL     1     -10.751  10.781  69.587  1.00  0.00    -0.261 C  
BRANCH  16  17
HETATM   17  C   UNL     1     -11.245  10.363  68.233  1.00  0.00    -0.330 C  
BRANCH  17  18
HETATM   18  C   UNL     1     -10.492  11.015  67.086  1.00  0.00    -0.274 C  
BRANCH  18  19
HETATM   19  C   UNL     1      -9.150  10.317  66.887  1.00  0.00    -0.159 C  
HETATM   20  C   UNL     1      -8.912   9.974  65.435  1.00  0.00    -0.180 C  
HETATM   21  O   UNL     1      -9.689  10.206  64.523  1.00  0.00    -0.302 OA 
HETATM   22  O   UNL     1      -7.720   9.370  65.245  1.00  0.00    -0.104 OA 
ENDBRANCH  18  19
ENDBRANCH  17  18
ENDBRANCH  16  17
ENDBRANCH  14  15
ENDBRANCH  13  14
ENDBRANCH  11  12
ENDBRANCH  10  11
ENDBRANCH   8   9
ENDBRANCH   7   8
ENDBRANCH   5   6
ENDBRANCH   4   5
ENDBRANCH   2   3
TORSDOF 12
ENDMDL
MODEL      330
REMARK 921   NORMALIZED FREE ENERGY PREDICTED BY IDOCK:   -3.14 KCAL/MOL
REMARK 922        TOTAL FREE ENERGY PREDICTED BY IDOCK:   -7.85 KCAL/MOL
REMARK 923 INTER-LIGAND FREE ENERGY PREDICTED BY IDOCK:   -5.64 KCAL/MOL
REMARK 924 INTRA-LIGAND FREE ENERGY PREDICTED BY IDOCK:   -2.20 KCAL/MOL
REMARK 927      BINDING AFFINITY PREDICTED BY RF-SCORE:    0.00 PKD
ROOT
HETATM    1  C   UNL     1     -11.319  14.840  66.350  1.00  0.00    -0.339 C  
HETATM    2  C   UNL     1     -12.202  13.921  65.520  1.00  0.00    -0.467 C  
ENDROOT
BRANCH   2   3
HETATM    3  C   UNL     1     -11.426  13.222  64.438  1.00  0.00    -0.416 C  
HETATM    4  C   UNL     1     -10.899  11.986  64.528  1.00  0.00    -0.363 C  
BRANCH   4   5
HETATM    5  C   UNL     1     -11.038  11.095  65.727  1.00  0.00    -0.084 C  
BRANCH   5   6
HETATM    6  C   UNL     1     -10.109  11.466  66.850  1.00  0.00    -0.245 C  
HETATM    7  C   UNL     1     -10.358  11.270  68.153  1.00  0.00    -0.205 C  
BRANCH   7   8
HETATM    8  C   UNL     1     -11.566  10.536  68.650  1.00  0.00    -0.241 C  
BRANCH   8   9
HETATM    9  C   UNL     1     -11.889  10.872  70.074  1.00  0.00    -0.428 C  
HETATM   10  C   UNL     1     -11.552  10.139  71.151  1.00  0.00    -0.430 C  
BRANCH  10  11
HETATM   11  C   UNL     1     -10.805   8.832  71.147  1.00  0.00    -0.335 C  
BRANCH  11  12
HETATM   12  C   UNL     1     -11.643   7.577  71.234  1.00  0.00    -0.305 C  
HETATM   13  C   UNL     1     -11.691   6.521  70.400  1.00  0.00    -0.439 C  
BRANCH  13  14
HETATM   14  C   UNL     1     -10.952   6.396  69.105  1.00  0.00    -0.416 C  
BRANCH  14  15
HETATM   15  C   UNL     1      -9.798   5.439  69.153  1.00  0.00    -0.242 C  
HETATM   16  C   UNL     1      -8.521   5.840  69.265  1.00  0.00    -0.108 C  
BRANCH  16  17
HETATM   17  C   UNL     1      -8.143   7.293  69.280  1.00  0.00    -0.124 C  
BRANCH  17  18
HETATM   18  C   UNL     1      -7.732   7.825  67.918  1.00  0.00    -0.122 C  
BRANCH  18  19
HETATM   19  C   UNL     1      -7.164   9.234  68.063  1.00  0.00    -0.079 C  
HETATM   20  C   UNL     1      -6.900   9.868  66.718  1.00  0.00    -0.084 C  
HETATM   21  O   UNL     1      -7.099   9.333  65.640  1.00  0.00    -0.081 OA 
HETATM   22  O   UNL     1      -6.412  11.121  66.835  1.00  0.00    -0.094 OA 
ENDBRANCH  18  19
ENDBRANCH  17  18
ENDBRANCH  16  17
ENDBRANCH  14  15
ENDBRANCH  13  14
ENDBRANCH  11  12
ENDBRANCH  10  11
ENDBRANCH   8   9
ENDBRANCH   7   8
ENDBRANCH   5   6
ENDBRANCH   4   5
ENDBRANCH   2   3
TORSDOF 12
ENDMDL
MODEL      331
REMARK 921   NORMALIZED FREE ENERGY PREDICTED BY IDOCK:   -3.14 KCAL/MOL
REMARK 922        TOTAL FREE ENERGY PREDICTED BY IDOCK:   -7.85 KCAL/MOL
REMARK 923 INTER-LIGAND FREE ENERGY PREDICTED BY IDOCK:   -6.60 KCAL/MOL
REMARK 924 INTRA-LIGAND FREE ENERGY PREDICTED BY IDOCK:   -1.24 KCAL/MOL
REMARK 927      BINDING AFFINITY PREDICTED BY RF-SCORE:    0.00 PKD
ROOT
HETATM    1  C   UNL     1      -9.361   4.323  62.476  1.00  0.00    -0.123 C  
HETATM    2  C   UNL     1      -8.300   4.219  63.561  1.00  0.00    -0.100 C  
ENDROOT
BRANCH   2   3
HETATM    3  C   UNL     1      -7.919   5.569  64.105  1.00  0.00    -0.120 C  
HETATM    4  C   UNL     1      -8.142   5.996  65.362  1.00  0.00    -0.132 C  
BRANCH   4   5
HETATM    5  C   UNL     1      -8.783   5.165  66.434  1.00  0.00    -0.113 C  
BRANCH   5   6
HETATM    6  C   UNL     1     -10.285   5.235  66.416  1.00  0.00    -0.289 C  
HETATM    7  C   UNL     1     -11.025   6.092  67.134  1.00  0.00    -0.420 C  
BRANCH   7   8
HETATM    8  C   UNL     1     -10.427   7.184  67.968  1.00  0.00    -0.251 C  
BRANCH   8   9
HETATM    9  C   UNL     1     -10.496   8.519  67.290  1.00  0.00    -0.366 C  
HETATM   10  C   UNL     1     -10.052   9.683  67.800  1.00  0.00    -0.232 C  
BRANCH  10  11
HETATM   11  C   UNL     1      -9.419   9.887  69.150  1.00  0.00    -0.201 C  
BRANCH  11  12
HETATM   12  C   UNL     1     -10.333   9.767  70.348  1.00  0.00    -0.354 C  
HETATM   13  C   UNL     1     -11.471  10.430  70.626  1.00  0.00    -0.438 C  
BRANCH  13  14
HETATM   14  C   UNL     1     -12.058  11.539  69.809  1.00  0.00    -0.374 C  
BRANCH  14  15
HETATM   15  C   UNL     1     -12.194  12.835  70.553  1.00  0.00    -0.389 C  
HETATM   16  C   UNL     1     -12.142  14.033  69.948  1.00  0.00    -0.406 C  
BRANCH  16  17
HETATM   17  C   UNL     1     -11.871  14.168  68.478  1.00  0.00    -0.390 C  
BRANCH  17  18
HETATM   18  C   UNL     1     -10.568  14.884  68.166  1.00  0.00    -0.244 C  
BRANCH  18  19
HETATM   19  C   UNL     1     -10.842  16.089  67.270  1.00  0.00    -0.255 C  
HETATM   20  C   UNL     1     -10.361  15.852  65.858  1.00  0.00    -0.365 C  
HETATM   21  O   UNL     1      -9.810  14.836  65.466  1.00  0.00    -0.342 OA 
HETATM   22  O   UNL     1     -10.612  16.905  65.053  1.00  0.00    -0.700 OA 
ENDBRANCH  18  19
ENDBRANCH  17  18
ENDBRANCH  16  17
ENDBRANCH  14  15
ENDBRANCH  13  14
ENDBRANCH  11  12
ENDBRANCH  10  11
ENDBRANCH   8   9
ENDBRANCH   7   8
ENDBRANCH   5   6
ENDBRANCH   4   5
ENDBRANCH   2   3
TORSDOF 12
ENDMDL
MODEL      332
REMARK 921   NORMALIZED FREE ENERGY PREDICTED BY IDOCK:   -3.14 KCAL/MOL
REMARK 922        TOTAL FREE ENERGY PREDICTED BY IDOCK:   -7.84 KCAL/MOL
REMARK 923 INTER-LIGAND FREE ENERGY PREDICTED BY IDOCK:   -6.34 KCAL/MOL
REMARK 924 INTRA-LIGAND FREE ENERGY PREDICTED BY IDOCK:   -1.50 KCAL/MOL
REMARK 927      BINDING AFFINITY PREDICTED BY RF-SCORE:    0.00 PKD
ROOT
HETATM    1  C   UNL     1     -11.920  10.787  69.971  1.00  0.00    -0.427 C  
HETATM    2  C   UNL     1     -12.318  10.440  71.397  1.00  0.00    -0.500 C  
ENDROOT
BRANCH   2   3
HETATM    3  C   UNL     1     -13.456  11.293  71.887  1.00  0.00    -0.278 C  
HETATM    4  C   UNL     1     -13.502  12.638  71.835  1.00  0.00    -0.424 C  
BRANCH   4   5
HETATM    5  C   UNL     1     -12.426  13.497  71.241  1.00  0.00    -0.388 C  
BRANCH   5   6
HETATM    6  C   UNL     1     -12.639  14.966  71.488  1.00  0.00    -0.397 C  
HETATM    7  C   UNL     1     -12.138  15.954  70.734  1.00  0.00    -0.393 C  
BRANCH   7   8
HETATM    8  C   UNL     1     -11.387  15.707  69.461  1.00  0.00    -0.329 C  
BRANCH   8   9
HETATM    9  C   UNL     1      -9.923  15.990  69.602  1.00  0.00    -0.226 C  
HETATM   10  C   UNL     1      -8.955  15.555  68.774  1.00  0.00    -0.204 C  
BRANCH  10  11
HETATM   11  C   UNL     1      -9.138  14.686  67.559  1.00  0.00    -0.192 C  
BRANCH  11  12
HETATM   12  C   UNL     1      -9.239  15.400  66.230  1.00  0.00    -0.354 C  
HETATM   13  C   UNL     1     -10.060  15.159  65.190  1.00  0.00    -0.331 C  
BRANCH  13  14
HETATM   14  C   UNL     1     -11.034  14.028  65.089  1.00  0.00    -0.357 C  
BRANCH  14  15
HETATM   15  C   UNL     1     -10.557  12.888  64.239  1.00  0.00    -0.430 C  
HETATM   16  C   UNL     1     -10.146  11.717  64.753  1.00  0.00    -0.304 C  
BRANCH  16  17
HETATM   17  C   UNL     1     -10.066  11.483  66.233  1.00  0.00    -0.261 C  
BRANCH  17  18
HETATM   18  C   UNL     1      -9.021  10.454  66.627  1.00  0.00    -0.155 C  
BRANCH  18  19
HETATM   19  C   UNL     1      -7.698  11.151  66.930  1.00  0.00    -0.148 C  
HETATM   20  C   UNL     1      -7.511  11.370  68.413  1.00  0.00    -0.111 C  
HETATM   21  O   UNL     1      -8.313  11.049  69.275  1.00  0.00    -0.085 OA 
HETATM   22  O   UNL     1      -6.337  11.972  68.693  1.00  0.00    -0.053 OA 
ENDBRANCH  18  19
ENDBRANCH  17  18
ENDBRANCH  16  17
ENDBRANCH  14  15
ENDBRANCH  13  14
ENDBRANCH  11  12
ENDBRANCH  10  11
ENDBRANCH   8   9
ENDBRANCH   7   8
ENDBRANCH   5   6
ENDBRANCH   4   5
ENDBRANCH   2   3
TORSDOF 12
ENDMDL
MODEL      333
REMARK 921   NORMALIZED FREE ENERGY PREDICTED BY IDOCK:   -3.12 KCAL/MOL
REMARK 922        TOTAL FREE ENERGY PREDICTED BY IDOCK:   -7.81 KCAL/MOL
REMARK 923 INTER-LIGAND FREE ENERGY PREDICTED BY IDOCK:   -6.28 KCAL/MOL
REMARK 924 INTRA-LIGAND FREE ENERGY PREDICTED BY IDOCK:   -1.53 KCAL/MOL
REMARK 927      BINDING AFFINITY PREDICTED BY RF-SCORE:    0.00 PKD
ROOT
HETATM    1  C   UNL     1      -9.216  20.438  66.946  1.00  0.00    -0.450 C  
HETATM    2  C   UNL     1      -9.071  18.929  66.822  1.00  0.00    -0.323 C  
ENDROOT
BRANCH   2   3
HETATM    3  C   UNL     1     -10.209  18.316  66.054  1.00  0.00    -0.334 C  
HETATM    4  C   UNL     1     -10.532  17.009  66.046  1.00  0.00    -0.280 C  
BRANCH   4   5
HETATM    5  C   UNL     1      -9.815  15.958  66.840  1.00  0.00    -0.251 C  
BRANCH   5   6
HETATM    6  C   UNL     1     -10.254  15.901  68.277  1.00  0.00    -0.227 C  
HETATM    7  C   UNL     1     -11.256  15.144  68.747  1.00  0.00    -0.293 C  
BRANCH   7   8
HETATM    8  C   UNL     1     -11.998  14.156  67.899  1.00  0.00    -0.378 C  
BRANCH   8   9
HETATM    9  C   UNL     1     -11.386  12.789  67.954  1.00  0.00    -0.339 C  
HETATM   10  C   UNL     1     -11.424  11.953  69.008  1.00  0.00    -0.355 C  
BRANCH  10  11
HETATM   11  C   UNL     1     -12.067  12.221  70.343  1.00  0.00    -0.385 C  
BRANCH  11  12
HETATM   12  C   UNL     1     -12.894  11.100  70.930  1.00  0.00    -0.374 C  
HETATM   13  C   UNL     1     -12.494   9.925  71.451  1.00  0.00    -0.495 C  
BRANCH  13  14
HETATM   14  C   UNL     1     -11.086   9.418  71.487  1.00  0.00    -0.446 C  
BRANCH  14  15
HETATM   15  C   UNL     1     -10.954   7.965  71.137  1.00  0.00    -0.262 C  
HETATM   16  C   UNL     1     -10.615   7.537  69.910  1.00  0.00    -0.243 C  
BRANCH  16  17
HETATM   17  C   UNL     1     -10.410   8.487  68.767  1.00  0.00    -0.233 C  
BRANCH  17  18
HETATM   18  C   UNL     1      -8.975   8.966  68.627  1.00  0.00    -0.137 C  
BRANCH  18  19
HETATM   19  C   UNL     1      -8.544   8.888  67.166  1.00  0.00    -0.112 C  
HETATM   20  C   UNL     1      -7.918  10.182  66.701  1.00  0.00    -0.116 C  
HETATM   21  O   UNL     1      -7.777  11.179  67.390  1.00  0.00    -0.111 OA 
HETATM   22  O   UNL     1      -7.519  10.118  65.414  1.00  0.00    -0.133 OA 
ENDBRANCH  18  19
ENDBRANCH  17  18
ENDBRANCH  16  17
ENDBRANCH  14  15
ENDBRANCH  13  14
ENDBRANCH  11  12
ENDBRANCH  10  11
ENDBRANCH   8   9
ENDBRANCH   7   8
ENDBRANCH   5   6
ENDBRANCH   4   5
ENDBRANCH   2   3
TORSDOF 12
ENDMDL
MODEL      334
REMARK 921   NORMALIZED FREE ENERGY PREDICTED BY IDOCK:   -3.11 KCAL/MOL
REMARK 922        TOTAL FREE ENERGY PREDICTED BY IDOCK:   -7.79 KCAL/MOL
REMARK 923 INTER-LIGAND FREE ENERGY PREDICTED BY IDOCK:   -5.74 KCAL/MOL
REMARK 924 INTRA-LIGAND FREE ENERGY PREDICTED BY IDOCK:   -2.05 KCAL/MOL
REMARK 927      BINDING AFFINITY PREDICTED BY RF-SCORE:    0.00 PKD
ROOT
HETATM    1  C   UNL     1      -9.445  12.777  67.819  1.00  0.00    -0.205 C  
HETATM    2  C   UNL     1     -10.724  13.082  68.581  1.00  0.00    -0.273 C  
ENDROOT
BRANCH   2   3
HETATM    3  C   UNL     1     -11.793  12.057  68.319  1.00  0.00    -0.351 C  
HETATM    4  C   UNL     1     -12.171  11.086  69.172  1.00  0.00    -0.229 C  
BRANCH   4   5
HETATM    5  C   UNL     1     -11.598  10.900  70.546  1.00  0.00    -0.397 C  
BRANCH   5   6
HETATM    6  C   UNL     1     -10.435   9.947  70.577  1.00  0.00    -0.330 C  
HETATM    7  C   UNL     1     -10.364   8.842  71.333  1.00  0.00    -0.377 C  
BRANCH   7   8
HETATM    8  C   UNL     1     -11.507   8.353  72.169  1.00  0.00    -0.442 C  
BRANCH   8   9
HETATM    9  C   UNL     1     -12.393   7.404  71.420  1.00  0.00    -0.394 C  
HETATM   10  C   UNL     1     -11.981   6.473  70.540  1.00  0.00    -0.322 C  
BRANCH  10  11
HETATM   11  C   UNL     1     -10.562   6.206  70.116  1.00  0.00    -0.321 C  
BRANCH  11  12
HETATM   12  C   UNL     1     -10.016   4.829  70.419  1.00  0.00    -0.315 C  
HETATM   13  C   UNL     1      -9.244   4.028  69.659  1.00  0.00    -0.217 C  
BRANCH  13  14
HETATM   14  C   UNL     1      -8.811   4.309  68.254  1.00  0.00    -0.132 C  
BRANCH  14  15
HETATM   15  C   UNL     1      -7.561   5.133  68.157  1.00  0.00    -0.080 C  
HETATM   16  C   UNL     1      -7.546   6.379  67.657  1.00  0.00    -0.101 C  
BRANCH  16  17
HETATM   17  C   UNL     1      -8.776   7.021  67.086  1.00  0.00    -0.121 C  
BRANCH  17  18
HETATM   18  C   UNL     1      -8.939   8.478  67.484  1.00  0.00    -0.142 C  
BRANCH  18  19
HETATM   19  C   UNL     1     -10.096   9.100  66.708  1.00  0.00    -0.341 C  
HETATM   20  C   UNL     1      -9.603  10.001  65.601  1.00  0.00    -0.252 C  
HETATM   21  O   UNL     1      -8.430  10.226  65.350  1.00  0.00    -0.148 OA 
HETATM   22  O   UNL     1     -10.619  10.544  64.898  1.00  0.00    -0.247 OA 
ENDBRANCH  18  19
ENDBRANCH  17  18
ENDBRANCH  16  17
ENDBRANCH  14  15
ENDBRANCH  13  14
ENDBRANCH  11  12
ENDBRANCH  10  11
ENDBRANCH   8   9
ENDBRANCH   7   8
ENDBRANCH   5   6
ENDBRANCH   4   5
ENDBRANCH   2   3
TORSDOF 12
ENDMDL
MODEL      335
REMARK 921   NORMALIZED FREE ENERGY PREDICTED BY IDOCK:   -3.11 KCAL/MOL
REMARK 922        TOTAL FREE ENERGY PREDICTED BY IDOCK:   -7.79 KCAL/MOL
REMARK 923 INTER-LIGAND FREE ENERGY PREDICTED BY IDOCK:   -5.96 KCAL/MOL
REMARK 924 INTRA-LIGAND FREE ENERGY PREDICTED BY IDOCK:   -1.83 KCAL/MOL
REMARK 927      BINDING AFFINITY PREDICTED BY RF-SCORE:    0.00 PKD
ROOT
HETATM    1  C   UNL     1      -7.001   6.945  71.651  1.00  0.00    -0.070 C  
HETATM    2  C   UNL     1      -7.718   5.787  70.977  1.00  0.00    -0.101 C  
ENDROOT
BRANCH   2   3
HETATM    3  C   UNL     1      -7.629   4.522  71.787  1.00  0.00    -0.075 C  
HETATM    4  C   UNL     1      -8.666   3.895  72.374  1.00  0.00    -0.116 C  
BRANCH   4   5
HETATM    5  C   UNL     1     -10.092   4.351  72.278  1.00  0.00    -0.253 C  
BRANCH   5   6
HETATM    6  C   UNL     1     -10.399   5.521  73.172  1.00  0.00    -0.231 C  
HETATM    7  C   UNL     1     -11.192   6.551  72.847  1.00  0.00    -0.215 C  
BRANCH   7   8
HETATM    8  C   UNL     1     -11.977   6.605  71.571  1.00  0.00    -0.402 C  
BRANCH   8   9
HETATM    9  C   UNL     1     -11.141   7.050  70.409  1.00  0.00    -0.323 C  
HETATM   10  C   UNL     1     -10.576   8.263  70.267  1.00  0.00    -0.230 C  
BRANCH  10  11
HETATM   11  C   UNL     1     -10.680   9.419  71.226  1.00  0.00    -0.421 C  
BRANCH  11  12
HETATM   12  C   UNL     1     -12.000  10.154  71.255  1.00  0.00    -0.473 C  
HETATM   13  C   UNL     1     -12.499  11.051  70.382  1.00  0.00    -0.397 C  
BRANCH  13  14
HETATM   14  C   UNL     1     -11.784  11.598  69.186  1.00  0.00    -0.390 C  
BRANCH  14  15
HETATM   15  C   UNL     1     -11.614  13.088  69.208  1.00  0.00    -0.367 C  
HETATM   16  C   UNL     1     -11.716  13.851  68.108  1.00  0.00    -0.388 C  
BRANCH  16  17
HETATM   17  C   UNL     1     -11.939  13.256  66.748  1.00  0.00    -0.438 C  
BRANCH  17  18
HETATM   18  C   UNL     1     -10.678  13.186  65.904  1.00  0.00    -0.287 C  
BRANCH  18  19
HETATM   19  C   UNL     1     -10.324  11.729  65.623  1.00  0.00    -0.293 C  
HETATM   20  C   UNL     1      -9.141  11.275  66.446  1.00  0.00    -0.192 C  
HETATM   21  O   UNL     1      -8.525  11.975  67.233  1.00  0.00    -0.160 OA 
HETATM   22  O   UNL     1      -8.830   9.983  66.216  1.00  0.00    -0.140 OA 
ENDBRANCH  18  19
ENDBRANCH  17  18
ENDBRANCH  16  17
ENDBRANCH  14  15
ENDBRANCH  13  14
ENDBRANCH  11  12
ENDBRANCH  10  11
ENDBRANCH   8   9
ENDBRANCH   7   8
ENDBRANCH   5   6
ENDBRANCH   4   5
ENDBRANCH   2   3
TORSDOF 12
ENDMDL
MODEL      336
REMARK 921   NORMALIZED FREE ENERGY PREDICTED BY IDOCK:   -3.10 KCAL/MOL
REMARK 922        TOTAL FREE ENERGY PREDICTED BY IDOCK:   -7.79 KCAL/MOL
REMARK 923 INTER-LIGAND FREE ENERGY PREDICTED BY IDOCK:   -5.70 KCAL/MOL
REMARK 924 INTRA-LIGAND FREE ENERGY PREDICTED BY IDOCK:   -2.09 KCAL/MOL
REMARK 927      BINDING AFFINITY PREDICTED BY RF-SCORE:    0.00 PKD
ROOT
HETATM    1  C   UNL     1      -6.175  10.702  69.579  1.00  0.00    -0.059 C  
HETATM    2  C   UNL     1      -7.519  11.236  69.113  1.00  0.00    -0.084 C  
ENDROOT
BRANCH   2   3
HETATM    3  C   UNL     1      -7.438  11.840  67.737  1.00  0.00    -0.117 C  
HETATM    4  C   UNL     1      -7.912  13.051  67.386  1.00  0.00    -0.173 C  
BRANCH   4   5
HETATM    5  C   UNL     1      -8.570  14.008  68.336  1.00  0.00    -0.174 C  
BRANCH   5   6
HETATM    6  C   UNL     1     -10.062  13.832  68.413  1.00  0.00    -0.241 C  
HETATM    7  C   UNL     1     -10.965  14.726  67.987  1.00  0.00    -0.276 C  
BRANCH   7   8
HETATM    8  C   UNL     1     -10.590  15.983  67.263  1.00  0.00    -0.313 C  
BRANCH   8   9
HETATM    9  C   UNL     1      -9.984  15.705  65.921  1.00  0.00    -0.379 C  
HETATM   10  C   UNL     1     -10.606  15.110  64.886  1.00  0.00    -0.392 C  
BRANCH  10  11
HETATM   11  C   UNL     1     -12.018  14.588  64.868  1.00  0.00    -0.425 C  
BRANCH  11  12
HETATM   12  C   UNL     1     -12.286  13.401  63.971  1.00  0.00    -0.466 C  
HETATM   13  C   UNL     1     -11.788  12.151  64.035  1.00  0.00    -0.523 C  
BRANCH  13  14
HETATM   14  C   UNL     1     -10.752  11.671  65.002  1.00  0.00    -0.351 C  
BRANCH  14  15
HETATM   15  C   UNL     1     -11.265  11.485  66.400  1.00  0.00    -0.307 C  
HETATM   16  C   UNL     1     -10.889  10.463  67.185  1.00  0.00    -0.301 C  
BRANCH  16  17
HETATM   17  C   UNL     1      -9.973   9.380  66.695  1.00  0.00    -0.326 C  
BRANCH  17  18
HETATM   18  C   UNL     1     -10.269   8.018  67.299  1.00  0.00    -0.345 C  
BRANCH  18  19
HETATM   19  C   UNL     1      -9.707   6.921  66.400  1.00  0.00    -0.127 C  
HETATM   20  C   UNL     1      -8.376   6.416  66.906  1.00  0.00    -0.110 C  
HETATM   21  O   UNL     1      -7.801   6.829  67.900  1.00  0.00    -0.109 OA 
HETATM   22  O   UNL     1      -7.876   5.434  66.127  1.00  0.00    -0.101 OA 
ENDBRANCH  18  19
ENDBRANCH  17  18
ENDBRANCH  16  17
ENDBRANCH  14  15
ENDBRANCH  13  14
ENDBRANCH  11  12
ENDBRANCH  10  11
ENDBRANCH   8   9
ENDBRANCH   7   8
ENDBRANCH   5   6
ENDBRANCH   4   5
ENDBRANCH   2   3
TORSDOF 12
ENDMDL
MODEL      337
REMARK 921   NORMALIZED FREE ENERGY PREDICTED BY IDOCK:   -3.09 KCAL/MOL
REMARK 922        TOTAL FREE ENERGY PREDICTED BY IDOCK:   -7.76 KCAL/MOL
REMARK 923 INTER-LIGAND FREE ENERGY PREDICTED BY IDOCK:   -6.36 KCAL/MOL
REMARK 924 INTRA-LIGAND FREE ENERGY PREDICTED BY IDOCK:   -1.39 KCAL/MOL
REMARK 927      BINDING AFFINITY PREDICTED BY RF-SCORE:    0.00 PKD
ROOT
HETATM    1  C   UNL     1      -9.198   3.193  70.675  1.00  0.00    -0.208 C  
HETATM    2  C   UNL     1      -9.925   3.458  71.984  1.00  0.00    -0.222 C  
ENDROOT
BRANCH   2   3
HETATM    3  C   UNL     1      -9.618   4.825  72.531  1.00  0.00    -0.174 C  
HETATM    4  C   UNL     1     -10.185   5.976  72.123  1.00  0.00    -0.222 C  
BRANCH   4   5
HETATM    5  C   UNL     1     -11.249   6.065  71.069  1.00  0.00    -0.332 C  
BRANCH   5   6
HETATM    6  C   UNL     1     -10.701   6.356  69.699  1.00  0.00    -0.339 C  
HETATM    7  C   UNL     1     -10.483   7.581  69.200  1.00  0.00    -0.220 C  
BRANCH   7   8
HETATM    8  C   UNL     1     -10.654   8.831  70.008  1.00  0.00    -0.232 C  
BRANCH   8   9
HETATM    9  C   UNL     1      -9.368   9.285  70.630  1.00  0.00    -0.329 C  
HETATM   10  C   UNL     1      -8.231   9.566  69.968  1.00  0.00    -0.181 C  
BRANCH  10  11
HETATM   11  C   UNL     1      -8.010   9.466  68.482  1.00  0.00    -0.093 C  
BRANCH  11  12
HETATM   12  C   UNL     1      -7.593  10.736  67.776  1.00  0.00    -0.095 C  
HETATM   13  C   UNL     1      -8.244  11.910  67.673  1.00  0.00    -0.148 C  
BRANCH  13  14
HETATM   14  C   UNL     1      -9.620  12.195  68.188  1.00  0.00    -0.208 C  
BRANCH  14  15
HETATM   15  C   UNL     1     -10.700  11.416  67.499  1.00  0.00    -0.266 C  
HETATM   16  C   UNL     1     -11.574  11.977  66.646  1.00  0.00    -0.389 C  
BRANCH  16  17
HETATM   17  C   UNL     1     -11.579  13.452  66.370  1.00  0.00    -0.381 C  
BRANCH  17  18
HETATM   18  C   UNL     1     -11.086  13.809  64.979  1.00  0.00    -0.348 C  
BRANCH  18  19
HETATM   19  C   UNL     1     -11.729  15.115  64.522  1.00  0.00    -0.331 C  
HETATM   20  C   UNL     1     -10.838  16.302  64.803  1.00  0.00    -0.224 C  
HETATM   21  O   UNL     1      -9.742  16.245  65.337  1.00  0.00    -0.473 OA 
HETATM   22  O   UNL     1     -11.391  17.461  64.388  1.00  0.00    -0.949 OA 
ENDBRANCH  18  19
ENDBRANCH  17  18
ENDBRANCH  16  17
ENDBRANCH  14  15
ENDBRANCH  13  14
ENDBRANCH  11  12
ENDBRANCH  10  11
ENDBRANCH   8   9
ENDBRANCH   7   8
ENDBRANCH   5   6
ENDBRANCH   4   5
ENDBRANCH   2   3
TORSDOF 12
ENDMDL
MODEL      338
REMARK 921   NORMALIZED FREE ENERGY PREDICTED BY IDOCK:   -3.08 KCAL/MOL
REMARK 922        TOTAL FREE ENERGY PREDICTED BY IDOCK:   -7.75 KCAL/MOL
REMARK 923 INTER-LIGAND FREE ENERGY PREDICTED BY IDOCK:   -6.29 KCAL/MOL
REMARK 924 INTRA-LIGAND FREE ENERGY PREDICTED BY IDOCK:   -1.45 KCAL/MOL
REMARK 927      BINDING AFFINITY PREDICTED BY RF-SCORE:    0.00 PKD
ROOT
HETATM    1  C   UNL     1      -7.739  19.800  67.339  1.00  0.00    -0.307 C  
HETATM    2  C   UNL     1      -8.970  19.734  68.228  1.00  0.00    -0.347 C  
ENDROOT
BRANCH   2   3
HETATM    3  C   UNL     1     -10.237  19.614  67.427  1.00  0.00    -0.561 C  
HETATM    4  C   UNL     1     -10.857  18.461  67.113  1.00  0.00    -0.271 C  
BRANCH   4   5
HETATM    5  C   UNL     1     -10.389  17.105  67.551  1.00  0.00    -0.341 C  
BRANCH   5   6
HETATM    6  C   UNL     1      -9.358  16.510  66.631  1.00  0.00    -0.279 C  
HETATM    7  C   UNL     1      -9.621  15.663  65.626  1.00  0.00    -0.319 C  
BRANCH   7   8
HETATM    8  C   UNL     1     -11.013  15.289  65.217  1.00  0.00    -0.403 C  
BRANCH   8   9
HETATM    9  C   UNL     1     -11.132  13.836  64.870  1.00  0.00    -0.364 C  
HETATM   10  C   UNL     1     -11.595  12.869  65.683  1.00  0.00    -0.401 C  
BRANCH  10  11
HETATM   11  C   UNL     1     -12.068  13.041  67.101  1.00  0.00    -0.325 C  
BRANCH  11  12
HETATM   12  C   UNL     1     -10.995  13.192  68.155  1.00  0.00    -0.275 C  
HETATM   13  C   UNL     1     -10.271  12.244  68.782  1.00  0.00    -0.119 C  
BRANCH  13  14
HETATM   14  C   UNL     1     -10.441  10.766  68.621  1.00  0.00    -0.213 C  
BRANCH  14  15
HETATM   15  C   UNL     1      -9.819   9.960  69.722  1.00  0.00    -0.268 C  
HETATM   16  C   UNL     1      -9.737   8.620  69.689  1.00  0.00    -0.179 C  
BRANCH  16  17
HETATM   17  C   UNL     1     -10.331   7.816  68.569  1.00  0.00    -0.226 C  
BRANCH  17  18
HETATM   18  C   UNL     1     -11.073   6.577  69.042  1.00  0.00    -0.375 C  
BRANCH  18  19
HETATM   19  C   UNL     1     -10.104   5.403  69.145  1.00  0.00    -0.293 C  
HETATM   20  C   UNL     1      -9.994   4.655  67.837  1.00  0.00    -0.077 C  
HETATM   21  O   UNL     1     -10.604   4.933  66.818  1.00  0.00    -0.226 OA 
HETATM   22  O   UNL     1      -9.127   3.624  67.914  1.00  0.00    -0.126 OA 
ENDBRANCH  18  19
ENDBRANCH  17  18
ENDBRANCH  16  17
ENDBRANCH  14  15
ENDBRANCH  13  14
ENDBRANCH  11  12
ENDBRANCH  10  11
ENDBRANCH   8   9
ENDBRANCH   7   8
ENDBRANCH   5   6
ENDBRANCH   4   5
ENDBRANCH   2   3
TORSDOF 12
ENDMDL
MODEL      339
REMARK 921   NORMALIZED FREE ENERGY PREDICTED BY IDOCK:   -3.08 KCAL/MOL
REMARK 922        TOTAL FREE ENERGY PREDICTED BY IDOCK:   -7.74 KCAL/MOL
REMARK 923 INTER-LIGAND FREE ENERGY PREDICTED BY IDOCK:   -6.29 KCAL/MOL
REMARK 924 INTRA-LIGAND FREE ENERGY PREDICTED BY IDOCK:   -1.45 KCAL/MOL
REMARK 927      BINDING AFFINITY PREDICTED BY RF-SCORE:    0.00 PKD
ROOT
HETATM    1  C   UNL     1      -7.213   2.756  65.229  1.00  0.00    -0.062 C  
HETATM    2  C   UNL     1      -8.276   3.042  66.278  1.00  0.00    -0.091 C  
ENDROOT
BRANCH   2   3
HETATM    3  C   UNL     1      -9.599   3.394  65.655  1.00  0.00    -0.080 C  
HETATM    4  C   UNL     1     -10.217   4.587  65.753  1.00  0.00    -0.289 C  
BRANCH   4   5
HETATM    5  C   UNL     1      -9.652   5.772  66.480  1.00  0.00    -0.175 C  
BRANCH   5   6
HETATM    6  C   UNL     1     -10.695   6.559  67.225  1.00  0.00    -0.427 C  
HETATM    7  C   UNL     1     -11.097   6.312  68.480  1.00  0.00    -0.397 C  
BRANCH   7   8
HETATM    8  C   UNL     1     -10.459   5.272  69.349  1.00  0.00    -0.284 C  
BRANCH   8   9
HETATM    9  C   UNL     1      -9.558   5.873  70.385  1.00  0.00    -0.204 C  
HETATM   10  C   UNL     1      -9.909   6.182  71.648  1.00  0.00    -0.191 C  
BRANCH  10  11
HETATM   11  C   UNL     1     -11.268   6.007  72.269  1.00  0.00    -0.341 C  
BRANCH  11  12
HETATM   12  C   UNL     1     -12.399   6.795  71.649  1.00  0.00    -0.409 C  
HETATM   13  C   UNL     1     -12.474   8.111  71.371  1.00  0.00    -0.313 C  
BRANCH  13  14
HETATM   14  C   UNL     1     -11.437   9.136  71.711  1.00  0.00    -0.452 C  
BRANCH  14  15
HETATM   15  C   UNL     1     -10.417   9.350  70.632  1.00  0.00    -0.354 C  
HETATM   16  C   UNL     1     -10.583  10.235  69.636  1.00  0.00    -0.288 C  
BRANCH  16  17
HETATM   17  C   UNL     1     -11.844  11.035  69.487  1.00  0.00    -0.404 C  
BRANCH  17  18
HETATM   18  C   UNL     1     -11.683  12.261  68.605  1.00  0.00    -0.377 C  
BRANCH  18  19
HETATM   19  C   UNL     1     -11.992  13.520  69.408  1.00  0.00    -0.383 C  
HETATM   20  C   UNL     1     -11.065  14.655  69.043  1.00  0.00    -0.259 C  
HETATM   21  O   UNL     1     -10.167  14.589  68.219  1.00  0.00    -0.224 OA 
HETATM   22  O   UNL     1     -11.340  15.779  69.737  1.00  0.00    -0.287 OA 
ENDBRANCH  18  19
ENDBRANCH  17  18
ENDBRANCH  16  17
ENDBRANCH  14  15
ENDBRANCH  13  14
ENDBRANCH  11  12
ENDBRANCH  10  11
ENDBRANCH   8   9
ENDBRANCH   7   8
ENDBRANCH   5   6
ENDBRANCH   4   5
ENDBRANCH   2   3
TORSDOF 12
ENDMDL
MODEL      340
REMARK 921   NORMALIZED FREE ENERGY PREDICTED BY IDOCK:   -3.08 KCAL/MOL
REMARK 922        TOTAL FREE ENERGY PREDICTED BY IDOCK:   -7.74 KCAL/MOL
REMARK 923 INTER-LIGAND FREE ENERGY PREDICTED BY IDOCK:   -6.46 KCAL/MOL
REMARK 924 INTRA-LIGAND FREE ENERGY PREDICTED BY IDOCK:   -1.28 KCAL/MOL
REMARK 927      BINDING AFFINITY PREDICTED BY RF-SCORE:    0.00 PKD
ROOT
HETATM    1  C   UNL     1      -6.912   7.848  64.816  1.00  0.00    -0.062 C  
HETATM    2  C   UNL     1      -8.229   7.984  65.564  1.00  0.00    -0.138 C  
ENDROOT
BRANCH   2   3
HETATM    3  C   UNL     1      -8.637   6.696  66.223  1.00  0.00    -0.139 C  
HETATM    4  C   UNL     1      -9.356   6.591  67.357  1.00  0.00    -0.125 C  
BRANCH   4   5
HETATM    5  C   UNL     1      -9.893   7.762  68.126  1.00  0.00    -0.190 C  
BRANCH   5   6
HETATM    6  C   UNL     1      -9.215   7.957  69.454  1.00  0.00    -0.145 C  
HETATM    7  C   UNL     1      -9.248   9.085  70.178  1.00  0.00    -0.212 C  
BRANCH   7   8
HETATM    8  C   UNL     1     -10.079  10.273  69.798  1.00  0.00    -0.244 C  
BRANCH   8   9
HETATM    9  C   UNL     1     -11.397  10.296  70.511  1.00  0.00    -0.422 C  
HETATM   10  C   UNL     1     -12.279  11.312  70.499  1.00  0.00    -0.474 C  
BRANCH  10  11
HETATM   11  C   UNL     1     -12.120  12.629  69.789  1.00  0.00    -0.301 C  
BRANCH  11  12
HETATM   12  C   UNL     1     -12.255  13.873  70.638  1.00  0.00    -0.443 C  
HETATM   13  C   UNL     1     -12.092  15.165  70.295  1.00  0.00    -0.385 C  
BRANCH  13  14
HETATM   14  C   UNL     1     -11.639  15.663  68.958  1.00  0.00    -0.396 C  
BRANCH  14  15
HETATM   15  C   UNL     1     -10.190  15.407  68.673  1.00  0.00    -0.217 C  
HETATM   16  C   UNL     1      -9.604  15.739  67.511  1.00  0.00    -0.224 C  
BRANCH  16  17
HETATM   17  C   UNL     1     -10.380  16.334  66.372  1.00  0.00    -0.319 C  
BRANCH  17  18
HETATM   18  C   UNL     1     -10.470  15.424  65.160  1.00  0.00    -0.439 C  
BRANCH  18  19
HETATM   19  C   UNL     1     -11.741  14.583  65.237  1.00  0.00    -0.361 C  
HETATM   20  C   UNL     1     -11.462  13.126  64.952  1.00  0.00    -0.309 C  
HETATM   21  O   UNL     1     -10.366  12.663  64.680  1.00  0.00    -0.313 OA 
HETATM   22  O   UNL     1     -12.577  12.371  65.033  1.00  0.00    -0.601 OA 
ENDBRANCH  18  19
ENDBRANCH  17  18
ENDBRANCH  16  17
ENDBRANCH  14  15
ENDBRANCH  13  14
ENDBRANCH  11  12
ENDBRANCH  10  11
ENDBRANCH   8   9
ENDBRANCH   7   8
ENDBRANCH   5   6
ENDBRANCH   4   5
ENDBRANCH   2   3
TORSDOF 12
ENDMDL
MODEL      341
REMARK 921   NORMALIZED FREE ENERGY PREDICTED BY IDOCK:   -3.07 KCAL/MOL
REMARK 922        TOTAL FREE ENERGY PREDICTED BY IDOCK:   -7.73 KCAL/MOL
REMARK 923 INTER-LIGAND FREE ENERGY PREDICTED BY IDOCK:   -6.10 KCAL/MOL
REMARK 924 INTRA-LIGAND FREE ENERGY PREDICTED BY IDOCK:   -1.64 KCAL/MOL
REMARK 927      BINDING AFFINITY PREDICTED BY RF-SCORE:    0.00 PKD
ROOT
HETATM    1  C   UNL     1      -7.706  19.736  67.339  1.00  0.00    -0.307 C  
HETATM    2  C   UNL     1      -8.551  19.243  68.503  1.00  0.00    -0.400 C  
ENDROOT
BRANCH   2   3
HETATM    3  C   UNL     1      -9.985  19.026  68.105  1.00  0.00    -0.449 C  
HETATM    4  C   UNL     1     -10.539  17.839  67.794  1.00  0.00    -0.392 C  
BRANCH   4   5
HETATM    5  C   UNL     1      -9.806  16.530  67.833  1.00  0.00    -0.240 C  
BRANCH   5   6
HETATM    6  C   UNL     1      -9.217  16.145  66.504  1.00  0.00    -0.303 C  
HETATM    7  C   UNL     1      -9.892  15.570  65.499  1.00  0.00    -0.348 C  
BRANCH   7   8
HETATM    8  C   UNL     1     -11.373  15.344  65.537  1.00  0.00    -0.164 C  
BRANCH   8   9
HETATM    9  C   UNL     1     -11.761  14.021  64.951  1.00  0.00    -0.385 C  
HETATM   10  C   UNL     1     -12.089  12.918  65.649  1.00  0.00    -0.511 C  
BRANCH  10  11
HETATM   11  C   UNL     1     -12.118  12.781  67.148  1.00  0.00    -0.236 C  
BRANCH  11  12
HETATM   12  C   UNL     1     -10.779  12.785  67.850  1.00  0.00    -0.235 C  
HETATM   13  C   UNL     1      -9.829  11.831  67.887  1.00  0.00    -0.186 C  
BRANCH  13  14
HETATM   14  C   UNL     1      -9.938  10.466  67.281  1.00  0.00    -0.229 C  
BRANCH  14  15
HETATM   15  C   UNL     1      -8.848   9.526  67.702  1.00  0.00    -0.121 C  
HETATM   16  C   UNL     1      -8.834   8.226  67.366  1.00  0.00    -0.135 C  
BRANCH  16  17
HETATM   17  C   UNL     1      -9.956   7.594  66.595  1.00  0.00    -0.284 C  
BRANCH  17  18
HETATM   18  C   UNL     1     -10.592   6.414  67.309  1.00  0.00    -0.382 C  
BRANCH  18  19
HETATM   19  C   UNL     1     -11.333   6.899  68.551  1.00  0.00     0.035 C  
HETATM   20  C   UNL     1     -10.822   6.225  69.802  1.00  0.00    -0.336 C  
HETATM   21  O   UNL     1      -9.936   5.386  69.835  1.00  0.00    -0.183 OA 
HETATM   22  O   UNL     1     -11.461   6.659  70.909  1.00  0.00    -0.306 OA 
ENDBRANCH  18  19
ENDBRANCH  17  18
ENDBRANCH  16  17
ENDBRANCH  14  15
ENDBRANCH  13  14
ENDBRANCH  11  12
ENDBRANCH  10  11
ENDBRANCH   8   9
ENDBRANCH   7   8
ENDBRANCH   5   6
ENDBRANCH   4   5
ENDBRANCH   2   3
TORSDOF 12
ENDMDL
MODEL      342
REMARK 921   NORMALIZED FREE ENERGY PREDICTED BY IDOCK:   -3.05 KCAL/MOL
REMARK 922        TOTAL FREE ENERGY PREDICTED BY IDOCK:   -7.70 KCAL/MOL
REMARK 923 INTER-LIGAND FREE ENERGY PREDICTED BY IDOCK:   -4.85 KCAL/MOL
REMARK 924 INTRA-LIGAND FREE ENERGY PREDICTED BY IDOCK:   -2.84 KCAL/MOL
REMARK 927      BINDING AFFINITY PREDICTED BY RF-SCORE:    0.00 PKD
ROOT
HETATM    1  C   UNL     1     -13.136   7.092  71.454  1.00  0.00    -0.408 C  
HETATM    2  C   UNL     1     -11.790   7.026  70.749  1.00  0.00    -0.401 C  
ENDROOT
BRANCH   2   3
HETATM    3  C   UNL     1     -11.036   8.323  70.854  1.00  0.00    -0.289 C  
HETATM    4  C   UNL     1     -10.177   8.651  71.837  1.00  0.00    -0.404 C  
BRANCH   4   5
HETATM    5  C   UNL     1      -9.812   7.744  72.976  1.00  0.00    -0.344 C  
BRANCH   5   6
HETATM    6  C   UNL     1      -8.547   8.156  73.676  1.00  0.00    -0.312 C  
HETATM    7  C   UNL     1      -7.349   7.578  73.506  1.00  0.00    -0.118 C  
BRANCH   7   8
HETATM    8  C   UNL     1      -7.098   6.506  72.490  1.00  0.00    -0.074 C  
BRANCH   8   9
HETATM    9  C   UNL     1      -7.201   5.132  73.079  1.00  0.00    -0.090 C  
HETATM   10  C   UNL     1      -8.216   4.269  72.887  1.00  0.00    -0.094 C  
BRANCH  10  11
HETATM   11  C   UNL     1      -9.454   4.508  72.066  1.00  0.00    -0.196 C  
BRANCH  11  12
HETATM   12  C   UNL     1      -9.487   3.872  70.695  1.00  0.00    -0.244 C  
HETATM   13  C   UNL     1      -9.141   4.392  69.502  1.00  0.00    -0.175 C  
BRANCH  13  14
HETATM   14  C   UNL     1      -8.710   5.804  69.256  1.00  0.00    -0.113 C  
BRANCH  14  15
HETATM   15  C   UNL     1      -8.246   6.062  67.853  1.00  0.00    -0.112 C  
HETATM   16  C   UNL     1      -8.983   6.733  66.952  1.00  0.00    -0.133 C  
BRANCH  16  17
HETATM   17  C   UNL     1     -10.369   7.218  67.264  1.00  0.00    -0.349 C  
BRANCH  17  18
HETATM   18  C   UNL     1     -10.587   8.682  66.925  1.00  0.00    -0.270 C  
BRANCH  18  19
HETATM   19  C   UNL     1      -9.296   9.463  67.148  1.00  0.00    -0.172 C  
HETATM   20  C   UNL     1      -8.972  10.350  65.969  1.00  0.00    -0.159 C  
HETATM   21  O   UNL     1      -9.641  10.436  64.952  1.00  0.00    -0.238 OA 
HETATM   22  O   UNL     1      -7.839  11.057  66.163  1.00  0.00    -0.161 OA 
ENDBRANCH  18  19
ENDBRANCH  17  18
ENDBRANCH  16  17
ENDBRANCH  14  15
ENDBRANCH  13  14
ENDBRANCH  11  12
ENDBRANCH  10  11
ENDBRANCH   8   9
ENDBRANCH   7   8
ENDBRANCH   5   6
ENDBRANCH   4   5
ENDBRANCH   2   3
TORSDOF 12
ENDMDL
MODEL      343
REMARK 921   NORMALIZED FREE ENERGY PREDICTED BY IDOCK:   -3.05 KCAL/MOL
REMARK 922        TOTAL FREE ENERGY PREDICTED BY IDOCK:   -7.69 KCAL/MOL
REMARK 923 INTER-LIGAND FREE ENERGY PREDICTED BY IDOCK:   -6.33 KCAL/MOL
REMARK 924 INTRA-LIGAND FREE ENERGY PREDICTED BY IDOCK:   -1.37 KCAL/MOL
REMARK 927      BINDING AFFINITY PREDICTED BY RF-SCORE:    0.00 PKD
ROOT
HETATM    1  C   UNL     1      -7.177   3.604  66.813  1.00  0.00    -0.067 C  
HETATM    2  C   UNL     1      -8.549   3.661  67.465  1.00  0.00    -0.112 C  
ENDROOT
BRANCH   2   3
HETATM    3  C   UNL     1      -9.652   3.754  66.447  1.00  0.00    -0.179 C  
HETATM    4  C   UNL     1     -10.378   4.856  66.181  1.00  0.00    -0.329 C  
BRANCH   4   5
HETATM    5  C   UNL     1     -10.170   6.185  66.845  1.00  0.00    -0.263 C  
BRANCH   5   6
HETATM    6  C   UNL     1     -11.205   6.491  67.892  1.00  0.00    -0.257 C  
HETATM    7  C   UNL     1     -10.971   6.559  69.210  1.00  0.00    -0.389 C  
BRANCH   7   8
HETATM    8  C   UNL     1      -9.598   6.452  69.800  1.00  0.00    -0.163 C  
BRANCH   8   9
HETATM    9  C   UNL     1      -8.783   7.689  69.572  1.00  0.00    -0.136 C  
HETATM   10  C   UNL     1      -8.858   8.823  70.292  1.00  0.00    -0.171 C  
BRANCH  10  11
HETATM   11  C   UNL     1      -9.778   9.089  71.453  1.00  0.00    -0.369 C  
BRANCH  11  12
HETATM   12  C   UNL     1     -11.161   9.596  71.113  1.00  0.00    -0.454 C  
HETATM   13  C   UNL     1     -11.549  10.433  70.132  1.00  0.00    -0.392 C  
BRANCH  13  14
HETATM   14  C   UNL     1     -10.639  11.138  69.174  1.00  0.00    -0.238 C  
BRANCH  14  15
HETATM   15  C   UNL     1     -11.326  11.633  67.937  1.00  0.00    -0.369 C  
HETATM   16  C   UNL     1     -11.709  12.911  67.776  1.00  0.00    -0.412 C  
BRANCH  16  17
HETATM   17  C   UNL     1     -11.542  13.932  68.863  1.00  0.00    -0.353 C  
BRANCH  17  18
HETATM   18  C   UNL     1     -11.211  15.320  68.343  1.00  0.00    -0.314 C  
BRANCH  18  19
HETATM   19  C   UNL     1     -11.381  15.358  66.827  1.00  0.00    -0.125 C  
HETATM   20  C   UNL     1     -10.448  16.360  66.188  1.00  0.00    -0.314 C  
HETATM   21  O   UNL     1      -9.659  17.068  66.793  1.00  0.00    -0.245 OA 
HETATM   22  O   UNL     1     -10.579  16.391  64.845  1.00  0.00    -0.677 OA 
ENDBRANCH  18  19
ENDBRANCH  17  18
ENDBRANCH  16  17
ENDBRANCH  14  15
ENDBRANCH  13  14
ENDBRANCH  11  12
ENDBRANCH  10  11
ENDBRANCH   8   9
ENDBRANCH   7   8
ENDBRANCH   5   6
ENDBRANCH   4   5
ENDBRANCH   2   3
TORSDOF 12
ENDMDL
MODEL      344
REMARK 921   NORMALIZED FREE ENERGY PREDICTED BY IDOCK:   -3.05 KCAL/MOL
REMARK 922        TOTAL FREE ENERGY PREDICTED BY IDOCK:   -7.69 KCAL/MOL
REMARK 923 INTER-LIGAND FREE ENERGY PREDICTED BY IDOCK:   -6.79 KCAL/MOL
REMARK 924 INTRA-LIGAND FREE ENERGY PREDICTED BY IDOCK:   -0.91 KCAL/MOL
REMARK 927      BINDING AFFINITY PREDICTED BY RF-SCORE:    0.00 PKD
ROOT
HETATM    1  C   UNL     1      -9.469  20.103  67.064  1.00  0.00    -0.541 C  
HETATM    2  C   UNL     1      -9.232  18.668  66.620  1.00  0.00    -0.321 C  
ENDROOT
BRANCH   2   3
HETATM    3  C   UNL     1     -10.458  18.063  65.994  1.00  0.00    -0.317 C  
HETATM    4  C   UNL     1     -10.702  16.744  65.869  1.00  0.00    -0.166 C  
BRANCH   4   5
HETATM    5  C   UNL     1      -9.789  15.666  66.373  1.00  0.00    -0.295 C  
BRANCH   5   6
HETATM    6  C   UNL     1      -9.952  15.394  67.843  1.00  0.00    -0.221 C  
HETATM    7  C   UNL     1     -10.898  14.610  68.381  1.00  0.00    -0.250 C  
BRANCH   7   8
HETATM    8  C   UNL     1     -11.853  13.802  67.557  1.00  0.00    -0.422 C  
BRANCH   8   9
HETATM    9  C   UNL     1     -11.451  12.361  67.472  1.00  0.00    -0.410 C  
HETATM   10  C   UNL     1     -11.456  11.482  68.491  1.00  0.00    -0.354 C  
BRANCH  10  11
HETATM   11  C   UNL     1     -11.846  11.766  69.917  1.00  0.00    -0.423 C  
BRANCH  11  12
HETATM   12  C   UNL     1     -12.656  10.699  70.619  1.00  0.00    -0.454 C  
HETATM   13  C   UNL     1     -12.254   9.526  71.142  1.00  0.00    -0.421 C  
BRANCH  13  14
HETATM   14  C   UNL     1     -10.870   8.962  71.065  1.00  0.00    -0.326 C  
BRANCH  14  15
HETATM   15  C   UNL     1     -10.258   8.666  72.402  1.00  0.00    -0.319 C  
HETATM   16  C   UNL     1     -10.320   7.455  72.980  1.00  0.00    -0.356 C  
BRANCH  16  17
HETATM   17  C   UNL     1     -11.074   6.316  72.359  1.00  0.00    -0.307 C  
BRANCH  17  18
HETATM   18  C   UNL     1     -10.173   5.224  71.806  1.00  0.00    -0.269 C  
BRANCH  18  19
HETATM   19  C   UNL     1     -10.283   3.974  72.674  1.00  0.00    -0.232 C  
HETATM   20  C   UNL     1      -9.926   2.727  71.900  1.00  0.00    -0.140 C  
HETATM   21  O   UNL     1      -9.600   2.701  70.724  1.00  0.00    -0.149 OA 
HETATM   22  O   UNL     1     -10.005   1.617  72.663  1.00  0.00    -0.093 OA 
ENDBRANCH  18  19
ENDBRANCH  17  18
ENDBRANCH  16  17
ENDBRANCH  14  15
ENDBRANCH  13  14
ENDBRANCH  11  12
ENDBRANCH  10  11
ENDBRANCH   8   9
ENDBRANCH   7   8
ENDBRANCH   5   6
ENDBRANCH   4   5
ENDBRANCH   2   3
TORSDOF 12
ENDMDL
MODEL      345
REMARK 921   NORMALIZED FREE ENERGY PREDICTED BY IDOCK:   -3.02 KCAL/MOL
REMARK 922        TOTAL FREE ENERGY PREDICTED BY IDOCK:   -7.64 KCAL/MOL
REMARK 923 INTER-LIGAND FREE ENERGY PREDICTED BY IDOCK:   -5.24 KCAL/MOL
REMARK 924 INTRA-LIGAND FREE ENERGY PREDICTED BY IDOCK:   -2.40 KCAL/MOL
REMARK 927      BINDING AFFINITY PREDICTED BY RF-SCORE:    0.00 PKD
ROOT
HETATM    1  C   UNL     1      -7.363   7.022  63.835  1.00  0.00    -0.084 C  
HETATM    2  C   UNL     1      -8.162   6.628  65.067  1.00  0.00    -0.105 C  
ENDROOT
BRANCH   2   3
HETATM    3  C   UNL     1      -8.159   5.140  65.287  1.00  0.00    -0.120 C  
HETATM    4  C   UNL     1      -8.117   4.528  66.485  1.00  0.00    -0.103 C  
BRANCH   4   5
HETATM    5  C   UNL     1      -8.103   5.248  67.801  1.00  0.00    -0.099 C  
BRANCH   5   6
HETATM    6  C   UNL     1      -9.470   5.389  68.413  1.00  0.00    -0.153 C  
HETATM    7  C   UNL     1     -10.085   6.553  68.663  1.00  0.00    -0.175 C  
BRANCH   7   8
HETATM    8  C   UNL     1      -9.522   7.878  68.249  1.00  0.00    -0.149 C  
BRANCH   8   9
HETATM    9  C   UNL     1     -10.479   8.663  67.404  1.00  0.00    -0.351 C  
HETATM   10  C   UNL     1     -10.146   9.635  66.535  1.00  0.00    -0.314 C  
BRANCH  10  11
HETATM   11  C   UNL     1      -8.759  10.144  66.247  1.00  0.00    -0.152 C  
BRANCH  11  12
HETATM   12  C   UNL     1      -8.141  11.045  67.293  1.00  0.00    -0.126 C  
HETATM   13  C   UNL     1      -8.549  12.252  67.730  1.00  0.00    -0.170 C  
BRANCH  13  14
HETATM   14  C   UNL     1      -9.706  13.032  67.191  1.00  0.00    -0.230 C  
BRANCH  14  15
HETATM   15  C   UNL     1     -10.402  13.876  68.217  1.00  0.00    -0.249 C  
HETATM   16  C   UNL     1     -11.373  13.402  69.015  1.00  0.00    -0.335 C  
BRANCH  16  17
HETATM   17  C   UNL     1     -11.889  11.999  68.890  1.00  0.00    -0.356 C  
BRANCH  17  18
HETATM   18  C   UNL     1     -11.411  11.077  69.999  1.00  0.00    -0.398 C  
BRANCH  18  19
HETATM   19  C   UNL     1     -12.586  10.693  70.894  1.00  0.00    -0.503 C  
HETATM   20  C   UNL     1     -12.318   9.408  71.641  1.00  0.00    -0.385 C  
HETATM   21  O   UNL     1     -11.302   8.740  71.545  1.00  0.00    -0.261 OA 
HETATM   22  O   UNL     1     -13.345   9.068  72.448  1.00  0.00    -0.423 OA 
ENDBRANCH  18  19
ENDBRANCH  17  18
ENDBRANCH  16  17
ENDBRANCH  14  15
ENDBRANCH  13  14
ENDBRANCH  11  12
ENDBRANCH  10  11
ENDBRANCH   8   9
ENDBRANCH   7   8
ENDBRANCH   5   6
ENDBRANCH   4   5
ENDBRANCH   2   3
TORSDOF 12
ENDMDL
MODEL      346
REMARK 921   NORMALIZED FREE ENERGY PREDICTED BY IDOCK:   -3.01 KCAL/MOL
REMARK 922        TOTAL FREE ENERGY PREDICTED BY IDOCK:   -7.63 KCAL/MOL
REMARK 923 INTER-LIGAND FREE ENERGY PREDICTED BY IDOCK:   -7.67 KCAL/MOL
REMARK 924 INTRA-LIGAND FREE ENERGY PREDICTED BY IDOCK:    0.04 KCAL/MOL
REMARK 927      BINDING AFFINITY PREDICTED BY RF-SCORE:    0.00 PKD
ROOT
HETATM    1  C   UNL     1     -11.943  15.861  72.141  1.00  0.00    -0.612 C  
HETATM    2  C   UNL     1     -13.419  15.519  72.012  1.00  0.00    -0.578 C  
ENDROOT
BRANCH   2   3
HETATM    3  C   UNL     1     -13.780  14.283  72.789  1.00  0.00    -0.456 C  
HETATM    4  C   UNL     1     -13.506  13.018  72.416  1.00  0.00    -0.615 C  
BRANCH   4   5
HETATM    5  C   UNL     1     -12.758  12.649  71.169  1.00  0.00    -0.347 C  
BRANCH   5   6
HETATM    6  C   UNL     1     -12.567  11.165  71.012  1.00  0.00    -0.503 C  
HETATM    7  C   UNL     1     -11.862  10.578  70.035  1.00  0.00    -0.388 C  
BRANCH   7   8
HETATM    8  C   UNL     1     -11.067  11.351  69.027  1.00  0.00    -0.300 C  
BRANCH   8   9
HETATM    9  C   UNL     1     -11.376  12.817  69.063  1.00  0.00    -0.346 C  
HETATM   10  C   UNL     1     -11.766  13.564  68.014  1.00  0.00    -0.394 C  
BRANCH  10  11
HETATM   11  C   UNL     1     -11.952  13.092  66.597  1.00  0.00    -0.451 C  
BRANCH  11  12
HETATM   12  C   UNL     1     -10.744  13.185  65.692  1.00  0.00    -0.294 C  
HETATM   13  C   UNL     1     -10.163  14.272  65.150  1.00  0.00    -0.414 C  
BRANCH  13  14
HETATM   14  C   UNL     1     -10.661  15.679  65.266  1.00  0.00    -0.448 C  
BRANCH  14  15
HETATM   15  C   UNL     1     -10.642  16.217  66.666  1.00  0.00    -0.274 C  
HETATM   16  C   UNL     1      -9.643  16.977  67.143  1.00  0.00    -0.253 C  
BRANCH  16  17
HETATM   17  C   UNL     1      -8.424  17.291  66.325  1.00  0.00    -0.278 C  
BRANCH  17  18
HETATM   18  C   UNL     1      -7.221  16.435  66.681  1.00  0.00    -0.208 C  
BRANCH  18  19
HETATM   19  C   UNL     1      -7.082  16.343  68.197  1.00  0.00    -0.145 C  
HETATM   20  C   UNL     1      -6.499  15.015  68.622  1.00  0.00    -0.087 C  
HETATM   21  O   UNL     1      -6.183  14.113  67.864  1.00  0.00    -0.135 OA 
HETATM   22  O   UNL     1      -6.357  14.929  69.961  1.00  0.00    -0.144 OA 
ENDBRANCH  18  19
ENDBRANCH  17  18
ENDBRANCH  16  17
ENDBRANCH  14  15
ENDBRANCH  13  14
ENDBRANCH  11  12
ENDBRANCH  10  11
ENDBRANCH   8   9
ENDBRANCH   7   8
ENDBRANCH   5   6
ENDBRANCH   4   5
ENDBRANCH   2   3
TORSDOF 12
ENDMDL
MODEL      347
REMARK 921   NORMALIZED FREE ENERGY PREDICTED BY IDOCK:   -3.00 KCAL/MOL
REMARK 922        TOTAL FREE ENERGY PREDICTED BY IDOCK:   -7.62 KCAL/MOL
REMARK 923 INTER-LIGAND FREE ENERGY PREDICTED BY IDOCK:   -6.94 KCAL/MOL
REMARK 924 INTRA-LIGAND FREE ENERGY PREDICTED BY IDOCK:   -0.68 KCAL/MOL
REMARK 927      BINDING AFFINITY PREDICTED BY RF-SCORE:    0.00 PKD
ROOT
HETATM    1  C   UNL     1     -10.371  10.799  64.181  1.00  0.00    -0.382 C  
HETATM    2  C   UNL     1     -10.498  12.226  63.674  1.00  0.00    -0.483 C  
ENDROOT
BRANCH   2   3
HETATM    3  C   UNL     1     -11.890  12.766  63.857  1.00  0.00    -0.541 C  
HETATM    4  C   UNL     1     -12.518  12.925  65.038  1.00  0.00    -0.553 C  
BRANCH   4   5
HETATM    5  C   UNL     1     -11.900  12.615  66.370  1.00  0.00    -0.466 C  
BRANCH   5   6
HETATM    6  C   UNL     1     -11.881  13.797  67.300  1.00  0.00    -0.436 C  
HETATM    7  C   UNL     1     -11.793  13.724  68.636  1.00  0.00    -0.409 C  
BRANCH   7   8
HETATM    8  C   UNL     1     -11.581  12.434  69.369  1.00  0.00    -0.371 C  
BRANCH   8   9
HETATM    9  C   UNL     1     -12.306  12.401  70.680  1.00  0.00    -0.367 C  
HETATM   10  C   UNL     1     -12.834  11.306  71.258  1.00  0.00    -0.491 C  
BRANCH  10  11
HETATM   11  C   UNL     1     -12.823   9.906  70.706  1.00  0.00    -0.290 C  
BRANCH  11  12
HETATM   12  C   UNL     1     -13.812   8.936  71.310  1.00  0.00    -0.231 C  
HETATM   13  C   UNL     1     -13.641   7.647  71.659  1.00  0.00    -0.431 C  
BRANCH  13  14
HETATM   14  C   UNL     1     -12.401   6.838  71.437  1.00  0.00    -0.403 C  
BRANCH  14  15
HETATM   15  C   UNL     1     -11.964   6.053  72.637  1.00  0.00    -0.104 C  
HETATM   16  C   UNL     1     -10.675   5.787  72.906  1.00  0.00    -0.282 C  
BRANCH  16  17
HETATM   17  C   UNL     1      -9.569   6.200  71.979  1.00  0.00    -0.164 C  
BRANCH  17  18
HETATM   18  C   UNL     1      -8.585   5.083  71.677  1.00  0.00    -0.132 C  
BRANCH  18  19
HETATM   19  C   UNL     1      -8.174   5.140  70.208  1.00  0.00    -0.090 C  
HETATM   20  C   UNL     1      -8.716   3.962  69.434  1.00  0.00    -0.079 C  
HETATM   21  O   UNL     1      -9.390   3.061  69.908  1.00  0.00    -0.143 OA 
HETATM   22  O   UNL     1      -8.372   4.010  68.130  1.00  0.00    -0.090 OA 
ENDBRANCH  18  19
ENDBRANCH  17  18
ENDBRANCH  16  17
ENDBRANCH  14  15
ENDBRANCH  13  14
ENDBRANCH  11  12
ENDBRANCH  10  11
ENDBRANCH   8   9
ENDBRANCH   7   8
ENDBRANCH   5   6
ENDBRANCH   4   5
ENDBRANCH   2   3
TORSDOF 12
ENDMDL
MODEL      348
REMARK 921   NORMALIZED FREE ENERGY PREDICTED BY IDOCK:   -3.00 KCAL/MOL
REMARK 922        TOTAL FREE ENERGY PREDICTED BY IDOCK:   -7.61 KCAL/MOL
REMARK 923 INTER-LIGAND FREE ENERGY PREDICTED BY IDOCK:   -6.23 KCAL/MOL
REMARK 924 INTRA-LIGAND FREE ENERGY PREDICTED BY IDOCK:   -1.38 KCAL/MOL
REMARK 927      BINDING AFFINITY PREDICTED BY RF-SCORE:    0.00 PKD
ROOT
HETATM    1  C   UNL     1     -10.773   2.180  73.572  1.00  0.00    -0.253 C  
HETATM    2  C   UNL     1     -10.085   3.512  73.315  1.00  0.00    -0.205 C  
ENDROOT
BRANCH   2   3
HETATM    3  C   UNL     1     -11.068   4.647  73.240  1.00  0.00    -0.403 C  
HETATM    4  C   UNL     1     -10.789   5.940  73.492  1.00  0.00    -0.246 C  
BRANCH   4   5
HETATM    5  C   UNL     1      -9.428   6.454  73.858  1.00  0.00    -0.178 C  
BRANCH   5   6
HETATM    6  C   UNL     1      -9.069   7.731  73.148  1.00  0.00    -0.280 C  
HETATM    7  C   UNL     1      -8.506   7.805  71.934  1.00  0.00    -0.140 C  
BRANCH   7   8
HETATM    8  C   UNL     1      -8.270   6.604  71.070  1.00  0.00    -0.120 C  
BRANCH   8   9
HETATM    9  C   UNL     1      -9.433   6.314  70.171  1.00  0.00    -0.172 C  
HETATM   10  C   UNL     1      -9.638   6.851  68.954  1.00  0.00    -0.139 C  
BRANCH  10  11
HETATM   11  C   UNL     1      -8.762   7.858  68.259  1.00  0.00    -0.130 C  
BRANCH  11  12
HETATM   12  C   UNL     1      -9.091   8.153  66.813  1.00  0.00    -0.191 C  
HETATM   13  C   UNL     1      -9.878   9.115  66.294  1.00  0.00    -0.359 C  
BRANCH  13  14
HETATM   14  C   UNL     1     -10.699  10.090  67.078  1.00  0.00    -0.248 C  
BRANCH  14  15
HETATM   15  C   UNL     1      -9.988  11.373  67.388  1.00  0.00    -0.207 C  
HETATM   16  C   UNL     1     -10.282  12.535  66.782  1.00  0.00    -0.243 C  
BRANCH  16  17
HETATM   17  C   UNL     1     -11.306  12.624  65.688  1.00  0.00    -0.357 C  
BRANCH  17  18
HETATM   18  C   UNL     1     -12.351  13.701  65.923  1.00  0.00    -0.516 C  
BRANCH  18  19
HETATM   19  C   UNL     1     -11.775  15.067  65.567  1.00  0.00    -0.145 C  
HETATM   20  C   UNL     1     -12.120  15.465  64.151  1.00  0.00    -0.088 C  
HETATM   21  O   UNL     1     -12.769  14.786  63.371  1.00  0.00    -0.407 OA 
HETATM   22  O   UNL     1     -11.628  16.680  63.831  1.00  0.00    -1.204 OA 
ENDBRANCH  18  19
ENDBRANCH  17  18
ENDBRANCH  16  17
ENDBRANCH  14  15
ENDBRANCH  13  14
ENDBRANCH  11  12
ENDBRANCH  10  11
ENDBRANCH   8   9
ENDBRANCH   7   8
ENDBRANCH   5   6
ENDBRANCH   4   5
ENDBRANCH   2   3
TORSDOF 12
ENDMDL
MODEL      349
REMARK 921   NORMALIZED FREE ENERGY PREDICTED BY IDOCK:   -2.99 KCAL/MOL
REMARK 922        TOTAL FREE ENERGY PREDICTED BY IDOCK:   -7.60 KCAL/MOL
REMARK 923 INTER-LIGAND FREE ENERGY PREDICTED BY IDOCK:   -5.46 KCAL/MOL
REMARK 924 INTRA-LIGAND FREE ENERGY PREDICTED BY IDOCK:   -2.13 KCAL/MOL
REMARK 927      BINDING AFFINITY PREDICTED BY RF-SCORE:    0.00 PKD
ROOT
HETATM    1  C   UNL     1      -7.124   8.453  62.532  1.00  0.00    -0.091 C  
HETATM    2  C   UNL     1      -7.638   7.958  63.875  1.00  0.00    -0.121 C  
ENDROOT
BRANCH   2   3
HETATM    3  C   UNL     1      -7.767   6.460  63.910  1.00  0.00    -0.104 C  
HETATM    4  C   UNL     1      -8.098   5.729  64.991  1.00  0.00    -0.131 C  
BRANCH   4   5
HETATM    5  C   UNL     1      -8.425   6.311  66.335  1.00  0.00    -0.125 C  
BRANCH   5   6
HETATM    6  C   UNL     1      -9.902   6.493  66.555  1.00  0.00    -0.169 C  
HETATM    7  C   UNL     1     -10.482   7.620  66.991  1.00  0.00    -0.419 C  
BRANCH   7   8
HETATM    8  C   UNL     1      -9.726   8.896  67.204  1.00  0.00    -0.241 C  
BRANCH   8   9
HETATM    9  C   UNL     1      -9.845   9.828  66.036  1.00  0.00    -0.342 C  
HETATM   10  C   UNL     1      -9.029  10.865  65.771  1.00  0.00    -0.208 C  
BRANCH  10  11
HETATM   11  C   UNL     1      -7.851  11.311  66.594  1.00  0.00    -0.152 C  
BRANCH  11  12
HETATM   12  C   UNL     1      -8.165  12.028  67.888  1.00  0.00    -0.153 C  
HETATM   13  C   UNL     1      -8.488  13.319  68.093  1.00  0.00    -0.173 C  
BRANCH  13  14
HETATM   14  C   UNL     1      -8.525  14.388  67.047  1.00  0.00    -0.206 C  
BRANCH  14  15
HETATM   15  C   UNL     1      -9.457  15.519  67.367  1.00  0.00    -0.213 C  
HETATM   16  C   UNL     1     -10.718  15.577  66.910  1.00  0.00    -0.317 C  
BRANCH  16  17
HETATM   17  C   UNL     1     -11.274  14.540  65.979  1.00  0.00    -0.337 C  
BRANCH  17  18
HETATM   18  C   UNL     1     -12.261  13.596  66.645  1.00  0.00    -0.437 C  
BRANCH  18  19
HETATM   19  C   UNL     1     -12.026  13.581  68.152  1.00  0.00    -0.376 C  
HETATM   20  C   UNL     1     -12.018  12.173  68.700  1.00  0.00    -0.237 C  
HETATM   21  O   UNL     1     -12.189  11.163  68.038  1.00  0.00    -0.584 OA 
HETATM   22  O   UNL     1     -11.796  12.148  70.031  1.00  0.00    -0.328 OA 
ENDBRANCH  18  19
ENDBRANCH  17  18
ENDBRANCH  16  17
ENDBRANCH  14  15
ENDBRANCH  13  14
ENDBRANCH  11  12
ENDBRANCH  10  11
ENDBRANCH   8   9
ENDBRANCH   7   8
ENDBRANCH   5   6
ENDBRANCH   4   5
ENDBRANCH   2   3
TORSDOF 12
ENDMDL
MODEL      350
REMARK 921   NORMALIZED FREE ENERGY PREDICTED BY IDOCK:   -2.98 KCAL/MOL
REMARK 922        TOTAL FREE ENERGY PREDICTED BY IDOCK:   -7.58 KCAL/MOL
REMARK 923 INTER-LIGAND FREE ENERGY PREDICTED BY IDOCK:   -4.95 KCAL/MOL
REMARK 924 INTRA-LIGAND FREE ENERGY PREDICTED BY IDOCK:   -2.63 KCAL/MOL
REMARK 927      BINDING AFFINITY PREDICTED BY RF-SCORE:    0.00 PKD
ROOT
HETATM    1  C   UNL     1      -8.279   9.858  69.940  1.00  0.00    -0.199 C  
HETATM    2  C   UNL     1      -9.789   9.742  70.081  1.00  0.00    -0.306 C  
ENDROOT
BRANCH   2   3
HETATM    3  C   UNL     1     -10.454   9.427  68.770  1.00  0.00    -0.236 C  
HETATM    4  C   UNL     1     -11.333  10.221  68.129  1.00  0.00    -0.233 C  
BRANCH   4   5
HETATM    5  C   UNL     1     -11.761  11.573  68.618  1.00  0.00    -0.389 C  
BRANCH   5   6
HETATM    6  C   UNL     1     -10.919  12.693  68.070  1.00  0.00    -0.266 C  
HETATM    7  C   UNL     1     -10.914  13.098  66.793  1.00  0.00    -0.298 C  
BRANCH   7   8
HETATM    8  C   UNL     1     -11.851  12.551  65.760  1.00  0.00    -0.494 C  
BRANCH   8   9
HETATM    9  C   UNL     1     -11.238  12.527  64.393  1.00  0.00    -0.388 C  
HETATM   10  C   UNL     1     -10.436  11.561  63.908  1.00  0.00    -0.439 C  
BRANCH  10  11
HETATM   11  C   UNL     1      -9.977  10.326  64.637  1.00  0.00    -0.377 C  
BRANCH  11  12
HETATM   12  C   UNL     1      -8.845  10.507  65.621  1.00  0.00    -0.197 C  
HETATM   13  C   UNL     1      -7.928   9.615  66.044  1.00  0.00    -0.108 C  
BRANCH  13  14
HETATM   14  C   UNL     1      -7.885   8.165  65.675  1.00  0.00    -0.098 C  
BRANCH  14  15
HETATM   15  C   UNL     1      -9.152   7.422  65.979  1.00  0.00    -0.129 C  
HETATM   16  C   UNL     1      -9.315   6.681  67.087  1.00  0.00    -0.150 C  
BRANCH  16  17
HETATM   17  C   UNL     1      -8.207   6.481  68.079  1.00  0.00    -0.116 C  
BRANCH  17  18
HETATM   18  C   UNL     1      -8.690   6.003  69.438  1.00  0.00    -0.121 C  
BRANCH  18  19
HETATM   19  C   UNL     1      -7.632   6.299  70.496  1.00  0.00    -0.096 C  
HETATM   20  C   UNL     1      -7.868   5.500  71.757  1.00  0.00    -0.112 C  
HETATM   21  O   UNL     1      -8.791   4.721  71.930  1.00  0.00    -0.121 OA 
HETATM   22  O   UNL     1      -6.928   5.743  72.694  1.00  0.00    -0.076 OA 
ENDBRANCH  18  19
ENDBRANCH  17  18
ENDBRANCH  16  17
ENDBRANCH  14  15
ENDBRANCH  13  14
ENDBRANCH  11  12
ENDBRANCH  10  11
ENDBRANCH   8   9
ENDBRANCH   7   8
ENDBRANCH   5   6
ENDBRANCH   4   5
ENDBRANCH   2   3
TORSDOF 12
ENDMDL
MODEL      351
REMARK 921   NORMALIZED FREE ENERGY PREDICTED BY IDOCK:   -2.96 KCAL/MOL
REMARK 922        TOTAL FREE ENERGY PREDICTED BY IDOCK:   -7.54 KCAL/MOL
REMARK 923 INTER-LIGAND FREE ENERGY PREDICTED BY IDOCK:   -5.47 KCAL/MOL
REMARK 924 INTRA-LIGAND FREE ENERGY PREDICTED BY IDOCK:   -2.07 KCAL/MOL
REMARK 927      BINDING AFFINITY PREDICTED BY RF-SCORE:    0.00 PKD
ROOT
HETATM    1  C   UNL     1      -9.339   5.393  71.437  1.00  0.00    -0.179 C  
HETATM    2  C   UNL     1     -10.092   4.624  70.364  1.00  0.00    -0.275 C  
ENDROOT
BRANCH   2   3
HETATM    3  C   UNL     1      -9.170   3.791  69.517  1.00  0.00    -0.226 C  
HETATM    4  C   UNL     1      -9.178   3.739  68.172  1.00  0.00    -0.214 C  
BRANCH   4   5
HETATM    5  C   UNL     1     -10.097   4.543  67.302  1.00  0.00    -0.138 C  
BRANCH   5   6
HETATM    6  C   UNL     1      -9.378   5.282  66.207  1.00  0.00    -0.159 C  
HETATM    7  C   UNL     1      -8.997   6.566  66.265  1.00  0.00    -0.168 C  
BRANCH   7   8
HETATM    8  C   UNL     1      -9.142   7.404  67.499  1.00  0.00    -0.128 C  
BRANCH   8   9
HETATM    9  C   UNL     1      -7.835   7.606  68.204  1.00  0.00    -0.121 C  
HETATM   10  C   UNL     1      -6.964   8.605  67.972  1.00  0.00    -0.075 C  
BRANCH  10  11
HETATM   11  C   UNL     1      -7.111   9.705  66.956  1.00  0.00    -0.086 C  
BRANCH  11  12
HETATM   12  C   UNL     1      -7.364  11.094  67.497  1.00  0.00    -0.102 C  
HETATM   13  C   UNL     1      -8.507  11.635  67.962  1.00  0.00    -0.151 C  
BRANCH  13  14
HETATM   14  C   UNL     1      -9.849  10.974  67.965  1.00  0.00    -0.183 C  
BRANCH  14  15
HETATM   15  C   UNL     1     -10.510  10.933  66.619  1.00  0.00    -0.307 C  
HETATM   16  C   UNL     1     -11.384  11.866  66.206  1.00  0.00    -0.394 C  
BRANCH  16  17
HETATM   17  C   UNL     1     -11.824  12.991  67.097  1.00  0.00    -0.431 C  
BRANCH  17  18
HETATM   18  C   UNL     1     -11.988  14.312  66.366  1.00  0.00    -0.438 C  
BRANCH  18  19
HETATM   19  C   UNL     1     -10.942  15.308  66.859  1.00  0.00    -0.315 C  
HETATM   20  C   UNL     1     -10.456  16.201  65.742  1.00  0.00    -0.367 C  
HETATM   21  O   UNL     1     -10.831  16.141  64.582  1.00  0.00    -0.650 OA 
HETATM   22  O   UNL     1      -9.542  17.097  66.170  1.00  0.00    -0.364 OA 
ENDBRANCH  18  19
ENDBRANCH  17  18
ENDBRANCH  16  17
ENDBRANCH  14  15
ENDBRANCH  13  14
ENDBRANCH  11  12
ENDBRANCH  10  11
ENDBRANCH   8   9
ENDBRANCH   7   8
ENDBRANCH   5   6
ENDBRANCH   4   5
ENDBRANCH   2   3
TORSDOF 12
ENDMDL
MODEL      352
REMARK 921   NORMALIZED FREE ENERGY PREDICTED BY IDOCK:   -2.96 KCAL/MOL
REMARK 922        TOTAL FREE ENERGY PREDICTED BY IDOCK:   -7.54 KCAL/MOL
REMARK 923 INTER-LIGAND FREE ENERGY PREDICTED BY IDOCK:   -5.22 KCAL/MOL
REMARK 924 INTRA-LIGAND FREE ENERGY PREDICTED BY IDOCK:   -2.31 KCAL/MOL
REMARK 927      BINDING AFFINITY PREDICTED BY RF-SCORE:    0.00 PKD
ROOT
HETATM    1  C   UNL     1      -8.551   6.967  65.829  1.00  0.00    -0.139 C  
HETATM    2  C   UNL     1      -7.972   8.022  64.900  1.00  0.00    -0.138 C  
ENDROOT
BRANCH   2   3
HETATM    3  C   UNL     1      -7.653   9.298  65.628  1.00  0.00    -0.094 C  
HETATM    4  C   UNL     1      -7.994  10.536  65.224  1.00  0.00    -0.112 C  
BRANCH   4   5
HETATM    5  C   UNL     1      -8.787  10.829  63.984  1.00  0.00    -0.120 C  
BRANCH   5   6
HETATM    6  C   UNL     1     -10.262  10.589  64.156  1.00  0.00    -0.287 C  
HETATM    7  C   UNL     1     -11.188  11.548  64.298  1.00  0.00    -0.358 C  
BRANCH   7   8
HETATM    8  C   UNL     1     -10.872  13.008  64.184  1.00  0.00    -0.433 C  
BRANCH   8   9
HETATM    9  C   UNL     1     -12.061  13.871  64.478  1.00  0.00    -0.473 C  
HETATM   10  C   UNL     1     -12.539  14.159  65.703  1.00  0.00    -0.495 C  
BRANCH  10  11
HETATM   11  C   UNL     1     -11.995  13.666  67.017  1.00  0.00    -0.448 C  
BRANCH  11  12
HETATM   12  C   UNL     1     -10.491  13.678  67.171  1.00  0.00    -0.264 C  
HETATM   13  C   UNL     1      -9.689  12.797  67.797  1.00  0.00    -0.207 C  
BRANCH  13  14
HETATM   14  C   UNL     1     -10.142  11.607  68.583  1.00  0.00    -0.206 C  
BRANCH  14  15
HETATM   15  C   UNL     1     -10.790  10.540  67.751  1.00  0.00    -0.347 C  
HETATM   16  C   UNL     1     -10.490   9.237  67.872  1.00  0.00    -0.290 C  
BRANCH  16  17
HETATM   17  C   UNL     1      -9.422   8.751  68.807  1.00  0.00    -0.142 C  
BRANCH  17  18
HETATM   18  C   UNL     1      -9.794   7.473  69.538  1.00  0.00    -0.169 C  
BRANCH  18  19
HETATM   19  C   UNL     1      -8.659   6.460  69.419  1.00  0.00    -0.130 C  
HETATM   20  C   UNL     1      -8.990   5.168  70.127  1.00  0.00    -0.119 C  
HETATM   21  O   UNL     1     -10.025   4.946  70.735  1.00  0.00    -0.195 OA 
HETATM   22  O   UNL     1      -7.998   4.259  70.014  1.00  0.00    -0.055 OA 
ENDBRANCH  18  19
ENDBRANCH  17  18
ENDBRANCH  16  17
ENDBRANCH  14  15
ENDBRANCH  13  14
ENDBRANCH  11  12
ENDBRANCH  10  11
ENDBRANCH   8   9
ENDBRANCH   7   8
ENDBRANCH   5   6
ENDBRANCH   4   5
ENDBRANCH   2   3
TORSDOF 12
ENDMDL
MODEL      353
REMARK 921   NORMALIZED FREE ENERGY PREDICTED BY IDOCK:   -2.95 KCAL/MOL
REMARK 922        TOTAL FREE ENERGY PREDICTED BY IDOCK:   -7.52 KCAL/MOL
REMARK 923 INTER-LIGAND FREE ENERGY PREDICTED BY IDOCK:   -5.52 KCAL/MOL
REMARK 924 INTRA-LIGAND FREE ENERGY PREDICTED BY IDOCK:   -2.00 KCAL/MOL
REMARK 927      BINDING AFFINITY PREDICTED BY RF-SCORE:    0.00 PKD
ROOT
HETATM    1  C   UNL     1      -9.154  13.122  67.402  1.00  0.00    -0.208 C  
HETATM    2  C   UNL     1     -10.554  13.453  67.894  1.00  0.00    -0.253 C  
ENDROOT
BRANCH   2   3
HETATM    3  C   UNL     1     -11.545  12.382  67.531  1.00  0.00    -0.431 C  
HETATM    4  C   UNL     1     -11.908  11.352  68.320  1.00  0.00    -0.320 C  
BRANCH   4   5
HETATM    5  C   UNL     1     -11.396  11.136  69.713  1.00  0.00    -0.354 C  
BRANCH   5   6
HETATM    6  C   UNL     1     -10.272  10.139  69.781  1.00  0.00    -0.286 C  
HETATM    7  C   UNL     1     -10.097   9.241  70.760  1.00  0.00    -0.358 C  
BRANCH   7   8
HETATM    8  C   UNL     1     -11.085   9.040  71.868  1.00  0.00    -0.433 C  
BRANCH   8   9
HETATM    9  C   UNL     1     -12.265   8.224  71.436  1.00  0.00    -0.328 C  
HETATM   10  C   UNL     1     -12.317   6.879  71.396  1.00  0.00    -0.421 C  
BRANCH  10  11
HETATM   11  C   UNL     1     -11.209   5.927  71.756  1.00  0.00    -0.311 C  
BRANCH  11  12
HETATM   12  C   UNL     1     -11.046   5.607  73.225  1.00  0.00    -0.288 C  
HETATM   13  C   UNL     1     -10.742   4.436  73.816  1.00  0.00    -0.344 C  
BRANCH  13  14
HETATM   14  C   UNL     1     -10.575   3.122  73.119  1.00  0.00    -0.261 C  
BRANCH  14  15
HETATM   15  C   UNL     1      -9.146   2.754  72.850  1.00  0.00    -0.109 C  
HETATM   16  C   UNL     1      -8.625   2.706  71.613  1.00  0.00    -0.096 C  
BRANCH  16  17
HETATM   17  C   UNL     1      -9.459   2.951  70.390  1.00  0.00    -0.201 C  
BRANCH  17  18
HETATM   18  C   UNL     1      -8.768   3.815  69.349  1.00  0.00    -0.127 C  
BRANCH  18  19
HETATM   19  C   UNL     1      -7.824   4.797  70.036  1.00  0.00    -0.065 C  
HETATM   20  C   UNL     1      -8.158   6.227  69.685  1.00  0.00    -0.120 C  
HETATM   21  O   UNL     1      -9.059   6.574  68.937  1.00  0.00    -0.131 OA 
HETATM   22  O   UNL     1      -7.338   7.105  70.299  1.00  0.00    -0.079 OA 
ENDBRANCH  18  19
ENDBRANCH  17  18
ENDBRANCH  16  17
ENDBRANCH  14  15
ENDBRANCH  13  14
ENDBRANCH  11  12
ENDBRANCH  10  11
ENDBRANCH   8   9
ENDBRANCH   7   8
ENDBRANCH   5   6
ENDBRANCH   4   5
ENDBRANCH   2   3
TORSDOF 12
ENDMDL
MODEL      354
REMARK 921   NORMALIZED FREE ENERGY PREDICTED BY IDOCK:   -2.94 KCAL/MOL
REMARK 922        TOTAL FREE ENERGY PREDICTED BY IDOCK:   -7.51 KCAL/MOL
REMARK 923 INTER-LIGAND FREE ENERGY PREDICTED BY IDOCK:   -5.73 KCAL/MOL
REMARK 924 INTRA-LIGAND FREE ENERGY PREDICTED BY IDOCK:   -1.77 KCAL/MOL
REMARK 927      BINDING AFFINITY PREDICTED BY RF-SCORE:    0.00 PKD
ROOT
HETATM    1  C   UNL     1     -10.840  13.976  68.540  1.00  0.00    -0.268 C  
HETATM    2  C   UNL     1     -11.907  13.474  67.579  1.00  0.00    -0.406 C  
ENDROOT
BRANCH   2   3
HETATM    3  C   UNL     1     -12.004  14.332  66.348  1.00  0.00    -0.438 C  
HETATM    4  C   UNL     1     -12.233  13.884  65.099  1.00  0.00    -0.443 C  
BRANCH   4   5
HETATM    5  C   UNL     1     -12.464  12.444  64.749  1.00  0.00    -0.480 C  
BRANCH   5   6
HETATM    6  C   UNL     1     -11.505  11.927  63.713  1.00  0.00    -0.542 C  
HETATM    7  C   UNL     1     -10.486  11.089  63.955  1.00  0.00    -0.433 C  
BRANCH   7   8
HETATM    8  C   UNL     1     -10.248  10.463  65.295  1.00  0.00    -0.332 C  
BRANCH   8   9
HETATM    9  C   UNL     1      -9.477  11.363  66.213  1.00  0.00    -0.229 C  
HETATM   10  C   UNL     1      -8.160  11.278  66.474  1.00  0.00    -0.160 C  
BRANCH  10  11
HETATM   11  C   UNL     1      -7.200  10.260  65.919  1.00  0.00    -0.131 C  
BRANCH  11  12
HETATM   12  C   UNL     1      -7.196   8.904  66.587  1.00  0.00    -0.085 C  
HETATM   13  C   UNL     1      -7.097   8.594  67.893  1.00  0.00    -0.083 C  
BRANCH  13  14
HETATM   14  C   UNL     1      -6.877   9.567  69.009  1.00  0.00    -0.054 C  
BRANCH  14  15
HETATM   15  C   UNL     1      -8.134   9.971  69.721  1.00  0.00    -0.188 C  
HETATM   16  C   UNL     1      -8.538   9.402  70.869  1.00  0.00    -0.135 C  
BRANCH  16  17
HETATM   17  C   UNL     1      -7.791   8.260  71.494  1.00  0.00    -0.138 C  
BRANCH  17  18
HETATM   18  C   UNL     1      -8.697   7.172  72.042  1.00  0.00    -0.130 C  
BRANCH  18  19
HETATM   19  C   UNL     1     -10.032   7.190  71.304  1.00  0.00    -0.192 C  
HETATM   20  C   UNL     1     -11.193   7.341  72.258  1.00  0.00    -0.267 C  
HETATM   21  O   UNL     1     -11.097   7.428  73.471  1.00  0.00    -0.290 OA 
HETATM   22  O   UNL     1     -12.378   7.374  71.613  1.00  0.00    -0.310 OA 
ENDBRANCH  18  19
ENDBRANCH  17  18
ENDBRANCH  16  17
ENDBRANCH  14  15
ENDBRANCH  13  14
ENDBRANCH  11  12
ENDBRANCH  10  11
ENDBRANCH   8   9
ENDBRANCH   7   8
ENDBRANCH   5   6
ENDBRANCH   4   5
ENDBRANCH   2   3
TORSDOF 12
ENDMDL
MODEL      355
REMARK 921   NORMALIZED FREE ENERGY PREDICTED BY IDOCK:   -2.94 KCAL/MOL
REMARK 922        TOTAL FREE ENERGY PREDICTED BY IDOCK:   -7.51 KCAL/MOL
REMARK 923 INTER-LIGAND FREE ENERGY PREDICTED BY IDOCK:   -6.53 KCAL/MOL
REMARK 924 INTRA-LIGAND FREE ENERGY PREDICTED BY IDOCK:   -0.97 KCAL/MOL
REMARK 927      BINDING AFFINITY PREDICTED BY RF-SCORE:    0.00 PKD
ROOT
HETATM    1  C   UNL     1      -7.832   5.151  72.245  1.00  0.00    -0.101 C  
HETATM    2  C   UNL     1      -8.844   4.843  71.153  1.00  0.00    -0.151 C  
ENDROOT
BRANCH   2   3
HETATM    3  C   UNL     1     -10.255   5.093  71.608  1.00  0.00    -0.276 C  
HETATM    4  C   UNL     1     -11.093   6.010  71.089  1.00  0.00    -0.336 C  
BRANCH   4   5
HETATM    5  C   UNL     1     -10.751   6.910  69.938  1.00  0.00    -0.278 C  
BRANCH   5   6
HETATM    6  C   UNL     1     -11.168   6.350  68.606  1.00  0.00    -0.338 C  
HETATM    7  C   UNL     1     -10.958   6.942  67.422  1.00  0.00    -0.374 C  
BRANCH   7   8
HETATM    8  C   UNL     1     -10.163   8.203  67.271  1.00  0.00    -0.348 C  
BRANCH   8   9
HETATM    9  C   UNL     1     -10.973   9.426  67.577  1.00  0.00    -0.088 C  
HETATM   10  C   UNL     1     -10.816  10.635  67.008  1.00  0.00    -0.298 C  
BRANCH  10  11
HETATM   11  C   UNL     1      -9.793  11.012  65.970  1.00  0.00    -0.273 C  
BRANCH  11  12
HETATM   12  C   UNL     1     -10.326  11.581  64.675  1.00  0.00    -0.349 C  
HETATM   13  C   UNL     1     -11.088  12.672  64.469  1.00  0.00    -0.365 C  
BRANCH  13  14
HETATM   14  C   UNL     1     -11.668  13.547  65.536  1.00  0.00    -0.361 C  
BRANCH  14  15
HETATM   15  C   UNL     1     -10.640  14.211  66.403  1.00  0.00    -0.280 C  
HETATM   16  C   UNL     1     -10.881  14.576  67.672  1.00  0.00    -0.275 C  
BRANCH  16  17
HETATM   17  C   UNL     1     -12.233  14.411  68.302  1.00  0.00    -0.160 C  
BRANCH  17  18
HETATM   18  C   UNL     1     -12.179  13.848  69.712  1.00  0.00    -0.388 C  
BRANCH  18  19
HETATM   19  C   UNL     1     -12.750  14.864  70.697  1.00  0.00    -0.422 C  
HETATM   20  C   UNL     1     -13.047  14.233  72.037  1.00  0.00    -0.372 C  
HETATM   21  O   UNL     1     -12.870  13.057  72.312  1.00  0.00    -0.226 OA 
HETATM   22  O   UNL     1     -13.537  15.127  72.921  1.00  0.00    -0.474 OA 
ENDBRANCH  18  19
ENDBRANCH  17  18
ENDBRANCH  16  17
ENDBRANCH  14  15
ENDBRANCH  13  14
ENDBRANCH  11  12
ENDBRANCH  10  11
ENDBRANCH   8   9
ENDBRANCH   7   8
ENDBRANCH   5   6
ENDBRANCH   4   5
ENDBRANCH   2   3
TORSDOF 12
ENDMDL
MODEL      356
REMARK 921   NORMALIZED FREE ENERGY PREDICTED BY IDOCK:   -2.94 KCAL/MOL
REMARK 922        TOTAL FREE ENERGY PREDICTED BY IDOCK:   -7.50 KCAL/MOL
REMARK 923 INTER-LIGAND FREE ENERGY PREDICTED BY IDOCK:   -5.59 KCAL/MOL
REMARK 924 INTRA-LIGAND FREE ENERGY PREDICTED BY IDOCK:   -1.91 KCAL/MOL
REMARK 927      BINDING AFFINITY PREDICTED BY RF-SCORE:    0.00 PKD
ROOT
HETATM    1  C   UNL     1     -11.323   7.668  72.912  1.00  0.00    -0.394 C  
HETATM    2  C   UNL     1     -10.303   6.756  73.574  1.00  0.00    -0.342 C  
ENDROOT
BRANCH   2   3
HETATM    3  C   UNL     1     -10.615   5.302  73.344  1.00  0.00    -0.300 C  
HETATM    4  C   UNL     1     -10.386   4.625  72.203  1.00  0.00    -0.244 C  
BRANCH   4   5
HETATM    5  C   UNL     1      -9.744   5.218  70.983  1.00  0.00    -0.242 C  
BRANCH   5   6
HETATM    6  C   UNL     1      -9.692   4.266  69.821  1.00  0.00    -0.290 C  
HETATM    7  C   UNL     1      -9.899   4.602  68.539  1.00  0.00    -0.181 C  
BRANCH   7   8
HETATM    8  C   UNL     1     -10.095   6.018  68.090  1.00  0.00    -0.188 C  
BRANCH   8   9
HETATM    9  C   UNL     1      -8.906   6.547  67.348  1.00  0.00    -0.115 C  
HETATM   10  C   UNL     1      -7.882   7.231  67.890  1.00  0.00    -0.118 C  
BRANCH  10  11
HETATM   11  C   UNL     1      -7.728   7.617  69.337  1.00  0.00    -0.107 C  
BRANCH  11  12
HETATM   12  C   UNL     1      -7.497   9.084  69.622  1.00  0.00    -0.076 C  
HETATM   13  C   UNL     1      -8.360  10.012  70.078  1.00  0.00    -0.137 C  
BRANCH  13  14
HETATM   14  C   UNL     1      -9.819   9.799  70.333  1.00  0.00    -0.269 C  
BRANCH  14  15
HETATM   15  C   UNL     1     -10.671   9.884  69.101  1.00  0.00    -0.247 C  
HETATM   16  C   UNL     1     -11.482  10.923  68.844  1.00  0.00    -0.369 C  
BRANCH  16  17
HETATM   17  C   UNL     1     -11.652  12.056  69.814  1.00  0.00    -0.348 C  
BRANCH  17  18
HETATM   18  C   UNL     1     -11.566  13.426  69.164  1.00  0.00    -0.365 C  
BRANCH  18  19
HETATM   19  C   UNL     1     -10.453  13.434  68.120  1.00  0.00    -0.250 C  
HETATM   20  C   UNL     1     -11.005  13.575  66.721  1.00  0.00    -0.292 C  
HETATM   21  O   UNL     1     -12.189  13.661  66.440  1.00  0.00    -0.425 OA 
HETATM   22  O   UNL     1     -10.028  13.600  65.790  1.00  0.00    -0.289 OA 
ENDBRANCH  18  19
ENDBRANCH  17  18
ENDBRANCH  16  17
ENDBRANCH  14  15
ENDBRANCH  13  14
ENDBRANCH  11  12
ENDBRANCH  10  11
ENDBRANCH   8   9
ENDBRANCH   7   8
ENDBRANCH   5   6
ENDBRANCH   4   5
ENDBRANCH   2   3
TORSDOF 12
ENDMDL
MODEL      357
REMARK 921   NORMALIZED FREE ENERGY PREDICTED BY IDOCK:   -2.93 KCAL/MOL
REMARK 922        TOTAL FREE ENERGY PREDICTED BY IDOCK:   -7.49 KCAL/MOL
REMARK 923 INTER-LIGAND FREE ENERGY PREDICTED BY IDOCK:   -5.99 KCAL/MOL
REMARK 924 INTRA-LIGAND FREE ENERGY PREDICTED BY IDOCK:   -1.50 KCAL/MOL
REMARK 927      BINDING AFFINITY PREDICTED BY RF-SCORE:    0.00 PKD
ROOT
HETATM    1  C   UNL     1      -8.925   8.717  71.100  1.00  0.00    -0.280 C  
HETATM    2  C   UNL     1     -10.363   9.186  71.258  1.00  0.00    -0.405 C  
ENDROOT
BRANCH   2   3
HETATM    3  C   UNL     1     -11.153   8.283  72.165  1.00  0.00    -0.397 C  
HETATM    4  C   UNL     1     -11.891   7.229  71.769  1.00  0.00    -0.330 C  
BRANCH   4   5
HETATM    5  C   UNL     1     -12.011   6.770  70.346  1.00  0.00    -0.343 C  
BRANCH   5   6
HETATM    6  C   UNL     1     -10.860   5.908  69.904  1.00  0.00    -0.439 C  
HETATM    7  C   UNL     1     -10.360   5.869  68.661  1.00  0.00    -0.271 C  
BRANCH   7   8
HETATM    8  C   UNL     1     -10.821   6.783  67.567  1.00  0.00    -0.388 C  
BRANCH   8   9
HETATM    9  C   UNL     1      -9.691   7.557  66.960  1.00  0.00    -0.257 C  
HETATM   10  C   UNL     1      -9.626   8.897  66.848  1.00  0.00    -0.248 C  
BRANCH  10  11
HETATM   11  C   UNL     1     -10.673   9.885  67.288  1.00  0.00    -0.304 C  
BRANCH  11  12
HETATM   12  C   UNL     1     -10.182  11.081  68.071  1.00  0.00    -0.201 C  
HETATM   13  C   UNL     1     -10.539  12.375  67.969  1.00  0.00    -0.238 C  
BRANCH  13  14
HETATM   14  C   UNL     1     -11.481  12.945  66.955  1.00  0.00    -0.393 C  
BRANCH  14  15
HETATM   15  C   UNL     1     -10.823  13.332  65.664  1.00  0.00    -0.291 C  
HETATM   16  C   UNL     1      -9.792  14.190  65.599  1.00  0.00    -0.278 C  
BRANCH  16  17
HETATM   17  C   UNL     1      -9.262  14.888  66.817  1.00  0.00    -0.281 C  
BRANCH  17  18
HETATM   18  C   UNL     1      -7.888  14.401  67.244  1.00  0.00    -0.188 C  
BRANCH  18  19
HETATM   19  C   UNL     1      -7.321  15.327  68.316  1.00  0.00    -0.113 C  
HETATM   20  C   UNL     1      -6.723  14.549  69.464  1.00  0.00    -0.151 C  
HETATM   21  O   UNL     1      -6.699  13.332  69.548  1.00  0.00    -0.081 OA 
HETATM   22  O   UNL     1      -6.204  15.359  70.410  1.00  0.00    -0.112 OA 
ENDBRANCH  18  19
ENDBRANCH  17  18
ENDBRANCH  16  17
ENDBRANCH  14  15
ENDBRANCH  13  14
ENDBRANCH  11  12
ENDBRANCH  10  11
ENDBRANCH   8   9
ENDBRANCH   7   8
ENDBRANCH   5   6
ENDBRANCH   4   5
ENDBRANCH   2   3
TORSDOF 12
ENDMDL
MODEL      358
REMARK 921   NORMALIZED FREE ENERGY PREDICTED BY IDOCK:   -2.92 KCAL/MOL
REMARK 922        TOTAL FREE ENERGY PREDICTED BY IDOCK:   -7.48 KCAL/MOL
REMARK 923 INTER-LIGAND FREE ENERGY PREDICTED BY IDOCK:   -5.40 KCAL/MOL
REMARK 924 INTRA-LIGAND FREE ENERGY PREDICTED BY IDOCK:   -2.08 KCAL/MOL
REMARK 927      BINDING AFFINITY PREDICTED BY RF-SCORE:    0.00 PKD
ROOT
HETATM    1  C   UNL     1      -7.495   8.249  64.017  1.00  0.00    -0.110 C  
HETATM    2  C   UNL     1      -8.260   8.190  65.330  1.00  0.00    -0.150 C  
ENDROOT
BRANCH   2   3
HETATM    3  C   UNL     1      -8.497   6.774  65.779  1.00  0.00    -0.150 C  
HETATM    4  C   UNL     1      -8.819   6.395  67.030  1.00  0.00    -0.115 C  
BRANCH   4   5
HETATM    5  C   UNL     1      -9.027   7.345  68.173  1.00  0.00    -0.129 C  
BRANCH   5   6
HETATM    6  C   UNL     1     -10.401   7.957  68.189  1.00  0.00    -0.249 C  
HETATM    7  C   UNL     1     -10.658   9.269  68.275  1.00  0.00    -0.237 C  
BRANCH   7   8
HETATM    8  C   UNL     1      -9.585  10.314  68.247  1.00  0.00    -0.151 C  
BRANCH   8   9
HETATM    9  C   UNL     1      -9.457  10.961  66.902  1.00  0.00    -0.198 C  
HETATM   10  C   UNL     1      -8.489  11.819  66.531  1.00  0.00    -0.125 C  
BRANCH  10  11
HETATM   11  C   UNL     1      -7.356  12.317  67.387  1.00  0.00    -0.151 C  
BRANCH  11  12
HETATM   12  C   UNL     1      -7.704  13.355  68.429  1.00  0.00    -0.138 C  
HETATM   13  C   UNL     1      -7.758  14.696  68.315  1.00  0.00    -0.123 C  
BRANCH  13  14
HETATM   14  C   UNL     1      -7.387  15.486  67.099  1.00  0.00    -0.226 C  
BRANCH  14  15
HETATM   15  C   UNL     1      -8.004  16.852  67.049  1.00  0.00    -0.228 C  
HETATM   16  C   UNL     1      -9.211  17.088  66.509  1.00  0.00    -0.296 C  
BRANCH  16  17
HETATM   17  C   UNL     1     -10.009  16.005  65.844  1.00  0.00    -0.380 C  
BRANCH  17  18
HETATM   18  C   UNL     1     -11.124  15.454  66.715  1.00  0.00    -0.244 C  
BRANCH  18  19
HETATM   19  C   UNL     1     -11.233  13.944  66.521  1.00  0.00    -0.327 C  
HETATM   20  C   UNL     1     -12.406  13.580  65.641  1.00  0.00    -0.476 C  
HETATM   21  O   UNL     1     -13.186  14.378  65.148  1.00  0.00    -0.602 OA 
HETATM   22  O   UNL     1     -12.502  12.248  65.450  1.00  0.00    -0.596 OA 
ENDBRANCH  18  19
ENDBRANCH  17  18
ENDBRANCH  16  17
ENDBRANCH  14  15
ENDBRANCH  13  14
ENDBRANCH  11  12
ENDBRANCH  10  11
ENDBRANCH   8   9
ENDBRANCH   7   8
ENDBRANCH   5   6
ENDBRANCH   4   5
ENDBRANCH   2   3
TORSDOF 12
ENDMDL
MODEL      359
REMARK 921   NORMALIZED FREE ENERGY PREDICTED BY IDOCK:   -2.92 KCAL/MOL
REMARK 922        TOTAL FREE ENERGY PREDICTED BY IDOCK:   -7.48 KCAL/MOL
REMARK 923 INTER-LIGAND FREE ENERGY PREDICTED BY IDOCK:   -6.25 KCAL/MOL
REMARK 924 INTRA-LIGAND FREE ENERGY PREDICTED BY IDOCK:   -1.23 KCAL/MOL
REMARK 927      BINDING AFFINITY PREDICTED BY RF-SCORE:    0.00 PKD
ROOT
HETATM    1  C   UNL     1     -13.062   8.399  72.029  1.00  0.00    -0.379 C  
HETATM    2  C   UNL     1     -11.565   8.308  72.280  1.00  0.00    -0.449 C  
ENDROOT
BRANCH   2   3
HETATM    3  C   UNL     1     -11.232   7.278  73.324  1.00  0.00    -0.180 C  
HETATM    4  C   UNL     1     -10.013   7.068  73.855  1.00  0.00    -0.370 C  
BRANCH   4   5
HETATM    5  C   UNL     1      -8.791   7.866  73.504  1.00  0.00    -0.333 C  
BRANCH   5   6
HETATM    6  C   UNL     1      -7.815   7.106  72.648  1.00  0.00    -0.102 C  
HETATM    7  C   UNL     1      -7.880   7.001  71.314  1.00  0.00    -0.099 C  
BRANCH   7   8
HETATM    8  C   UNL     1      -8.888   7.740  70.486  1.00  0.00    -0.145 C  
BRANCH   8   9
HETATM    9  C   UNL     1      -8.645   9.219  70.484  1.00  0.00    -0.271 C  
HETATM   10  C   UNL     1      -9.355  10.130  69.794  1.00  0.00    -0.183 C  
BRANCH  10  11
HETATM   11  C   UNL     1     -10.515   9.855  68.875  1.00  0.00    -0.229 C  
BRANCH  11  12
HETATM   12  C   UNL     1     -11.600  10.908  68.826  1.00  0.00    -0.378 C  
HETATM   13  C   UNL     1     -11.899  11.782  67.846  1.00  0.00    -0.289 C  
BRANCH  13  14
HETATM   14  C   UNL     1     -11.134  11.963  66.573  1.00  0.00    -0.357 C  
BRANCH  14  15
HETATM   15  C   UNL     1      -9.721  12.425  66.773  1.00  0.00    -0.226 C  
HETATM   16  C   UNL     1      -9.388  13.719  66.907  1.00  0.00    -0.267 C  
BRANCH  16  17
HETATM   17  C   UNL     1     -10.405  14.816  66.795  1.00  0.00    -0.268 C  
BRANCH  17  18
HETATM   18  C   UNL     1      -9.918  16.014  65.998  1.00  0.00    -0.365 C  
BRANCH  18  19
HETATM   19  C   UNL     1      -9.849  17.243  66.901  1.00  0.00    -0.287 C  
HETATM   20  C   UNL     1      -8.722  18.165  66.500  1.00  0.00    -0.268 C  
HETATM   21  O   UNL     1      -7.946  17.965  65.580  1.00  0.00    -0.527 OA 
HETATM   22  O   UNL     1      -8.663  19.263  67.283  1.00  0.00    -0.284 OA 
ENDBRANCH  18  19
ENDBRANCH  17  18
ENDBRANCH  16  17
ENDBRANCH  14  15
ENDBRANCH  13  14
ENDBRANCH  11  12
ENDBRANCH  10  11
ENDBRANCH   8   9
ENDBRANCH   7   8
ENDBRANCH   5   6
ENDBRANCH   4   5
ENDBRANCH   2   3
TORSDOF 12
ENDMDL
MODEL      360
REMARK 921   NORMALIZED FREE ENERGY PREDICTED BY IDOCK:   -2.92 KCAL/MOL
REMARK 922        TOTAL FREE ENERGY PREDICTED BY IDOCK:   -7.48 KCAL/MOL
REMARK 923 INTER-LIGAND FREE ENERGY PREDICTED BY IDOCK:   -5.76 KCAL/MOL
REMARK 924 INTRA-LIGAND FREE ENERGY PREDICTED BY IDOCK:   -1.72 KCAL/MOL
REMARK 927      BINDING AFFINITY PREDICTED BY RF-SCORE:    0.00 PKD
ROOT
HETATM    1  C   UNL     1      -9.463   3.773  63.664  1.00  0.00    -0.141 C  
HETATM    2  C   UNL     1      -9.500   3.222  65.081  1.00  0.00    -0.139 C  
ENDROOT
BRANCH   2   3
HETATM    3  C   UNL     1      -8.738   4.091  66.043  1.00  0.00    -0.116 C  
HETATM    4  C   UNL     1      -9.205   5.213  66.622  1.00  0.00    -0.129 C  
BRANCH   4   5
HETATM    5  C   UNL     1     -10.590   5.753  66.418  1.00  0.00    -0.219 C  
BRANCH   5   6
HETATM    6  C   UNL     1     -10.965   6.808  67.423  1.00  0.00    -0.407 C  
HETATM    7  C   UNL     1     -10.416   8.028  67.500  1.00  0.00    -0.331 C  
BRANCH   7   8
HETATM    8  C   UNL     1      -9.423   8.540  66.502  1.00  0.00    -0.282 C  
BRANCH   8   9
HETATM    9  C   UNL     1      -9.996   9.618  65.633  1.00  0.00    -0.321 C  
HETATM   10  C   UNL     1      -9.717  10.931  65.723  1.00  0.00    -0.270 C  
BRANCH  10  11
HETATM   11  C   UNL     1      -8.795  11.586  66.716  1.00  0.00    -0.183 C  
BRANCH  11  12
HETATM   12  C   UNL     1      -9.200  11.500  68.170  1.00  0.00    -0.181 C  
HETATM   13  C   UNL     1     -10.398  11.736  68.739  1.00  0.00    -0.198 C  
BRANCH  13  14
HETATM   14  C   UNL     1     -11.618  12.238  68.033  1.00  0.00    -0.408 C  
BRANCH  14  15
HETATM   15  C   UNL     1     -11.905  13.690  68.273  1.00  0.00    -0.404 C  
HETATM   16  C   UNL     1     -11.708  14.637  67.341  1.00  0.00    -0.413 C  
BRANCH  16  17
HETATM   17  C   UNL     1     -11.114  14.320  66.000  1.00  0.00    -0.319 C  
BRANCH  17  18
HETATM   18  C   UNL     1      -9.858  15.117  65.691  1.00  0.00    -0.378 C  
BRANCH  18  19
HETATM   19  C   UNL     1      -9.009  15.254  66.951  1.00  0.00    -0.274 C  
HETATM   20  C   UNL     1      -8.741  16.702  67.286  1.00  0.00    -0.191 C  
HETATM   21  O   UNL     1      -9.135  17.657  66.635  1.00  0.00    -0.250 OA 
HETATM   22  O   UNL     1      -8.003  16.835  68.408  1.00  0.00    -0.203 OA 
ENDBRANCH  18  19
ENDBRANCH  17  18
ENDBRANCH  16  17
ENDBRANCH  14  15
ENDBRANCH  13  14
ENDBRANCH  11  12
ENDBRANCH  10  11
ENDBRANCH   8   9
ENDBRANCH   7   8
ENDBRANCH   5   6
ENDBRANCH   4   5
ENDBRANCH   2   3
TORSDOF 12
ENDMDL
MODEL      361
REMARK 921   NORMALIZED FREE ENERGY PREDICTED BY IDOCK:   -2.87 KCAL/MOL
REMARK 922        TOTAL FREE ENERGY PREDICTED BY IDOCK:   -7.38 KCAL/MOL
REMARK 923 INTER-LIGAND FREE ENERGY PREDICTED BY IDOCK:   -5.62 KCAL/MOL
REMARK 924 INTRA-LIGAND FREE ENERGY PREDICTED BY IDOCK:   -1.77 KCAL/MOL
REMARK 927      BINDING AFFINITY PREDICTED BY RF-SCORE:    0.00 PKD
ROOT
HETATM    1  C   UNL     1      -7.246   3.140  65.127  1.00  0.00    -0.066 C  
HETATM    2  C   UNL     1      -8.359   3.083  66.161  1.00  0.00    -0.098 C  
ENDROOT
BRANCH   2   3
HETATM    3  C   UNL     1      -9.676   3.538  65.595  1.00  0.00    -0.066 C  
HETATM    4  C   UNL     1     -10.189   4.778  65.707  1.00  0.00    -0.251 C  
BRANCH   4   5
HETATM    5  C   UNL     1      -9.497   5.918  66.395  1.00  0.00    -0.174 C  
BRANCH   5   6
HETATM    6  C   UNL     1     -10.442   6.814  67.147  1.00  0.00    -0.364 C  
HETATM    7  C   UNL     1     -10.954   6.551  68.358  1.00  0.00    -0.358 C  
BRANCH   7   8
HETATM    8  C   UNL     1     -10.547   5.362  69.174  1.00  0.00    -0.241 C  
BRANCH   8   9
HETATM    9  C   UNL     1      -9.672   5.740  70.330  1.00  0.00    -0.223 C  
HETATM   10  C   UNL     1     -10.094   6.006  71.580  1.00  0.00    -0.227 C  
BRANCH  10  11
HETATM   11  C   UNL     1     -11.517   5.996  72.068  1.00  0.00    -0.343 C  
BRANCH  11  12
HETATM   12  C   UNL     1     -12.482   6.912  71.349  1.00  0.00    -0.413 C  
HETATM   13  C   UNL     1     -12.423   8.245  71.170  1.00  0.00    -0.189 C  
BRANCH  13  14
HETATM   14  C   UNL     1     -11.386   9.160  71.743  1.00  0.00    -0.451 C  
BRANCH  14  15
HETATM   15  C   UNL     1     -10.145   9.271  70.908  1.00  0.00    -0.373 C  
HETATM   16  C   UNL     1     -10.104   9.949  69.749  1.00  0.00    -0.274 C  
BRANCH  16  17
HETATM   17  C   UNL     1     -11.326  10.593  69.162  1.00  0.00    -0.338 C  
BRANCH  17  18
HETATM   18  C   UNL     1     -11.121  11.101  67.745  1.00  0.00    -0.344 C  
BRANCH  18  19
HETATM   19  C   UNL     1      -9.630  11.148  67.423  1.00  0.00    -0.183 C  
HETATM   20  C   UNL     1      -9.326  10.486  66.100  1.00  0.00    -0.176 C  
HETATM   21  O   UNL     1     -10.154   9.963  65.371  1.00  0.00    -0.313 OA 
HETATM   22  O   UNL     1      -8.012  10.536  65.798  1.00  0.00    -0.151 OA 
ENDBRANCH  18  19
ENDBRANCH  17  18
ENDBRANCH  16  17
ENDBRANCH  14  15
ENDBRANCH  13  14
ENDBRANCH  11  12
ENDBRANCH  10  11
ENDBRANCH   8   9
ENDBRANCH   7   8
ENDBRANCH   5   6
ENDBRANCH   4   5
ENDBRANCH   2   3
TORSDOF 12
ENDMDL
MODEL      362
REMARK 921   NORMALIZED FREE ENERGY PREDICTED BY IDOCK:   -2.86 KCAL/MOL
REMARK 922        TOTAL FREE ENERGY PREDICTED BY IDOCK:   -7.37 KCAL/MOL
REMARK 923 INTER-LIGAND FREE ENERGY PREDICTED BY IDOCK:   -4.99 KCAL/MOL
REMARK 924 INTRA-LIGAND FREE ENERGY PREDICTED BY IDOCK:   -2.39 KCAL/MOL
REMARK 927      BINDING AFFINITY PREDICTED BY RF-SCORE:    0.00 PKD
ROOT
HETATM    1  C   UNL     1     -12.831   8.623  72.216  1.00  0.00    -0.438 C  
HETATM    2  C   UNL     1     -11.694   7.617  72.145  1.00  0.00    -0.355 C  
ENDROOT
BRANCH   2   3
HETATM    3  C   UNL     1     -10.600   7.934  73.127  1.00  0.00    -0.342 C  
HETATM    4  C   UNL     1      -9.282   7.953  72.850  1.00  0.00    -0.297 C  
BRANCH   4   5
HETATM    5  C   UNL     1      -8.702   7.690  71.491  1.00  0.00    -0.131 C  
BRANCH   5   6
HETATM    6  C   UNL     1      -7.688   6.579  71.488  1.00  0.00    -0.099 C  
HETATM    7  C   UNL     1      -7.966   5.283  71.288  1.00  0.00    -0.109 C  
BRANCH   7   8
HETATM    8  C   UNL     1      -9.333   4.790  70.921  1.00  0.00    -0.209 C  
BRANCH   8   9
HETATM    9  C   UNL     1      -9.463   4.517  69.454  1.00  0.00    -0.244 C  
HETATM   10  C   UNL     1     -10.116   5.289  68.566  1.00  0.00    -0.232 C  
BRANCH  10  11
HETATM   11  C   UNL     1     -10.860   6.563  68.862  1.00  0.00    -0.354 C  
BRANCH  11  12
HETATM   12  C   UNL     1     -10.860   7.612  67.773  1.00  0.00    -0.133 C  
HETATM   13  C   UNL     1     -10.742   8.950  67.874  1.00  0.00    -0.185 C  
BRANCH  13  14
HETATM   14  C   UNL     1     -10.665   9.726  69.151  1.00  0.00    -0.242 C  
BRANCH  14  15
HETATM   15  C   UNL     1     -11.529  10.952  69.170  1.00  0.00    -0.373 C  
HETATM   16  C   UNL     1     -11.064  12.178  68.882  1.00  0.00    -0.292 C  
BRANCH  16  17
HETATM   17  C   UNL     1      -9.614  12.428  68.585  1.00  0.00    -0.036 C  
BRANCH  17  18
HETATM   18  C   UNL     1      -9.382  13.153  67.271  1.00  0.00    -0.225 C  
BRANCH  18  19
HETATM   19  C   UNL     1      -9.619  12.199  66.104  1.00  0.00    -0.250 C  
HETATM   20  C   UNL     1      -8.577  11.107  66.059  1.00  0.00    -0.154 C  
HETATM   21  O   UNL     1      -7.647  10.992  66.841  1.00  0.00    -0.119 OA 
HETATM   22  O   UNL     1      -8.787  10.248  65.039  1.00  0.00    -0.166 OA 
ENDBRANCH  18  19
ENDBRANCH  17  18
ENDBRANCH  16  17
ENDBRANCH  14  15
ENDBRANCH  13  14
ENDBRANCH  11  12
ENDBRANCH  10  11
ENDBRANCH   8   9
ENDBRANCH   7   8
ENDBRANCH   5   6
ENDBRANCH   4   5
ENDBRANCH   2   3
TORSDOF 12
ENDMDL
MODEL      363
REMARK 921   NORMALIZED FREE ENERGY PREDICTED BY IDOCK:   -2.85 KCAL/MOL
REMARK 922        TOTAL FREE ENERGY PREDICTED BY IDOCK:   -7.36 KCAL/MOL
REMARK 923 INTER-LIGAND FREE ENERGY PREDICTED BY IDOCK:   -7.13 KCAL/MOL
REMARK 924 INTRA-LIGAND FREE ENERGY PREDICTED BY IDOCK:   -0.23 KCAL/MOL
REMARK 927      BINDING AFFINITY PREDICTED BY RF-SCORE:    0.00 PKD
ROOT
HETATM    1  C   UNL     1     -10.061  11.154  64.882  1.00  0.00    -0.345 C  
HETATM    2  C   UNL     1     -10.548  11.459  63.474  1.00  0.00    -0.468 C  
ENDROOT
BRANCH   2   3
HETATM    3  C   UNL     1     -11.968  11.954  63.465  1.00  0.00    -0.567 C  
HETATM    4  C   UNL     1     -12.632  12.444  64.529  1.00  0.00    -0.477 C  
BRANCH   4   5
HETATM    5  C   UNL     1     -12.034  12.604  65.896  1.00  0.00    -0.497 C  
BRANCH   5   6
HETATM    6  C   UNL     1     -12.146  14.006  66.429  1.00  0.00    -0.483 C  
HETATM    7  C   UNL     1     -11.785  14.394  67.661  1.00  0.00    -0.421 C  
BRANCH   7   8
HETATM    8  C   UNL     1     -11.105  13.481  68.635  1.00  0.00    -0.299 C  
BRANCH   8   9
HETATM    9  C   UNL     1     -11.820  13.420  69.950  1.00  0.00    -0.385 C  
HETATM   10  C   UNL     1     -12.299  12.305  70.533  1.00  0.00    -0.349 C  
BRANCH  10  11
HETATM   11  C   UNL     1     -12.233  10.906  69.983  1.00  0.00    -0.422 C  
BRANCH  11  12
HETATM   12  C   UNL     1     -12.185   9.785  70.996  1.00  0.00    -0.436 C  
HETATM   13  C   UNL     1     -11.471   8.644  70.976  1.00  0.00    -0.324 C  
BRANCH  13  14
HETATM   14  C   UNL     1     -10.595   8.181  69.854  1.00  0.00    -0.239 C  
BRANCH  14  15
HETATM   15  C   UNL     1     -10.011   9.296  69.038  1.00  0.00    -0.187 C  
HETATM   16  C   UNL     1      -9.870   9.228  67.704  1.00  0.00    -0.221 C  
BRANCH  16  17
HETATM   17  C   UNL     1     -10.224   7.993  66.930  1.00  0.00    -0.385 C  
BRANCH  17  18
HETATM   18  C   UNL     1      -9.021   7.300  66.313  1.00  0.00    -0.185 C  
BRANCH  18  19
HETATM   19  C   UNL     1      -7.864   8.286  66.189  1.00  0.00    -0.098 C  
HETATM   20  C   UNL     1      -7.665   8.733  64.760  1.00  0.00    -0.113 C  
HETATM   21  O   UNL     1      -8.330   8.355  63.809  1.00  0.00    -0.145 OA 
HETATM   22  O   UNL     1      -6.653   9.618  64.641  1.00  0.00    -0.089 OA 
ENDBRANCH  18  19
ENDBRANCH  17  18
ENDBRANCH  16  17
ENDBRANCH  14  15
ENDBRANCH  13  14
ENDBRANCH  11  12
ENDBRANCH  10  11
ENDBRANCH   8   9
ENDBRANCH   7   8
ENDBRANCH   5   6
ENDBRANCH   4   5
ENDBRANCH   2   3
TORSDOF 12
ENDMDL
MODEL      364
REMARK 921   NORMALIZED FREE ENERGY PREDICTED BY IDOCK:   -2.85 KCAL/MOL
REMARK 922        TOTAL FREE ENERGY PREDICTED BY IDOCK:   -7.36 KCAL/MOL
REMARK 923 INTER-LIGAND FREE ENERGY PREDICTED BY IDOCK:   -5.60 KCAL/MOL
REMARK 924 INTRA-LIGAND FREE ENERGY PREDICTED BY IDOCK:   -1.76 KCAL/MOL
REMARK 927      BINDING AFFINITY PREDICTED BY RF-SCORE:    0.00 PKD
ROOT
HETATM    1  C   UNL     1     -11.017  14.226  68.450  1.00  0.00    -0.267 C  
HETATM    2  C   UNL     1     -11.921  13.251  69.187  1.00  0.00    -0.343 C  
ENDROOT
BRANCH   2   3
HETATM    3  C   UNL     1     -11.786  11.849  68.659  1.00  0.00    -0.380 C  
HETATM    4  C   UNL     1     -11.726  10.733  69.410  1.00  0.00    -0.378 C  
BRANCH   4   5
HETATM    5  C   UNL     1     -11.821  10.718  70.907  1.00  0.00    -0.400 C  
BRANCH   5   6
HETATM    6  C   UNL     1     -13.156  10.243  71.409  1.00  0.00    -0.512 C  
HETATM    7  C   UNL     1     -13.429   8.994  71.812  1.00  0.00    -0.467 C  
BRANCH   7   8
HETATM    8  C   UNL     1     -12.382   7.927  71.922  1.00  0.00    -0.350 C  
BRANCH   8   9
HETATM    9  C   UNL     1     -12.236   7.143  70.653  1.00  0.00    -0.245 C  
HETATM   10  C   UNL     1     -11.121   6.509  70.246  1.00  0.00    -0.392 C  
BRANCH  10  11
HETATM   11  C   UNL     1      -9.797   6.472  70.962  1.00  0.00    -0.196 C  
BRANCH  11  12
HETATM   12  C   UNL     1      -9.332   7.768  71.586  1.00  0.00    -0.174 C  
HETATM   13  C   UNL     1      -8.809   8.860  70.998  1.00  0.00    -0.285 C  
BRANCH  13  14
HETATM   14  C   UNL     1      -8.482   8.999  69.544  1.00  0.00    -0.125 C  
BRANCH  14  15
HETATM   15  C   UNL     1      -7.439   8.036  69.060  1.00  0.00    -0.093 C  
HETATM   16  C   UNL     1      -7.092   7.924  67.768  1.00  0.00    -0.086 C  
BRANCH  16  17
HETATM   17  C   UNL     1      -7.777   8.712  66.691  1.00  0.00    -0.096 C  
BRANCH  17  18
HETATM   18  C   UNL     1      -8.682   7.870  65.807  1.00  0.00    -0.163 C  
BRANCH  18  19
HETATM   19  C   UNL     1      -9.577   6.989  66.674  1.00  0.00    -0.220 C  
HETATM   20  C   UNL     1      -9.176   5.535  66.589  1.00  0.00    -0.135 C  
HETATM   21  O   UNL     1      -8.262   5.099  65.908  1.00  0.00    -0.111 OA 
HETATM   22  O   UNL     1      -9.951   4.749  67.364  1.00  0.00    -0.179 OA 
ENDBRANCH  18  19
ENDBRANCH  17  18
ENDBRANCH  16  17
ENDBRANCH  14  15
ENDBRANCH  13  14
ENDBRANCH  11  12
ENDBRANCH  10  11
ENDBRANCH   8   9
ENDBRANCH   7   8
ENDBRANCH   5   6
ENDBRANCH   4   5
ENDBRANCH   2   3
TORSDOF 12
ENDMDL
MODEL      365
REMARK 921   NORMALIZED FREE ENERGY PREDICTED BY IDOCK:   -2.84 KCAL/MOL
REMARK 922        TOTAL FREE ENERGY PREDICTED BY IDOCK:   -7.34 KCAL/MOL
REMARK 923 INTER-LIGAND FREE ENERGY PREDICTED BY IDOCK:   -5.76 KCAL/MOL
REMARK 924 INTRA-LIGAND FREE ENERGY PREDICTED BY IDOCK:   -1.58 KCAL/MOL
REMARK 927      BINDING AFFINITY PREDICTED BY RF-SCORE:    0.00 PKD
ROOT
HETATM    1  C   UNL     1      -6.283   8.599  67.217  1.00  0.00    -0.056 C  
HETATM    2  C   UNL     1      -7.642   9.257  67.397  1.00  0.00    -0.088 C  
ENDROOT
BRANCH   2   3
HETATM    3  C   UNL     1      -7.659  10.665  66.868  1.00  0.00    -0.115 C  
HETATM    4  C   UNL     1      -8.715  11.270  66.291  1.00  0.00    -0.184 C  
BRANCH   4   5
HETATM    5  C   UNL     1     -10.062  10.632  66.117  1.00  0.00    -0.306 C  
BRANCH   5   6
HETATM    6  C   UNL     1     -10.836  10.529  67.402  1.00  0.00    -0.349 C  
HETATM    7  C   UNL     1     -11.350  11.567  68.077  1.00  0.00    -0.368 C  
BRANCH   7   8
HETATM    8  C   UNL     1     -11.314  12.973  67.561  1.00  0.00    -0.346 C  
BRANCH   8   9
HETATM    9  C   UNL     1     -12.385  13.232  66.545  1.00  0.00    -0.311 C  
HETATM   10  C   UNL     1     -12.214  13.858  65.366  1.00  0.00    -0.463 C  
BRANCH  10  11
HETATM   11  C   UNL     1     -10.930  14.436  64.835  1.00  0.00    -0.416 C  
BRANCH  11  12
HETATM   12  C   UNL     1     -10.817  15.944  64.842  1.00  0.00    -0.420 C  
HETATM   13  C   UNL     1     -10.542  16.776  65.865  1.00  0.00    -0.255 C  
BRANCH  13  14
HETATM   14  C   UNL     1     -10.364  16.374  67.295  1.00  0.00    -0.287 C  
BRANCH  14  15
HETATM   15  C   UNL     1     -10.316  17.529  68.250  1.00  0.00    -0.379 C  
HETATM   16  C   UNL     1      -9.169  18.012  68.755  1.00  0.00    -0.229 C  
BRANCH  16  17
HETATM   17  C   UNL     1      -7.841  17.381  68.454  1.00  0.00    -0.257 C  
BRANCH  17  18
HETATM   18  C   UNL     1      -7.504  16.215  69.368  1.00  0.00    -0.181 C  
BRANCH  18  19
HETATM   19  C   UNL     1      -6.354  15.408  68.774  1.00  0.00    -0.101 C  
HETATM   20  C   UNL     1      -6.857  14.251  67.943  1.00  0.00    -0.164 C  
HETATM   21  O   UNL     1      -8.032  13.973  67.768  1.00  0.00    -0.141 OA 
HETATM   22  O   UNL     1      -5.847  13.539  67.400  1.00  0.00    -0.348 OA 
ENDBRANCH  18  19
ENDBRANCH  17  18
ENDBRANCH  16  17
ENDBRANCH  14  15
ENDBRANCH  13  14
ENDBRANCH  11  12
ENDBRANCH  10  11
ENDBRANCH   8   9
ENDBRANCH   7   8
ENDBRANCH   5   6
ENDBRANCH   4   5
ENDBRANCH   2   3
TORSDOF 12
ENDMDL
MODEL      366
REMARK 921   NORMALIZED FREE ENERGY PREDICTED BY IDOCK:   -2.84 KCAL/MOL
REMARK 922        TOTAL FREE ENERGY PREDICTED BY IDOCK:   -7.33 KCAL/MOL
REMARK 923 INTER-LIGAND FREE ENERGY PREDICTED BY IDOCK:   -5.42 KCAL/MOL
REMARK 924 INTRA-LIGAND FREE ENERGY PREDICTED BY IDOCK:   -1.92 KCAL/MOL
REMARK 927      BINDING AFFINITY PREDICTED BY RF-SCORE:    0.00 PKD
ROOT
HETATM    1  C   UNL     1      -8.334   7.029  65.712  1.00  0.00    -0.143 C  
HETATM    2  C   UNL     1      -7.613   7.492  64.456  1.00  0.00    -0.110 C  
ENDROOT
BRANCH   2   3
HETATM    3  C   UNL     1      -6.781   8.720  64.706  1.00  0.00    -0.069 C  
HETATM    4  C   UNL     1      -7.027   9.945  64.205  1.00  0.00    -0.128 C  
BRANCH   4   5
HETATM    5  C   UNL     1      -8.204  10.282  63.338  1.00  0.00    -0.164 C  
BRANCH   5   6
HETATM    6  C   UNL     1      -9.525  10.019  64.007  1.00  0.00    -0.299 C  
HETATM    7  C   UNL     1     -10.490  10.931  64.193  1.00  0.00    -0.397 C  
BRANCH   7   8
HETATM    8  C   UNL     1     -10.414  12.322  63.640  1.00  0.00    -0.483 C  
BRANCH   8   9
HETATM    9  C   UNL     1     -11.748  13.003  63.632  1.00  0.00    -0.550 C  
HETATM   10  C   UNL     1     -12.262  13.738  64.636  1.00  0.00    -0.440 C  
BRANCH  10  11
HETATM   11  C   UNL     1     -11.618  14.010  65.969  1.00  0.00    -0.362 C  
BRANCH  11  12
HETATM   12  C   UNL     1     -10.381  14.880  65.954  1.00  0.00    -0.330 C  
HETATM   13  C   UNL     1      -9.198  14.695  66.571  1.00  0.00    -0.294 C  
BRANCH  13  14
HETATM   14  C   UNL     1      -8.869  13.580  67.514  1.00  0.00    -0.209 C  
BRANCH  14  15
HETATM   15  C   UNL     1      -8.495  12.297  66.831  1.00  0.00    -0.159 C  
HETATM   16  C   UNL     1      -7.622  11.420  67.353  1.00  0.00    -0.124 C  
BRANCH  16  17
HETATM   17  C   UNL     1      -6.895  11.692  68.637  1.00  0.00    -0.079 C  
BRANCH  17  18
HETATM   18  C   UNL     1      -7.252  10.724  69.752  1.00  0.00    -0.106 C  
BRANCH  18  19
HETATM   19  C   UNL     1      -8.548   9.995  69.409  1.00  0.00    -0.182 C  
HETATM   20  C   UNL     1      -9.059   9.189  70.580  1.00  0.00    -0.257 C  
HETATM   21  O   UNL     1      -8.512   9.109  71.668  1.00  0.00    -0.344 OA 
HETATM   22  O   UNL     1     -10.213   8.553  70.292  1.00  0.00    -0.187 OA 
ENDBRANCH  18  19
ENDBRANCH  17  18
ENDBRANCH  16  17
ENDBRANCH  14  15
ENDBRANCH  13  14
ENDBRANCH  11  12
ENDBRANCH  10  11
ENDBRANCH   8   9
ENDBRANCH   7   8
ENDBRANCH   5   6
ENDBRANCH   4   5
ENDBRANCH   2   3
TORSDOF 12
ENDMDL
MODEL      367
REMARK 921   NORMALIZED FREE ENERGY PREDICTED BY IDOCK:   -2.84 KCAL/MOL
REMARK 922        TOTAL FREE ENERGY PREDICTED BY IDOCK:   -7.33 KCAL/MOL
REMARK 923 INTER-LIGAND FREE ENERGY PREDICTED BY IDOCK:   -5.38 KCAL/MOL
REMARK 924 INTRA-LIGAND FREE ENERGY PREDICTED BY IDOCK:   -1.95 KCAL/MOL
REMARK 927      BINDING AFFINITY PREDICTED BY RF-SCORE:    0.00 PKD
ROOT
HETATM    1  C   UNL     1     -13.863   8.829  72.102  1.00  0.00    -0.513 C  
HETATM    2  C   UNL     1     -13.401   7.500  71.526  1.00  0.00    -0.409 C  
ENDROOT
BRANCH   2   3
HETATM    3  C   UNL     1     -12.009   7.584  70.962  1.00  0.00    -0.317 C  
HETATM    4  C   UNL     1     -10.881   7.229  71.607  1.00  0.00    -0.246 C  
BRANCH   4   5
HETATM    5  C   UNL     1     -10.847   6.655  72.992  1.00  0.00    -0.297 C  
BRANCH   5   6
HETATM    6  C   UNL     1     -11.350   5.239  73.057  1.00  0.00    -0.376 C  
HETATM    7  C   UNL     1     -10.589   4.161  73.294  1.00  0.00    -0.267 C  
BRANCH   7   8
HETATM    8  C   UNL     1      -9.135   4.252  73.646  1.00  0.00    -0.094 C  
BRANCH   8   9
HETATM    9  C   UNL     1      -8.284   3.383  72.770  1.00  0.00    -0.080 C  
HETATM   10  C   UNL     1      -7.971   3.629  71.485  1.00  0.00    -0.064 C  
BRANCH  10  11
HETATM   11  C   UNL     1      -8.422   4.806  70.662  1.00  0.00    -0.106 C  
BRANCH  11  12
HETATM   12  C   UNL     1      -9.560   4.559  69.699  1.00  0.00    -0.270 C  
HETATM   13  C   UNL     1      -9.853   5.183  68.542  1.00  0.00    -0.218 C  
BRANCH  13  14
HETATM   14  C   UNL     1      -9.128   6.365  67.979  1.00  0.00    -0.113 C  
BRANCH  14  15
HETATM   15  C   UNL     1      -9.740   7.685  68.345  1.00  0.00    -0.164 C  
HETATM   16  C   UNL     1     -10.001   8.644  67.442  1.00  0.00    -0.270 C  
BRANCH  16  17
HETATM   17  C   UNL     1      -9.632   8.494  65.995  1.00  0.00    -0.236 C  
BRANCH  17  18
HETATM   18  C   UNL     1      -8.945   9.719  65.416  1.00  0.00    -0.229 C  
BRANCH  18  19
HETATM   19  C   UNL     1      -9.986  10.662  64.820  1.00  0.00    -0.391 C  
HETATM   20  C   UNL     1     -10.206  11.873  65.695  1.00  0.00    -0.245 C  
HETATM   21  O   UNL     1      -9.640  12.083  66.756  1.00  0.00    -0.198 OA 
HETATM   22  O   UNL     1     -11.114  12.721  65.169  1.00  0.00    -0.282 OA 
ENDBRANCH  18  19
ENDBRANCH  17  18
ENDBRANCH  16  17
ENDBRANCH  14  15
ENDBRANCH  13  14
ENDBRANCH  11  12
ENDBRANCH  10  11
ENDBRANCH   8   9
ENDBRANCH   7   8
ENDBRANCH   5   6
ENDBRANCH   4   5
ENDBRANCH   2   3
TORSDOF 12
ENDMDL
MODEL      368
REMARK 921   NORMALIZED FREE ENERGY PREDICTED BY IDOCK:   -2.83 KCAL/MOL
REMARK 922        TOTAL FREE ENERGY PREDICTED BY IDOCK:   -7.32 KCAL/MOL
REMARK 923 INTER-LIGAND FREE ENERGY PREDICTED BY IDOCK:   -5.37 KCAL/MOL
REMARK 924 INTRA-LIGAND FREE ENERGY PREDICTED BY IDOCK:   -1.94 KCAL/MOL
REMARK 927      BINDING AFFINITY PREDICTED BY RF-SCORE:    0.00 PKD
ROOT
HETATM    1  C   UNL     1     -10.771   8.854  66.860  1.00  0.00    -0.153 C  
HETATM    2  C   UNL     1      -9.332   8.382  66.999  1.00  0.00    -0.202 C  
ENDROOT
BRANCH   2   3
HETATM    3  C   UNL     1      -8.517   8.695  65.775  1.00  0.00    -0.165 C  
HETATM    4  C   UNL     1      -7.775   9.804  65.593  1.00  0.00    -0.115 C  
BRANCH   4   5
HETATM    5  C   UNL     1      -7.621  10.893  66.613  1.00  0.00    -0.139 C  
BRANCH   5   6
HETATM    6  C   UNL     1      -6.226  11.452  66.675  1.00  0.00    -0.137 C  
HETATM    7  C   UNL     1      -5.659  11.991  67.764  1.00  0.00    -0.070 C  
BRANCH   7   8
HETATM    8  C   UNL     1      -6.321  11.996  69.108  1.00  0.00    -0.093 C  
BRANCH   8   9
HETATM    9  C   UNL     1      -5.565  12.816  70.109  1.00  0.00    -0.140 C  
HETATM   10  C   UNL     1      -5.862  14.075  70.479  1.00  0.00    -0.178 C  
BRANCH  10  11
HETATM   11  C   UNL     1      -6.993  14.920  69.955  1.00  0.00    -0.095 C  
BRANCH  11  12
HETATM   12  C   UNL     1      -6.750  15.634  68.645  1.00  0.00    -0.115 C  
HETATM   13  C   UNL     1      -7.379  15.490  67.463  1.00  0.00    -0.216 C  
BRANCH  13  14
HETATM   14  C   UNL     1      -8.447  14.488  67.158  1.00  0.00    -0.234 C  
BRANCH  14  15
HETATM   15  C   UNL     1      -9.822  14.919  67.574  1.00  0.00    -0.217 C  
HETATM   16  C   UNL     1     -10.795  15.207  66.693  1.00  0.00    -0.318 C  
BRANCH  16  17
HETATM   17  C   UNL     1     -10.555  15.187  65.212  1.00  0.00    -0.432 C  
BRANCH  17  18
HETATM   18  C   UNL     1     -10.297  13.796  64.659  1.00  0.00    -0.393 C  
BRANCH  18  19
HETATM   19  C   UNL     1     -11.415  12.852  65.090  1.00  0.00    -0.348 C  
HETATM   20  C   UNL     1     -12.547  12.837  64.090  1.00  0.00    -0.305 C  
HETATM   21  O   UNL     1     -12.586  13.498  63.065  1.00  0.00    -0.716 OA 
HETATM   22  O   UNL     1     -13.535  11.993  64.455  1.00  0.00    -0.591 OA 
ENDBRANCH  18  19
ENDBRANCH  17  18
ENDBRANCH  16  17
ENDBRANCH  14  15
ENDBRANCH  13  14
ENDBRANCH  11  12
ENDBRANCH  10  11
ENDBRANCH   8   9
ENDBRANCH   7   8
ENDBRANCH   5   6
ENDBRANCH   4   5
ENDBRANCH   2   3
TORSDOF 12
ENDMDL
MODEL      369
REMARK 921   NORMALIZED FREE ENERGY PREDICTED BY IDOCK:   -2.81 KCAL/MOL
REMARK 922        TOTAL FREE ENERGY PREDICTED BY IDOCK:   -7.29 KCAL/MOL
REMARK 923 INTER-LIGAND FREE ENERGY PREDICTED BY IDOCK:   -4.47 KCAL/MOL
REMARK 924 INTRA-LIGAND FREE ENERGY PREDICTED BY IDOCK:   -2.83 KCAL/MOL
REMARK 927      BINDING AFFINITY PREDICTED BY RF-SCORE:    0.00 PKD
ROOT
HETATM    1  C   UNL     1     -10.822   5.545  69.114  1.00  0.00    -0.182 C  
HETATM    2  C   UNL     1     -11.016   6.205  67.758  1.00  0.00    -0.400 C  
ENDROOT
BRANCH   2   3
HETATM    3  C   UNL     1      -9.772   6.137  66.916  1.00  0.00    -0.178 C  
HETATM    4  C   UNL     1      -9.250   7.156  66.208  1.00  0.00    -0.169 C  
BRANCH   4   5
HETATM    5  C   UNL     1      -9.821   8.543  66.180  1.00  0.00    -0.227 C  
BRANCH   5   6
HETATM    6  C   UNL     1      -8.896   9.574  66.768  1.00  0.00    -0.145 C  
HETATM    7  C   UNL     1      -9.079  10.193  67.943  1.00  0.00    -0.133 C  
BRANCH   7   8
HETATM    8  C   UNL     1     -10.189   9.839  68.886  1.00  0.00    -0.213 C  
BRANCH   8   9
HETATM    9  C   UNL     1      -9.700   9.636  70.288  1.00  0.00    -0.314 C  
HETATM   10  C   UNL     1      -8.915   8.626  70.708  1.00  0.00    -0.209 C  
BRANCH  10  11
HETATM   11  C   UNL     1      -8.387   7.492  69.871  1.00  0.00    -0.133 C  
BRANCH  11  12
HETATM   12  C   UNL     1      -6.915   7.179  70.012  1.00  0.00    -0.061 C  
HETATM   13  C   UNL     1      -6.267   6.554  71.013  1.00  0.00    -0.040 C  
BRANCH  13  14
HETATM   14  C   UNL     1      -6.880   6.089  72.297  1.00  0.00    -0.073 C  
BRANCH  14  15
HETATM   15  C   UNL     1      -7.606   4.781  72.185  1.00  0.00    -0.084 C  
HETATM   16  C   UNL     1      -8.816   4.569  72.728  1.00  0.00    -0.118 C  
BRANCH  16  17
HETATM   17  C   UNL     1      -9.509   5.612  73.556  1.00  0.00    -0.138 C  
BRANCH  17  18
HETATM   18  C   UNL     1     -10.901   5.955  73.055  1.00  0.00    -0.300 C  
BRANCH  18  19
HETATM   19  C   UNL     1     -11.139   7.458  73.177  1.00  0.00    -0.357 C  
HETATM   20  C   UNL     1     -12.277   7.913  72.295  1.00  0.00    -0.287 C  
HETATM   21  O   UNL     1     -12.929   7.188  71.561  1.00  0.00    -0.374 OA 
HETATM   22  O   UNL     1     -12.506   9.239  72.406  1.00  0.00    -0.328 OA 
ENDBRANCH  18  19
ENDBRANCH  17  18
ENDBRANCH  16  17
ENDBRANCH  14  15
ENDBRANCH  13  14
ENDBRANCH  11  12
ENDBRANCH  10  11
ENDBRANCH   8   9
ENDBRANCH   7   8
ENDBRANCH   5   6
ENDBRANCH   4   5
ENDBRANCH   2   3
TORSDOF 12
ENDMDL
MODEL      370
REMARK 921   NORMALIZED FREE ENERGY PREDICTED BY IDOCK:   -2.80 KCAL/MOL
REMARK 922        TOTAL FREE ENERGY PREDICTED BY IDOCK:   -7.27 KCAL/MOL
REMARK 923 INTER-LIGAND FREE ENERGY PREDICTED BY IDOCK:   -5.76 KCAL/MOL
REMARK 924 INTRA-LIGAND FREE ENERGY PREDICTED BY IDOCK:   -1.50 KCAL/MOL
REMARK 927      BINDING AFFINITY PREDICTED BY RF-SCORE:    0.00 PKD
ROOT
HETATM    1  C   UNL     1     -11.319  15.138  66.219  1.00  0.00    -0.219 C  
HETATM    2  C   UNL     1     -11.879  13.836  65.668  1.00  0.00    -0.383 C  
ENDROOT
BRANCH   2   3
HETATM    3  C   UNL     1     -10.830  13.033  64.949  1.00  0.00    -0.343 C  
HETATM    4  C   UNL     1     -10.388  11.816  65.319  1.00  0.00    -0.317 C  
BRANCH   4   5
HETATM    5  C   UNL     1     -10.909  11.052  66.501  1.00  0.00    -0.269 C  
BRANCH   5   6
HETATM    6  C   UNL     1     -10.055  11.211  67.729  1.00  0.00    -0.200 C  
HETATM    7  C   UNL     1     -10.507  11.181  68.990  1.00  0.00    -0.233 C  
BRANCH   7   8
HETATM    8  C   UNL     1     -11.929  10.863  69.339  1.00  0.00    -0.393 C  
BRANCH   8   9
HETATM    9  C   UNL     1     -12.140  10.755  70.819  1.00  0.00    -0.473 C  
HETATM   10  C   UNL     1     -11.683   9.765  71.608  1.00  0.00    -0.390 C  
BRANCH  10  11
HETATM   11  C   UNL     1     -10.890   8.563  71.170  1.00  0.00    -0.298 C  
BRANCH  11  12
HETATM   12  C   UNL     1     -11.681   7.320  70.832  1.00  0.00    -0.348 C  
HETATM   13  C   UNL     1     -11.471   6.044  71.208  1.00  0.00    -0.251 C  
BRANCH  13  14
HETATM   14  C   UNL     1     -10.308   5.549  72.010  1.00  0.00    -0.265 C  
BRANCH  14  15
HETATM   15  C   UNL     1     -10.630   5.292  73.452  1.00  0.00    -0.300 C  
HETATM   16  C   UNL     1     -10.310   6.150  74.435  1.00  0.00    -0.280 C  
BRANCH  16  17
HETATM   17  C   UNL     1      -9.536   7.408  74.170  1.00  0.00    -0.153 C  
BRANCH  17  18
HETATM   18  C   UNL     1      -8.034   7.238  74.320  1.00  0.00    -0.174 C  
BRANCH  18  19
HETATM   19  C   UNL     1      -7.336   8.573  74.076  1.00  0.00    -0.130 C  
HETATM   20  C   UNL     1      -5.833   8.433  74.132  1.00  0.00    -0.113 C  
HETATM   21  O   UNL     1      -5.234   7.393  74.355  1.00  0.00    -0.053 OA 
HETATM   22  O   UNL     1      -5.205   9.605  73.903  1.00  0.00    -0.180 OA 
ENDBRANCH  18  19
ENDBRANCH  17  18
ENDBRANCH  16  17
ENDBRANCH  14  15
ENDBRANCH  13  14
ENDBRANCH  11  12
ENDBRANCH  10  11
ENDBRANCH   8   9
ENDBRANCH   7   8
ENDBRANCH   5   6
ENDBRANCH   4   5
ENDBRANCH   2   3
TORSDOF 12
ENDMDL
MODEL      371
REMARK 921   NORMALIZED FREE ENERGY PREDICTED BY IDOCK:   -2.78 KCAL/MOL
REMARK 922        TOTAL FREE ENERGY PREDICTED BY IDOCK:   -7.24 KCAL/MOL
REMARK 923 INTER-LIGAND FREE ENERGY PREDICTED BY IDOCK:   -4.90 KCAL/MOL
REMARK 924 INTRA-LIGAND FREE ENERGY PREDICTED BY IDOCK:   -2.34 KCAL/MOL
REMARK 927      BINDING AFFINITY PREDICTED BY RF-SCORE:    0.00 PKD
ROOT
HETATM    1  C   UNL     1     -11.404  12.406  63.584  1.00  0.00    -0.556 C  
HETATM    2  C   UNL     1     -10.327  11.917  64.540  1.00  0.00    -0.334 C  
ENDROOT
BRANCH   2   3
HETATM    3  C   UNL     1     -10.309  10.417  64.647  1.00  0.00    -0.190 C  
HETATM    4  C   UNL     1     -10.051   9.716  65.767  1.00  0.00    -0.274 C  
BRANCH   4   5
HETATM    5  C   UNL     1      -9.772  10.336  67.104  1.00  0.00    -0.210 C  
BRANCH   5   6
HETATM    6  C   UNL     1     -10.937  10.244  68.052  1.00  0.00    -0.345 C  
HETATM    7  C   UNL     1     -11.022   9.398  69.087  1.00  0.00    -0.114 C  
BRANCH   7   8
HETATM    8  C   UNL     1      -9.895   8.503  69.504  1.00  0.00    -0.187 C  
BRANCH   8   9
HETATM    9  C   UNL     1      -8.838   9.240  70.269  1.00  0.00    -0.254 C  
HETATM   10  C   UNL     1      -8.379   8.912  71.491  1.00  0.00    -0.163 C  
BRANCH  10  11
HETATM   11  C   UNL     1      -8.841   7.760  72.342  1.00  0.00    -0.192 C  
BRANCH  11  12
HETATM   12  C   UNL     1     -10.135   7.957  73.098  1.00  0.00    -0.362 C  
HETATM   13  C   UNL     1     -11.282   7.255  73.026  1.00  0.00    -0.309 C  
BRANCH  13  14
HETATM   14  C   UNL     1     -11.562   6.131  72.079  1.00  0.00    -0.364 C  
BRANCH  14  15
HETATM   15  C   UNL     1     -10.825   4.866  72.402  1.00  0.00    -0.204 C  
HETATM   16  C   UNL     1      -9.929   4.310  71.570  1.00  0.00    -0.243 C  
BRANCH  16  17
HETATM   17  C   UNL     1      -9.646   4.881  70.212  1.00  0.00    -0.265 C  
BRANCH  17  18
HETATM   18  C   UNL     1      -8.182   5.214  69.987  1.00  0.00    -0.082 C  
BRANCH  18  19
HETATM   19  C   UNL     1      -7.995   5.820  68.600  1.00  0.00    -0.101 C  
HETATM   20  C   UNL     1      -6.770   6.701  68.537  1.00  0.00    -0.064 C  
HETATM   21  O   UNL     1      -6.018   6.923  69.472  1.00  0.00    -0.024 OA 
HETATM   22  O   UNL     1      -6.588   7.230  67.309  1.00  0.00    -0.059 OA 
ENDBRANCH  18  19
ENDBRANCH  17  18
ENDBRANCH  16  17
ENDBRANCH  14  15
ENDBRANCH  13  14
ENDBRANCH  11  12
ENDBRANCH  10  11
ENDBRANCH   8   9
ENDBRANCH   7   8
ENDBRANCH   5   6
ENDBRANCH   4   5
ENDBRANCH   2   3
TORSDOF 12
ENDMDL
MODEL      372
REMARK 921   NORMALIZED FREE ENERGY PREDICTED BY IDOCK:   -2.76 KCAL/MOL
REMARK 922        TOTAL FREE ENERGY PREDICTED BY IDOCK:   -7.20 KCAL/MOL
REMARK 923 INTER-LIGAND FREE ENERGY PREDICTED BY IDOCK:   -5.09 KCAL/MOL
REMARK 924 INTRA-LIGAND FREE ENERGY PREDICTED BY IDOCK:   -2.12 KCAL/MOL
REMARK 927      BINDING AFFINITY PREDICTED BY RF-SCORE:    0.00 PKD
ROOT
HETATM    1  C   UNL     1     -10.285   8.820  66.500  1.00  0.00    -0.314 C  
HETATM    2  C   UNL     1      -9.834  10.251  66.256  1.00  0.00    -0.276 C  
ENDROOT
BRANCH   2   3
HETATM    3  C   UNL     1     -10.909  11.245  66.602  1.00  0.00    -0.325 C  
HETATM    4  C   UNL     1     -10.831  12.173  67.574  1.00  0.00    -0.283 C  
BRANCH   4   5
HETATM    5  C   UNL     1      -9.629  12.381  68.448  1.00  0.00    -0.180 C  
BRANCH   5   6
HETATM    6  C   UNL     1      -8.336  12.017  67.771  1.00  0.00    -0.156 C  
HETATM    7  C   UNL     1      -7.325  11.353  68.348  1.00  0.00    -0.095 C  
BRANCH   7   8
HETATM    8  C   UNL     1      -7.409  10.780  69.730  1.00  0.00    -0.072 C  
BRANCH   8   9
HETATM    9  C   UNL     1      -7.807   9.335  69.721  1.00  0.00    -0.100 C  
HETATM   10  C   UNL     1      -9.035   8.856  69.992  1.00  0.00    -0.172 C  
BRANCH  10  11
HETATM   11  C   UNL     1     -10.248   9.662  70.373  1.00  0.00    -0.348 C  
BRANCH  11  12
HETATM   12  C   UNL     1     -11.420   8.890  70.934  1.00  0.00    -0.339 C  
HETATM   13  C   UNL     1     -11.519   8.206  72.090  1.00  0.00    -0.412 C  
BRANCH  13  14
HETATM   14  C   UNL     1     -10.411   7.983  73.072  1.00  0.00    -0.341 C  
BRANCH  14  15
HETATM   15  C   UNL     1     -10.414   6.618  73.692  1.00  0.00    -0.353 C  
HETATM   16  C   UNL     1      -9.603   5.628  73.282  1.00  0.00    -0.150 C  
BRANCH  16  17
HETATM   17  C   UNL     1      -8.674   5.795  72.116  1.00  0.00    -0.133 C  
BRANCH  17  18
HETATM   18  C   UNL     1      -8.926   4.803  70.994  1.00  0.00    -0.163 C  
BRANCH  18  19
HETATM   19  C   UNL     1     -10.229   5.150  70.280  1.00  0.00    -0.342 C  
HETATM   20  C   UNL     1      -9.979   5.631  68.870  1.00  0.00    -0.166 C  
HETATM   21  O   UNL     1      -8.879   5.746  68.353  1.00  0.00    -0.111 OA 
HETATM   22  O   UNL     1     -11.126   5.926  68.223  1.00  0.00    -0.258 OA 
ENDBRANCH  18  19
ENDBRANCH  17  18
ENDBRANCH  16  17
ENDBRANCH  14  15
ENDBRANCH  13  14
ENDBRANCH  11  12
ENDBRANCH  10  11
ENDBRANCH   8   9
ENDBRANCH   7   8
ENDBRANCH   5   6
ENDBRANCH   4   5
ENDBRANCH   2   3
TORSDOF 12
ENDMDL
MODEL      373
REMARK 921   NORMALIZED FREE ENERGY PREDICTED BY IDOCK:   -2.75 KCAL/MOL
REMARK 922        TOTAL FREE ENERGY PREDICTED BY IDOCK:   -7.18 KCAL/MOL
REMARK 923 INTER-LIGAND FREE ENERGY PREDICTED BY IDOCK:   -5.23 KCAL/MOL
REMARK 924 INTRA-LIGAND FREE ENERGY PREDICTED BY IDOCK:   -1.95 KCAL/MOL
REMARK 927      BINDING AFFINITY PREDICTED BY RF-SCORE:    0.00 PKD
ROOT
HETATM    1  C   UNL     1     -10.065   5.274  66.372  1.00  0.00    -0.257 C  
HETATM    2  C   UNL     1      -9.523   6.661  66.680  1.00  0.00    -0.201 C  
ENDROOT
BRANCH   2   3
HETATM    3  C   UNL     1      -8.023   6.713  66.581  1.00  0.00    -0.105 C  
HETATM    4  C   UNL     1      -7.164   6.447  67.583  1.00  0.00    -0.086 C  
BRANCH   4   5
HETATM    5  C   UNL     1      -7.580   6.019  68.960  1.00  0.00    -0.091 C  
BRANCH   5   6
HETATM    6  C   UNL     1      -7.602   7.151  69.949  1.00  0.00    -0.098 C  
HETATM    7  C   UNL     1      -8.493   7.292  70.941  1.00  0.00    -0.128 C  
BRANCH   7   8
HETATM    8  C   UNL     1      -9.526   6.255  71.260  1.00  0.00    -0.171 C  
BRANCH   8   9
HETATM    9  C   UNL     1     -10.690   6.304  70.317  1.00  0.00    -0.339 C  
HETATM   10  C   UNL     1     -11.788   7.067  70.464  1.00  0.00    -0.337 C  
BRANCH  10  11
HETATM   11  C   UNL     1     -12.082   8.007  71.602  1.00  0.00    -0.339 C  
BRANCH  11  12
HETATM   12  C   UNL     1     -11.257   9.273  71.660  1.00  0.00    -0.449 C  
HETATM   13  C   UNL     1     -11.099  10.234  70.730  1.00  0.00    -0.303 C  
BRANCH  13  14
HETATM   14  C   UNL     1     -11.665  10.212  69.345  1.00  0.00    -0.096 C  
BRANCH  14  15
HETATM   15  C   UNL     1     -10.718   9.682  68.310  1.00  0.00    -0.262 C  
HETATM   16  C   UNL     1     -10.130  10.463  67.389  1.00  0.00    -0.237 C  
BRANCH  16  17
HETATM   17  C   UNL     1     -10.435  11.929  67.281  1.00  0.00    -0.248 C  
BRANCH  17  18
HETATM   18  C   UNL     1     -10.435  12.443  65.852  1.00  0.00    -0.284 C  
BRANCH  18  19
HETATM   19  C   UNL     1      -9.594  13.713  65.760  1.00  0.00    -0.086 C  
HETATM   20  C   UNL     1     -10.395  14.872  65.216  1.00  0.00    -0.396 C  
HETATM   21  O   UNL     1     -11.566  14.817  64.876  1.00  0.00    -0.373 OA 
HETATM   22  O   UNL     1      -9.664  16.005  65.144  1.00  0.00    -0.345 OA 
ENDBRANCH  18  19
ENDBRANCH  17  18
ENDBRANCH  16  17
ENDBRANCH  14  15
ENDBRANCH  13  14
ENDBRANCH  11  12
ENDBRANCH  10  11
ENDBRANCH   8   9
ENDBRANCH   7   8
ENDBRANCH   5   6
ENDBRANCH   4   5
ENDBRANCH   2   3
TORSDOF 12
ENDMDL
MODEL      374
REMARK 921   NORMALIZED FREE ENERGY PREDICTED BY IDOCK:   -2.73 KCAL/MOL
REMARK 922        TOTAL FREE ENERGY PREDICTED BY IDOCK:   -7.15 KCAL/MOL
REMARK 923 INTER-LIGAND FREE ENERGY PREDICTED BY IDOCK:   -5.33 KCAL/MOL
REMARK 924 INTRA-LIGAND FREE ENERGY PREDICTED BY IDOCK:   -1.82 KCAL/MOL
REMARK 927      BINDING AFFINITY PREDICTED BY RF-SCORE:    0.00 PKD
ROOT
HETATM    1  C   UNL     1      -6.834  10.070  63.518  1.00  0.00    -0.133 C  
HETATM    2  C   UNL     1      -8.059   9.454  64.174  1.00  0.00    -0.145 C  
ENDROOT
BRANCH   2   3
HETATM    3  C   UNL     1      -7.735   8.158  64.866  1.00  0.00    -0.116 C  
HETATM    4  C   UNL     1      -8.379   7.662  65.939  1.00  0.00    -0.140 C  
BRANCH   4   5
HETATM    5  C   UNL     1      -9.558   8.320  66.594  1.00  0.00    -0.299 C  
BRANCH   5   6
HETATM    6  C   UNL     1     -10.682   7.364  66.885  1.00  0.00    -0.324 C  
HETATM    7  C   UNL     1     -10.902   6.772  68.067  1.00  0.00    -0.306 C  
BRANCH   7   8
HETATM    8  C   UNL     1     -10.108   7.087  69.297  1.00  0.00    -0.178 C  
BRANCH   8   9
HETATM    9  C   UNL     1     -10.576   6.309  70.490  1.00  0.00    -0.305 C  
HETATM   10  C   UNL     1     -10.972   6.834  71.664  1.00  0.00    -0.267 C  
BRANCH  10  11
HETATM   11  C   UNL     1     -11.009   8.295  72.027  1.00  0.00    -0.374 C  
BRANCH  11  12
HETATM   12  C   UNL     1     -12.364   8.964  71.987  1.00  0.00    -0.460 C  
HETATM   13  C   UNL     1     -12.865   9.830  71.085  1.00  0.00    -0.434 C  
BRANCH  13  14
HETATM   14  C   UNL     1     -12.122  10.405  69.920  1.00  0.00    -0.252 C  
BRANCH  14  15
HETATM   15  C   UNL     1     -12.371  11.868  69.703  1.00  0.00    -0.109 C  
HETATM   16  C   UNL     1     -12.114  12.488  68.539  1.00  0.00    -0.129 C  
BRANCH  16  17
HETATM   17  C   UNL     1     -11.485  11.771  67.381  1.00  0.00    -0.375 C  
BRANCH  17  18
HETATM   18  C   UNL     1     -10.690  12.684  66.464  1.00  0.00    -0.273 C  
BRANCH  18  19
HETATM   19  C   UNL     1      -9.196  12.471  66.691  1.00  0.00    -0.223 C  
HETATM   20  C   UNL     1      -8.655  13.410  67.743  1.00  0.00    -0.194 C  
HETATM   21  O   UNL     1      -9.311  14.249  68.339  1.00  0.00    -0.199 OA 
HETATM   22  O   UNL     1      -7.337  13.220  67.963  1.00  0.00    -0.098 OA 
ENDBRANCH  18  19
ENDBRANCH  17  18
ENDBRANCH  16  17
ENDBRANCH  14  15
ENDBRANCH  13  14
ENDBRANCH  11  12
ENDBRANCH  10  11
ENDBRANCH   8   9
ENDBRANCH   7   8
ENDBRANCH   5   6
ENDBRANCH   4   5
ENDBRANCH   2   3
TORSDOF 12
ENDMDL
MODEL      375
REMARK 921   NORMALIZED FREE ENERGY PREDICTED BY IDOCK:   -2.73 KCAL/MOL
REMARK 922        TOTAL FREE ENERGY PREDICTED BY IDOCK:   -7.14 KCAL/MOL
REMARK 923 INTER-LIGAND FREE ENERGY PREDICTED BY IDOCK:   -5.80 KCAL/MOL
REMARK 924 INTRA-LIGAND FREE ENERGY PREDICTED BY IDOCK:   -1.34 KCAL/MOL
REMARK 927      BINDING AFFINITY PREDICTED BY RF-SCORE:    0.00 PKD
ROOT
HETATM    1  C   UNL     1     -10.279   4.353  65.308  1.00  0.00    -0.230 C  
HETATM    2  C   UNL     1      -9.448   5.273  66.188  1.00  0.00    -0.170 C  
ENDROOT
BRANCH   2   3
HETATM    3  C   UNL     1     -10.293   6.312  66.872  1.00  0.00    -0.306 C  
HETATM    4  C   UNL     1     -10.744   6.243  68.138  1.00  0.00    -0.364 C  
BRANCH   4   5
HETATM    5  C   UNL     1     -10.438   5.118  69.083  1.00  0.00    -0.170 C  
BRANCH   5   6
HETATM    6  C   UNL     1      -9.165   5.326  69.857  1.00  0.00    -0.178 C  
HETATM    7  C   UNL     1      -9.083   5.903  71.064  1.00  0.00    -0.156 C  
BRANCH   7   8
HETATM    8  C   UNL     1     -10.289   6.313  71.854  1.00  0.00    -0.234 C  
BRANCH   8   9
HETATM    9  C   UNL     1     -10.042   7.549  72.665  1.00  0.00    -0.274 C  
HETATM   10  C   UNL     1      -9.814   8.780  72.172  1.00  0.00    -0.347 C  
BRANCH  10  11
HETATM   11  C   UNL     1      -9.742   9.165  70.718  1.00  0.00    -0.337 C  
BRANCH  11  12
HETATM   12  C   UNL     1     -11.057   9.255  69.979  1.00  0.00    -0.228 C  
HETATM   13  C   UNL     1     -11.577  10.283  69.281  1.00  0.00    -0.186 C  
BRANCH  13  14
HETATM   14  C   UNL     1     -10.973  11.646  69.152  1.00  0.00    -0.270 C  
BRANCH  14  15
HETATM   15  C   UNL     1     -11.815  12.613  68.373  1.00  0.00    -0.347 C  
HETATM   16  C   UNL     1     -11.296  13.504  67.512  1.00  0.00    -0.335 C  
BRANCH  16  17
HETATM   17  C   UNL     1      -9.815  13.648  67.315  1.00  0.00    -0.241 C  
BRANCH  17  18
HETATM   18  C   UNL     1      -9.433  14.835  66.448  1.00  0.00    -0.328 C  
BRANCH  18  19
HETATM   19  C   UNL     1     -10.431  15.970  66.655  1.00  0.00    -0.304 C  
HETATM   20  C   UNL     1     -10.068  16.818  67.851  1.00  0.00    -0.284 C  
HETATM   21  O   UNL     1      -9.107  16.628  68.580  1.00  0.00    -0.218 OA 
HETATM   22  O   UNL     1     -10.936  17.835  68.035  1.00  0.00    -0.297 OA 
ENDBRANCH  18  19
ENDBRANCH  17  18
ENDBRANCH  16  17
ENDBRANCH  14  15
ENDBRANCH  13  14
ENDBRANCH  11  12
ENDBRANCH  10  11
ENDBRANCH   8   9
ENDBRANCH   7   8
ENDBRANCH   5   6
ENDBRANCH   4   5
ENDBRANCH   2   3
TORSDOF 12
ENDMDL
MODEL      376
REMARK 921   NORMALIZED FREE ENERGY PREDICTED BY IDOCK:   -2.72 KCAL/MOL
REMARK 922        TOTAL FREE ENERGY PREDICTED BY IDOCK:   -7.13 KCAL/MOL
REMARK 923 INTER-LIGAND FREE ENERGY PREDICTED BY IDOCK:   -5.38 KCAL/MOL
REMARK 924 INTRA-LIGAND FREE ENERGY PREDICTED BY IDOCK:   -1.76 KCAL/MOL
REMARK 927      BINDING AFFINITY PREDICTED BY RF-SCORE:    0.00 PKD
ROOT
HETATM    1  C   UNL     1      -9.644   8.852  71.469  1.00  0.00    -0.362 C  
HETATM    2  C   UNL     1      -9.891   9.739  70.258  1.00  0.00    -0.296 C  
ENDROOT
BRANCH   2   3
HETATM    3  C   UNL     1     -10.363   8.948  69.069  1.00  0.00    -0.226 C  
HETATM    4  C   UNL     1     -10.754   9.467  67.890  1.00  0.00    -0.285 C  
BRANCH   4   5
HETATM    5  C   UNL     1     -10.745  10.933  67.570  1.00  0.00    -0.299 C  
BRANCH   5   6
HETATM    6  C   UNL     1      -9.625  11.329  66.647  1.00  0.00    -0.218 C  
HETATM    7  C   UNL     1      -9.453  12.552  66.125  1.00  0.00    -0.184 C  
BRANCH   7   8
HETATM    8  C   UNL     1     -10.306  13.725  66.499  1.00  0.00    -0.286 C  
BRANCH   8   9
HETATM    9  C   UNL     1     -10.268  14.807  65.463  1.00  0.00    -0.400 C  
HETATM   10  C   UNL     1     -10.411  16.125  65.698  1.00  0.00    -0.405 C  
BRANCH  10  11
HETATM   11  C   UNL     1     -10.653  16.777  67.033  1.00  0.00    -0.234 C  
BRANCH  11  12
HETATM   12  C   UNL     1     -10.298  18.242  67.141  1.00  0.00    -0.402 C  
HETATM   13  C   UNL     1      -9.260  18.827  67.768  1.00  0.00    -0.316 C  
BRANCH  13  14
HETATM   14  C   UNL     1      -8.234  18.124  68.601  1.00  0.00    -0.295 C  
BRANCH  14  15
HETATM   15  C   UNL     1      -6.861  18.120  67.999  1.00  0.00    -0.208 C  
HETATM   16  C   UNL     1      -6.353  17.063  67.345  1.00  0.00    -0.179 C  
BRANCH  16  17
HETATM   17  C   UNL     1      -7.102  15.767  67.228  1.00  0.00    -0.245 C  
BRANCH  17  18
HETATM   18  C   UNL     1      -7.548  15.203  68.566  1.00  0.00    -0.120 C  
BRANCH  18  19
HETATM   19  C   UNL     1      -7.253  13.707  68.621  1.00  0.00    -0.110 C  
HETATM   20  C   UNL     1      -6.519  13.332  69.886  1.00  0.00     0.016 C  
HETATM   21  O   UNL     1      -6.184  14.114  70.761  1.00  0.00    -0.182 OA 
HETATM   22  O   UNL     1      -6.266  12.008  69.952  1.00  0.00    -0.141 OA 
ENDBRANCH  18  19
ENDBRANCH  17  18
ENDBRANCH  16  17
ENDBRANCH  14  15
ENDBRANCH  13  14
ENDBRANCH  11  12
ENDBRANCH  10  11
ENDBRANCH   8   9
ENDBRANCH   7   8
ENDBRANCH   5   6
ENDBRANCH   4   5
ENDBRANCH   2   3
TORSDOF 12
ENDMDL
MODEL      377
REMARK 921   NORMALIZED FREE ENERGY PREDICTED BY IDOCK:   -2.72 KCAL/MOL
REMARK 922        TOTAL FREE ENERGY PREDICTED BY IDOCK:   -7.13 KCAL/MOL
REMARK 923 INTER-LIGAND FREE ENERGY PREDICTED BY IDOCK:   -5.32 KCAL/MOL
REMARK 924 INTRA-LIGAND FREE ENERGY PREDICTED BY IDOCK:   -1.82 KCAL/MOL
REMARK 927      BINDING AFFINITY PREDICTED BY RF-SCORE:    0.00 PKD
ROOT
HETATM    1  C   UNL     1     -10.851   6.549  68.279  1.00  0.00    -0.359 C  
HETATM    2  C   UNL     1      -9.626   7.288  67.764  1.00  0.00    -0.158 C  
ENDROOT
BRANCH   2   3
HETATM    3  C   UNL     1      -9.978   8.280  66.691  1.00  0.00    -0.348 C  
HETATM    4  C   UNL     1      -9.464   9.519  66.572  1.00  0.00    -0.236 C  
BRANCH   4   5
HETATM    5  C   UNL     1      -8.422  10.091  67.487  1.00  0.00    -0.118 C  
BRANCH   5   6
HETATM    6  C   UNL     1      -7.492  11.051  66.797  1.00  0.00    -0.139 C  
HETATM    7  C   UNL     1      -7.332  12.340  67.126  1.00  0.00    -0.107 C  
BRANCH   7   8
HETATM    8  C   UNL     1      -7.988  12.964  68.320  1.00  0.00    -0.151 C  
BRANCH   8   9
HETATM    9  C   UNL     1      -7.472  14.344  68.595  1.00  0.00    -0.126 C  
HETATM   10  C   UNL     1      -8.176  15.484  68.475  1.00  0.00    -0.148 C  
BRANCH  10  11
HETATM   11  C   UNL     1      -9.608  15.612  68.026  1.00  0.00    -0.203 C  
BRANCH  11  12
HETATM   12  C   UNL     1      -9.836  16.253  66.676  1.00  0.00    -0.265 C  
HETATM   13  C   UNL     1     -10.585  15.825  65.642  1.00  0.00    -0.393 C  
BRANCH  13  14
HETATM   14  C   UNL     1     -11.318  14.522  65.574  1.00  0.00    -0.335 C  
BRANCH  14  15
HETATM   15  C   UNL     1     -11.924  14.234  64.232  1.00  0.00    -0.449 C  
HETATM   16  C   UNL     1     -11.927  13.010  63.680  1.00  0.00    -0.608 C  
BRANCH  16  17
HETATM   17  C   UNL     1     -11.257  11.840  64.339  1.00  0.00    -0.383 C  
BRANCH  17  18
HETATM   18  C   UNL     1     -10.507  10.946  63.367  1.00  0.00    -0.220 C  
BRANCH  18  19
HETATM   19  C   UNL     1      -9.004  11.078  63.598  1.00  0.00    -0.090 C  
HETATM   20  C   UNL     1      -8.261   9.847  63.134  1.00  0.00    -0.155 C  
HETATM   21  O   UNL     1      -8.780   8.857  62.645  1.00  0.00    -0.210 OA 
HETATM   22  O   UNL     1      -6.929   9.959  63.319  1.00  0.00    -0.117 OA 
ENDBRANCH  18  19
ENDBRANCH  17  18
ENDBRANCH  16  17
ENDBRANCH  14  15
ENDBRANCH  13  14
ENDBRANCH  11  12
ENDBRANCH  10  11
ENDBRANCH   8   9
ENDBRANCH   7   8
ENDBRANCH   5   6
ENDBRANCH   4   5
ENDBRANCH   2   3
TORSDOF 12
ENDMDL
MODEL      378
REMARK 921   NORMALIZED FREE ENERGY PREDICTED BY IDOCK:   -2.69 KCAL/MOL
REMARK 922        TOTAL FREE ENERGY PREDICTED BY IDOCK:   -7.09 KCAL/MOL
REMARK 923 INTER-LIGAND FREE ENERGY PREDICTED BY IDOCK:   -5.30 KCAL/MOL
REMARK 924 INTRA-LIGAND FREE ENERGY PREDICTED BY IDOCK:   -1.79 KCAL/MOL
REMARK 927      BINDING AFFINITY PREDICTED BY RF-SCORE:    0.00 PKD
ROOT
HETATM    1  C   UNL     1      -7.742   7.129  64.571  1.00  0.00    -0.113 C  
HETATM    2  C   UNL     1      -6.922   7.876  65.611  1.00  0.00    -0.053 C  
ENDROOT
BRANCH   2   3
HETATM    3  C   UNL     1      -7.594   9.148  66.049  1.00  0.00    -0.095 C  
HETATM    4  C   UNL     1      -8.317   9.303  67.174  1.00  0.00    -0.124 C  
BRANCH   4   5
HETATM    5  C   UNL     1      -8.536   8.222  68.192  1.00  0.00    -0.132 C  
BRANCH   5   6
HETATM    6  C   UNL     1      -7.337   7.988  69.070  1.00  0.00    -0.084 C  
HETATM    7  C   UNL     1      -7.386   7.610  70.355  1.00  0.00    -0.071 C  
BRANCH   7   8
HETATM    8  C   UNL     1      -8.665   7.258  71.053  1.00  0.00    -0.140 C  
BRANCH   8   9
HETATM    9  C   UNL     1      -9.073   8.298  72.051  1.00  0.00    -0.267 C  
HETATM   10  C   UNL     1     -10.337   8.669  72.327  1.00  0.00    -0.376 C  
BRANCH  10  11
HETATM   11  C   UNL     1     -11.589   8.136  71.685  1.00  0.00    -0.325 C  
BRANCH  11  12
HETATM   12  C   UNL     1     -12.866   8.893  71.968  1.00  0.00    -0.456 C  
HETATM   13  C   UNL     1     -13.456   9.872  71.256  1.00  0.00    -0.353 C  
BRANCH  13  14
HETATM   14  C   UNL     1     -12.903  10.507  70.018  1.00  0.00    -0.040 C  
BRANCH  14  15
HETATM   15  C   UNL     1     -11.723  11.398  70.267  1.00  0.00    -0.397 C  
HETATM   16  C   UNL     1     -11.018  11.969  69.277  1.00  0.00    -0.189 C  
BRANCH  16  17
HETATM   17  C   UNL     1     -11.316  11.699  67.832  1.00  0.00    -0.369 C  
BRANCH  17  18
HETATM   18  C   UNL     1     -10.465  12.516  66.875  1.00  0.00    -0.244 C  
BRANCH  18  19
HETATM   19  C   UNL     1     -10.464  11.861  65.496  1.00  0.00    -0.309 C  
HETATM   20  C   UNL     1     -10.650  12.881  64.397  1.00  0.00    -0.396 C  
HETATM   21  O   UNL     1     -10.795  14.080  64.570  1.00  0.00    -0.400 OA 
HETATM   22  O   UNL     1     -10.635  12.314  63.172  1.00  0.00    -0.364 OA 
ENDBRANCH  18  19
ENDBRANCH  17  18
ENDBRANCH  16  17
ENDBRANCH  14  15
ENDBRANCH  13  14
ENDBRANCH  11  12
ENDBRANCH  10  11
ENDBRANCH   8   9
ENDBRANCH   7   8
ENDBRANCH   5   6
ENDBRANCH   4   5
ENDBRANCH   2   3
TORSDOF 12
ENDMDL
MODEL      379
REMARK 921   NORMALIZED FREE ENERGY PREDICTED BY IDOCK:   -2.68 KCAL/MOL
REMARK 922        TOTAL FREE ENERGY PREDICTED BY IDOCK:   -7.07 KCAL/MOL
REMARK 923 INTER-LIGAND FREE ENERGY PREDICTED BY IDOCK:   -6.12 KCAL/MOL
REMARK 924 INTRA-LIGAND FREE ENERGY PREDICTED BY IDOCK:   -0.95 KCAL/MOL
REMARK 927      BINDING AFFINITY PREDICTED BY RF-SCORE:    0.00 PKD
ROOT
HETATM    1  C   UNL     1     -11.110  11.972  67.249  1.00  0.00    -0.341 C  
HETATM    2  C   UNL     1     -11.011  10.456  67.305  1.00  0.00    -0.306 C  
ENDROOT
BRANCH   2   3
HETATM    3  C   UNL     1     -10.322   9.983  68.555  1.00  0.00    -0.217 C  
HETATM    4  C   UNL     1     -10.605  10.394  69.806  1.00  0.00    -0.302 C  
BRANCH   4   5
HETATM    5  C   UNL     1     -11.688  11.373  70.148  1.00  0.00    -0.414 C  
BRANCH   5   6
HETATM    6  C   UNL     1     -12.837  10.748  70.890  1.00  0.00    -0.443 C  
HETATM    7  C   UNL     1     -13.449  11.284  71.956  1.00  0.00    -0.289 C  
BRANCH   7   8
HETATM    8  C   UNL     1     -13.130  12.653  72.475  1.00  0.00    -0.013 C  
BRANCH   8   9
HETATM    9  C   UNL     1     -13.906  13.722  71.769  1.00  0.00    -0.409 C  
HETATM   10  C   UNL     1     -13.420  14.556  70.831  1.00  0.00    -0.266 C  
BRANCH  10  11
HETATM   11  C   UNL     1     -12.006  14.600  70.315  1.00  0.00    -0.370 C  
BRANCH  11  12
HETATM   12  C   UNL     1     -11.400  15.972  70.126  1.00  0.00    -0.369 C  
HETATM   13  C   UNL     1     -10.238  16.320  69.542  1.00  0.00    -0.251 C  
BRANCH  13  14
HETATM   14  C   UNL     1      -9.212  15.373  69.004  1.00  0.00    -0.235 C  
BRANCH  14  15
HETATM   15  C   UNL     1      -9.393  15.040  67.553  1.00  0.00    -0.195 C  
HETATM   16  C   UNL     1      -8.544  15.451  66.598  1.00  0.00    -0.318 C  
BRANCH  16  17
HETATM   17  C   UNL     1      -7.376  16.342  66.904  1.00  0.00    -0.269 C  
BRANCH  17  18
HETATM   18  C   UNL     1      -7.708  17.823  66.829  1.00  0.00    -0.258 C  
BRANCH  18  19
HETATM   19  C   UNL     1      -6.743  18.615  67.705  1.00  0.00    -0.218 C  
HETATM   20  C   UNL     1      -6.413  19.957  67.096  1.00  0.00    -0.189 C  
HETATM   21  O   UNL     1      -6.845  20.369  66.032  1.00  0.00    -0.242 OA 
HETATM   22  O   UNL     1      -5.572  20.673  67.871  1.00  0.00    -0.209 OA 
ENDBRANCH  18  19
ENDBRANCH  17  18
ENDBRANCH  16  17
ENDBRANCH  14  15
ENDBRANCH  13  14
ENDBRANCH  11  12
ENDBRANCH  10  11
ENDBRANCH   8   9
ENDBRANCH   7   8
ENDBRANCH   5   6
ENDBRANCH   4   5
ENDBRANCH   2   3
TORSDOF 12
ENDMDL
MODEL      380
REMARK 921   NORMALIZED FREE ENERGY PREDICTED BY IDOCK:   -2.68 KCAL/MOL
REMARK 922        TOTAL FREE ENERGY PREDICTED BY IDOCK:   -7.07 KCAL/MOL
REMARK 923 INTER-LIGAND FREE ENERGY PREDICTED BY IDOCK:   -4.49 KCAL/MOL
REMARK 924 INTRA-LIGAND FREE ENERGY PREDICTED BY IDOCK:   -2.58 KCAL/MOL
REMARK 927      BINDING AFFINITY PREDICTED BY RF-SCORE:    0.00 PKD
ROOT
HETATM    1  C   UNL     1      -7.662   9.940  66.664  1.00  0.00    -0.106 C  
HETATM    2  C   UNL     1      -7.203   8.922  67.696  1.00  0.00    -0.080 C  
ENDROOT
BRANCH   2   3
HETATM    3  C   UNL     1      -8.247   7.869  67.950  1.00  0.00    -0.129 C  
HETATM    4  C   UNL     1      -9.110   7.858  68.983  1.00  0.00    -0.144 C  
BRANCH   4   5
HETATM    5  C   UNL     1      -9.184   8.929  70.032  1.00  0.00    -0.183 C  
BRANCH   5   6
HETATM    6  C   UNL     1     -10.230   9.970  69.741  1.00  0.00    -0.286 C  
HETATM    7  C   UNL     1     -11.386  10.108  70.405  1.00  0.00    -0.401 C  
BRANCH   7   8
HETATM    8  C   UNL     1     -11.730   9.298  71.618  1.00  0.00    -0.462 C  
BRANCH   8   9
HETATM    9  C   UNL     1     -12.854   8.341  71.361  1.00  0.00    -0.263 C  
HETATM   10  C   UNL     1     -12.724   7.024  71.114  1.00  0.00    -0.361 C  
BRANCH  10  11
HETATM   11  C   UNL     1     -11.436   6.251  71.027  1.00  0.00    -0.370 C  
BRANCH  11  12
HETATM   12  C   UNL     1     -10.757   5.922  72.338  1.00  0.00    -0.274 C  
HETATM   13  C   UNL     1      -9.747   5.068  72.587  1.00  0.00    -0.183 C  
BRANCH  13  14
HETATM   14  C   UNL     1      -9.105   4.158  71.587  1.00  0.00    -0.172 C  
BRANCH  14  15
HETATM   15  C   UNL     1      -7.709   4.558  71.209  1.00  0.00    -0.077 C  
HETATM   16  C   UNL     1      -7.171   4.284  70.009  1.00  0.00    -0.046 C  
BRANCH  16  17
HETATM   17  C   UNL     1      -7.907   3.487  68.972  1.00  0.00    -0.053 C  
BRANCH  17  18
HETATM   18  C   UNL     1      -8.047   4.208  67.642  1.00  0.00    -0.094 C  
BRANCH  18  19
HETATM   19  C   UNL     1      -9.522   4.316  67.266  1.00  0.00    -0.209 C  
HETATM   20  C   UNL     1      -9.706   4.451  65.773  1.00  0.00    -0.209 C  
HETATM   21  O   UNL     1      -8.801   4.482  64.955  1.00  0.00    -0.136 OA 
HETATM   22  O   UNL     1     -11.008   4.531  65.428  1.00  0.00    -0.256 OA 
ENDBRANCH  18  19
ENDBRANCH  17  18
ENDBRANCH  16  17
ENDBRANCH  14  15
ENDBRANCH  13  14
ENDBRANCH  11  12
ENDBRANCH  10  11
ENDBRANCH   8   9
ENDBRANCH   7   8
ENDBRANCH   5   6
ENDBRANCH   4   5
ENDBRANCH   2   3
TORSDOF 12
ENDMDL
MODEL      381
REMARK 921   NORMALIZED FREE ENERGY PREDICTED BY IDOCK:   -2.67 KCAL/MOL
REMARK 922        TOTAL FREE ENERGY PREDICTED BY IDOCK:   -7.06 KCAL/MOL
REMARK 923 INTER-LIGAND FREE ENERGY PREDICTED BY IDOCK:   -5.73 KCAL/MOL
REMARK 924 INTRA-LIGAND FREE ENERGY PREDICTED BY IDOCK:   -1.32 KCAL/MOL
REMARK 927      BINDING AFFINITY PREDICTED BY RF-SCORE:    0.00 PKD
ROOT
HETATM    1  C   UNL     1      -6.740   6.706  71.899  1.00  0.00    -0.059 C  
HETATM    2  C   UNL     1      -7.559   5.643  71.184  1.00  0.00    -0.102 C  
ENDROOT
BRANCH   2   3
HETATM    3  C   UNL     1      -7.869   4.476  72.080  1.00  0.00    -0.095 C  
HETATM    4  C   UNL     1      -9.102   4.033  72.389  1.00  0.00    -0.144 C  
BRANCH   4   5
HETATM    5  C   UNL     1     -10.371   4.627  71.851  1.00  0.00    -0.220 C  
BRANCH   5   6
HETATM    6  C   UNL     1     -10.691   5.972  72.443  1.00  0.00    -0.267 C  
HETATM    7  C   UNL     1     -11.190   7.014  71.763  1.00  0.00    -0.278 C  
BRANCH   7   8
HETATM    8  C   UNL     1     -11.605   6.926  70.326  1.00  0.00    -0.362 C  
BRANCH   8   9
HETATM    9  C   UNL     1     -10.455   7.140  69.389  1.00  0.00    -0.232 C  
HETATM   10  C   UNL     1      -9.615   8.192  69.403  1.00  0.00    -0.167 C  
BRANCH  10  11
HETATM   11  C   UNL     1      -9.667   9.369  70.340  1.00  0.00    -0.315 C  
BRANCH  11  12
HETATM   12  C   UNL     1     -10.754  10.387  70.082  1.00  0.00    -0.292 C  
HETATM   13  C   UNL     1     -11.358  10.719  68.925  1.00  0.00    -0.349 C  
BRANCH  13  14
HETATM   14  C   UNL     1     -11.009  10.184  67.571  1.00  0.00    -0.319 C  
BRANCH  14  15
HETATM   15  C   UNL     1      -9.954  10.977  66.858  1.00  0.00    -0.231 C  
HETATM   16  C   UNL     1     -10.240  12.009  66.048  1.00  0.00    -0.256 C  
BRANCH  16  17
HETATM   17  C   UNL     1     -11.653  12.406  65.736  1.00  0.00    -0.449 C  
BRANCH  17  18
HETATM   18  C   UNL     1     -12.158  13.560  66.585  1.00  0.00    -0.447 C  
BRANCH  18  19
HETATM   19  C   UNL     1     -11.404  14.836  66.224  1.00  0.00    -0.334 C  
HETATM   20  C   UNL     1     -10.810  15.496  67.446  1.00  0.00    -0.312 C  
HETATM   21  O   UNL     1     -10.919  15.082  68.589  1.00  0.00    -0.239 OA 
HETATM   22  O   UNL     1     -10.128  16.618  67.136  1.00  0.00    -0.264 OA 
ENDBRANCH  18  19
ENDBRANCH  17  18
ENDBRANCH  16  17
ENDBRANCH  14  15
ENDBRANCH  13  14
ENDBRANCH  11  12
ENDBRANCH  10  11
ENDBRANCH   8   9
ENDBRANCH   7   8
ENDBRANCH   5   6
ENDBRANCH   4   5
ENDBRANCH   2   3
TORSDOF 12
ENDMDL
MODEL      382
REMARK 921   NORMALIZED FREE ENERGY PREDICTED BY IDOCK:   -2.67 KCAL/MOL
REMARK 922        TOTAL FREE ENERGY PREDICTED BY IDOCK:   -7.06 KCAL/MOL
REMARK 923 INTER-LIGAND FREE ENERGY PREDICTED BY IDOCK:   -5.07 KCAL/MOL
REMARK 924 INTRA-LIGAND FREE ENERGY PREDICTED BY IDOCK:   -1.98 KCAL/MOL
REMARK 927      BINDING AFFINITY PREDICTED BY RF-SCORE:    0.00 PKD
ROOT
HETATM    1  C   UNL     1      -8.279   4.588  62.938  1.00  0.00    -0.090 C  
HETATM    2  C   UNL     1      -7.701   4.553  64.343  1.00  0.00    -0.077 C  
ENDROOT
BRANCH   2   3
HETATM    3  C   UNL     1      -7.669   5.919  64.973  1.00  0.00    -0.095 C  
HETATM    4  C   UNL     1      -8.440   6.324  66.000  1.00  0.00    -0.143 C  
BRANCH   4   5
HETATM    5  C   UNL     1      -9.435   5.450  66.704  1.00  0.00    -0.151 C  
BRANCH   5   6
HETATM    6  C   UNL     1     -10.775   6.109  66.886  1.00  0.00    -0.413 C  
HETATM    7  C   UNL     1     -11.239   6.605  68.042  1.00  0.00    -0.217 C  
BRANCH   7   8
HETATM    8  C   UNL     1     -10.413   6.668  69.291  1.00  0.00    -0.247 C  
BRANCH   8   9
HETATM    9  C   UNL     1     -11.118   6.064  70.468  1.00  0.00    -0.385 C  
HETATM   10  C   UNL     1     -11.159   6.581  71.709  1.00  0.00    -0.299 C  
BRANCH  10  11
HETATM   11  C   UNL     1     -10.498   7.851  72.174  1.00  0.00    -0.308 C  
BRANCH  11  12
HETATM   12  C   UNL     1      -8.987   7.842  72.233  1.00  0.00    -0.194 C  
HETATM   13  C   UNL     1      -8.099   8.564  71.524  1.00  0.00    -0.191 C  
BRANCH  13  14
HETATM   14  C   UNL     1      -8.431   9.514  70.416  1.00  0.00    -0.238 C  
BRANCH  14  15
HETATM   15  C   UNL     1      -8.049   9.016  69.054  1.00  0.00    -0.107 C  
HETATM   16  C   UNL     1      -8.578   9.507  67.921  1.00  0.00    -0.119 C  
BRANCH  16  17
HETATM   17  C   UNL     1      -9.656  10.552  67.937  1.00  0.00    -0.164 C  
BRANCH  17  18
HETATM   18  C   UNL     1     -10.470  10.601  66.656  1.00  0.00    -0.296 C  
BRANCH  18  19
HETATM   19  C   UNL     1     -10.469  12.021  66.097  1.00  0.00    -0.271 C  
HETATM   20  C   UNL     1     -10.682  12.029  64.601  1.00  0.00    -0.309 C  
HETATM   21  O   UNL     1     -10.826  11.035  63.908  1.00  0.00    -0.356 OA 
HETATM   22  O   UNL     1     -10.698  13.281  64.098  1.00  0.00    -0.405 OA 
ENDBRANCH  18  19
ENDBRANCH  17  18
ENDBRANCH  16  17
ENDBRANCH  14  15
ENDBRANCH  13  14
ENDBRANCH  11  12
ENDBRANCH  10  11
ENDBRANCH   8   9
ENDBRANCH   7   8
ENDBRANCH   5   6
ENDBRANCH   4   5
ENDBRANCH   2   3
TORSDOF 12
ENDMDL
MODEL      383
REMARK 921   NORMALIZED FREE ENERGY PREDICTED BY IDOCK:   -2.66 KCAL/MOL
REMARK 922        TOTAL FREE ENERGY PREDICTED BY IDOCK:   -7.03 KCAL/MOL
REMARK 923 INTER-LIGAND FREE ENERGY PREDICTED BY IDOCK:   -4.93 KCAL/MOL
REMARK 924 INTRA-LIGAND FREE ENERGY PREDICTED BY IDOCK:   -2.10 KCAL/MOL
REMARK 927      BINDING AFFINITY PREDICTED BY RF-SCORE:    0.00 PKD
ROOT
HETATM    1  C   UNL     1     -12.748  13.803  65.180  1.00  0.00    -0.439 C  
HETATM    2  C   UNL     1     -11.446  13.687  64.405  1.00  0.00    -0.410 C  
ENDROOT
BRANCH   2   3
HETATM    3  C   UNL     1     -11.349  12.383  63.661  1.00  0.00    -0.556 C  
HETATM    4  C   UNL     1     -10.886  11.225  64.169  1.00  0.00    -0.407 C  
BRANCH   4   5
HETATM    5  C   UNL     1     -10.423  11.051  65.585  1.00  0.00    -0.293 C  
BRANCH   5   6
HETATM    6  C   UNL     1      -9.041  10.466  65.687  1.00  0.00    -0.206 C  
HETATM    7  C   UNL     1      -8.753   9.249  66.168  1.00  0.00    -0.169 C  
BRANCH   7   8
HETATM    8  C   UNL     1      -9.807   8.258  66.561  1.00  0.00    -0.323 C  
BRANCH   8   9
HETATM    9  C   UNL     1      -9.457   7.529  67.822  1.00  0.00    -0.157 C  
HETATM   10  C   UNL     1      -9.630   7.995  69.073  1.00  0.00    -0.156 C  
BRANCH  10  11
HETATM   11  C   UNL     1     -10.186   9.339  69.460  1.00  0.00    -0.214 C  
BRANCH  11  12
HETATM   12  C   UNL     1     -11.640   9.373  69.872  1.00  0.00     0.028 C  
HETATM   13  C   UNL     1     -12.190   9.182  71.087  1.00  0.00    -0.350 C  
BRANCH  13  14
HETATM   14  C   UNL     1     -11.451   8.795  72.329  1.00  0.00    -0.376 C  
BRANCH  14  15
HETATM   15  C   UNL     1     -11.219   7.319  72.464  1.00  0.00    -0.342 C  
HETATM   16  C   UNL     1      -9.995   6.782  72.598  1.00  0.00    -0.186 C  
BRANCH  16  17
HETATM   17  C   UNL     1      -8.751   7.619  72.551  1.00  0.00    -0.176 C  
BRANCH  17  18
HETATM   18  C   UNL     1      -7.533   6.867  72.043  1.00  0.00    -0.092 C  
BRANCH  18  19
HETATM   19  C   UNL     1      -6.724   7.762  71.109  1.00  0.00    -0.041 C  
HETATM   20  C   UNL     1      -6.037   6.961  70.028  1.00  0.00    -0.024 C  
HETATM   21  O   UNL     1      -6.099   5.748  69.908  1.00  0.00    -0.023 OA 
HETATM   22  O   UNL     1      -5.331   7.745  69.187  1.00  0.00    -0.018 OA 
ENDBRANCH  18  19
ENDBRANCH  17  18
ENDBRANCH  16  17
ENDBRANCH  14  15
ENDBRANCH  13  14
ENDBRANCH  11  12
ENDBRANCH  10  11
ENDBRANCH   8   9
ENDBRANCH   7   8
ENDBRANCH   5   6
ENDBRANCH   4   5
ENDBRANCH   2   3
TORSDOF 12
ENDMDL
MODEL      384
REMARK 921   NORMALIZED FREE ENERGY PREDICTED BY IDOCK:   -2.64 KCAL/MOL
REMARK 922        TOTAL FREE ENERGY PREDICTED BY IDOCK:   -7.01 KCAL/MOL
REMARK 923 INTER-LIGAND FREE ENERGY PREDICTED BY IDOCK:   -4.97 KCAL/MOL
REMARK 924 INTRA-LIGAND FREE ENERGY PREDICTED BY IDOCK:   -2.04 KCAL/MOL
REMARK 927      BINDING AFFINITY PREDICTED BY RF-SCORE:    0.00 PKD
ROOT
HETATM    1  C   UNL     1      -9.011   7.206  66.485  1.00  0.00    -0.172 C  
HETATM    2  C   UNL     1      -7.592   7.753  66.459  1.00  0.00    -0.096 C  
ENDROOT
BRANCH   2   3
HETATM    3  C   UNL     1      -7.524   9.163  66.977  1.00  0.00    -0.091 C  
HETATM    4  C   UNL     1      -7.613  10.277  66.226  1.00  0.00    -0.117 C  
BRANCH   4   5
HETATM    5  C   UNL     1      -7.832  10.278  64.742  1.00  0.00    -0.130 C  
BRANCH   5   6
HETATM    6  C   UNL     1      -9.191   9.771  64.345  1.00  0.00    -0.301 C  
HETATM    7  C   UNL     1     -10.280  10.535  64.178  1.00  0.00    -0.287 C  
BRANCH   7   8
HETATM    8  C   UNL     1     -10.246  12.031  64.255  1.00  0.00    -0.347 C  
BRANCH   8   9
HETATM    9  C   UNL     1     -11.459  12.659  63.640  1.00  0.00    -0.563 C  
HETATM   10  C   UNL     1     -12.484  13.213  64.314  1.00  0.00    -0.358 C  
BRANCH  10  11
HETATM   11  C   UNL     1     -12.632  13.299  65.810  1.00  0.00    -0.413 C  
BRANCH  11  12
HETATM   12  C   UNL     1     -11.504  13.970  66.560  1.00  0.00    -0.368 C  
HETATM   13  C   UNL     1     -10.909  13.608  67.713  1.00  0.00    -0.266 C  
BRANCH  13  14
HETATM   14  C   UNL     1     -11.313  12.457  68.581  1.00  0.00    -0.332 C  
BRANCH  14  15
HETATM   15  C   UNL     1     -11.149  11.117  67.928  1.00  0.00    -0.331 C  
HETATM   16  C   UNL     1     -10.679  10.040  68.579  1.00  0.00    -0.264 C  
BRANCH  16  17
HETATM   17  C   UNL     1     -10.211  10.115  70.003  1.00  0.00    -0.271 C  
BRANCH  17  18
HETATM   18  C   UNL     1      -9.190   9.050  70.362  1.00  0.00    -0.243 C  
BRANCH  18  19
HETATM   19  C   UNL     1      -7.902   9.711  70.844  1.00  0.00     0.116 C  
HETATM   20  C   UNL     1      -6.687   8.886  70.487  1.00  0.00    -0.051 C  
HETATM   21  O   UNL     1      -6.713   7.818  69.897  1.00  0.00    -0.040 OA 
HETATM   22  O   UNL     1      -5.541   9.470  70.895  1.00  0.00    -0.043 OA 
ENDBRANCH  18  19
ENDBRANCH  17  18
ENDBRANCH  16  17
ENDBRANCH  14  15
ENDBRANCH  13  14
ENDBRANCH  11  12
ENDBRANCH  10  11
ENDBRANCH   8   9
ENDBRANCH   7   8
ENDBRANCH   5   6
ENDBRANCH   4   5
ENDBRANCH   2   3
TORSDOF 12
ENDMDL
MODEL      385
REMARK 921   NORMALIZED FREE ENERGY PREDICTED BY IDOCK:   -2.63 KCAL/MOL
REMARK 922        TOTAL FREE ENERGY PREDICTED BY IDOCK:   -6.99 KCAL/MOL
REMARK 923 INTER-LIGAND FREE ENERGY PREDICTED BY IDOCK:   -5.13 KCAL/MOL
REMARK 924 INTRA-LIGAND FREE ENERGY PREDICTED BY IDOCK:   -1.86 KCAL/MOL
REMARK 927      BINDING AFFINITY PREDICTED BY RF-SCORE:    0.00 PKD
ROOT
HETATM    1  C   UNL     1     -10.392   6.114  66.649  1.00  0.00    -0.249 C  
HETATM    2  C   UNL     1      -8.931   6.506  66.801  1.00  0.00    -0.136 C  
ENDROOT
BRANCH   2   3
HETATM    3  C   UNL     1      -8.681   7.264  68.076  1.00  0.00    -0.127 C  
HETATM    4  C   UNL     1      -8.607   8.604  68.187  1.00  0.00    -0.141 C  
BRANCH   4   5
HETATM    5  C   UNL     1      -8.799   9.557  67.045  1.00  0.00    -0.139 C  
BRANCH   5   6
HETATM    6  C   UNL     1     -10.244   9.886  66.787  1.00  0.00    -0.301 C  
HETATM    7  C   UNL     1     -11.052  10.531  67.641  1.00  0.00    -0.375 C  
BRANCH   7   8
HETATM    8  C   UNL     1     -10.571  11.115  68.934  1.00  0.00    -0.239 C  
BRANCH   8   9
HETATM    9  C   UNL     1     -11.686  11.709  69.739  1.00  0.00    -0.425 C  
HETATM   10  C   UNL     1     -12.340  11.100  70.745  1.00  0.00    -0.504 C  
BRANCH  10  11
HETATM   11  C   UNL     1     -12.101   9.704  71.254  1.00  0.00    -0.457 C  
BRANCH  11  12
HETATM   12  C   UNL     1     -10.661   9.309  71.488  1.00  0.00    -0.405 C  
HETATM   13  C   UNL     1     -10.132   8.088  71.696  1.00  0.00    -0.238 C  
BRANCH  13  14
HETATM   14  C   UNL     1     -10.903   6.812  71.830  1.00  0.00    -0.257 C  
BRANCH  14  15
HETATM   15  C   UNL     1     -11.332   6.221  70.520  1.00  0.00    -0.428 C  
HETATM   16  C   UNL     1     -10.757   5.129  69.989  1.00  0.00    -0.083 C  
BRANCH  16  17
HETATM   17  C   UNL     1      -9.584   4.454  70.638  1.00  0.00    -0.262 C  
BRANCH  17  18
HETATM   18  C   UNL     1      -9.134   3.196  69.915  1.00  0.00    -0.196 C  
BRANCH  18  19
HETATM   19  C   UNL     1      -7.612   3.174  69.814  1.00  0.00    -0.044 C  
HETATM   20  C   UNL     1      -7.140   2.233  68.731  1.00  0.00    -0.044 C  
HETATM   21  O   UNL     1      -7.869   1.558  68.023  1.00  0.00    -0.056 OA 
HETATM   22  O   UNL     1      -5.795   2.219  68.622  1.00  0.00    -0.022 OA 
ENDBRANCH  18  19
ENDBRANCH  17  18
ENDBRANCH  16  17
ENDBRANCH  14  15
ENDBRANCH  13  14
ENDBRANCH  11  12
ENDBRANCH  10  11
ENDBRANCH   8   9
ENDBRANCH   7   8
ENDBRANCH   5   6
ENDBRANCH   4   5
ENDBRANCH   2   3
TORSDOF 12
ENDMDL
MODEL      386
REMARK 921   NORMALIZED FREE ENERGY PREDICTED BY IDOCK:   -2.63 KCAL/MOL
REMARK 922        TOTAL FREE ENERGY PREDICTED BY IDOCK:   -6.98 KCAL/MOL
REMARK 923 INTER-LIGAND FREE ENERGY PREDICTED BY IDOCK:   -5.04 KCAL/MOL
REMARK 924 INTRA-LIGAND FREE ENERGY PREDICTED BY IDOCK:   -1.93 KCAL/MOL
REMARK 927      BINDING AFFINITY PREDICTED BY RF-SCORE:    0.00 PKD
ROOT
HETATM    1  C   UNL     1     -12.446  14.337  65.299  1.00  0.00    -0.428 C  
HETATM    2  C   UNL     1     -11.439  13.918  64.239  1.00  0.00    -0.336 C  
ENDROOT
BRANCH   2   3
HETATM    3  C   UNL     1     -11.791  12.593  63.622  1.00  0.00    -0.606 C  
HETATM    4  C   UNL     1     -11.284  11.401  63.989  1.00  0.00    -0.350 C  
BRANCH   4   5
HETATM    5  C   UNL     1     -10.304  11.209  65.108  1.00  0.00    -0.354 C  
BRANCH   5   6
HETATM    6  C   UNL     1      -9.219  10.220  64.780  1.00  0.00    -0.287 C  
HETATM    7  C   UNL     1      -9.041   9.041  65.393  1.00  0.00    -0.250 C  
BRANCH   7   8
HETATM    8  C   UNL     1      -9.990   8.505  66.421  1.00  0.00    -0.314 C  
BRANCH   8   9
HETATM    9  C   UNL     1      -9.471   8.675  67.817  1.00  0.00    -0.165 C  
HETATM   10  C   UNL     1      -8.643   7.827  68.455  1.00  0.00    -0.128 C  
BRANCH  10  11
HETATM   11  C   UNL     1      -8.088   6.537  67.913  1.00  0.00    -0.116 C  
BRANCH  11  12
HETATM   12  C   UNL     1      -6.586   6.463  67.757  1.00  0.00    -0.062 C  
HETATM   13  C   UNL     1      -5.686   5.750  68.461  1.00  0.00    -0.012 C  
BRANCH  13  14
HETATM   14  C   UNL     1      -5.986   4.903  69.658  1.00  0.00    -0.017 C  
BRANCH  14  15
HETATM   15  C   UNL     1      -6.532   5.671  70.824  1.00  0.00    -0.035 C  
HETATM   16  C   UNL     1      -7.710   5.382  71.402  1.00  0.00    -0.108 C  
BRANCH  16  17
HETATM   17  C   UNL     1      -8.610   4.304  70.874  1.00  0.00    -0.112 C  
BRANCH  17  18
HETATM   18  C   UNL     1     -10.086   4.652  70.960  1.00  0.00    -0.246 C  
BRANCH  18  19
HETATM   19  C   UNL     1     -10.255   6.042  71.565  1.00  0.00    -0.249 C  
HETATM   20  C   UNL     1     -11.334   6.829  70.859  1.00  0.00    -0.315 C  
HETATM   21  O   UNL     1     -11.991   6.425  69.913  1.00  0.00    -0.304 OA 
HETATM   22  O   UNL     1     -11.503   8.054  71.397  1.00  0.00    -0.248 OA 
ENDBRANCH  18  19
ENDBRANCH  17  18
ENDBRANCH  16  17
ENDBRANCH  14  15
ENDBRANCH  13  14
ENDBRANCH  11  12
ENDBRANCH  10  11
ENDBRANCH   8   9
ENDBRANCH   7   8
ENDBRANCH   5   6
ENDBRANCH   4   5
ENDBRANCH   2   3
TORSDOF 12
ENDMDL
MODEL      387
REMARK 921   NORMALIZED FREE ENERGY PREDICTED BY IDOCK:   -2.62 KCAL/MOL
REMARK 922        TOTAL FREE ENERGY PREDICTED BY IDOCK:   -6.96 KCAL/MOL
REMARK 923 INTER-LIGAND FREE ENERGY PREDICTED BY IDOCK:   -4.80 KCAL/MOL
REMARK 924 INTRA-LIGAND FREE ENERGY PREDICTED BY IDOCK:   -2.16 KCAL/MOL
REMARK 927      BINDING AFFINITY PREDICTED BY RF-SCORE:    0.00 PKD
ROOT
HETATM    1  C   UNL     1      -9.303   9.249  70.714  1.00  0.00    -0.322 C  
HETATM    2  C   UNL     1      -9.511   7.782  71.052  1.00  0.00    -0.165 C  
ENDROOT
BRANCH   2   3
HETATM    3  C   UNL     1     -10.838   7.274  70.560  1.00  0.00    -0.262 C  
HETATM    4  C   UNL     1     -11.029   6.145  69.851  1.00  0.00    -0.458 C  
BRANCH   4   5
HETATM    5  C   UNL     1      -9.934   5.193  69.470  1.00  0.00    -0.301 C  
BRANCH   5   6
HETATM    6  C   UNL     1     -10.254   4.386  68.241  1.00  0.00     0.138 C  
HETATM    7  C   UNL     1      -9.346   3.824  67.431  1.00  0.00    -0.233 C  
BRANCH   7   8
HETATM    8  C   UNL     1      -7.877   3.834  67.723  1.00  0.00    -0.081 C  
BRANCH   8   9
HETATM    9  C   UNL     1      -7.050   3.849  66.473  1.00  0.00    -0.063 C  
HETATM   10  C   UNL     1      -6.760   4.938  65.737  1.00  0.00    -0.056 C  
BRANCH  10  11
HETATM   11  C   UNL     1      -7.216   6.347  66.001  1.00  0.00    -0.075 C  
BRANCH  11  12
HETATM   12  C   UNL     1      -8.579   6.726  65.467  1.00  0.00    -0.095 C  
HETATM   13  C   UNL     1      -9.500   7.559  65.987  1.00  0.00    -0.011 C  
BRANCH  13  14
HETATM   14  C   UNL     1      -9.401   8.257  67.308  1.00  0.00    -0.181 C  
BRANCH  14  15
HETATM   15  C   UNL     1      -8.402   9.375  67.331  1.00  0.00    -0.125 C  
HETATM   16  C   UNL     1      -8.729  10.651  67.069  1.00  0.00    -0.128 C  
BRANCH  16  17
HETATM   17  C   UNL     1     -10.117  11.047  66.659  1.00  0.00    -0.262 C  
BRANCH  17  18
HETATM   18  C   UNL     1     -10.533  12.415  67.172  1.00  0.00    -0.236 C  
BRANCH  18  19
HETATM   19  C   UNL     1     -11.935  12.751  66.671  1.00  0.00    -0.411 C  
HETATM   20  C   UNL     1     -11.898  13.769  65.556  1.00  0.00    -0.363 C  
HETATM   21  O   UNL     1     -10.885  14.279  65.106  1.00  0.00    -0.332 OA 
HETATM   22  O   UNL     1     -13.132  14.062  65.095  1.00  0.00    -0.776 OA 
ENDBRANCH  18  19
ENDBRANCH  17  18
ENDBRANCH  16  17
ENDBRANCH  14  15
ENDBRANCH  13  14
ENDBRANCH  11  12
ENDBRANCH  10  11
ENDBRANCH   8   9
ENDBRANCH   7   8
ENDBRANCH   5   6
ENDBRANCH   4   5
ENDBRANCH   2   3
TORSDOF 12
ENDMDL
MODEL      388
REMARK 921   NORMALIZED FREE ENERGY PREDICTED BY IDOCK:   -2.60 KCAL/MOL
REMARK 922        TOTAL FREE ENERGY PREDICTED BY IDOCK:   -6.94 KCAL/MOL
REMARK 923 INTER-LIGAND FREE ENERGY PREDICTED BY IDOCK:   -4.28 KCAL/MOL
REMARK 924 INTRA-LIGAND FREE ENERGY PREDICTED BY IDOCK:   -2.66 KCAL/MOL
REMARK 927      BINDING AFFINITY PREDICTED BY RF-SCORE:    0.00 PKD
ROOT
HETATM    1  C   UNL     1     -10.352  10.592  67.430  1.00  0.00    -0.262 C  
HETATM    2  C   UNL     1     -10.522   9.536  68.510  1.00  0.00    -0.247 C  
ENDROOT
BRANCH   2   3
HETATM    3  C   UNL     1     -11.426  10.004  69.618  1.00  0.00    -0.210 C  
HETATM    4  C   UNL     1     -11.319   9.656  70.914  1.00  0.00    -0.431 C  
BRANCH   4   5
HETATM    5  C   UNL     1     -10.246   8.762  71.462  1.00  0.00    -0.371 C  
BRANCH   5   6
HETATM    6  C   UNL     1     -10.506   8.327  72.878  1.00  0.00    -0.231 C  
HETATM    7  C   UNL     1      -9.962   7.252  73.465  1.00  0.00    -0.366 C  
BRANCH   7   8
HETATM    8  C   UNL     1      -8.919   6.403  72.805  1.00  0.00    -0.124 C  
BRANCH   8   9
HETATM    9  C   UNL     1      -8.429   5.306  73.701  1.00  0.00    -0.112 C  
HETATM   10  C   UNL     1      -8.979   4.083  73.819  1.00  0.00    -0.091 C  
BRANCH  10  11
HETATM   11  C   UNL     1     -10.198   3.575  73.098  1.00  0.00    -0.230 C  
BRANCH  11  12
HETATM   12  C   UNL     1      -9.981   2.434  72.129  1.00  0.00    -0.230 C  
HETATM   13  C   UNL     1      -9.445   2.452  70.894  1.00  0.00    -0.214 C  
BRANCH  13  14
HETATM   14  C   UNL     1      -9.006   3.673  70.149  1.00  0.00    -0.178 C  
BRANCH  14  15
HETATM   15  C   UNL     1     -10.134   4.567  69.727  1.00  0.00    -0.177 C  
HETATM   16  C   UNL     1      -9.942   5.792  69.212  1.00  0.00    -0.238 C  
BRANCH  16  17
HETATM   17  C   UNL     1      -8.573   6.393  69.083  1.00  0.00    -0.125 C  
BRANCH  17  18
HETATM   18  C   UNL     1      -8.033   6.371  67.664  1.00  0.00    -0.114 C  
BRANCH  18  19
HETATM   19  C   UNL     1      -7.144   5.146  67.468  1.00  0.00    -0.066 C  
HETATM   20  C   UNL     1      -7.857   4.058  66.701  1.00  0.00    -0.093 C  
HETATM   21  O   UNL     1      -9.004   4.126  66.290  1.00  0.00    -0.115 OA 
HETATM   22  O   UNL     1      -7.074   2.976  66.509  1.00  0.00    -0.052 OA 
ENDBRANCH  18  19
ENDBRANCH  17  18
ENDBRANCH  16  17
ENDBRANCH  14  15
ENDBRANCH  13  14
ENDBRANCH  11  12
ENDBRANCH  10  11
ENDBRANCH   8   9
ENDBRANCH   7   8
ENDBRANCH   5   6
ENDBRANCH   4   5
ENDBRANCH   2   3
TORSDOF 12
ENDMDL
MODEL      389
REMARK 921   NORMALIZED FREE ENERGY PREDICTED BY IDOCK:   -2.57 KCAL/MOL
REMARK 922        TOTAL FREE ENERGY PREDICTED BY IDOCK:   -6.88 KCAL/MOL
REMARK 923 INTER-LIGAND FREE ENERGY PREDICTED BY IDOCK:   -4.66 KCAL/MOL
REMARK 924 INTRA-LIGAND FREE ENERGY PREDICTED BY IDOCK:   -2.21 KCAL/MOL
REMARK 927      BINDING AFFINITY PREDICTED BY RF-SCORE:    0.00 PKD
ROOT
HETATM    1  C   UNL     1      -8.691   8.350  70.466  1.00  0.00    -0.152 C  
HETATM    2  C   UNL     1     -10.010   8.643  69.768  1.00  0.00    -0.190 C  
ENDROOT
BRANCH   2   3
HETATM    3  C   UNL     1     -11.128   7.788  70.297  1.00  0.00    -0.242 C  
HETATM    4  C   UNL     1     -11.437   6.550  69.866  1.00  0.00    -0.467 C  
BRANCH   4   5
HETATM    5  C   UNL     1     -10.678   5.814  68.801  1.00  0.00    -0.318 C  
BRANCH   5   6
HETATM    6  C   UNL     1     -11.138   6.151  67.409  1.00  0.00    -0.326 C  
HETATM    7  C   UNL     1     -10.396   6.773  66.482  1.00  0.00    -0.116 C  
BRANCH   7   8
HETATM    8  C   UNL     1      -8.951   7.110  66.687  1.00  0.00    -0.164 C  
BRANCH   8   9
HETATM    9  C   UNL     1      -8.048   5.959  66.362  1.00  0.00    -0.103 C  
HETATM   10  C   UNL     1      -7.565   5.660  65.142  1.00  0.00    -0.078 C  
BRANCH  10  11
HETATM   11  C   UNL     1      -7.843   6.399  63.861  1.00  0.00    -0.109 C  
BRANCH  11  12
HETATM   12  C   UNL     1      -6.948   7.579  63.556  1.00  0.00    -0.060 C  
HETATM   13  C   UNL     1      -7.273   8.802  63.096  1.00  0.00    -0.094 C  
BRANCH  13  14
HETATM   14  C   UNL     1      -8.643   9.249  62.692  1.00  0.00    -0.224 C  
BRANCH  14  15
HETATM   15  C   UNL     1      -8.934  10.684  63.013  1.00  0.00    -0.254 C  
HETATM   16  C   UNL     1      -9.456  11.078  64.187  1.00  0.00    -0.274 C  
BRANCH  16  17
HETATM   17  C   UNL     1      -9.857  10.095  65.247  1.00  0.00    -0.388 C  
BRANCH  17  18
HETATM   18  C   UNL     1     -10.710  10.704  66.346  1.00  0.00    -0.198 C  
BRANCH  18  19
HETATM   19  C   UNL     1     -10.312  12.161  66.562  1.00  0.00    -0.239 C  
HETATM   20  C   UNL     1     -10.473  12.573  68.007  1.00  0.00    -0.219 C  
HETATM   21  O   UNL     1     -10.880  11.849  68.901  1.00  0.00    -0.221 OA 
HETATM   22  O   UNL     1     -10.108  13.856  68.212  1.00  0.00    -0.228 OA 
ENDBRANCH  18  19
ENDBRANCH  17  18
ENDBRANCH  16  17
ENDBRANCH  14  15
ENDBRANCH  13  14
ENDBRANCH  11  12
ENDBRANCH  10  11
ENDBRANCH   8   9
ENDBRANCH   7   8
ENDBRANCH   5   6
ENDBRANCH   4   5
ENDBRANCH   2   3
TORSDOF 12
ENDMDL
MODEL      390
REMARK 921   NORMALIZED FREE ENERGY PREDICTED BY IDOCK:   -2.56 KCAL/MOL
REMARK 922        TOTAL FREE ENERGY PREDICTED BY IDOCK:   -6.86 KCAL/MOL
REMARK 923 INTER-LIGAND FREE ENERGY PREDICTED BY IDOCK:   -5.57 KCAL/MOL
REMARK 924 INTRA-LIGAND FREE ENERGY PREDICTED BY IDOCK:   -1.28 KCAL/MOL
REMARK 927      BINDING AFFINITY PREDICTED BY RF-SCORE:    0.00 PKD
ROOT
HETATM    1  C   UNL     1     -11.918  14.132  64.361  1.00  0.00    -0.478 C  
HETATM    2  C   UNL     1     -12.586  13.476  65.559  1.00  0.00    -0.531 C  
ENDROOT
BRANCH   2   3
HETATM    3  C   UNL     1     -11.841  13.746  66.836  1.00  0.00    -0.447 C  
HETATM    4  C   UNL     1     -11.329  12.809  67.656  1.00  0.00    -0.359 C  
BRANCH   4   5
HETATM    5  C   UNL     1     -11.396  11.333  67.396  1.00  0.00    -0.349 C  
BRANCH   5   6
HETATM    6  C   UNL     1     -10.425  10.874  66.343  1.00  0.00    -0.307 C  
HETATM    7  C   UNL     1      -9.141  10.556  66.565  1.00  0.00    -0.175 C  
BRANCH   7   8
HETATM    8  C   UNL     1      -8.539  10.507  67.936  1.00  0.00    -0.123 C  
BRANCH   8   9
HETATM    9  C   UNL     1      -7.426   9.509  68.032  1.00  0.00    -0.083 C  
HETATM   10  C   UNL     1      -7.538   8.248  68.491  1.00  0.00    -0.100 C  
BRANCH  10  11
HETATM   11  C   UNL     1      -8.787   7.593  69.016  1.00  0.00    -0.135 C  
BRANCH  11  12
HETATM   12  C   UNL     1      -9.693   8.453  69.868  1.00  0.00    -0.179 C  
HETATM   13  C   UNL     1      -9.548   8.839  71.150  1.00  0.00    -0.309 C  
BRANCH  13  14
HETATM   14  C   UNL     1      -8.450   8.410  72.073  1.00  0.00    -0.245 C  
BRANCH  14  15
HETATM   15  C   UNL     1      -8.901   8.172  73.483  1.00  0.00    -0.310 C  
HETATM   16  C   UNL     1      -9.171   6.948  73.967  1.00  0.00    -0.243 C  
BRANCH  16  17
HETATM   17  C   UNL     1      -9.110   5.723  73.104  1.00  0.00    -0.127 C  
BRANCH  17  18
HETATM   18  C   UNL     1     -10.476   5.162  72.750  1.00  0.00    -0.261 C  
BRANCH  18  19
HETATM   19  C   UNL     1     -10.888   4.115  73.780  1.00  0.00    -0.341 C  
HETATM   20  C   UNL     1     -10.730   2.713  73.242  1.00  0.00    -0.175 C  
HETATM   21  O   UNL     1     -10.334   2.432  72.122  1.00  0.00    -0.145 OA 
HETATM   22  O   UNL     1     -11.077   1.778  74.151  1.00  0.00    -0.151 OA 
ENDBRANCH  18  19
ENDBRANCH  17  18
ENDBRANCH  16  17
ENDBRANCH  14  15
ENDBRANCH  13  14
ENDBRANCH  11  12
ENDBRANCH  10  11
ENDBRANCH   8   9
ENDBRANCH   7   8
ENDBRANCH   5   6
ENDBRANCH   4   5
ENDBRANCH   2   3
TORSDOF 12
ENDMDL
MODEL      391
REMARK 921   NORMALIZED FREE ENERGY PREDICTED BY IDOCK:   -2.55 KCAL/MOL
REMARK 922        TOTAL FREE ENERGY PREDICTED BY IDOCK:   -6.85 KCAL/MOL
REMARK 923 INTER-LIGAND FREE ENERGY PREDICTED BY IDOCK:   -4.95 KCAL/MOL
REMARK 924 INTRA-LIGAND FREE ENERGY PREDICTED BY IDOCK:   -1.90 KCAL/MOL
REMARK 927      BINDING AFFINITY PREDICTED BY RF-SCORE:    0.00 PKD
ROOT
HETATM    1  C   UNL     1     -14.306   8.703  72.147  1.00  0.00    -0.518 C  
HETATM    2  C   UNL     1     -13.321   7.673  71.619  1.00  0.00    -0.400 C  
ENDROOT
BRANCH   2   3
HETATM    3  C   UNL     1     -11.953   8.261  71.405  1.00  0.00    -0.333 C  
HETATM    4  C   UNL     1     -10.864   8.000  72.152  1.00  0.00    -0.342 C  
BRANCH   4   5
HETATM    5  C   UNL     1     -10.843   7.042  73.306  1.00  0.00    -0.345 C  
BRANCH   5   6
HETATM    6  C   UNL     1     -11.317   5.663  72.938  1.00  0.00    -0.325 C  
HETATM    7  C   UNL     1     -10.522   4.602  72.740  1.00  0.00    -0.261 C  
BRANCH   7   8
HETATM    8  C   UNL     1      -9.043   4.635  72.981  1.00  0.00    -0.128 C  
BRANCH   8   9
HETATM    9  C   UNL     1      -8.274   3.965  71.884  1.00  0.00    -0.083 C  
HETATM   10  C   UNL     1      -8.181   4.397  70.612  1.00  0.00    -0.074 C  
BRANCH  10  11
HETATM   11  C   UNL     1      -8.839   5.618  70.030  1.00  0.00    -0.136 C  
BRANCH  11  12
HETATM   12  C   UNL     1     -10.129   5.393  69.274  1.00  0.00    -0.301 C  
HETATM   13  C   UNL     1     -10.833   6.249  68.509  1.00  0.00    -0.394 C  
BRANCH  13  14
HETATM   14  C   UNL     1     -10.519   7.698  68.304  1.00  0.00    -0.219 C  
BRANCH  14  15
HETATM   15  C   UNL     1     -10.422   8.101  66.862  1.00  0.00    -0.379 C  
HETATM   16  C   UNL     1      -9.252   8.220  66.215  1.00  0.00    -0.258 C  
BRANCH  16  17
HETATM   17  C   UNL     1      -7.936   8.026  66.910  1.00  0.00    -0.104 C  
BRANCH  17  18
HETATM   18  C   UNL     1      -6.762   7.887  65.957  1.00  0.00    -0.053 C  
BRANCH  18  19
HETATM   19  C   UNL     1      -7.003   8.735  64.712  1.00  0.00    -0.073 C  
HETATM   20  C   UNL     1      -6.068   9.921  64.658  1.00  0.00    -0.107 C  
HETATM   21  O   UNL     1      -5.228  10.190  65.501  1.00  0.00    -0.049 OA 
HETATM   22  O   UNL     1      -6.263  10.670  63.553  1.00  0.00    -0.072 OA 
ENDBRANCH  18  19
ENDBRANCH  17  18
ENDBRANCH  16  17
ENDBRANCH  14  15
ENDBRANCH  13  14
ENDBRANCH  11  12
ENDBRANCH  10  11
ENDBRANCH   8   9
ENDBRANCH   7   8
ENDBRANCH   5   6
ENDBRANCH   4   5
ENDBRANCH   2   3
TORSDOF 12
ENDMDL
MODEL      392
REMARK 921   NORMALIZED FREE ENERGY PREDICTED BY IDOCK:   -2.54 KCAL/MOL
REMARK 922        TOTAL FREE ENERGY PREDICTED BY IDOCK:   -6.82 KCAL/MOL
REMARK 923 INTER-LIGAND FREE ENERGY PREDICTED BY IDOCK:   -5.81 KCAL/MOL
REMARK 924 INTRA-LIGAND FREE ENERGY PREDICTED BY IDOCK:   -1.01 KCAL/MOL
REMARK 927      BINDING AFFINITY PREDICTED BY RF-SCORE:    0.00 PKD
ROOT
HETATM    1  C   UNL     1      -8.494   8.020  71.426  1.00  0.00    -0.142 C  
HETATM    2  C   UNL     1      -9.831   8.631  71.813  1.00  0.00    -0.365 C  
ENDROOT
BRANCH   2   3
HETATM    3  C   UNL     1     -10.947   7.625  71.752  1.00  0.00    -0.276 C  
HETATM    4  C   UNL     1     -11.167   6.761  70.743  1.00  0.00    -0.352 C  
BRANCH   4   5
HETATM    5  C   UNL     1     -10.297   6.646  69.526  1.00  0.00    -0.232 C  
BRANCH   5   6
HETATM    6  C   UNL     1     -11.000   7.045  68.258  1.00  0.00    -0.148 C  
HETATM    7  C   UNL     1     -10.544   7.942  67.373  1.00  0.00    -0.342 C  
BRANCH   7   8
HETATM    8  C   UNL     1      -9.195   8.584  67.485  1.00  0.00    -0.151 C  
BRANCH   8   9
HETATM    9  C   UNL     1      -8.581   8.854  66.145  1.00  0.00    -0.155 C  
HETATM   10  C   UNL     1      -8.661  10.011  65.463  1.00  0.00    -0.171 C  
BRANCH  10  11
HETATM   11  C   UNL     1      -9.391  11.256  65.891  1.00  0.00    -0.240 C  
BRANCH  11  12
HETATM   12  C   UNL     1      -8.794  12.022  67.050  1.00  0.00    -0.197 C  
HETATM   13  C   UNL     1      -9.410  12.739  68.009  1.00  0.00    -0.213 C  
BRANCH  13  14
HETATM   14  C   UNL     1     -10.879  13.014  68.087  1.00  0.00    -0.267 C  
BRANCH  14  15
HETATM   15  C   UNL     1     -11.365  13.334  69.470  1.00  0.00    -0.236 C  
HETATM   16  C   UNL     1     -11.846  14.540  69.813  1.00  0.00    -0.367 C  
BRANCH  16  17
HETATM   17  C   UNL     1     -11.869  15.689  68.849  1.00  0.00    -0.368 C  
BRANCH  17  18
HETATM   18  C   UNL     1     -10.656  16.597  68.960  1.00  0.00    -0.340 C  
BRANCH  18  19
HETATM   19  C   UNL     1     -10.408  17.293  67.625  1.00  0.00    -0.350 C  
HETATM   20  C   UNL     1      -9.076  16.900  67.032  1.00  0.00    -0.226 C  
HETATM   21  O   UNL     1      -8.279  16.132  67.546  1.00  0.00    -0.143 OA 
HETATM   22  O   UNL     1      -8.853  17.499  65.843  1.00  0.00    -0.525 OA 
ENDBRANCH  18  19
ENDBRANCH  17  18
ENDBRANCH  16  17
ENDBRANCH  14  15
ENDBRANCH  13  14
ENDBRANCH  11  12
ENDBRANCH  10  11
ENDBRANCH   8   9
ENDBRANCH   7   8
ENDBRANCH   5   6
ENDBRANCH   4   5
ENDBRANCH   2   3
TORSDOF 12
ENDMDL
MODEL      393
REMARK 921   NORMALIZED FREE ENERGY PREDICTED BY IDOCK:   -2.53 KCAL/MOL
REMARK 922        TOTAL FREE ENERGY PREDICTED BY IDOCK:   -6.82 KCAL/MOL
REMARK 923 INTER-LIGAND FREE ENERGY PREDICTED BY IDOCK:   -4.31 KCAL/MOL
REMARK 924 INTRA-LIGAND FREE ENERGY PREDICTED BY IDOCK:   -2.51 KCAL/MOL
REMARK 927      BINDING AFFINITY PREDICTED BY RF-SCORE:    0.00 PKD
ROOT
HETATM    1  C   UNL     1     -10.988   5.748  69.801  1.00  0.00    -0.397 C  
HETATM    2  C   UNL     1     -11.279   6.575  68.559  1.00  0.00    -0.287 C  
ENDROOT
BRANCH   2   3
HETATM    3  C   UNL     1     -10.099   6.625  67.627  1.00  0.00    -0.192 C  
HETATM    4  C   UNL     1      -9.700   7.704  66.928  1.00  0.00    -0.277 C  
BRANCH   4   5
HETATM    5  C   UNL     1     -10.361   9.049  67.002  1.00  0.00    -0.339 C  
BRANCH   5   6
HETATM    6  C   UNL     1      -9.595  10.039  67.837  1.00  0.00    -0.163 C  
HETATM    7  C   UNL     1      -9.931  10.425  69.076  1.00  0.00    -0.224 C  
BRANCH   7   8
HETATM    8  C   UNL     1     -11.068   9.817  69.839  1.00  0.00    -0.293 C  
BRANCH   8   9
HETATM    9  C   UNL     1     -10.691   9.485  71.251  1.00  0.00    -0.386 C  
HETATM   10  C   UNL     1      -9.631   8.748  71.629  1.00  0.00    -0.363 C  
BRANCH  10  11
HETATM   11  C   UNL     1      -8.624   8.094  70.721  1.00  0.00    -0.138 C  
BRANCH  11  12
HETATM   12  C   UNL     1      -7.464   7.396  71.393  1.00  0.00    -0.080 C  
HETATM   13  C   UNL     1      -7.423   6.192  71.996  1.00  0.00    -0.095 C  
BRANCH  13  14
HETATM   14  C   UNL     1      -8.592   5.282  72.211  1.00  0.00    -0.126 C  
BRANCH  14  15
HETATM   15  C   UNL     1      -8.225   3.946  72.785  1.00  0.00    -0.094 C  
HETATM   16  C   UNL     1      -8.338   2.799  72.095  1.00  0.00    -0.061 C  
BRANCH  16  17
HETATM   17  C   UNL     1      -8.912   2.759  70.709  1.00  0.00    -0.162 C  
BRANCH  17  18
HETATM   18  C   UNL     1      -7.856   2.751  69.617  1.00  0.00    -0.049 C  
BRANCH  18  19
HETATM   19  C   UNL     1      -8.336   3.577  68.427  1.00  0.00    -0.097 C  
HETATM   20  C   UNL     1      -9.047   2.720  67.406  1.00  0.00    -0.177 C  
HETATM   21  O   UNL     1      -9.216   1.515  67.498  1.00  0.00    -0.131 OA 
HETATM   22  O   UNL     1      -9.490   3.444  66.357  1.00  0.00    -0.177 OA 
ENDBRANCH  18  19
ENDBRANCH  17  18
ENDBRANCH  16  17
ENDBRANCH  14  15
ENDBRANCH  13  14
ENDBRANCH  11  12
ENDBRANCH  10  11
ENDBRANCH   8   9
ENDBRANCH   7   8
ENDBRANCH   5   6
ENDBRANCH   4   5
ENDBRANCH   2   3
TORSDOF 12
ENDMDL
MODEL      394
REMARK 921   NORMALIZED FREE ENERGY PREDICTED BY IDOCK:   -2.53 KCAL/MOL
REMARK 922        TOTAL FREE ENERGY PREDICTED BY IDOCK:   -6.81 KCAL/MOL
REMARK 923 INTER-LIGAND FREE ENERGY PREDICTED BY IDOCK:   -4.85 KCAL/MOL
REMARK 924 INTRA-LIGAND FREE ENERGY PREDICTED BY IDOCK:   -1.96 KCAL/MOL
REMARK 927      BINDING AFFINITY PREDICTED BY RF-SCORE:    0.00 PKD
ROOT
HETATM    1  C   UNL     1     -11.697  12.995  63.397  1.00  0.00    -0.477 C  
HETATM    2  C   UNL     1     -12.465  12.192  64.435  1.00  0.00    -0.418 C  
ENDROOT
BRANCH   2   3
HETATM    3  C   UNL     1     -12.035  12.527  65.836  1.00  0.00    -0.472 C  
HETATM    4  C   UNL     1     -11.099  11.868  66.545  1.00  0.00    -0.357 C  
BRANCH   4   5
HETATM    5  C   UNL     1     -10.308  10.705  66.022  1.00  0.00    -0.290 C  
BRANCH   5   6
HETATM    6  C   UNL     1      -9.028  11.117  65.348  1.00  0.00    -0.154 C  
HETATM    7  C   UNL     1      -7.797  10.888  65.828  1.00  0.00    -0.057 C  
BRANCH   7   8
HETATM    8  C   UNL     1      -7.540  10.075  67.060  1.00  0.00    -0.092 C  
BRANCH   8   9
HETATM    9  C   UNL     1      -8.125  10.706  68.287  1.00  0.00    -0.118 C  
HETATM   10  C   UNL     1      -7.438  11.377  69.230  1.00  0.00    -0.005 C  
BRANCH  10  11
HETATM   11  C   UNL     1      -5.952  11.617  69.256  1.00  0.00    -0.071 C  
BRANCH  11  12
HETATM   12  C   UNL     1      -5.387  12.200  70.531  1.00  0.00    -0.144 C  
HETATM   13  C   UNL     1      -5.485  13.453  71.015  1.00  0.00    -0.198 C  
BRANCH  13  14
HETATM   14  C   UNL     1      -6.135  14.610  70.322  1.00  0.00    -0.167 C  
BRANCH  14  15
HETATM   15  C   UNL     1      -5.292  15.225  69.246  1.00  0.00    -0.095 C  
HETATM   16  C   UNL     1      -5.670  15.269  67.958  1.00  0.00    -0.148 C  
BRANCH  16  17
HETATM   17  C   UNL     1      -6.946  14.637  67.483  1.00  0.00    -0.193 C  
BRANCH  17  18
HETATM   18  C   UNL     1      -7.944  15.636  66.923  1.00  0.00    -0.278 C  
BRANCH  18  19
HETATM   19  C   UNL     1      -9.355  15.258  67.362  1.00  0.00    -0.202 C  
HETATM   20  C   UNL     1     -10.401  15.861  66.453  1.00  0.00    -0.306 C  
HETATM   21  O   UNL     1     -10.166  16.573  65.491  1.00  0.00    -0.525 OA 
HETATM   22  O   UNL     1     -11.652  15.520  66.824  1.00  0.00    -0.080 OA 
ENDBRANCH  18  19
ENDBRANCH  17  18
ENDBRANCH  16  17
ENDBRANCH  14  15
ENDBRANCH  13  14
ENDBRANCH  11  12
ENDBRANCH  10  11
ENDBRANCH   8   9
ENDBRANCH   7   8
ENDBRANCH   5   6
ENDBRANCH   4   5
ENDBRANCH   2   3
TORSDOF 12
ENDMDL
MODEL      395
REMARK 921   NORMALIZED FREE ENERGY PREDICTED BY IDOCK:   -2.50 KCAL/MOL
REMARK 922        TOTAL FREE ENERGY PREDICTED BY IDOCK:   -6.75 KCAL/MOL
REMARK 923 INTER-LIGAND FREE ENERGY PREDICTED BY IDOCK:   -5.32 KCAL/MOL
REMARK 924 INTRA-LIGAND FREE ENERGY PREDICTED BY IDOCK:   -1.43 KCAL/MOL
REMARK 927      BINDING AFFINITY PREDICTED BY RF-SCORE:    0.00 PKD
ROOT
HETATM    1  C   UNL     1      -7.138  20.493  67.082  1.00  0.00    -0.359 C  
HETATM    2  C   UNL     1      -8.578  20.585  67.559  1.00  0.00    -0.320 C  
ENDROOT
BRANCH   2   3
HETATM    3  C   UNL     1      -9.535  20.802  66.419  1.00  0.00     0.081 C  
HETATM    4  C   UNL     1     -10.461  19.920  65.998  1.00  0.00    -0.580 C  
BRANCH   4   5
HETATM    5  C   UNL     1     -10.704  18.583  66.633  1.00  0.00    -0.278 C  
BRANCH   5   6
HETATM    6  C   UNL     1      -9.601  17.595  66.370  1.00  0.00    -0.285 C  
HETATM    7  C   UNL     1      -9.372  16.487  67.089  1.00  0.00    -0.242 C  
BRANCH   7   8
HETATM    8  C   UNL     1     -10.276  16.030  68.192  1.00  0.00    -0.243 C  
BRANCH   8   9
HETATM    9  C   UNL     1     -10.436  14.540  68.215  1.00  0.00    -0.242 C  
HETATM   10  C   UNL     1     -11.456  13.851  67.670  1.00  0.00    -0.354 C  
BRANCH  10  11
HETATM   11  C   UNL     1     -12.644  14.428  66.950  1.00  0.00     0.223 C  
BRANCH  11  12
HETATM   12  C   UNL     1     -12.512  14.589  65.453  1.00  0.00    -0.265 C  
HETATM   13  C   UNL     1     -11.557  14.125  64.624  1.00  0.00    -0.414 C  
BRANCH  13  14
HETATM   14  C   UNL     1     -10.323  13.386  65.038  1.00  0.00    -0.361 C  
BRANCH  14  15
HETATM   15  C   UNL     1     -10.193  12.025  64.420  1.00  0.00    -0.332 C  
HETATM   16  C   UNL     1      -9.799  10.944  65.112  1.00  0.00    -0.329 C  
BRANCH  16  17
HETATM   17  C   UNL     1      -9.387  11.030  66.553  1.00  0.00    -0.200 C  
BRANCH  17  18
HETATM   18  C   UNL     1     -10.170  10.099  67.463  1.00  0.00    -0.257 C  
BRANCH  18  19
HETATM   19  C   UNL     1      -9.206   9.223  68.258  1.00  0.00    -0.134 C  
HETATM   20  C   UNL     1      -8.967   7.897  67.575  1.00  0.00    -0.127 C  
HETATM   21  O   UNL     1      -9.480   7.548  66.524  1.00  0.00    -0.181 OA 
HETATM   22  O   UNL     1      -8.104   7.121  68.263  1.00  0.00    -0.121 OA 
ENDBRANCH  18  19
ENDBRANCH  17  18
ENDBRANCH  16  17
ENDBRANCH  14  15
ENDBRANCH  13  14
ENDBRANCH  11  12
ENDBRANCH  10  11
ENDBRANCH   8   9
ENDBRANCH   7   8
ENDBRANCH   5   6
ENDBRANCH   4   5
ENDBRANCH   2   3
TORSDOF 12
ENDMDL
MODEL      396
REMARK 921   NORMALIZED FREE ENERGY PREDICTED BY IDOCK:   -2.49 KCAL/MOL
REMARK 922        TOTAL FREE ENERGY PREDICTED BY IDOCK:   -6.75 KCAL/MOL
REMARK 923 INTER-LIGAND FREE ENERGY PREDICTED BY IDOCK:   -5.45 KCAL/MOL
REMARK 924 INTRA-LIGAND FREE ENERGY PREDICTED BY IDOCK:   -1.30 KCAL/MOL
REMARK 927      BINDING AFFINITY PREDICTED BY RF-SCORE:    0.00 PKD
ROOT
HETATM    1  C   UNL     1      -7.890   7.221  71.083  1.00  0.00    -0.093 C  
HETATM    2  C   UNL     1      -7.999   5.839  70.460  1.00  0.00    -0.105 C  
ENDROOT
BRANCH   2   3
HETATM    3  C   UNL     1      -6.950   4.899  70.987  1.00  0.00    -0.047 C  
HETATM    4  C   UNL     1      -7.103   4.063  72.032  1.00  0.00    -0.050 C  
BRANCH   4   5
HETATM    5  C   UNL     1      -8.374   3.916  72.815  1.00  0.00    -0.095 C  
BRANCH   5   6
HETATM    6  C   UNL     1      -8.536   4.966  73.880  1.00  0.00    -0.104 C  
HETATM    7  C   UNL     1      -9.699   5.529  74.236  1.00  0.00    -0.182 C  
BRANCH   7   8
HETATM    8  C   UNL     1     -11.020   5.087  73.685  1.00  0.00    -0.379 C  
BRANCH   8   9
HETATM    9  C   UNL     1     -11.142   5.359  72.217  1.00  0.00    -0.259 C  
HETATM   10  C   UNL     1     -11.438   6.548  71.660  1.00  0.00    -0.345 C  
BRANCH  10  11
HETATM   11  C   UNL     1     -11.723   7.834  72.388  1.00  0.00    -0.394 C  
BRANCH  11  12
HETATM   12  C   UNL     1     -13.120   8.392  72.248  1.00  0.00    -0.316 C  
HETATM   13  C   UNL     1     -13.516   9.617  71.851  1.00  0.00    -0.496 C  
BRANCH  13  14
HETATM   14  C   UNL     1     -12.613  10.766  71.528  1.00  0.00    -0.500 C  
BRANCH  14  15
HETATM   15  C   UNL     1     -11.357  10.369  70.811  1.00  0.00    -0.370 C  
HETATM   16  C   UNL     1     -11.118  10.683  69.528  1.00  0.00    -0.328 C  
BRANCH  16  17
HETATM   17  C   UNL     1     -12.131  11.402  68.685  1.00  0.00    -0.214 C  
BRANCH  17  18
HETATM   18  C   UNL     1     -11.517  12.411  67.730  1.00  0.00    -0.383 C  
BRANCH  18  19
HETATM   19  C   UNL     1      -9.997  12.280  67.746  1.00  0.00    -0.200 C  
HETATM   20  C   UNL     1      -9.466  11.800  66.416  1.00  0.00    -0.221 C  
HETATM   21  O   UNL     1     -10.152  11.533  65.443  1.00  0.00    -0.237 OA 
HETATM   22  O   UNL     1      -8.121  11.696  66.415  1.00  0.00    -0.130 OA 
ENDBRANCH  18  19
ENDBRANCH  17  18
ENDBRANCH  16  17
ENDBRANCH  14  15
ENDBRANCH  13  14
ENDBRANCH  11  12
ENDBRANCH  10  11
ENDBRANCH   8   9
ENDBRANCH   7   8
ENDBRANCH   5   6
ENDBRANCH   4   5
ENDBRANCH   2   3
TORSDOF 12
ENDMDL
MODEL      397
REMARK 921   NORMALIZED FREE ENERGY PREDICTED BY IDOCK:   -2.49 KCAL/MOL
REMARK 922        TOTAL FREE ENERGY PREDICTED BY IDOCK:   -6.74 KCAL/MOL
REMARK 923 INTER-LIGAND FREE ENERGY PREDICTED BY IDOCK:   -5.38 KCAL/MOL
REMARK 924 INTRA-LIGAND FREE ENERGY PREDICTED BY IDOCK:   -1.36 KCAL/MOL
REMARK 927      BINDING AFFINITY PREDICTED BY RF-SCORE:    0.00 PKD
ROOT
HETATM    1  C   UNL     1      -9.008   4.566  63.052  1.00  0.00    -0.129 C  
HETATM    2  C   UNL     1      -8.370   4.033  64.325  1.00  0.00    -0.096 C  
ENDROOT
BRANCH   2   3
HETATM    3  C   UNL     1      -7.736   5.129  65.137  1.00  0.00    -0.084 C  
HETATM    4  C   UNL     1      -8.116   5.505  66.372  1.00  0.00    -0.105 C  
BRANCH   4   5
HETATM    5  C   UNL     1      -9.224   4.856  67.149  1.00  0.00    -0.130 C  
BRANCH   5   6
HETATM    6  C   UNL     1     -10.558   5.519  66.943  1.00  0.00    -0.348 C  
HETATM    7  C   UNL     1     -10.976   6.622  67.579  1.00  0.00    -0.416 C  
BRANCH   7   8
HETATM    8  C   UNL     1     -10.102   7.409  68.507  1.00  0.00    -0.187 C  
BRANCH   8   9
HETATM    9  C   UNL     1      -9.491   8.602  67.836  1.00  0.00    -0.157 C  
HETATM   10  C   UNL     1      -9.089   9.730  68.451  1.00  0.00    -0.123 C  
BRANCH  10  11
HETATM   11  C   UNL     1      -9.184  10.031  69.922  1.00  0.00    -0.195 C  
BRANCH  11  12
HETATM   12  C   UNL     1     -10.454   9.598  70.618  1.00  0.00    -0.379 C  
HETATM   13  C   UNL     1     -11.729   9.948  70.366  1.00  0.00    -0.333 C  
BRANCH  13  14
HETATM   14  C   UNL     1     -12.176  10.952  69.350  1.00  0.00    -0.293 C  
BRANCH  14  15
HETATM   15  C   UNL     1     -11.412  12.242  69.395  1.00  0.00    -0.341 C  
HETATM   16  C   UNL     1     -11.004  12.887  68.290  1.00  0.00    -0.282 C  
BRANCH  16  17
HETATM   17  C   UNL     1     -11.221  12.324  66.916  1.00  0.00    -0.367 C  
BRANCH  17  18
HETATM   18  C   UNL     1      -9.998  12.423  66.021  1.00  0.00    -0.270 C  
BRANCH  18  19
HETATM   19  C   UNL     1      -9.839  11.134  65.219  1.00  0.00    -0.296 C  
HETATM   20  C   UNL     1     -10.175  11.341  63.761  1.00  0.00    -0.377 C  
HETATM   21  O   UNL     1     -10.542  12.396  63.269  1.00  0.00    -0.410 OA 
HETATM   22  O   UNL     1     -10.023  10.211  63.040  1.00  0.00    -0.064 OA 
ENDBRANCH  18  19
ENDBRANCH  17  18
ENDBRANCH  16  17
ENDBRANCH  14  15
ENDBRANCH  13  14
ENDBRANCH  11  12
ENDBRANCH  10  11
ENDBRANCH   8   9
ENDBRANCH   7   8
ENDBRANCH   5   6
ENDBRANCH   4   5
ENDBRANCH   2   3
TORSDOF 12
ENDMDL
MODEL      398
REMARK 921   NORMALIZED FREE ENERGY PREDICTED BY IDOCK:   -2.48 KCAL/MOL
REMARK 922        TOTAL FREE ENERGY PREDICTED BY IDOCK:   -6.72 KCAL/MOL
REMARK 923 INTER-LIGAND FREE ENERGY PREDICTED BY IDOCK:   -4.86 KCAL/MOL
REMARK 924 INTRA-LIGAND FREE ENERGY PREDICTED BY IDOCK:   -1.86 KCAL/MOL
REMARK 927      BINDING AFFINITY PREDICTED BY RF-SCORE:    0.00 PKD
ROOT
HETATM    1  C   UNL     1     -11.364   3.872  73.333  1.00  0.00    -0.248 C  
HETATM    2  C   UNL     1     -10.808   5.097  72.625  1.00  0.00    -0.303 C  
ENDROOT
BRANCH   2   3
HETATM    3  C   UNL     1     -11.889   6.080  72.270  1.00  0.00    -0.305 C  
HETATM    4  C   UNL     1     -11.780   7.421  72.339  1.00  0.00    -0.306 C  
BRANCH   4   5
HETATM    5  C   UNL     1     -10.533   8.145  72.753  1.00  0.00    -0.385 C  
BRANCH   5   6
HETATM    6  C   UNL     1      -9.913   8.940  71.637  1.00  0.00    -0.397 C  
HETATM    7  C   UNL     1      -8.752   8.647  71.035  1.00  0.00    -0.227 C  
BRANCH   7   8
HETATM    8  C   UNL     1      -7.974   7.401  71.329  1.00  0.00    -0.096 C  
BRANCH   8   9
HETATM    9  C   UNL     1      -8.206   6.332  70.304  1.00  0.00    -0.125 C  
HETATM   10  C   UNL     1      -7.680   6.304  69.065  1.00  0.00    -0.100 C  
BRANCH  10  11
HETATM   11  C   UNL     1      -6.775   7.339  68.452  1.00  0.00    -0.054 C  
BRANCH  11  12
HETATM   12  C   UNL     1      -7.206   7.905  67.118  1.00  0.00    -0.090 C  
HETATM   13  C   UNL     1      -8.127   8.850  66.848  1.00  0.00    -0.109 C  
BRANCH  13  14
HETATM   14  C   UNL     1      -9.021   9.511  67.850  1.00  0.00    -0.125 C  
BRANCH  14  15
HETATM   15  C   UNL     1      -8.492  10.814  68.371  1.00  0.00    -0.137 C  
HETATM   16  C   UNL     1      -9.235  11.932  68.432  1.00  0.00    -0.173 C  
BRANCH  16  17
HETATM   17  C   UNL     1     -10.643  11.978  67.913  1.00  0.00    -0.227 C  
BRANCH  17  18
HETATM   18  C   UNL     1     -11.282  13.352  68.021  1.00  0.00    -0.298 C  
BRANCH  18  19
HETATM   19  C   UNL     1     -10.964  14.170  66.773  1.00  0.00    -0.300 C  
HETATM   20  C   UNL     1     -10.480  15.557  67.125  1.00  0.00    -0.286 C  
HETATM   21  O   UNL     1     -10.363  15.991  68.259  1.00  0.00    -0.247 OA 
HETATM   22  O   UNL     1     -10.182  16.283  66.028  1.00  0.00    -0.321 OA 
ENDBRANCH  18  19
ENDBRANCH  17  18
ENDBRANCH  16  17
ENDBRANCH  14  15
ENDBRANCH  13  14
ENDBRANCH  11  12
ENDBRANCH  10  11
ENDBRANCH   8   9
ENDBRANCH   7   8
ENDBRANCH   5   6
ENDBRANCH   4   5
ENDBRANCH   2   3
TORSDOF 12
ENDMDL
MODEL      399
REMARK 921   NORMALIZED FREE ENERGY PREDICTED BY IDOCK:   -2.45 KCAL/MOL
REMARK 922        TOTAL FREE ENERGY PREDICTED BY IDOCK:   -6.67 KCAL/MOL
REMARK 923 INTER-LIGAND FREE ENERGY PREDICTED BY IDOCK:   -4.35 KCAL/MOL
REMARK 924 INTRA-LIGAND FREE ENERGY PREDICTED BY IDOCK:   -2.32 KCAL/MOL
REMARK 927      BINDING AFFINITY PREDICTED BY RF-SCORE:    0.00 PKD
ROOT
HETATM    1  C   UNL     1      -7.161   9.493  64.434  1.00  0.00    -0.111 C  
HETATM    2  C   UNL     1      -7.001   8.264  65.314  1.00  0.00    -0.066 C  
ENDROOT
BRANCH   2   3
HETATM    3  C   UNL     1      -8.232   7.399  65.300  1.00  0.00    -0.128 C  
HETATM    4  C   UNL     1      -9.348   7.616  66.021  1.00  0.00    -0.076 C  
BRANCH   4   5
HETATM    5  C   UNL     1      -9.548   8.791  66.932  1.00  0.00    -0.249 C  
BRANCH   5   6
HETATM    6  C   UNL     1     -10.629   8.568  67.954  1.00  0.00    -0.219 C  
HETATM    7  C   UNL     1     -10.562   8.940  69.240  1.00  0.00    -0.219 C  
BRANCH   7   8
HETATM    8  C   UNL     1      -9.427   9.742  69.798  1.00  0.00    -0.253 C  
BRANCH   8   9
HETATM    9  C   UNL     1      -8.343   8.875  70.363  1.00  0.00    -0.160 C  
HETATM   10  C   UNL     1      -7.137   8.660  69.805  1.00  0.00    -0.051 C  
BRANCH  10  11
HETATM   11  C   UNL     1      -6.639   9.225  68.502  1.00  0.00    -0.054 C  
BRANCH  11  12
HETATM   12  C   UNL     1      -6.173  10.663  68.526  1.00  0.00    -0.049 C  
HETATM   13  C   UNL     1      -6.776  11.765  68.041  1.00  0.00    -0.069 C  
BRANCH  13  14
HETATM   14  C   UNL     1      -8.056  11.792  67.266  1.00  0.00    -0.164 C  
BRANCH  14  15
HETATM   15  C   UNL     1      -8.612  13.170  67.059  1.00  0.00    -0.168 C  
HETATM   16  C   UNL     1      -9.739  13.599  67.650  1.00  0.00    -0.228 C  
BRANCH  16  17
HETATM   17  C   UNL     1     -10.573  12.701  68.516  1.00  0.00    -0.262 C  
BRANCH  17  18
HETATM   18  C   UNL     1     -11.861  13.347  68.995  1.00  0.00    -0.378 C  
BRANCH  18  19
HETATM   19  C   UNL     1     -12.037  13.104  70.491  1.00  0.00    -0.385 C  
HETATM   20  C   UNL     1     -12.890  14.174  71.132  1.00  0.00    -0.360 C  
HETATM   21  O   UNL     1     -13.377  15.126  70.545  1.00  0.00    -0.286 OA 
HETATM   22  O   UNL     1     -13.064  13.960  72.453  1.00  0.00    -0.414 OA 
ENDBRANCH  18  19
ENDBRANCH  17  18
ENDBRANCH  16  17
ENDBRANCH  14  15
ENDBRANCH  13  14
ENDBRANCH  11  12
ENDBRANCH  10  11
ENDBRANCH   8   9
ENDBRANCH   7   8
ENDBRANCH   5   6
ENDBRANCH   4   5
ENDBRANCH   2   3
TORSDOF 12
ENDMDL
MODEL      400
REMARK 921   NORMALIZED FREE ENERGY PREDICTED BY IDOCK:   -2.44 KCAL/MOL
REMARK 922        TOTAL FREE ENERGY PREDICTED BY IDOCK:   -6.66 KCAL/MOL
REMARK 923 INTER-LIGAND FREE ENERGY PREDICTED BY IDOCK:   -5.32 KCAL/MOL
REMARK 924 INTRA-LIGAND FREE ENERGY PREDICTED BY IDOCK:   -1.34 KCAL/MOL
REMARK 927      BINDING AFFINITY PREDICTED BY RF-SCORE:    0.00 PKD
ROOT
HETATM    1  C   UNL     1      -8.521   6.908  68.058  1.00  0.00    -0.124 C  
HETATM    2  C   UNL     1      -8.386   7.852  69.242  1.00  0.00    -0.136 C  
ENDROOT
BRANCH   2   3
HETATM    3  C   UNL     1      -7.172   7.540  70.074  1.00  0.00    -0.069 C  
HETATM    4  C   UNL     1      -7.180   6.905  71.261  1.00  0.00    -0.076 C  
BRANCH   4   5
HETATM    5  C   UNL     1      -8.416   6.374  71.926  1.00  0.00    -0.123 C  
BRANCH   5   6
HETATM    6  C   UNL     1      -9.001   7.327  72.932  1.00  0.00    -0.168 C  
HETATM    7  C   UNL     1     -10.284   7.713  72.972  1.00  0.00    -0.379 C  
BRANCH   7   8
HETATM    8  C   UNL     1     -11.336   7.141  72.071  1.00  0.00    -0.293 C  
BRANCH   8   9
HETATM    9  C   UNL     1     -11.281   7.725  70.692  1.00  0.00    -0.278 C  
HETATM   10  C   UNL     1     -12.097   8.679  70.210  1.00  0.00     0.370 C  
BRANCH  10  11
HETATM   11  C   UNL     1     -13.236   9.339  70.941  1.00  0.00    -0.035 C  
BRANCH  11  12
HETATM   12  C   UNL     1     -12.871  10.475  71.869  1.00  0.00    -0.509 C  
HETATM   13  C   UNL     1     -12.545  11.749  71.576  1.00  0.00    -0.320 C  
BRANCH  13  14
HETATM   14  C   UNL     1     -12.385  12.315  70.200  1.00  0.00    -0.212 C  
BRANCH  14  15
HETATM   15  C   UNL     1     -11.179  11.805  69.469  1.00  0.00    -0.265 C  
HETATM   16  C   UNL     1     -10.540  12.519  68.527  1.00  0.00    -0.262 C  
BRANCH  16  17
HETATM   17  C   UNL     1     -11.032  13.865  68.081  1.00  0.00    -0.267 C  
BRANCH  17  18
HETATM   18  C   UNL     1      -9.962  14.709  67.411  1.00  0.00    -0.231 C  
BRANCH  18  19
HETATM   19  C   UNL     1     -10.615  15.806  66.576  1.00  0.00    -0.306 C  
HETATM   20  C   UNL     1     -10.763  15.391  65.131  1.00  0.00    -0.440 C  
HETATM   21  O   UNL     1     -10.401  14.322  64.668  1.00  0.00    -0.417 OA 
HETATM   22  O   UNL     1     -11.355  16.348  64.387  1.00  0.00    -0.784 OA 
ENDBRANCH  18  19
ENDBRANCH  17  18
ENDBRANCH  16  17
ENDBRANCH  14  15
ENDBRANCH  13  14
ENDBRANCH  11  12
ENDBRANCH  10  11
ENDBRANCH   8   9
ENDBRANCH   7   8
ENDBRANCH   5   6
ENDBRANCH   4   5
ENDBRANCH   2   3
TORSDOF 12
ENDMDL
MODEL      401
REMARK 921   NORMALIZED FREE ENERGY PREDICTED BY IDOCK:   -2.44 KCAL/MOL
REMARK 922        TOTAL FREE ENERGY PREDICTED BY IDOCK:   -6.66 KCAL/MOL
REMARK 923 INTER-LIGAND FREE ENERGY PREDICTED BY IDOCK:   -4.46 KCAL/MOL
REMARK 924 INTRA-LIGAND FREE ENERGY PREDICTED BY IDOCK:   -2.21 KCAL/MOL
REMARK 927      BINDING AFFINITY PREDICTED BY RF-SCORE:    0.00 PKD
ROOT
HETATM    1  C   UNL     1     -10.662  11.091  66.461  1.00  0.00    -0.298 C  
HETATM    2  C   UNL     1     -10.758  10.094  67.605  1.00  0.00    -0.339 C  
ENDROOT
BRANCH   2   3
HETATM    3  C   UNL     1     -11.389  10.701  68.828  1.00  0.00    -0.339 C  
HETATM    4  C   UNL     1     -11.110  10.363  70.101  1.00  0.00    -0.383 C  
BRANCH   4   5
HETATM    5  C   UNL     1     -10.087   9.340  70.498  1.00  0.00    -0.313 C  
BRANCH   5   6
HETATM    6  C   UNL     1     -10.170   8.953  71.949  1.00  0.00    -0.403 C  
HETATM    7  C   UNL     1      -9.566   7.890  72.498  1.00  0.00    -0.278 C  
BRANCH   7   8
HETATM    8  C   UNL     1      -8.621   7.008  71.741  1.00  0.00    -0.114 C  
BRANCH   8   9
HETATM    9  C   UNL     1      -7.907   6.041  72.635  1.00  0.00    -0.104 C  
HETATM   10  C   UNL     1      -8.420   4.896  73.124  1.00  0.00    -0.104 C  
BRANCH  10  11
HETATM   11  C   UNL     1      -9.809   4.364  72.891  1.00  0.00    -0.186 C  
BRANCH  11  12
HETATM   12  C   UNL     1      -9.914   3.076  72.107  1.00  0.00    -0.233 C  
HETATM   13  C   UNL     1      -9.655   2.842  70.806  1.00  0.00    -0.195 C  
BRANCH  13  14
HETATM   14  C   UNL     1      -9.269   3.874  69.793  1.00  0.00    -0.213 C  
BRANCH  14  15
HETATM   15  C   UNL     1     -10.366   4.843  69.465  1.00  0.00    -0.154 C  
HETATM   16  C   UNL     1     -10.166   5.950  68.731  1.00  0.00    -0.243 C  
BRANCH  16  17
HETATM   17  C   UNL     1      -8.804   6.341  68.239  1.00  0.00    -0.114 C  
BRANCH  17  18
HETATM   18  C   UNL     1      -8.778   7.687  67.534  1.00  0.00    -0.125 C  
BRANCH  18  19
HETATM   19  C   UNL     1      -7.597   8.511  68.037  1.00  0.00    -0.098 C  
HETATM   20  C   UNL     1      -6.894   9.223  66.905  1.00  0.00    -0.080 C  
HETATM   21  O   UNL     1      -7.210   9.151  65.728  1.00  0.00    -0.087 OA 
HETATM   22  O   UNL     1      -5.857   9.968  67.341  1.00  0.00    -0.052 OA 
ENDBRANCH  18  19
ENDBRANCH  17  18
ENDBRANCH  16  17
ENDBRANCH  14  15
ENDBRANCH  13  14
ENDBRANCH  11  12
ENDBRANCH  10  11
ENDBRANCH   8   9
ENDBRANCH   7   8
ENDBRANCH   5   6
ENDBRANCH   4   5
ENDBRANCH   2   3
TORSDOF 12
ENDMDL
MODEL      402
REMARK 921   NORMALIZED FREE ENERGY PREDICTED BY IDOCK:   -2.44 KCAL/MOL
REMARK 922        TOTAL FREE ENERGY PREDICTED BY IDOCK:   -6.66 KCAL/MOL
REMARK 923 INTER-LIGAND FREE ENERGY PREDICTED BY IDOCK:   -5.99 KCAL/MOL
REMARK 924 INTRA-LIGAND FREE ENERGY PREDICTED BY IDOCK:   -0.67 KCAL/MOL
REMARK 927      BINDING AFFINITY PREDICTED BY RF-SCORE:    0.00 PKD
ROOT
HETATM    1  C   UNL     1      -8.826   8.237  70.552  1.00  0.00    -0.148 C  
HETATM    2  C   UNL     1     -10.054   8.973  71.065  1.00  0.00    -0.352 C  
ENDROOT
BRANCH   2   3
HETATM    3  C   UNL     1     -11.270   8.089  71.089  1.00  0.00    -0.287 C  
HETATM    4  C   UNL     1     -11.452   6.988  70.335  1.00  0.00    -0.355 C  
BRANCH   4   5
HETATM    5  C   UNL     1     -10.438   6.451  69.368  1.00  0.00    -0.277 C  
BRANCH   5   6
HETATM    6  C   UNL     1     -10.963   6.339  67.963  1.00  0.00    -0.418 C  
HETATM    7  C   UNL     1     -10.812   7.268  67.008  1.00  0.00    -0.350 C  
BRANCH   7   8
HETATM    8  C   UNL     1      -9.986   8.503  67.196  1.00  0.00    -0.304 C  
BRANCH   8   9
HETATM    9  C   UNL     1      -9.566   9.109  65.891  1.00  0.00    -0.343 C  
HETATM   10  C   UNL     1     -10.059  10.241  65.355  1.00  0.00    -0.354 C  
BRANCH  10  11
HETATM   11  C   UNL     1     -11.136  11.114  65.939  1.00  0.00    -0.105 C  
BRANCH  11  12
HETATM   12  C   UNL     1     -10.678  12.240  66.838  1.00  0.00    -0.264 C  
HETATM   13  C   UNL     1     -10.346  13.506  66.522  1.00  0.00    -0.282 C  
BRANCH  13  14
HETATM   14  C   UNL     1     -10.278  14.072  65.138  1.00  0.00    -0.396 C  
BRANCH  14  15
HETATM   15  C   UNL     1     -11.029  15.360  64.970  1.00  0.00    -0.450 C  
HETATM   16  C   UNL     1     -10.480  16.562  65.212  1.00  0.00    -0.236 C  
BRANCH  16  17
HETATM   17  C   UNL     1      -9.083  16.705  65.741  1.00  0.00    -0.002 C  
BRANCH  17  18
HETATM   18  C   UNL     1      -9.028  17.105  67.205  1.00  0.00    -0.228 C  
BRANCH  18  19
HETATM   19  C   UNL     1      -7.919  16.331  67.911  1.00  0.00    -0.153 C  
HETATM   20  C   UNL     1      -8.441  15.588  69.119  1.00  0.00    -0.248 C  
HETATM   21  O   UNL     1      -9.599  15.602  69.504  1.00  0.00    -0.261 OA 
HETATM   22  O   UNL     1      -7.471  14.887  69.742  1.00  0.00    -0.172 OA 
ENDBRANCH  18  19
ENDBRANCH  17  18
ENDBRANCH  16  17
ENDBRANCH  14  15
ENDBRANCH  13  14
ENDBRANCH  11  12
ENDBRANCH  10  11
ENDBRANCH   8   9
ENDBRANCH   7   8
ENDBRANCH   5   6
ENDBRANCH   4   5
ENDBRANCH   2   3
TORSDOF 12
ENDMDL
MODEL      403
REMARK 921   NORMALIZED FREE ENERGY PREDICTED BY IDOCK:   -2.41 KCAL/MOL
REMARK 922        TOTAL FREE ENERGY PREDICTED BY IDOCK:   -6.61 KCAL/MOL
REMARK 923 INTER-LIGAND FREE ENERGY PREDICTED BY IDOCK:   -4.88 KCAL/MOL
REMARK 924 INTRA-LIGAND FREE ENERGY PREDICTED BY IDOCK:   -1.72 KCAL/MOL
REMARK 927      BINDING AFFINITY PREDICTED BY RF-SCORE:    0.00 PKD
ROOT
HETATM    1  C   UNL     1     -11.424  11.662  64.792  1.00  0.00    -0.225 C  
HETATM    2  C   UNL     1     -11.329  13.163  64.572  1.00  0.00    -0.383 C  
ENDROOT
BRANCH   2   3
HETATM    3  C   UNL     1     -12.304  13.920  65.430  1.00  0.00    -0.494 C  
HETATM    4  C   UNL     1     -11.987  14.647  66.519  1.00  0.00    -0.284 C  
BRANCH   4   5
HETATM    5  C   UNL     1     -10.589  14.841  67.025  1.00  0.00    -0.290 C  
BRANCH   5   6
HETATM    6  C   UNL     1      -9.729  15.649  66.092  1.00  0.00    -0.348 C  
HETATM    7  C   UNL     1      -9.256  16.877  66.348  1.00  0.00    -0.308 C  
BRANCH   7   8
HETATM    8  C   UNL     1      -9.435  17.559  67.670  1.00  0.00    -0.256 C  
BRANCH   8   9
HETATM    9  C   UNL     1      -8.837  18.933  67.684  1.00  0.00    -0.312 C  
HETATM   10  C   UNL     1      -7.542  19.225  67.903  1.00  0.00    -0.312 C  
BRANCH  10  11
HETATM   11  C   UNL     1      -6.438  18.243  68.194  1.00  0.00    -0.189 C  
BRANCH  11  12
HETATM   12  C   UNL     1      -6.595  17.403  69.441  1.00  0.00    -0.213 C  
HETATM   13  C   UNL     1      -6.477  16.071  69.596  1.00  0.00    -0.190 C  
BRANCH  13  14
HETATM   14  C   UNL     1      -6.236  15.082  68.498  1.00  0.00    -0.094 C  
BRANCH  14  15
HETATM   15  C   UNL     1      -7.366  14.117  68.291  1.00  0.00    -0.120 C  
HETATM   16  C   UNL     1      -7.187  12.877  67.806  1.00  0.00    -0.134 C  
BRANCH  16  17
HETATM   17  C   UNL     1      -5.840  12.384  67.365  1.00  0.00    -0.149 C  
BRANCH  17  18
HETATM   18  C   UNL     1      -5.909  11.334  66.270  1.00  0.00    -0.114 C  
BRANCH  18  19
HETATM   19  C   UNL     1      -7.190  10.518  66.416  1.00  0.00    -0.129 C  
HETATM   20  C   UNL     1      -7.369   9.552  65.268  1.00  0.00    -0.104 C  
HETATM   21  O   UNL     1      -6.602   9.433  64.326  1.00  0.00    -0.088 OA 
HETATM   22  O   UNL     1      -8.491   8.814  65.396  1.00  0.00    -0.150 OA 
ENDBRANCH  18  19
ENDBRANCH  17  18
ENDBRANCH  16  17
ENDBRANCH  14  15
ENDBRANCH  13  14
ENDBRANCH  11  12
ENDBRANCH  10  11
ENDBRANCH   8   9
ENDBRANCH   7   8
ENDBRANCH   5   6
ENDBRANCH   4   5
ENDBRANCH   2   3
TORSDOF 12
ENDMDL
MODEL      404
REMARK 921   NORMALIZED FREE ENERGY PREDICTED BY IDOCK:   -2.40 KCAL/MOL
REMARK 922        TOTAL FREE ENERGY PREDICTED BY IDOCK:   -6.59 KCAL/MOL
REMARK 923 INTER-LIGAND FREE ENERGY PREDICTED BY IDOCK:   -4.79 KCAL/MOL
REMARK 924 INTRA-LIGAND FREE ENERGY PREDICTED BY IDOCK:   -1.80 KCAL/MOL
REMARK 927      BINDING AFFINITY PREDICTED BY RF-SCORE:    0.00 PKD
ROOT
HETATM    1  C   UNL     1     -10.310   8.991  66.282  1.00  0.00    -0.130 C  
HETATM    2  C   UNL     1      -9.555  10.099  65.565  1.00  0.00    -0.310 C  
ENDROOT
BRANCH   2   3
HETATM    3  C   UNL     1     -10.451  11.256  65.218  1.00  0.00    -0.341 C  
HETATM    4  C   UNL     1     -10.324  12.511  65.690  1.00  0.00    -0.294 C  
BRANCH   4   5
HETATM    5  C   UNL     1      -9.234  12.958  66.618  1.00  0.00    -0.222 C  
BRANCH   5   6
HETATM    6  C   UNL     1      -7.926  12.257  66.374  1.00  0.00     0.333 C  
HETATM    7  C   UNL     1      -7.149  11.722  67.327  1.00  0.00    -0.140 C  
BRANCH   7   8
HETATM    8  C   UNL     1      -7.555  11.656  68.767  1.00  0.00    -0.119 C  
BRANCH   8   9
HETATM    9  C   UNL     1      -8.327  10.411  69.083  1.00  0.00    -0.160 C  
HETATM   10  C   UNL     1      -9.658  10.336  69.266  1.00  0.00    -0.239 C  
BRANCH  10  11
HETATM   11  C   UNL     1     -10.636  11.479  69.212  1.00  0.00    -0.120 C  
BRANCH  11  12
HETATM   12  C   UNL     1     -12.099  11.110  69.116  1.00  0.00    -0.352 C  
HETATM   13  C   UNL     1     -12.954  10.742  70.089  1.00  0.00    -0.050 C  
BRANCH  13  14
HETATM   14  C   UNL     1     -12.601  10.529  71.528  1.00  0.00    -0.529 C  
BRANCH  14  15
HETATM   15  C   UNL     1     -12.984   9.177  72.054  1.00  0.00    -0.496 C  
HETATM   16  C   UNL     1     -12.082   8.229  72.355  1.00  0.00    -0.430 C  
BRANCH  16  17
HETATM   17  C   UNL     1     -10.613   8.427  72.120  1.00  0.00    -0.400 C  
BRANCH  17  18
HETATM   18  C   UNL     1      -9.975   7.314  71.306  1.00  0.00    -0.191 C  
BRANCH  18  19
HETATM   19  C   UNL     1      -8.962   6.562  72.164  1.00  0.00    -0.139 C  
HETATM   20  C   UNL     1      -9.571   5.333  72.795  1.00  0.00    -0.149 C  
HETATM   21  O   UNL     1     -10.730   4.976  72.658  1.00  0.00    -0.207 OA 
HETATM   22  O   UNL     1      -8.679   4.651  73.543  1.00  0.00    -0.104 OA 
ENDBRANCH  18  19
ENDBRANCH  17  18
ENDBRANCH  16  17
ENDBRANCH  14  15
ENDBRANCH  13  14
ENDBRANCH  11  12
ENDBRANCH  10  11
ENDBRANCH   8   9
ENDBRANCH   7   8
ENDBRANCH   5   6
ENDBRANCH   4   5
ENDBRANCH   2   3
TORSDOF 12
ENDMDL
MODEL      405
REMARK 921   NORMALIZED FREE ENERGY PREDICTED BY IDOCK:   -2.38 KCAL/MOL
REMARK 922        TOTAL FREE ENERGY PREDICTED BY IDOCK:   -6.55 KCAL/MOL
REMARK 923 INTER-LIGAND FREE ENERGY PREDICTED BY IDOCK:   -4.77 KCAL/MOL
REMARK 924 INTRA-LIGAND FREE ENERGY PREDICTED BY IDOCK:   -1.79 KCAL/MOL
REMARK 927      BINDING AFFINITY PREDICTED BY RF-SCORE:    0.00 PKD
ROOT
HETATM    1  C   UNL     1      -6.301  10.117  64.220  1.00  0.00    -0.126 C  
HETATM    2  C   UNL     1      -6.625   9.011  65.210  1.00  0.00    -0.068 C  
ENDROOT
BRANCH   2   3
HETATM    3  C   UNL     1      -7.954   8.368  64.920  1.00  0.00    -0.136 C  
HETATM    4  C   UNL     1      -9.157   8.880  65.243  1.00  0.00    -0.196 C  
BRANCH   4   5
HETATM    5  C   UNL     1      -9.356  10.204  65.920  1.00  0.00    -0.224 C  
BRANCH   5   6
HETATM    6  C   UNL     1     -10.709  10.341  66.562  1.00  0.00    -0.148 C  
HETATM    7  C   UNL     1     -10.937  10.862  67.776  1.00  0.00    -0.339 C  
BRANCH   7   8
HETATM    8  C   UNL     1      -9.860  11.491  68.608  1.00  0.00    -0.184 C  
BRANCH   8   9
HETATM    9  C   UNL     1      -8.966  10.470  69.244  1.00  0.00    -0.148 C  
HETATM   10  C   UNL     1      -7.622  10.519  69.284  1.00  0.00    -0.134 C  
BRANCH  10  11
HETATM   11  C   UNL     1      -6.745  11.588  68.688  1.00  0.00    -0.072 C  
BRANCH  11  12
HETATM   12  C   UNL     1      -6.271  12.672  69.629  1.00  0.00    -0.122 C  
HETATM   13  C   UNL     1      -6.590  13.980  69.655  1.00  0.00    -0.099 C  
BRANCH  13  14
HETATM   14  C   UNL     1      -7.457  14.689  68.662  1.00  0.00    -0.125 C  
BRANCH  14  15
HETATM   15  C   UNL     1      -8.069  15.955  69.185  1.00  0.00    -0.239 C  
HETATM   16  C   UNL     1      -9.352  16.039  69.575  1.00  0.00    -0.146 C  
BRANCH  16  17
HETATM   17  C   UNL     1     -10.297  14.879  69.450  1.00  0.00    -0.217 C  
BRANCH  17  18
HETATM   18  C   UNL     1     -11.670  15.152  70.039  1.00  0.00    -0.341 C  
BRANCH  18  19
HETATM   19  C   UNL     1     -12.268  13.856  70.579  1.00  0.00    -0.443 C  
HETATM   20  C   UNL     1     -12.983  14.078  71.891  1.00  0.00    -0.360 C  
HETATM   21  O   UNL     1     -13.072  15.150  72.468  1.00  0.00    -0.331 OA 
HETATM   22  O   UNL     1     -13.529  12.941  72.370  1.00  0.00    -0.566 OA 
ENDBRANCH  18  19
ENDBRANCH  17  18
ENDBRANCH  16  17
ENDBRANCH  14  15
ENDBRANCH  13  14
ENDBRANCH  11  12
ENDBRANCH  10  11
ENDBRANCH   8   9
ENDBRANCH   7   8
ENDBRANCH   5   6
ENDBRANCH   4   5
ENDBRANCH   2   3
TORSDOF 12
ENDMDL
MODEL      406
REMARK 921   NORMALIZED FREE ENERGY PREDICTED BY IDOCK:   -2.37 KCAL/MOL
REMARK 922        TOTAL FREE ENERGY PREDICTED BY IDOCK:   -6.54 KCAL/MOL
REMARK 923 INTER-LIGAND FREE ENERGY PREDICTED BY IDOCK:   -5.51 KCAL/MOL
REMARK 924 INTRA-LIGAND FREE ENERGY PREDICTED BY IDOCK:   -1.03 KCAL/MOL
REMARK 927      BINDING AFFINITY PREDICTED BY RF-SCORE:    0.00 PKD
ROOT
HETATM    1  C   UNL     1     -10.031   8.879  71.200  1.00  0.00    -0.342 C  
HETATM    2  C   UNL     1     -10.470   8.078  69.985  1.00  0.00    -0.228 C  
ENDROOT
BRANCH   2   3
HETATM    3  C   UNL     1     -10.994   6.721  70.366  1.00  0.00    -0.330 C  
HETATM    4  C   UNL     1     -10.625   5.554  69.805  1.00  0.00    -0.388 C  
BRANCH   4   5
HETATM    5  C   UNL     1      -9.593   5.428  68.722  1.00  0.00    -0.182 C  
BRANCH   5   6
HETATM    6  C   UNL     1      -8.643   4.283  68.942  1.00  0.00    -0.107 C  
HETATM    7  C   UNL     1      -7.753   3.838  68.044  1.00  0.00    -0.066 C  
BRANCH   7   8
HETATM    8  C   UNL     1      -7.513   4.515  66.729  1.00  0.00    -0.082 C  
BRANCH   8   9
HETATM    9  C   UNL     1      -6.120   5.053  66.614  1.00  0.00    -0.031 C  
HETATM   10  C   UNL     1      -5.745   6.114  65.875  1.00  0.00    -0.024 C  
BRANCH  10  11
HETATM   11  C   UNL     1      -6.636   6.961  65.006  1.00  0.00    -0.043 C  
BRANCH  11  12
HETATM   12  C   UNL     1      -6.092   8.311  64.598  1.00  0.00    -0.060 C  
HETATM   13  C   UNL     1      -6.530   9.543  64.922  1.00  0.00    -0.085 C  
BRANCH  13  14
HETATM   14  C   UNL     1      -7.754   9.852  65.726  1.00  0.00    -0.112 C  
BRANCH  14  15
HETATM   15  C   UNL     1      -9.040   9.572  65.006  1.00  0.00    -0.281 C  
HETATM   16  C   UNL     1      -9.957  10.521  64.755  1.00  0.00    -0.412 C  
BRANCH  16  17
HETATM   17  C   UNL     1      -9.794  11.931  65.241  1.00  0.00    -0.255 C  
BRANCH  17  18
HETATM   18  C   UNL     1     -11.021  12.797  65.008  1.00  0.00    -0.319 C  
BRANCH  18  19
HETATM   19  C   UNL     1     -10.591  14.202  64.597  1.00  0.00    -0.391 C  
HETATM   20  C   UNL     1     -11.781  15.110  64.392  1.00  0.00    -0.295 C  
HETATM   21  O   UNL     1     -12.948  14.776  64.523  1.00  0.00    -0.431 OA 
HETATM   22  O   UNL     1     -11.411  16.360  64.044  1.00  0.00    -1.048 OA 
ENDBRANCH  18  19
ENDBRANCH  17  18
ENDBRANCH  16  17
ENDBRANCH  14  15
ENDBRANCH  13  14
ENDBRANCH  11  12
ENDBRANCH  10  11
ENDBRANCH   8   9
ENDBRANCH   7   8
ENDBRANCH   5   6
ENDBRANCH   4   5
ENDBRANCH   2   3
TORSDOF 12
ENDMDL
MODEL      407
REMARK 921   NORMALIZED FREE ENERGY PREDICTED BY IDOCK:   -2.35 KCAL/MOL
REMARK 922        TOTAL FREE ENERGY PREDICTED BY IDOCK:   -6.51 KCAL/MOL
REMARK 923 INTER-LIGAND FREE ENERGY PREDICTED BY IDOCK:   -5.54 KCAL/MOL
REMARK 924 INTRA-LIGAND FREE ENERGY PREDICTED BY IDOCK:   -0.97 KCAL/MOL
REMARK 927      BINDING AFFINITY PREDICTED BY RF-SCORE:    0.00 PKD
ROOT
HETATM    1  C   UNL     1     -11.335  16.567  71.488  1.00  0.00     0.005 C  
HETATM    2  C   UNL     1     -11.727  15.448  72.440  1.00  0.00    -0.565 C  
ENDROOT
BRANCH   2   3
HETATM    3  C   UNL     1     -13.147  15.585  72.916  1.00  0.00    -0.610 C  
HETATM    4  C   UNL     1     -14.216  14.975  72.370  1.00  0.00    -0.516 C  
BRANCH   4   5
HETATM    5  C   UNL     1     -14.146  14.026  71.210  1.00  0.00    -0.053 C  
BRANCH   5   6
HETATM    6  C   UNL     1     -12.963  13.099  71.276  1.00  0.00    -0.339 C  
HETATM    7  C   UNL     1     -12.054  12.939  70.305  1.00  0.00    -0.377 C  
BRANCH   7   8
HETATM    8  C   UNL     1     -12.041  13.768  69.057  1.00  0.00    -0.359 C  
BRANCH   8   9
HETATM    9  C   UNL     1     -11.915  12.931  67.820  1.00  0.00    -0.336 C  
HETATM   10  C   UNL     1     -10.982  13.080  66.862  1.00  0.00    -0.289 C  
BRANCH  10  11
HETATM   11  C   UNL     1      -9.894  14.119  66.823  1.00  0.00    -0.275 C  
BRANCH  11  12
HETATM   12  C   UNL     1      -8.707  13.886  67.729  1.00  0.00    -0.187 C  
HETATM   13  C   UNL     1      -7.972  12.770  67.906  1.00  0.00    -0.158 C  
BRANCH  13  14
HETATM   14  C   UNL     1      -8.239  11.439  67.276  1.00  0.00    -0.150 C  
BRANCH  14  15
HETATM   15  C   UNL     1      -7.122  10.453  67.443  1.00  0.00    -0.087 C  
HETATM   16  C   UNL     1      -7.195   9.186  67.004  1.00  0.00    -0.090 C  
BRANCH  16  17
HETATM   17  C   UNL     1      -8.439   8.635  66.371  1.00  0.00    -0.117 C  
BRANCH  17  18
HETATM   18  C   UNL     1      -9.273   7.785  67.314  1.00  0.00    -0.162 C  
BRANCH  18  19
HETATM   19  C   UNL     1     -10.488   8.577  67.787  1.00  0.00    -0.287 C  
HETATM   20  C   UNL     1     -10.319   9.057  69.209  1.00  0.00    -0.219 C  
HETATM   21  O   UNL     1      -9.345   8.840  69.911  1.00  0.00    -0.155 OA 
HETATM   22  O   UNL     1     -11.382   9.773  69.632  1.00  0.00    -0.212 OA 
ENDBRANCH  18  19
ENDBRANCH  17  18
ENDBRANCH  16  17
ENDBRANCH  14  15
ENDBRANCH  13  14
ENDBRANCH  11  12
ENDBRANCH  10  11
ENDBRANCH   8   9
ENDBRANCH   7   8
ENDBRANCH   5   6
ENDBRANCH   4   5
ENDBRANCH   2   3
TORSDOF 12
ENDMDL
MODEL      408
REMARK 921   NORMALIZED FREE ENERGY PREDICTED BY IDOCK:   -2.34 KCAL/MOL
REMARK 922        TOTAL FREE ENERGY PREDICTED BY IDOCK:   -6.49 KCAL/MOL
REMARK 923 INTER-LIGAND FREE ENERGY PREDICTED BY IDOCK:   -4.16 KCAL/MOL
REMARK 924 INTRA-LIGAND FREE ENERGY PREDICTED BY IDOCK:   -2.33 KCAL/MOL
REMARK 927      BINDING AFFINITY PREDICTED BY RF-SCORE:    0.00 PKD
ROOT
HETATM    1  C   UNL     1      -6.317  13.940  68.863  1.00  0.00    -0.094 C  
HETATM    2  C   UNL     1      -6.212  13.058  67.629  1.00  0.00    -0.158 C  
ENDROOT
BRANCH   2   3
HETATM    3  C   UNL     1      -5.735  11.672  67.967  1.00  0.00    -0.044 C  
HETATM    4  C   UNL     1      -6.436  10.538  67.783  1.00  0.00    -0.060 C  
BRANCH   4   5
HETATM    5  C   UNL     1      -7.805  10.482  67.172  1.00  0.00    -0.112 C  
BRANCH   5   6
HETATM    6  C   UNL     1      -7.786  10.135  65.709  1.00  0.00    -0.136 C  
HETATM    7  C   UNL     1      -8.334   9.037  65.170  1.00  0.00    -0.165 C  
BRANCH   7   8
HETATM    8  C   UNL     1      -9.150   8.061  65.961  1.00  0.00    -0.193 C  
BRANCH   8   9
HETATM    9  C   UNL     1      -8.467   6.735  66.105  1.00  0.00    -0.135 C  
HETATM   10  C   UNL     1      -7.884   6.269  67.225  1.00  0.00    -0.108 C  
BRANCH  10  11
HETATM   11  C   UNL     1      -7.780   6.982  68.546  1.00  0.00    -0.120 C  
BRANCH  11  12
HETATM   12  C   UNL     1      -8.038   6.151  69.782  1.00  0.00    -0.119 C  
HETATM   13  C   UNL     1      -9.203   5.691  70.276  1.00  0.00    -0.178 C  
BRANCH  13  14
HETATM   14  C   UNL     1     -10.563   5.987  69.727  1.00  0.00    -0.356 C  
BRANCH  14  15
HETATM   15  C   UNL     1     -11.437   6.774  70.659  1.00  0.00    -0.403 C  
HETATM   16  C   UNL     1     -11.530   8.113  70.617  1.00  0.00    -0.237 C  
BRANCH  16  17
HETATM   17  C   UNL     1     -10.705   8.937  69.672  1.00  0.00    -0.222 C  
BRANCH  17  18
HETATM   18  C   UNL     1     -11.506   9.997  68.937  1.00  0.00    -0.057 C  
BRANCH  18  19
HETATM   19  C   UNL     1     -11.839  11.144  69.886  1.00  0.00    -0.439 C  
HETATM   20  C   UNL     1     -11.536  12.487  69.265  1.00  0.00    -0.293 C  
HETATM   21  O   UNL     1     -11.071  12.654  68.149  1.00  0.00    -0.223 OA 
HETATM   22  O   UNL     1     -11.842  13.509  70.091  1.00  0.00    -0.307 OA 
ENDBRANCH  18  19
ENDBRANCH  17  18
ENDBRANCH  16  17
ENDBRANCH  14  15
ENDBRANCH  13  14
ENDBRANCH  11  12
ENDBRANCH  10  11
ENDBRANCH   8   9
ENDBRANCH   7   8
ENDBRANCH   5   6
ENDBRANCH   4   5
ENDBRANCH   2   3
TORSDOF 12
ENDMDL
MODEL      409
REMARK 921   NORMALIZED FREE ENERGY PREDICTED BY IDOCK:   -2.31 KCAL/MOL
REMARK 922        TOTAL FREE ENERGY PREDICTED BY IDOCK:   -6.44 KCAL/MOL
REMARK 923 INTER-LIGAND FREE ENERGY PREDICTED BY IDOCK:   -5.31 KCAL/MOL
REMARK 924 INTRA-LIGAND FREE ENERGY PREDICTED BY IDOCK:   -1.13 KCAL/MOL
REMARK 927      BINDING AFFINITY PREDICTED BY RF-SCORE:    0.00 PKD
ROOT
HETATM    1  C   UNL     1      -9.934   6.224  70.646  1.00  0.00    -0.221 C  
HETATM    2  C   UNL     1      -9.017   5.021  70.800  1.00  0.00    -0.165 C  
ENDROOT
BRANCH   2   3
HETATM    3  C   UNL     1      -9.603   3.784  70.177  1.00  0.00    -0.258 C  
HETATM    4  C   UNL     1      -9.391   3.370  68.914  1.00  0.00    -0.237 C  
BRANCH   4   5
HETATM    5  C   UNL     1      -8.498   4.072  67.934  1.00  0.00    -0.103 C  
BRANCH   5   6
HETATM    6  C   UNL     1      -8.282   3.292  66.666  1.00  0.00    -0.096 C  
HETATM    7  C   UNL     1      -8.609   3.714  65.437  1.00  0.00    -0.112 C  
BRANCH   7   8
HETATM    8  C   UNL     1      -9.132   5.091  65.160  1.00  0.00    -0.127 C  
BRANCH   8   9
HETATM    9  C   UNL     1      -8.075   6.000  64.610  1.00  0.00    -0.132 C  
HETATM   10  C   UNL     1      -7.957   7.315  64.870  1.00  0.00    -0.127 C  
BRANCH  10  11
HETATM   11  C   UNL     1      -8.862   8.141  65.744  1.00  0.00    -0.173 C  
BRANCH  11  12
HETATM   12  C   UNL     1      -8.472   9.589  65.939  1.00  0.00    -0.133 C  
HETATM   13  C   UNL     1      -9.204  10.704  65.755  1.00  0.00    -0.218 C  
BRANCH  13  14
HETATM   14  C   UNL     1     -10.598  10.755  65.213  1.00  0.00    -0.230 C  
BRANCH  14  15
HETATM   15  C   UNL     1     -10.847  11.904  64.281  1.00  0.00    -0.396 C  
HETATM   16  C   UNL     1     -11.424  13.051  64.675  1.00  0.00    -0.374 C  
BRANCH  16  17
HETATM   17  C   UNL     1     -11.932  13.245  66.073  1.00  0.00    -0.473 C  
BRANCH  17  18
HETATM   18  C   UNL     1     -10.925  13.908  66.997  1.00  0.00    -0.301 C  
BRANCH  18  19
HETATM   19  C   UNL     1     -11.533  14.080  68.386  1.00  0.00    -0.340 C  
HETATM   20  C   UNL     1     -11.543  15.529  68.813  1.00  0.00    -0.378 C  
HETATM   21  O   UNL     1     -11.112  16.458  68.149  1.00  0.00    -0.352 OA 
HETATM   22  O   UNL     1     -12.092  15.695  70.034  1.00  0.00    -0.360 OA 
ENDBRANCH  18  19
ENDBRANCH  17  18
ENDBRANCH  16  17
ENDBRANCH  14  15
ENDBRANCH  13  14
ENDBRANCH  11  12
ENDBRANCH  10  11
ENDBRANCH   8   9
ENDBRANCH   7   8
ENDBRANCH   5   6
ENDBRANCH   4   5
ENDBRANCH   2   3
TORSDOF 12
ENDMDL
MODEL      410
REMARK 921   NORMALIZED FREE ENERGY PREDICTED BY IDOCK:   -2.31 KCAL/MOL
REMARK 922        TOTAL FREE ENERGY PREDICTED BY IDOCK:   -6.44 KCAL/MOL
REMARK 923 INTER-LIGAND FREE ENERGY PREDICTED BY IDOCK:   -4.43 KCAL/MOL
REMARK 924 INTRA-LIGAND FREE ENERGY PREDICTED BY IDOCK:   -2.01 KCAL/MOL
REMARK 927      BINDING AFFINITY PREDICTED BY RF-SCORE:    0.00 PKD
ROOT
HETATM    1  C   UNL     1     -10.995   7.767  73.024  1.00  0.00    -0.442 C  
HETATM    2  C   UNL     1     -10.199   6.664  73.703  1.00  0.00    -0.325 C  
ENDROOT
BRANCH   2   3
HETATM    3  C   UNL     1     -10.877   5.327  73.583  1.00  0.00    -0.347 C  
HETATM    4  C   UNL     1     -10.686   4.441  72.588  1.00  0.00    -0.204 C  
BRANCH   4   5
HETATM    5  C   UNL     1      -9.730   4.643  71.449  1.00  0.00    -0.246 C  
BRANCH   5   6
HETATM    6  C   UNL     1      -9.714   3.493  70.480  1.00  0.00    -0.187 C  
HETATM    7  C   UNL     1      -9.613   3.609  69.148  1.00  0.00    -0.172 C  
BRANCH   7   8
HETATM    8  C   UNL     1      -9.383   4.919  68.460  1.00  0.00    -0.175 C  
BRANCH   8   9
HETATM    9  C   UNL     1      -8.206   4.874  67.533  1.00  0.00    -0.105 C  
HETATM   10  C   UNL     1      -6.943   5.217  67.849  1.00  0.00    -0.062 C  
BRANCH  10  11
HETATM   11  C   UNL     1      -6.459   5.728  69.179  1.00  0.00    -0.046 C  
BRANCH  11  12
HETATM   12  C   UNL     1      -5.772   7.075  69.173  1.00  0.00    -0.018 C  
HETATM   13  C   UNL     1      -6.005   8.157  69.940  1.00  0.00    -0.022 C  
BRANCH  13  14
HETATM   14  C   UNL     1      -7.099   8.292  70.952  1.00  0.00    -0.053 C  
BRANCH  14  15
HETATM   15  C   UNL     1      -8.411   7.718  70.509  1.00  0.00    -0.127 C  
HETATM   16  C   UNL     1      -9.365   8.452  69.913  1.00  0.00    -0.155 C  
BRANCH  16  17
HETATM   17  C   UNL     1      -9.217   9.931  69.708  1.00  0.00    -0.252 C  
BRANCH  17  18
HETATM   18  C   UNL     1      -9.050  10.326  68.251  1.00  0.00    -0.139 C  
BRANCH  18  19
HETATM   19  C   UNL     1     -10.415  10.387  67.572  1.00  0.00    -0.292 C  
HETATM   20  C   UNL     1     -10.888  11.811  67.402  1.00  0.00    -0.251 C  
HETATM   21  O   UNL     1     -10.275  12.802  67.766  1.00  0.00    -0.214 OA 
HETATM   22  O   UNL     1     -12.088  11.877  66.788  1.00  0.00    -0.593 OA 
ENDBRANCH  18  19
ENDBRANCH  17  18
ENDBRANCH  16  17
ENDBRANCH  14  15
ENDBRANCH  13  14
ENDBRANCH  11  12
ENDBRANCH  10  11
ENDBRANCH   8   9
ENDBRANCH   7   8
ENDBRANCH   5   6
ENDBRANCH   4   5
ENDBRANCH   2   3
TORSDOF 12
ENDMDL
MODEL      411
REMARK 921   NORMALIZED FREE ENERGY PREDICTED BY IDOCK:   -2.28 KCAL/MOL
REMARK 922        TOTAL FREE ENERGY PREDICTED BY IDOCK:   -6.38 KCAL/MOL
REMARK 923 INTER-LIGAND FREE ENERGY PREDICTED BY IDOCK:   -4.83 KCAL/MOL
REMARK 924 INTRA-LIGAND FREE ENERGY PREDICTED BY IDOCK:   -1.55 KCAL/MOL
REMARK 927      BINDING AFFINITY PREDICTED BY RF-SCORE:    0.00 PKD
ROOT
HETATM    1  C   UNL     1      -6.757   9.782  63.689  1.00  0.00    -0.119 C  
HETATM    2  C   UNL     1      -7.802   8.927  64.388  1.00  0.00    -0.128 C  
ENDROOT
BRANCH   2   3
HETATM    3  C   UNL     1      -7.603   7.462  64.116  1.00  0.00    -0.109 C  
HETATM    4  C   UNL     1      -7.977   6.457  64.930  1.00  0.00    -0.124 C  
BRANCH   4   5
HETATM    5  C   UNL     1      -8.690   6.651  66.236  1.00  0.00    -0.150 C  
BRANCH   5   6
HETATM    6  C   UNL     1      -9.841   5.701  66.428  1.00  0.00    -0.184 C  
HETATM    7  C   UNL     1     -10.080   4.996  67.542  1.00  0.00    -0.201 C  
BRANCH   7   8
HETATM    8  C   UNL     1      -9.281   5.161  68.799  1.00  0.00    -0.152 C  
BRANCH   8   9
HETATM    9  C   UNL     1      -9.669   4.169  69.853  1.00  0.00    -0.280 C  
HETATM   10  C   UNL     1      -9.934   4.455  71.141  1.00  0.00    -0.243 C  
BRANCH  10  11
HETATM   11  C   UNL     1      -9.879   5.813  71.788  1.00  0.00    -0.200 C  
BRANCH  11  12
HETATM   12  C   UNL     1     -11.159   6.309  72.422  1.00  0.00    -0.307 C  
HETATM   13  C   UNL     1     -11.933   7.357  72.079  1.00  0.00    -0.333 C  
BRANCH  13  14
HETATM   14  C   UNL     1     -11.633   8.349  71.000  1.00  0.00    -0.307 C  
BRANCH  14  15
HETATM   15  C   UNL     1     -11.750   9.778  71.438  1.00  0.00    -0.475 C  
HETATM   16  C   UNL     1     -11.836  10.803  70.574  1.00  0.00    -0.453 C  
BRANCH  16  17
HETATM   17  C   UNL     1     -11.748  10.598  69.090  1.00  0.00    -0.324 C  
BRANCH  17  18
HETATM   18  C   UNL     1     -10.365  10.864  68.523  1.00  0.00    -0.203 C  
BRANCH  18  19
HETATM   19  C   UNL     1      -9.645   9.542  68.274  1.00  0.00    -0.151 C  
HETATM   20  C   UNL     1      -8.307   9.497  68.974  1.00  0.00    -0.126 C  
HETATM   21  O   UNL     1      -7.838  10.400  69.648  1.00  0.00    -0.156 OA 
HETATM   22  O   UNL     1      -7.669   8.325  68.773  1.00  0.00    -0.108 OA 
ENDBRANCH  18  19
ENDBRANCH  17  18
ENDBRANCH  16  17
ENDBRANCH  14  15
ENDBRANCH  13  14
ENDBRANCH  11  12
ENDBRANCH  10  11
ENDBRANCH   8   9
ENDBRANCH   7   8
ENDBRANCH   5   6
ENDBRANCH   4   5
ENDBRANCH   2   3
TORSDOF 12
ENDMDL
MODEL      412
REMARK 921   NORMALIZED FREE ENERGY PREDICTED BY IDOCK:   -2.24 KCAL/MOL
REMARK 922        TOTAL FREE ENERGY PREDICTED BY IDOCK:   -6.31 KCAL/MOL
REMARK 923 INTER-LIGAND FREE ENERGY PREDICTED BY IDOCK:   -5.61 KCAL/MOL
REMARK 924 INTRA-LIGAND FREE ENERGY PREDICTED BY IDOCK:   -0.70 KCAL/MOL
REMARK 927      BINDING AFFINITY PREDICTED BY RF-SCORE:    0.00 PKD
ROOT
HETATM    1  C   UNL     1     -11.027  15.361  65.438  1.00  0.00    -0.376 C  
HETATM    2  C   UNL     1     -11.140  13.870  65.167  1.00  0.00    -0.334 C  
ENDROOT
BRANCH   2   3
HETATM    3  C   UNL     1      -9.943  13.340  64.426  1.00  0.00    -0.040 C  
HETATM    4  C   UNL     1      -9.237  12.244  64.762  1.00  0.00     0.500 C  
BRANCH   4   5
HETATM    5  C   UNL     1      -9.564  11.353  65.924  1.00  0.00    -0.254 C  
BRANCH   5   6
HETATM    6  C   UNL     1      -9.845   9.933  65.518  1.00  0.00    -0.381 C  
HETATM    7  C   UNL     1      -9.111   8.870  65.878  1.00  0.00    -0.271 C  
BRANCH   7   8
HETATM    8  C   UNL     1      -7.968   8.958  66.843  1.00  0.00    -0.101 C  
BRANCH   8   9
HETATM    9  C   UNL     1      -8.053   7.918  67.919  1.00  0.00    -0.129 C  
HETATM   10  C   UNL     1      -9.047   7.795  68.817  1.00  0.00    -0.140 C  
BRANCH  10  11
HETATM   11  C   UNL     1     -10.260   8.679  68.939  1.00  0.00    -0.221 C  
BRANCH  11  12
HETATM   12  C   UNL     1     -10.267   9.657  70.091  1.00  0.00    -0.313 C  
HETATM   13  C   UNL     1     -11.013  10.765  70.268  1.00  0.00    -0.160 C  
BRANCH  13  14
HETATM   14  C   UNL     1     -11.979  11.335  69.277  1.00  0.00    -0.411 C  
BRANCH  14  15
HETATM   15  C   UNL     1     -11.548  12.649  68.695  1.00  0.00    -0.356 C  
HETATM   16  C   UNL     1     -11.506  13.785  69.410  1.00  0.00    -0.341 C  
BRANCH  16  17
HETATM   17  C   UNL     1     -11.960  13.841  70.839  1.00  0.00    -0.273 C  
BRANCH  17  18
HETATM   18  C   UNL     1     -13.363  14.399  71.008  1.00  0.00    -0.359 C  
BRANCH  18  19
HETATM   19  C   UNL     1     -13.451  15.193  72.308  1.00  0.00    -0.539 C  
HETATM   20  C   UNL     1     -12.282  16.136  72.463  1.00  0.00    -0.520 C  
HETATM   21  O   UNL     1     -11.366  16.254  71.666  1.00  0.00    -0.312 OA 
HETATM   22  O   UNL     1     -12.358  16.855  73.603  1.00  0.00    -0.278 OA 
ENDBRANCH  18  19
ENDBRANCH  17  18
ENDBRANCH  16  17
ENDBRANCH  14  15
ENDBRANCH  13  14
ENDBRANCH  11  12
ENDBRANCH  10  11
ENDBRANCH   8   9
ENDBRANCH   7   8
ENDBRANCH   5   6
ENDBRANCH   4   5
ENDBRANCH   2   3
TORSDOF 12
ENDMDL
MODEL      413
REMARK 921   NORMALIZED FREE ENERGY PREDICTED BY IDOCK:   -2.23 KCAL/MOL
REMARK 922        TOTAL FREE ENERGY PREDICTED BY IDOCK:   -6.30 KCAL/MOL
REMARK 923 INTER-LIGAND FREE ENERGY PREDICTED BY IDOCK:   -4.51 KCAL/MOL
REMARK 924 INTRA-LIGAND FREE ENERGY PREDICTED BY IDOCK:   -1.79 KCAL/MOL
REMARK 927      BINDING AFFINITY PREDICTED BY RF-SCORE:    0.00 PKD
ROOT
HETATM    1  C   UNL     1      -6.624   6.873  71.421  1.00  0.00    -0.045 C  
HETATM    2  C   UNL     1      -6.957   5.953  70.257  1.00  0.00    -0.062 C  
ENDROOT
BRANCH   2   3
HETATM    3  C   UNL     1      -6.585   4.524  70.546  1.00  0.00    -0.035 C  
HETATM    4  C   UNL     1      -7.406   3.592  71.066  1.00  0.00    -0.037 C  
BRANCH   4   5
HETATM    5  C   UNL     1      -8.846   3.833  71.408  1.00  0.00    -0.141 C  
BRANCH   5   6
HETATM    6  C   UNL     1      -9.037   4.417  72.782  1.00  0.00    -0.135 C  
HETATM    7  C   UNL     1     -10.025   5.251  73.134  1.00  0.00    -0.189 C  
BRANCH   7   8
HETATM    8  C   UNL     1     -11.149   5.618  72.213  1.00  0.00    -0.318 C  
BRANCH   8   9
HETATM    9  C   UNL     1     -10.657   6.088  70.877  1.00  0.00    -0.310 C  
HETATM   10  C   UNL     1     -10.474   7.371  70.514  1.00  0.00    -0.227 C  
BRANCH  10  11
HETATM   11  C   UNL     1     -10.740   8.589  71.359  1.00  0.00    -0.317 C  
BRANCH  11  12
HETATM   12  C   UNL     1     -12.014   9.348  71.063  1.00  0.00    -0.389 C  
HETATM   13  C   UNL     1     -12.219  10.378  70.219  1.00  0.00    -0.349 C  
BRANCH  13  14
HETATM   14  C   UNL     1     -11.164  11.076  69.419  1.00  0.00    -0.332 C  
BRANCH  14  15
HETATM   15  C   UNL     1     -11.321  10.918  67.936  1.00  0.00    -0.380 C  
HETATM   16  C   UNL     1     -10.472  10.198  67.185  1.00  0.00    -0.305 C  
BRANCH  16  17
HETATM   17  C   UNL     1      -9.249   9.551  67.767  1.00  0.00    -0.136 C  
BRANCH  17  18
HETATM   18  C   UNL     1      -8.401   8.824  66.738  1.00  0.00    -0.108 C  
BRANCH  18  19
HETATM   19  C   UNL     1      -9.044   8.944  65.360  1.00  0.00    -0.222 C  
HETATM   20  C   UNL     1      -8.260   9.868  64.459  1.00  0.00    -0.162 C  
HETATM   21  O   UNL     1      -7.243  10.462  64.778  1.00  0.00    -0.121 OA 
HETATM   22  O   UNL     1      -8.812   9.968  63.231  1.00  0.00    -0.193 OA 
ENDBRANCH  18  19
ENDBRANCH  17  18
ENDBRANCH  16  17
ENDBRANCH  14  15
ENDBRANCH  13  14
ENDBRANCH  11  12
ENDBRANCH  10  11
ENDBRANCH   8   9
ENDBRANCH   7   8
ENDBRANCH   5   6
ENDBRANCH   4   5
ENDBRANCH   2   3
TORSDOF 12
ENDMDL
MODEL      414
REMARK 921   NORMALIZED FREE ENERGY PREDICTED BY IDOCK:   -2.22 KCAL/MOL
REMARK 922        TOTAL FREE ENERGY PREDICTED BY IDOCK:   -6.28 KCAL/MOL
REMARK 923 INTER-LIGAND FREE ENERGY PREDICTED BY IDOCK:   -5.05 KCAL/MOL
REMARK 924 INTRA-LIGAND FREE ENERGY PREDICTED BY IDOCK:   -1.22 KCAL/MOL
REMARK 927      BINDING AFFINITY PREDICTED BY RF-SCORE:    0.00 PKD
ROOT
HETATM    1  C   UNL     1      -9.590   8.402  72.460  1.00  0.00    -0.358 C  
HETATM    2  C   UNL     1      -9.250   7.254  71.523  1.00  0.00    -0.150 C  
ENDROOT
BRANCH   2   3
HETATM    3  C   UNL     1     -10.472   6.709  70.835  1.00  0.00    -0.249 C  
HETATM    4  C   UNL     1     -10.869   7.018  69.587  1.00  0.00    -0.275 C  
BRANCH   4   5
HETATM    5  C   UNL     1     -10.123   7.940  68.668  1.00  0.00    -0.210 C  
BRANCH   5   6
HETATM    6  C   UNL     1     -11.028   8.734  67.766  1.00  0.00     0.063 C  
HETATM    7  C   UNL     1     -10.675   9.846  67.106  1.00  0.00    -0.276 C  
BRANCH   7   8
HETATM    8  C   UNL     1      -9.275  10.378  67.096  1.00  0.00    -0.159 C  
BRANCH   8   9
HETATM    9  C   UNL     1      -9.151  11.636  66.291  1.00  0.00    -0.219 C  
HETATM   10  C   UNL     1      -9.061  12.883  66.791  1.00  0.00    -0.211 C  
BRANCH  10  11
HETATM   11  C   UNL     1      -9.083  13.269  68.246  1.00  0.00    -0.184 C  
BRANCH  11  12
HETATM   12  C   UNL     1      -9.581  14.661  68.565  1.00  0.00    -0.221 C  
HETATM   13  C   UNL     1      -8.897  15.734  69.005  1.00  0.00    -0.236 C  
BRANCH  13  14
HETATM   14  C   UNL     1      -7.445  15.756  69.369  1.00  0.00    -0.216 C  
BRANCH  14  15
HETATM   15  C   UNL     1      -6.526  15.454  68.222  1.00  0.00    -0.120 C  
HETATM   16  C   UNL     1      -5.941  16.411  67.484  1.00  0.00    -0.183 C  
BRANCH  16  17
HETATM   17  C   UNL     1      -6.219  17.869  67.708  1.00  0.00    -0.169 C  
BRANCH  17  18
HETATM   18  C   UNL     1      -7.418  18.383  66.929  1.00  0.00    -0.232 C  
BRANCH  18  19
HETATM   19  C   UNL     1      -8.326  19.191  67.851  1.00  0.00    -0.333 C  
HETATM   20  C   UNL     1      -9.709  19.354  67.266  1.00  0.00    -0.334 C  
HETATM   21  O   UNL     1     -10.070  18.913  66.187  1.00  0.00    -0.385 OA 
HETATM   22  O   UNL     1     -10.525  20.055  68.081  1.00  0.00    -0.396 OA 
ENDBRANCH  18  19
ENDBRANCH  17  18
ENDBRANCH  16  17
ENDBRANCH  14  15
ENDBRANCH  13  14
ENDBRANCH  11  12
ENDBRANCH  10  11
ENDBRANCH   8   9
ENDBRANCH   7   8
ENDBRANCH   5   6
ENDBRANCH   4   5
ENDBRANCH   2   3
TORSDOF 12
ENDMDL
MODEL      415
REMARK 921   NORMALIZED FREE ENERGY PREDICTED BY IDOCK:   -2.20 KCAL/MOL
REMARK 922        TOTAL FREE ENERGY PREDICTED BY IDOCK:   -6.25 KCAL/MOL
REMARK 923 INTER-LIGAND FREE ENERGY PREDICTED BY IDOCK:   -6.06 KCAL/MOL
REMARK 924 INTRA-LIGAND FREE ENERGY PREDICTED BY IDOCK:   -0.18 KCAL/MOL
REMARK 927      BINDING AFFINITY PREDICTED BY RF-SCORE:    0.00 PKD
ROOT
HETATM    1  C   UNL     1      -6.402   9.811  62.924  1.00  0.00    -0.110 C  
HETATM    2  C   UNL     1      -7.780   9.660  63.547  1.00  0.00    -0.130 C  
ENDROOT
BRANCH   2   3
HETATM    3  C   UNL     1      -8.024   8.260  64.039  1.00  0.00    -0.147 C  
HETATM    4  C   UNL     1      -8.517   7.931  65.248  1.00  0.00    -0.119 C  
BRANCH   4   5
HETATM    5  C   UNL     1      -8.934   8.928  66.289  1.00  0.00    -0.207 C  
BRANCH   5   6
HETATM    6  C   UNL     1     -10.265   8.609  66.913  1.00  0.00    -0.367 C  
HETATM    7  C   UNL     1     -10.438   7.905  68.040  1.00  0.00    -0.245 C  
BRANCH   7   8
HETATM    8  C   UNL     1      -9.298   7.441  68.894  1.00  0.00    -0.145 C  
BRANCH   8   9
HETATM    9  C   UNL     1      -9.720   7.170  70.306  1.00  0.00    -0.175 C  
HETATM   10  C   UNL     1     -10.203   8.081  71.171  1.00  0.00    -0.225 C  
BRANCH  10  11
HETATM   11  C   UNL     1     -10.399   9.550  70.908  1.00  0.00    -0.372 C  
BRANCH  11  12
HETATM   12  C   UNL     1     -11.755  10.122  71.257  1.00  0.00    -0.426 C  
HETATM   13  C   UNL     1     -12.393  11.188  70.737  1.00  0.00    -0.504 C  
BRANCH  13  14
HETATM   14  C   UNL     1     -11.834  12.129  69.716  1.00  0.00    -0.397 C  
BRANCH  14  15
HETATM   15  C   UNL     1     -11.892  11.605  68.311  1.00  0.00    -0.335 C  
HETATM   16  C   UNL     1     -11.390  12.275  67.261  1.00  0.00    -0.392 C  
BRANCH  16  17
HETATM   17  C   UNL     1     -10.792  13.644  67.405  1.00  0.00    -0.282 C  
BRANCH  17  18
HETATM   18  C   UNL     1     -11.167  14.335  68.705  1.00  0.00    -0.287 C  
BRANCH  18  19
HETATM   19  C   UNL     1     -11.630  15.760  68.418  1.00  0.00    -0.343 C  
HETATM   20  C   UNL     1     -10.478  16.737  68.460  1.00  0.00    -0.335 C  
HETATM   21  O   UNL     1      -9.319  16.444  68.703  1.00  0.00    -0.215 OA 
HETATM   22  O   UNL     1     -10.874  17.999  68.193  1.00  0.00    -0.303 OA 
ENDBRANCH  18  19
ENDBRANCH  17  18
ENDBRANCH  16  17
ENDBRANCH  14  15
ENDBRANCH  13  14
ENDBRANCH  11  12
ENDBRANCH  10  11
ENDBRANCH   8   9
ENDBRANCH   7   8
ENDBRANCH   5   6
ENDBRANCH   4   5
ENDBRANCH   2   3
TORSDOF 12
ENDMDL
MODEL      416
REMARK 921   NORMALIZED FREE ENERGY PREDICTED BY IDOCK:   -2.17 KCAL/MOL
REMARK 922        TOTAL FREE ENERGY PREDICTED BY IDOCK:   -6.21 KCAL/MOL
REMARK 923 INTER-LIGAND FREE ENERGY PREDICTED BY IDOCK:   -4.60 KCAL/MOL
REMARK 924 INTRA-LIGAND FREE ENERGY PREDICTED BY IDOCK:   -1.61 KCAL/MOL
REMARK 927      BINDING AFFINITY PREDICTED BY RF-SCORE:    0.00 PKD
ROOT
HETATM    1  C   UNL     1      -6.699   2.460  64.342  1.00  0.00    -0.031 C  
HETATM    2  C   UNL     1      -7.648   2.329  65.523  1.00  0.00    -0.072 C  
ENDROOT
BRANCH   2   3
HETATM    3  C   UNL     1      -9.039   2.786  65.179  1.00  0.00    -0.144 C  
HETATM    4  C   UNL     1      -9.566   3.987  65.484  1.00  0.00    -0.189 C  
BRANCH   4   5
HETATM    5  C   UNL     1      -8.821   5.079  66.193  1.00  0.00    -0.125 C  
BRANCH   5   6
HETATM    6  C   UNL     1      -9.651   5.782  67.232  1.00  0.00    -0.122 C  
HETATM    7  C   UNL     1      -9.874   5.332  68.474  1.00  0.00    -0.210 C  
BRANCH   7   8
HETATM    8  C   UNL     1      -9.214   4.106  69.027  1.00  0.00    -0.213 C  
BRANCH   8   9
HETATM    9  C   UNL     1      -8.163   4.436  70.044  1.00  0.00    -0.068 C  
HETATM   10  C   UNL     1      -8.323   4.398  71.380  1.00  0.00    -0.096 C  
BRANCH  10  11
HETATM   11  C   UNL     1      -9.581   4.037  72.123  1.00  0.00    -0.210 C  
BRANCH  11  12
HETATM   12  C   UNL     1     -10.783   4.923  71.882  1.00  0.00    -0.128 C  
HETATM   13  C   UNL     1     -10.939   6.238  72.128  1.00  0.00    -0.298 C  
BRANCH  13  14
HETATM   14  C   UNL     1      -9.939   7.126  72.799  1.00  0.00    -0.219 C  
BRANCH  14  15
HETATM   15  C   UNL     1      -8.972   7.776  71.855  1.00  0.00    -0.164 C  
HETATM   16  C   UNL     1      -9.282   8.857  71.121  1.00  0.00    -0.324 C  
BRANCH  16  17
HETATM   17  C   UNL     1     -10.656   9.460  71.138  1.00  0.00    -0.403 C  
BRANCH  17  18
HETATM   18  C   UNL     1     -10.809  10.644  70.198  1.00  0.00    -0.224 C  
BRANCH  18  19
HETATM   19  C   UNL     1     -10.098  10.353  68.880  1.00  0.00    -0.213 C  
HETATM   20  C   UNL     1     -10.950  10.736  67.692  1.00  0.00    -0.306 C  
HETATM   21  O   UNL     1     -12.073  11.209  67.759  1.00  0.00    -0.606 OA 
HETATM   22  O   UNL     1     -10.324  10.497  66.521  1.00  0.00    -0.233 OA 
ENDBRANCH  18  19
ENDBRANCH  17  18
ENDBRANCH  16  17
ENDBRANCH  14  15
ENDBRANCH  13  14
ENDBRANCH  11  12
ENDBRANCH  10  11
ENDBRANCH   8   9
ENDBRANCH   7   8
ENDBRANCH   5   6
ENDBRANCH   4   5
ENDBRANCH   2   3
TORSDOF 12
ENDMDL
MODEL      417
REMARK 921   NORMALIZED FREE ENERGY PREDICTED BY IDOCK:   -2.16 KCAL/MOL
REMARK 922        TOTAL FREE ENERGY PREDICTED BY IDOCK:   -6.19 KCAL/MOL
REMARK 923 INTER-LIGAND FREE ENERGY PREDICTED BY IDOCK:   -5.17 KCAL/MOL
REMARK 924 INTRA-LIGAND FREE ENERGY PREDICTED BY IDOCK:   -1.02 KCAL/MOL
REMARK 927      BINDING AFFINITY PREDICTED BY RF-SCORE:    0.00 PKD
ROOT
HETATM    1  C   UNL     1     -12.031  13.682  63.417  1.00  0.00    -0.202 C  
HETATM    2  C   UNL     1     -12.837  12.977  64.496  1.00  0.00    -0.225 C  
ENDROOT
BRANCH   2   3
HETATM    3  C   UNL     1     -12.304  13.264  65.873  1.00  0.00    -0.479 C  
HETATM    4  C   UNL     1     -11.450  12.483  66.560  1.00  0.00    -0.418 C  
BRANCH   4   5
HETATM    5  C   UNL     1     -10.865  11.205  66.032  1.00  0.00    -0.230 C  
BRANCH   5   6
HETATM    6  C   UNL     1      -9.636  11.421  65.193  1.00  0.00    -0.258 C  
HETATM    7  C   UNL     1      -8.374  11.294  65.628  1.00  0.00     0.080 C  
BRANCH   7   8
HETATM    8  C   UNL     1      -8.031  10.798  67.000  1.00  0.00    -0.124 C  
BRANCH   8   9
HETATM    9  C   UNL     1      -8.388  11.788  68.067  1.00  0.00    -0.154 C  
HETATM   10  C   UNL     1      -7.571  12.736  68.564  1.00  0.00    -0.120 C  
BRANCH  10  11
HETATM   11  C   UNL     1      -6.140  12.984  68.169  1.00  0.00    -0.099 C  
BRANCH  11  12
HETATM   12  C   UNL     1      -5.301  13.779  69.143  1.00  0.00    -0.077 C  
HETATM   13  C   UNL     1      -5.417  15.066  69.520  1.00  0.00    -0.093 C  
BRANCH  13  14
HETATM   14  C   UNL     1      -6.396  16.054  68.967  1.00  0.00    -0.140 C  
BRANCH  14  15
HETATM   15  C   UNL     1      -6.473  17.334  69.745  1.00  0.00    -0.077 C  
HETATM   16  C   UNL     1      -6.875  18.495  69.202  1.00  0.00    -0.268 C  
BRANCH  16  17
HETATM   17  C   UNL     1      -7.214  18.615  67.745  1.00  0.00    -0.239 C  
BRANCH  17  18
HETATM   18  C   UNL     1      -8.052  19.839  67.418  1.00  0.00    -0.332 C  
BRANCH  18  19
HETATM   19  C   UNL     1      -8.848  19.593  66.139  1.00  0.00    -0.367 C  
HETATM   20  C   UNL     1     -10.331  19.517  66.414  1.00  0.00    -0.496 C  
HETATM   21  O   UNL     1     -10.847  19.623  67.514  1.00  0.00    -0.452 OA 
HETATM   22  O   UNL     1     -11.046  19.315  65.287  1.00  0.00    -0.397 OA 
ENDBRANCH  18  19
ENDBRANCH  17  18
ENDBRANCH  16  17
ENDBRANCH  14  15
ENDBRANCH  13  14
ENDBRANCH  11  12
ENDBRANCH  10  11
ENDBRANCH   8   9
ENDBRANCH   7   8
ENDBRANCH   5   6
ENDBRANCH   4   5
ENDBRANCH   2   3
TORSDOF 12
ENDMDL
MODEL      418
REMARK 921   NORMALIZED FREE ENERGY PREDICTED BY IDOCK:   -2.14 KCAL/MOL
REMARK 922        TOTAL FREE ENERGY PREDICTED BY IDOCK:   -6.15 KCAL/MOL
REMARK 923 INTER-LIGAND FREE ENERGY PREDICTED BY IDOCK:   -4.30 KCAL/MOL
REMARK 924 INTRA-LIGAND FREE ENERGY PREDICTED BY IDOCK:   -1.84 KCAL/MOL
REMARK 927      BINDING AFFINITY PREDICTED BY RF-SCORE:    0.00 PKD
ROOT
HETATM    1  C   UNL     1     -13.980   9.464  72.529  1.00  0.00    -0.315 C  
HETATM    2  C   UNL     1     -13.194   8.916  71.349  1.00  0.00    -0.309 C  
ENDROOT
BRANCH   2   3
HETATM    3  C   UNL     1     -12.149   9.885  70.870  1.00  0.00    -0.431 C  
HETATM    4  C   UNL     1     -10.832   9.812  71.140  1.00  0.00    -0.333 C  
BRANCH   4   5
HETATM    5  C   UNL     1     -10.195   8.717  71.944  1.00  0.00    -0.415 C  
BRANCH   5   6
HETATM    6  C   UNL     1     -10.723   7.351  71.602  1.00  0.00    -0.239 C  
HETATM    7  C   UNL     1     -10.516   6.242  72.326  1.00  0.00    -0.227 C  
BRANCH   7   8
HETATM    8  C   UNL     1      -9.818   6.253  73.652  1.00  0.00    -0.200 C  
BRANCH   8   9
HETATM    9  C   UNL     1      -8.772   5.184  73.751  1.00  0.00    -0.116 C  
HETATM   10  C   UNL     1      -7.669   5.091  72.986  1.00  0.00    -0.097 C  
BRANCH  10  11
HETATM   11  C   UNL     1      -7.270   6.019  71.870  1.00  0.00    -0.092 C  
BRANCH  11  12
HETATM   12  C   UNL     1      -7.503   5.520  70.463  1.00  0.00    -0.080 C  
HETATM   13  C   UNL     1      -7.354   6.166  69.290  1.00  0.00    -0.088 C  
BRANCH  13  14
HETATM   14  C   UNL     1      -6.988   7.608  69.127  1.00  0.00    -0.068 C  
BRANCH  14  15
HETATM   15  C   UNL     1      -8.155   8.545  69.219  1.00  0.00    -0.113 C  
HETATM   16  C   UNL     1      -8.804   9.011  68.138  1.00  0.00    -0.133 C  
BRANCH  16  17
HETATM   17  C   UNL     1      -8.361   8.680  66.743  1.00  0.00    -0.108 C  
BRANCH  17  18
HETATM   18  C   UNL     1      -9.383   7.878  65.958  1.00  0.00    -0.129 C  
BRANCH  18  19
HETATM   19  C   UNL     1      -9.006   6.399  65.977  1.00  0.00    -0.143 C  
HETATM   20  C   UNL     1      -9.965   5.591  66.819  1.00  0.00    -0.183 C  
HETATM   21  O   UNL     1     -10.921   6.047  67.425  1.00  0.00    -0.308 OA 
HETATM   22  O   UNL     1      -9.649   4.280  66.830  1.00  0.00    -0.176 OA 
ENDBRANCH  18  19
ENDBRANCH  17  18
ENDBRANCH  16  17
ENDBRANCH  14  15
ENDBRANCH  13  14
ENDBRANCH  11  12
ENDBRANCH  10  11
ENDBRANCH   8   9
ENDBRANCH   7   8
ENDBRANCH   5   6
ENDBRANCH   4   5
ENDBRANCH   2   3
TORSDOF 12
ENDMDL
MODEL      419
REMARK 921   NORMALIZED FREE ENERGY PREDICTED BY IDOCK:   -2.13 KCAL/MOL
REMARK 922        TOTAL FREE ENERGY PREDICTED BY IDOCK:   -6.13 KCAL/MOL
REMARK 923 INTER-LIGAND FREE ENERGY PREDICTED BY IDOCK:   -4.31 KCAL/MOL
REMARK 924 INTRA-LIGAND FREE ENERGY PREDICTED BY IDOCK:   -1.82 KCAL/MOL
REMARK 927      BINDING AFFINITY PREDICTED BY RF-SCORE:    0.00 PKD
ROOT
HETATM    1  C   UNL     1     -10.345  10.666  66.210  1.00  0.00    -0.296 C  
HETATM    2  C   UNL     1     -10.739  12.100  66.528  1.00  0.00    -0.290 C  
ENDROOT
BRANCH   2   3
HETATM    3  C   UNL     1     -11.346  12.224  67.899  1.00  0.00    -0.356 C  
HETATM    4  C   UNL     1     -11.022  13.155  68.816  1.00  0.00    -0.298 C  
BRANCH   4   5
HETATM    5  C   UNL     1     -10.015  14.245  68.592  1.00  0.00    -0.234 C  
BRANCH   5   6
HETATM    6  C   UNL     1     -10.393  15.177  67.473  1.00  0.00    -0.242 C  
HETATM    7  C   UNL     1     -10.150  16.496  67.454  1.00  0.00    -0.279 C  
BRANCH   7   8
HETATM    8  C   UNL     1      -9.352  17.193  68.513  1.00  0.00    -0.274 C  
BRANCH   8   9
HETATM    9  C   UNL     1      -8.581  18.356  67.969  1.00  0.00    -0.287 C  
HETATM   10  C   UNL     1      -7.241  18.426  67.855  1.00  0.00    -0.235 C  
BRANCH  10  11
HETATM   11  C   UNL     1      -6.250  17.370  68.263  1.00  0.00    -0.162 C  
BRANCH  11  12
HETATM   12  C   UNL     1      -6.119  17.106  69.746  1.00  0.00    -0.229 C  
HETATM   13  C   UNL     1      -5.839  15.955  70.388  1.00  0.00    -0.071 C  
BRANCH  13  14
HETATM   14  C   UNL     1      -5.674  14.614  69.746  1.00  0.00    -0.104 C  
BRANCH  14  15
HETATM   15  C   UNL     1      -5.850  13.462  70.691  1.00  0.00    -0.159 C  
HETATM   16  C   UNL     1      -6.103  12.210  70.276  1.00  0.00    -0.080 C  
BRANCH  16  17
HETATM   17  C   UNL     1      -6.302  11.879  68.826  1.00  0.00    -0.063 C  
BRANCH  17  18
HETATM   18  C   UNL     1      -7.672  11.298  68.520  1.00  0.00    -0.131 C  
BRANCH  18  19
HETATM   19  C   UNL     1      -8.038  10.254  69.570  1.00  0.00    -0.170 C  
HETATM   20  C   UNL     1      -8.131   8.871  68.970  1.00  0.00    -0.115 C  
HETATM   21  O   UNL     1      -7.951   8.604  67.793  1.00  0.00    -0.105 OA 
HETATM   22  O   UNL     1      -8.439   7.937  69.894  1.00  0.00    -0.125 OA 
ENDBRANCH  18  19
ENDBRANCH  17  18
ENDBRANCH  16  17
ENDBRANCH  14  15
ENDBRANCH  13  14
ENDBRANCH  11  12
ENDBRANCH  10  11
ENDBRANCH   8   9
ENDBRANCH   7   8
ENDBRANCH   5   6
ENDBRANCH   4   5
ENDBRANCH   2   3
TORSDOF 12
ENDMDL
MODEL      420
REMARK 921   NORMALIZED FREE ENERGY PREDICTED BY IDOCK:   -2.11 KCAL/MOL
REMARK 922        TOTAL FREE ENERGY PREDICTED BY IDOCK:   -6.10 KCAL/MOL
REMARK 923 INTER-LIGAND FREE ENERGY PREDICTED BY IDOCK:   -4.72 KCAL/MOL
REMARK 924 INTRA-LIGAND FREE ENERGY PREDICTED BY IDOCK:   -1.37 KCAL/MOL
REMARK 927      BINDING AFFINITY PREDICTED BY RF-SCORE:    0.00 PKD
ROOT
HETATM    1  C   UNL     1      -9.687   5.429  66.404  1.00  0.00    -0.183 C  
HETATM    2  C   UNL     1      -8.205   5.764  66.463  1.00  0.00    -0.106 C  
ENDROOT
BRANCH   2   3
HETATM    3  C   UNL     1      -7.367   4.554  66.771  1.00  0.00    -0.081 C  
HETATM    4  C   UNL     1      -7.546   3.725  67.817  1.00  0.00    -0.067 C  
BRANCH   4   5
HETATM    5  C   UNL     1      -8.646   3.867  68.828  1.00  0.00    -0.117 C  
BRANCH   5   6
HETATM    6  C   UNL     1      -8.282   4.770  69.974  1.00  0.00    -0.068 C  
HETATM    7  C   UNL     1      -9.160   5.379  70.784  1.00  0.00    -0.168 C  
BRANCH   7   8
HETATM    8  C   UNL     1     -10.637   5.135  70.715  1.00  0.00    -0.205 C  
BRANCH   8   9
HETATM    9  C   UNL     1     -11.312   6.021  69.713  1.00  0.00    -0.344 C  
HETATM   10  C   UNL     1     -12.001   7.143  69.994  1.00  0.00     0.041 C  
BRANCH  10  11
HETATM   11  C   UNL     1     -12.250   7.724  71.360  1.00  0.00    -0.343 C  
BRANCH  11  12
HETATM   12  C   UNL     1     -11.027   8.067  72.179  1.00  0.00    -0.357 C  
HETATM   13  C   UNL     1      -9.960   8.819  71.849  1.00  0.00    -0.401 C  
BRANCH  13  14
HETATM   14  C   UNL     1      -9.706   9.437  70.509  1.00  0.00    -0.331 C  
BRANCH  14  15
HETATM   15  C   UNL     1      -8.780   8.641  69.639  1.00  0.00    -0.132 C  
HETATM   16  C   UNL     1      -8.608   8.894  68.331  1.00  0.00    -0.134 C  
BRANCH  16  17
HETATM   17  C   UNL     1      -9.392   9.958  67.620  1.00  0.00    -0.156 C  
BRANCH  17  18
HETATM   18  C   UNL     1     -10.021   9.480  66.322  1.00  0.00    -0.344 C  
BRANCH  18  19
HETATM   19  C   UNL     1      -9.994  10.603  65.290  1.00  0.00    -0.356 C  
HETATM   20  C   UNL     1     -10.759  11.815  65.767  1.00  0.00    -0.280 C  
HETATM   21  O   UNL     1     -11.342  11.900  66.836  1.00  0.00    -0.306 OA 
HETATM   22  O   UNL     1     -10.728  12.821  64.868  1.00  0.00    -0.283 OA 
ENDBRANCH  18  19
ENDBRANCH  17  18
ENDBRANCH  16  17
ENDBRANCH  14  15
ENDBRANCH  13  14
ENDBRANCH  11  12
ENDBRANCH  10  11
ENDBRANCH   8   9
ENDBRANCH   7   8
ENDBRANCH   5   6
ENDBRANCH   4   5
ENDBRANCH   2   3
TORSDOF 12
ENDMDL
MODEL      421
REMARK 921   NORMALIZED FREE ENERGY PREDICTED BY IDOCK:   -2.09 KCAL/MOL
REMARK 922        TOTAL FREE ENERGY PREDICTED BY IDOCK:   -6.05 KCAL/MOL
REMARK 923 INTER-LIGAND FREE ENERGY PREDICTED BY IDOCK:   -3.76 KCAL/MOL
REMARK 924 INTRA-LIGAND FREE ENERGY PREDICTED BY IDOCK:   -2.29 KCAL/MOL
REMARK 927      BINDING AFFINITY PREDICTED BY RF-SCORE:    0.00 PKD
ROOT
HETATM    1  C   UNL     1      -9.027   9.273  70.360  1.00  0.00    -0.278 C  
HETATM    2  C   UNL     1      -9.306   7.793  70.156  1.00  0.00    -0.153 C  
ENDROOT
BRANCH   2   3
HETATM    3  C   UNL     1     -10.686   7.551  69.609  1.00  0.00    -0.236 C  
HETATM    4  C   UNL     1     -11.004   6.651  68.659  1.00  0.00    -0.317 C  
BRANCH   4   5
HETATM    5  C   UNL     1     -10.020   5.716  68.019  1.00  0.00    -0.178 C  
BRANCH   5   6
HETATM    6  C   UNL     1     -10.446   5.257  66.652  1.00  0.00    -0.345 C  
HETATM    7  C   UNL     1      -9.624   4.767  65.713  1.00  0.00    -0.187 C  
BRANCH   7   8
HETATM    8  C   UNL     1      -8.170   4.504  65.961  1.00  0.00    -0.110 C  
BRANCH   8   9
HETATM    9  C   UNL     1      -7.371   4.494  64.693  1.00  0.00    -0.071 C  
HETATM   10  C   UNL     1      -6.789   5.565  64.123  1.00  0.00    -0.047 C  
BRANCH  10  11
HETATM   11  C   UNL     1      -6.835   6.984  64.623  1.00  0.00    -0.050 C  
BRANCH  11  12
HETATM   12  C   UNL     1      -7.764   7.926  63.892  1.00  0.00    -0.138 C  
HETATM   13  C   UNL     1      -8.760   8.692  64.376  1.00  0.00    -0.006 C  
BRANCH  13  14
HETATM   14  C   UNL     1      -9.237   8.712  65.794  1.00  0.00    -0.245 C  
BRANCH  14  15
HETATM   15  C   UNL     1      -8.178   9.091  66.787  1.00  0.00    -0.115 C  
HETATM   16  C   UNL     1      -7.887  10.366  67.093  1.00  0.00    -0.110 C  
BRANCH  16  17
HETATM   17  C   UNL     1      -8.557  11.520  66.407  1.00  0.00    -0.159 C  
BRANCH  17  18
HETATM   18  C   UNL     1      -9.534  12.269  67.297  1.00  0.00    -0.186 C  
BRANCH  18  19
HETATM   19  C   UNL     1      -9.714  13.694  66.782  1.00  0.00    -0.275 C  
HETATM   20  C   UNL     1      -9.444  14.714  67.864  1.00  0.00    -0.210 C  
HETATM   21  O   UNL     1      -9.131  14.450  69.013  1.00  0.00    -0.123 OA 
HETATM   22  O   UNL     1      -9.585  15.978  67.415  1.00  0.00    -0.223 OA 
ENDBRANCH  18  19
ENDBRANCH  17  18
ENDBRANCH  16  17
ENDBRANCH  14  15
ENDBRANCH  13  14
ENDBRANCH  11  12
ENDBRANCH  10  11
ENDBRANCH   8   9
ENDBRANCH   7   8
ENDBRANCH   5   6
ENDBRANCH   4   5
ENDBRANCH   2   3
TORSDOF 12
ENDMDL
MODEL      422
REMARK 921   NORMALIZED FREE ENERGY PREDICTED BY IDOCK:   -2.02 KCAL/MOL
REMARK 922        TOTAL FREE ENERGY PREDICTED BY IDOCK:   -5.93 KCAL/MOL
REMARK 923 INTER-LIGAND FREE ENERGY PREDICTED BY IDOCK:   -4.96 KCAL/MOL
REMARK 924 INTRA-LIGAND FREE ENERGY PREDICTED BY IDOCK:   -0.97 KCAL/MOL
REMARK 927      BINDING AFFINITY PREDICTED BY RF-SCORE:    0.00 PKD
ROOT
HETATM    1  C   UNL     1     -11.743  13.016  63.399  1.00  0.00    -0.477 C  
HETATM    2  C   UNL     1     -12.551  12.285  64.459  1.00  0.00    -0.416 C  
ENDROOT
BRANCH   2   3
HETATM    3  C   UNL     1     -12.076  12.605  65.849  1.00  0.00    -0.459 C  
HETATM    4  C   UNL     1     -11.190  11.881  66.558  1.00  0.00    -0.383 C  
BRANCH   4   5
HETATM    5  C   UNL     1     -10.508  10.646  66.047  1.00  0.00    -0.250 C  
BRANCH   5   6
HETATM    6  C   UNL     1      -9.199  10.934  65.364  1.00  0.00    -0.231 C  
HETATM    7  C   UNL     1      -7.995  10.549  65.811  1.00  0.00    -0.158 C  
BRANCH   7   8
HETATM    8  C   UNL     1      -7.815   9.667  67.009  1.00  0.00    -0.098 C  
BRANCH   8   9
HETATM    9  C   UNL     1      -8.247  10.337  68.277  1.00  0.00    -0.115 C  
HETATM   10  C   UNL     1      -7.433  10.928  69.171  1.00  0.00    -0.130 C  
BRANCH  10  11
HETATM   11  C   UNL     1      -5.933  11.022  69.092  1.00  0.00    -0.043 C  
BRANCH  11  12
HETATM   12  C   UNL     1      -5.216  11.428  70.360  1.00  0.00    -0.102 C  
HETATM   13  C   UNL     1      -5.203  12.618  70.991  1.00  0.00    -0.165 C  
BRANCH  13  14
HETATM   14  C   UNL     1      -5.859  13.872  70.505  1.00  0.00    -0.178 C  
BRANCH  14  15
HETATM   15  C   UNL     1      -5.277  15.127  71.087  1.00  0.00    -0.126 C  
HETATM   16  C   UNL     1      -5.263  16.298  70.430  1.00  0.00    -0.188 C  
BRANCH  16  17
HETATM   17  C   UNL     1      -5.770  16.425  69.023  1.00  0.00    -0.130 C  
BRANCH  17  18
HETATM   18  C   UNL     1      -6.084  17.855  68.620  1.00  0.00    -0.197 C  
BRANCH  18  19
HETATM   19  C   UNL     1      -7.394  17.897  67.839  1.00  0.00    -0.222 C  
HETATM   20  C   UNL     1      -7.252  18.684  66.557  1.00  0.00    -0.228 C  
HETATM   21  O   UNL     1      -6.229  19.234  66.182  1.00  0.00    -0.170 OA 
HETATM   22  O   UNL     1      -8.401  18.714  65.850  1.00  0.00    -0.494 OA 
ENDBRANCH  18  19
ENDBRANCH  17  18
ENDBRANCH  16  17
ENDBRANCH  14  15
ENDBRANCH  13  14
ENDBRANCH  11  12
ENDBRANCH  10  11
ENDBRANCH   8   9
ENDBRANCH   7   8
ENDBRANCH   5   6
ENDBRANCH   4   5
ENDBRANCH   2   3
TORSDOF 12
ENDMDL
MODEL      423
REMARK 921   NORMALIZED FREE ENERGY PREDICTED BY IDOCK:   -2.01 KCAL/MOL
REMARK 922        TOTAL FREE ENERGY PREDICTED BY IDOCK:   -5.93 KCAL/MOL
REMARK 923 INTER-LIGAND FREE ENERGY PREDICTED BY IDOCK:   -4.96 KCAL/MOL
REMARK 924 INTRA-LIGAND FREE ENERGY PREDICTED BY IDOCK:   -0.97 KCAL/MOL
REMARK 927      BINDING AFFINITY PREDICTED BY RF-SCORE:    0.00 PKD
ROOT
HETATM    1  C   UNL     1      -7.110  20.498  67.087  1.00  0.00    -0.359 C  
HETATM    2  C   UNL     1      -8.513  20.280  67.631  1.00  0.00    -0.327 C  
ENDROOT
BRANCH   2   3
HETATM    3  C   UNL     1      -9.552  20.335  66.545  1.00  0.00    -0.491 C  
HETATM    4  C   UNL     1     -10.161  19.270  65.991  1.00  0.00    -0.512 C  
BRANCH   4   5
HETATM    5  C   UNL     1      -9.916  17.848  66.403  1.00  0.00    -0.358 C  
BRANCH   5   6
HETATM    6  C   UNL     1      -8.555  17.345  66.007  1.00  0.00    -0.108 C  
HETATM    7  C   UNL     1      -7.928  16.299  66.563  1.00  0.00    -0.326 C  
BRANCH   7   8
HETATM    8  C   UNL     1      -8.571  15.415  67.589  1.00  0.00    -0.176 C  
BRANCH   8   9
HETATM    9  C   UNL     1      -8.184  13.977  67.421  1.00  0.00    -0.203 C  
HETATM   10  C   UNL     1      -8.915  13.034  66.798  1.00  0.00    -0.179 C  
BRANCH  10  11
HETATM   11  C   UNL     1     -10.267  13.222  66.164  1.00  0.00    -0.296 C  
BRANCH  11  12
HETATM   12  C   UNL     1     -10.847  12.024  65.447  1.00  0.00    -0.336 C  
HETATM   13  C   UNL     1     -10.377  10.764  65.370  1.00  0.00    -0.315 C  
BRANCH  13  14
HETATM   14  C   UNL     1      -9.079  10.279  65.934  1.00  0.00    -0.194 C  
BRANCH  14  15
HETATM   15  C   UNL     1      -9.224   9.149  66.910  1.00  0.00    -0.183 C  
HETATM   16  C   UNL     1      -8.486   9.050  68.028  1.00  0.00    -0.125 C  
BRANCH  16  17
HETATM   17  C   UNL     1      -7.400  10.034  68.351  1.00  0.00    -0.077 C  
BRANCH  17  18
HETATM   18  C   UNL     1      -7.536  10.654  69.731  1.00  0.00    -0.088 C  
BRANCH  18  19
HETATM   19  C   UNL     1      -6.249  10.443  70.522  1.00  0.00    -0.113 C  
HETATM   20  C   UNL     1      -6.319   9.201  71.378  1.00  0.00    -0.077 C  
HETATM   21  O   UNL     1      -7.281   8.453  71.451  1.00  0.00    -0.069 OA 
HETATM   22  O   UNL     1      -5.179   8.996  72.071  1.00  0.00    -0.042 OA 
ENDBRANCH  18  19
ENDBRANCH  17  18
ENDBRANCH  16  17
ENDBRANCH  14  15
ENDBRANCH  13  14
ENDBRANCH  11  12
ENDBRANCH  10  11
ENDBRANCH   8   9
ENDBRANCH   7   8
ENDBRANCH   5   6
ENDBRANCH   4   5
ENDBRANCH   2   3
TORSDOF 12
ENDMDL
MODEL      424
REMARK 921   NORMALIZED FREE ENERGY PREDICTED BY IDOCK:   -1.97 KCAL/MOL
REMARK 922        TOTAL FREE ENERGY PREDICTED BY IDOCK:   -5.87 KCAL/MOL
REMARK 923 INTER-LIGAND FREE ENERGY PREDICTED BY IDOCK:   -5.20 KCAL/MOL
REMARK 924 INTRA-LIGAND FREE ENERGY PREDICTED BY IDOCK:   -0.67 KCAL/MOL
REMARK 927      BINDING AFFINITY PREDICTED BY RF-SCORE:    0.00 PKD
ROOT
HETATM    1  C   UNL     1      -7.250   8.806  62.948  1.00  0.00    -0.093 C  
HETATM    2  C   UNL     1      -7.842   8.098  64.156  1.00  0.00    -0.142 C  
ENDROOT
BRANCH   2   3
HETATM    3  C   UNL     1      -7.037   8.344  65.403  1.00  0.00    -0.081 C  
HETATM    4  C   UNL     1      -6.930   9.523  66.044  1.00  0.00    -0.091 C  
BRANCH   4   5
HETATM    5  C   UNL     1      -7.636  10.779  65.625  1.00  0.00    -0.044 C  
BRANCH   5   6
HETATM    6  C   UNL     1      -9.134  10.647  65.639  1.00  0.00    -0.206 C  
HETATM    7  C   UNL     1      -9.968  11.409  66.360  1.00  0.00    -0.247 C  
BRANCH   7   8
HETATM    8  C   UNL     1      -9.506  12.584  67.167  1.00  0.00    -0.208 C  
BRANCH   8   9
HETATM    9  C   UNL     1      -9.423  13.836  66.349  1.00  0.00    -0.259 C  
HETATM   10  C   UNL     1     -10.037  15.001  66.630  1.00  0.00    -0.267 C  
BRANCH  10  11
HETATM   11  C   UNL     1     -10.940  15.278  67.802  1.00  0.00    -0.312 C  
BRANCH  11  12
HETATM   12  C   UNL     1     -10.362  16.128  68.911  1.00  0.00    -0.250 C  
HETATM   13  C   UNL     1     -10.845  16.366  70.146  1.00  0.00    -0.265 C  
BRANCH  13  14
HETATM   14  C   UNL     1     -12.158  15.885  70.678  1.00  0.00    -0.367 C  
BRANCH  14  15
HETATM   15  C   UNL     1     -12.314  16.060  72.160  1.00  0.00    -0.557 C  
HETATM   16  C   UNL     1     -12.880  15.133  72.949  1.00  0.00    -0.535 C  
BRANCH  16  17
HETATM   17  C   UNL     1     -13.469  13.869  72.393  1.00  0.00    -0.661 C  
BRANCH  17  18
HETATM   18  C   UNL     1     -12.444  12.771  72.171  1.00  0.00     0.354 C  
BRANCH  18  19
HETATM   19  C   UNL     1     -12.953  11.795  71.114  1.00  0.00    -0.282 C  
HETATM   20  C   UNL     1     -12.179  11.921  69.822  1.00  0.00    -0.174 C  
HETATM   21  O   UNL     1     -11.266  12.707  69.626  1.00  0.00    -0.145 OA 
HETATM   22  O   UNL     1     -12.611  11.052  68.885  1.00  0.00    -0.366 OA 
ENDBRANCH  18  19
ENDBRANCH  17  18
ENDBRANCH  16  17
ENDBRANCH  14  15
ENDBRANCH  13  14
ENDBRANCH  11  12
ENDBRANCH  10  11
ENDBRANCH   8   9
ENDBRANCH   7   8
ENDBRANCH   5   6
ENDBRANCH   4   5
ENDBRANCH   2   3
TORSDOF 12
ENDMDL
MODEL      425
REMARK 921   NORMALIZED FREE ENERGY PREDICTED BY IDOCK:   -1.84 KCAL/MOL
REMARK 922        TOTAL FREE ENERGY PREDICTED BY IDOCK:   -5.63 KCAL/MOL
REMARK 923 INTER-LIGAND FREE ENERGY PREDICTED BY IDOCK:   -4.81 KCAL/MOL
REMARK 924 INTRA-LIGAND FREE ENERGY PREDICTED BY IDOCK:   -0.82 KCAL/MOL
REMARK 927      BINDING AFFINITY PREDICTED BY RF-SCORE:    0.00 PKD
ROOT
HETATM    1  C   UNL     1      -8.511  18.112  66.350  1.00  0.00    -0.263 C  
HETATM    2  C   UNL     1      -8.691  16.620  66.581  1.00  0.00    -0.280 C  
ENDROOT
BRANCH   2   3
HETATM    3  C   UNL     1      -8.603  16.262  68.039  1.00  0.00    -0.176 C  
HETATM    4  C   UNL     1      -7.871  15.256  68.554  1.00  0.00    -0.134 C  
BRANCH   4   5
HETATM    5  C   UNL     1      -6.993  14.350  67.742  1.00  0.00    -0.191 C  
BRANCH   5   6
HETATM    6  C   UNL     1      -7.071  12.911  68.174  1.00  0.00    -0.108 C  
HETATM    7  C   UNL     1      -7.955  12.015  67.712  1.00  0.00    -0.147 C  
BRANCH   7   8
HETATM    8  C   UNL     1      -8.917  12.316  66.604  1.00  0.00    -0.189 C  
BRANCH   8   9
HETATM    9  C   UNL     1     -10.241  12.795  67.116  1.00  0.00    -0.235 C  
HETATM   10  C   UNL     1     -10.799  12.454  68.292  1.00  0.00    -0.264 C  
BRANCH  10  11
HETATM   11  C   UNL     1     -10.223  11.517  69.319  1.00  0.00     0.049 C  
BRANCH  11  12
HETATM   12  C   UNL     1     -10.454  10.040  69.088  1.00  0.00    -0.238 C  
HETATM   13  C   UNL     1     -11.192   9.169  69.801  1.00  0.00    -0.073 C  
BRANCH  13  14
HETATM   14  C   UNL     1     -11.907   9.470  71.081  1.00  0.00    -0.436 C  
BRANCH  14  15
HETATM   15  C   UNL     1     -11.309   8.803  72.283  1.00  0.00    -0.356 C  
HETATM   16  C   UNL     1     -11.114   7.476  72.360  1.00  0.00    -0.349 C  
BRANCH  16  17
HETATM   17  C   UNL     1     -11.548   6.545  71.267  1.00  0.00    -0.381 C  
BRANCH  17  18
HETATM   18  C   UNL     1     -10.434   5.647  70.758  1.00  0.00    -0.335 C  
BRANCH  18  19
HETATM   19  C   UNL     1     -10.474   5.586  69.234  1.00  0.00    -0.336 C  
HETATM   20  C   UNL     1      -9.336   6.364  68.617  1.00  0.00    -0.124 C  
HETATM   21  O   UNL     1      -8.488   6.981  69.242  1.00  0.00    -0.131 OA 
HETATM   22  O   UNL     1      -9.353   6.304  67.269  1.00  0.00    -0.117 OA 
ENDBRANCH  18  19
ENDBRANCH  17  18
ENDBRANCH  16  17
ENDBRANCH  14  15
ENDBRANCH  13  14
ENDBRANCH  11  12
ENDBRANCH  10  11
ENDBRANCH   8   9
ENDBRANCH   7   8
ENDBRANCH   5   6
ENDBRANCH   4   5
ENDBRANCH   2   3
TORSDOF 12
ENDMDL
MODEL      426
REMARK 921   NORMALIZED FREE ENERGY PREDICTED BY IDOCK:   -1.82 KCAL/MOL
REMARK 922        TOTAL FREE ENERGY PREDICTED BY IDOCK:   -5.61 KCAL/MOL
REMARK 923 INTER-LIGAND FREE ENERGY PREDICTED BY IDOCK:   -4.11 KCAL/MOL
REMARK 924 INTRA-LIGAND FREE ENERGY PREDICTED BY IDOCK:   -1.50 KCAL/MOL
REMARK 927      BINDING AFFINITY PREDICTED BY RF-SCORE:    0.00 PKD
ROOT
HETATM    1  C   UNL     1     -12.112  14.171  64.100  1.00  0.00    -0.437 C  
HETATM    2  C   UNL     1     -12.702  13.767  65.442  1.00  0.00    -0.513 C  
ENDROOT
BRANCH   2   3
HETATM    3  C   UNL     1     -11.705  13.904  66.559  1.00  0.00    -0.414 C  
HETATM    4  C   UNL     1     -11.076  12.884  67.174  1.00  0.00    -0.309 C  
BRANCH   4   5
HETATM    5  C   UNL     1     -11.252  11.440  66.808  1.00  0.00    -0.319 C  
BRANCH   5   6
HETATM    6  C   UNL     1     -10.725  11.109  65.438  1.00  0.00    -0.259 C  
HETATM    7  C   UNL     1      -9.428  11.021  65.113  1.00  0.00    -0.265 C  
BRANCH   7   8
HETATM    8  C   UNL     1      -8.326  11.128  66.122  1.00  0.00    -0.144 C  
BRANCH   8   9
HETATM    9  C   UNL     1      -7.330  10.016  65.995  1.00  0.00    -0.112 C  
HETATM   10  C   UNL     1      -7.326   8.878  66.713  1.00  0.00    -0.082 C  
BRANCH  10  11
HETATM   11  C   UNL     1      -8.301   8.497  67.795  1.00  0.00    -0.130 C  
BRANCH  11  12
HETATM   12  C   UNL     1      -8.613   9.560  68.824  1.00  0.00    -0.123 C  
HETATM   13  C   UNL     1      -7.879   9.976  69.873  1.00  0.00    -0.185 C  
BRANCH  13  14
HETATM   14  C   UNL     1      -6.573   9.391  70.314  1.00  0.00    -0.069 C  
BRANCH  14  15
HETATM   15  C   UNL     1      -6.483   9.148  71.791  1.00  0.00     0.012 C  
HETATM   16  C   UNL     1      -6.753   7.958  72.353  1.00  0.00    -0.071 C  
BRANCH  16  17
HETATM   17  C   UNL     1      -7.238   6.791  71.545  1.00  0.00    -0.081 C  
BRANCH  17  18
HETATM   18  C   UNL     1      -8.726   6.525  71.697  1.00  0.00    -0.132 C  
BRANCH  18  19
HETATM   19  C   UNL     1      -8.952   5.436  72.742  1.00  0.00    -0.121 C  
HETATM   20  C   UNL     1      -9.316   4.117  72.101  1.00  0.00    -0.127 C  
HETATM   21  O   UNL     1      -9.432   3.930  70.900  1.00  0.00    -0.138 OA 
HETATM   22  O   UNL     1      -9.503   3.143  73.015  1.00  0.00    -0.090 OA 
ENDBRANCH  18  19
ENDBRANCH  17  18
ENDBRANCH  16  17
ENDBRANCH  14  15
ENDBRANCH  13  14
ENDBRANCH  11  12
ENDBRANCH  10  11
ENDBRANCH   8   9
ENDBRANCH   7   8
ENDBRANCH   5   6
ENDBRANCH   4   5
ENDBRANCH   2   3
TORSDOF 12
ENDMDL
MODEL      427
REMARK 921   NORMALIZED FREE ENERGY PREDICTED BY IDOCK:   -1.80 KCAL/MOL
REMARK 922        TOTAL FREE ENERGY PREDICTED BY IDOCK:   -5.57 KCAL/MOL
REMARK 923 INTER-LIGAND FREE ENERGY PREDICTED BY IDOCK:   -4.40 KCAL/MOL
REMARK 924 INTRA-LIGAND FREE ENERGY PREDICTED BY IDOCK:   -1.17 KCAL/MOL
REMARK 927      BINDING AFFINITY PREDICTED BY RF-SCORE:    0.00 PKD
ROOT
HETATM    1  C   UNL     1     -10.518   9.669  66.771  1.00  0.00    -0.257 C  
HETATM    2  C   UNL     1      -9.710   8.549  67.407  1.00  0.00    -0.222 C  
ENDROOT
BRANCH   2   3
HETATM    3  C   UNL     1      -8.567   8.114  66.532  1.00  0.00    -0.146 C  
HETATM    4  C   UNL     1      -7.441   8.818  66.308  1.00  0.00    -0.087 C  
BRANCH   4   5
HETATM    5  C   UNL     1      -7.139  10.147  66.935  1.00  0.00    -0.091 C  
BRANCH   5   6
HETATM    6  C   UNL     1      -5.679  10.336  67.242  1.00  0.00    -0.045 C  
HETATM    7  C   UNL     1      -5.191  11.128  68.207  1.00  0.00    -0.039 C  
BRANCH   7   8
HETATM    8  C   UNL     1      -6.064  11.845  69.191  1.00  0.00    -0.078 C  
BRANCH   8   9
HETATM    9  C   UNL     1      -5.300  12.847  70.003  1.00  0.00    -0.104 C  
HETATM   10  C   UNL     1      -5.712  14.092  70.305  1.00  0.00    -0.136 C  
BRANCH  10  11
HETATM   11  C   UNL     1      -7.004  14.737  69.880  1.00  0.00    -0.128 C  
BRANCH  11  12
HETATM   12  C   UNL     1      -7.051  15.286  68.472  1.00  0.00    -0.110 C  
HETATM   13  C   UNL     1      -7.949  15.058  67.495  1.00  0.00    -0.198 C  
BRANCH  13  14
HETATM   14  C   UNL     1      -9.099  14.104  67.570  1.00  0.00    -0.195 C  
BRANCH  14  15
HETATM   15  C   UNL     1     -10.042  14.376  68.704  1.00  0.00    -0.242 C  
HETATM   16  C   UNL     1     -10.773  15.499  68.792  1.00  0.00    -0.249 C  
BRANCH  16  17
HETATM   17  C   UNL     1     -10.648  16.608  67.789  1.00  0.00    -0.342 C  
BRANCH  17  18
HETATM   18  C   UNL     1     -10.491  17.980  68.421  1.00  0.00    -0.326 C  
BRANCH  18  19
HETATM   19  C   UNL     1      -9.057  18.471  68.240  1.00  0.00    -0.338 C  
HETATM   20  C   UNL     1      -9.014  19.833  67.588  1.00  0.00    -0.329 C  
HETATM   21  O   UNL     1      -9.992  20.472  67.233  1.00  0.00    -0.450 OA 
HETATM   22  O   UNL     1      -7.751  20.284  67.437  1.00  0.00    -0.292 OA 
ENDBRANCH  18  19
ENDBRANCH  17  18
ENDBRANCH  16  17
ENDBRANCH  14  15
ENDBRANCH  13  14
ENDBRANCH  11  12
ENDBRANCH  10  11
ENDBRANCH   8   9
ENDBRANCH   7   8
ENDBRANCH   5   6
ENDBRANCH   4   5
ENDBRANCH   2   3
TORSDOF 12
ENDMDL
MODEL      428
REMARK 921   NORMALIZED FREE ENERGY PREDICTED BY IDOCK:   -1.78 KCAL/MOL
REMARK 922        TOTAL FREE ENERGY PREDICTED BY IDOCK:   -5.54 KCAL/MOL
REMARK 923 INTER-LIGAND FREE ENERGY PREDICTED BY IDOCK:   -4.22 KCAL/MOL
REMARK 924 INTRA-LIGAND FREE ENERGY PREDICTED BY IDOCK:   -1.32 KCAL/MOL
REMARK 927      BINDING AFFINITY PREDICTED BY RF-SCORE:    0.00 PKD
ROOT
HETATM    1  C   UNL     1      -7.449   2.916  64.292  1.00  0.00    -0.070 C  
HETATM    2  C   UNL     1      -8.123   2.874  65.655  1.00  0.00    -0.087 C  
ENDROOT
BRANCH   2   3
HETATM    3  C   UNL     1      -9.476   3.531  65.634  1.00  0.00    -0.142 C  
HETATM    4  C   UNL     1      -9.895   4.484  66.487  1.00  0.00    -0.244 C  
BRANCH   4   5
HETATM    5  C   UNL     1      -9.052   5.067  67.583  1.00  0.00    -0.121 C  
BRANCH   5   6
HETATM    6  C   UNL     1      -9.813   5.288  68.861  1.00  0.00    -0.230 C  
HETATM    7  C   UNL     1     -10.014   4.361  69.808  1.00  0.00    -0.224 C  
BRANCH   7   8
HETATM    8  C   UNL     1      -9.391   2.999  69.761  1.00  0.00    -0.215 C  
BRANCH   8   9
HETATM    9  C   UNL     1      -8.045   2.968  70.419  1.00  0.00    -0.055 C  
HETATM   10  C   UNL     1      -7.790   2.532  71.666  1.00  0.00    -0.048 C  
BRANCH  10  11
HETATM   11  C   UNL     1      -8.796   2.009  72.656  1.00  0.00    -0.077 C  
BRANCH  11  12
HETATM   12  C   UNL     1     -10.110   2.751  72.738  1.00  0.00    -0.225 C  
HETATM   13  C   UNL     1     -10.423   3.863  73.431  1.00  0.00    -0.254 C  
BRANCH  13  14
HETATM   14  C   UNL     1      -9.518   4.585  74.379  1.00  0.00    -0.137 C  
BRANCH  14  15
HETATM   15  C   UNL     1      -8.267   5.113  73.741  1.00  0.00    -0.109 C  
HETATM   16  C   UNL     1      -8.264   6.155  72.894  1.00  0.00    -0.116 C  
BRANCH  16  17
HETATM   17  C   UNL     1      -9.532   6.831  72.461  1.00  0.00    -0.151 C  
BRANCH  17  18
HETATM   18  C   UNL     1      -9.547   8.324  72.740  1.00  0.00    -0.338 C  
BRANCH  18  19
HETATM   19  C   UNL     1      -9.954   9.081  71.480  1.00  0.00    -0.391 C  
HETATM   20  C   UNL     1     -11.453   9.246  71.389  1.00  0.00    -0.369 C  
HETATM   21  O   UNL     1     -12.255   8.822  72.206  1.00  0.00    -0.364 OA 
HETATM   22  O   UNL     1     -11.823   9.928  70.285  1.00  0.00    -0.249 OA 
ENDBRANCH  18  19
ENDBRANCH  17  18
ENDBRANCH  16  17
ENDBRANCH  14  15
ENDBRANCH  13  14
ENDBRANCH  11  12
ENDBRANCH  10  11
ENDBRANCH   8   9
ENDBRANCH   7   8
ENDBRANCH   5   6
ENDBRANCH   4   5
ENDBRANCH   2   3
TORSDOF 12
ENDMDL
MODEL      429
REMARK 921   NORMALIZED FREE ENERGY PREDICTED BY IDOCK:   -1.76 KCAL/MOL
REMARK 922        TOTAL FREE ENERGY PREDICTED BY IDOCK:   -5.50 KCAL/MOL
REMARK 923 INTER-LIGAND FREE ENERGY PREDICTED BY IDOCK:   -3.79 KCAL/MOL
REMARK 924 INTRA-LIGAND FREE ENERGY PREDICTED BY IDOCK:   -1.71 KCAL/MOL
REMARK 927      BINDING AFFINITY PREDICTED BY RF-SCORE:    0.00 PKD
ROOT
HETATM    1  C   UNL     1      -9.338   8.531  72.018  1.00  0.00    -0.353 C  
HETATM    2  C   UNL     1     -10.005   7.640  70.982  1.00  0.00    -0.188 C  
ENDROOT
BRANCH   2   3
HETATM    3  C   UNL     1     -10.433   6.322  71.566  1.00  0.00    -0.266 C  
HETATM    4  C   UNL     1     -10.317   5.124  70.962  1.00  0.00    -0.278 C  
BRANCH   4   5
HETATM    5  C   UNL     1      -9.701   4.918  69.609  1.00  0.00    -0.266 C  
BRANCH   5   6
HETATM    6  C   UNL     1      -8.925   3.634  69.502  1.00  0.00    -0.172 C  
HETATM    7  C   UNL     1      -8.474   3.099  68.359  1.00  0.00    -0.102 C  
BRANCH   7   8
HETATM    8  C   UNL     1      -8.591   3.790  67.034  1.00  0.00    -0.110 C  
BRANCH   8   9
HETATM    9  C   UNL     1      -7.268   4.281  66.532  1.00  0.00    -0.075 C  
HETATM   10  C   UNL     1      -7.043   5.470  65.942  1.00  0.00    -0.068 C  
BRANCH  10  11
HETATM   11  C   UNL     1      -8.067   6.534  65.651  1.00  0.00    -0.128 C  
BRANCH  11  12
HETATM   12  C   UNL     1      -7.562   7.958  65.597  1.00  0.00    -0.084 C  
HETATM   13  C   UNL     1      -7.723   8.957  66.486  1.00  0.00    -0.099 C  
BRANCH  13  14
HETATM   14  C   UNL     1      -8.545   8.892  67.735  1.00  0.00    -0.125 C  
BRANCH  14  15
HETATM   15  C   UNL     1     -10.024   8.865  67.488  1.00  0.00    -0.258 C  
HETATM   16  C   UNL     1     -10.885   9.679  68.119  1.00  0.00    -0.241 C  
BRANCH  16  17
HETATM   17  C   UNL     1     -10.436  10.639  69.182  1.00  0.00    -0.245 C  
BRANCH  17  18
HETATM   18  C   UNL     1     -11.584  11.292  69.932  1.00  0.00    -0.413 C  
BRANCH  18  19
HETATM   19  C   UNL     1     -11.228  12.738  70.264  1.00  0.00     0.575 C  
HETATM   20  C   UNL     1     -12.327  13.416  71.048  1.00  0.00    -0.315 C  
HETATM   21  O   UNL     1     -13.380  12.892  71.374  1.00  0.00    -0.246 OA 
HETATM   22  O   UNL     1     -12.015  14.691  71.361  1.00  0.00    -0.335 OA 
ENDBRANCH  18  19
ENDBRANCH  17  18
ENDBRANCH  16  17
ENDBRANCH  14  15
ENDBRANCH  13  14
ENDBRANCH  11  12
ENDBRANCH  10  11
ENDBRANCH   8   9
ENDBRANCH   7   8
ENDBRANCH   5   6
ENDBRANCH   4   5
ENDBRANCH   2   3
TORSDOF 12
ENDMDL
MODEL      430
REMARK 921   NORMALIZED FREE ENERGY PREDICTED BY IDOCK:   -1.74 KCAL/MOL
REMARK 922        TOTAL FREE ENERGY PREDICTED BY IDOCK:   -5.46 KCAL/MOL
REMARK 923 INTER-LIGAND FREE ENERGY PREDICTED BY IDOCK:   -4.94 KCAL/MOL
REMARK 924 INTRA-LIGAND FREE ENERGY PREDICTED BY IDOCK:   -0.53 KCAL/MOL
REMARK 927      BINDING AFFINITY PREDICTED BY RF-SCORE:    0.00 PKD
ROOT
HETATM    1  C   UNL     1      -9.334   8.313  71.956  1.00  0.00    -0.298 C  
HETATM    2  C   UNL     1      -9.141   9.179  70.722  1.00  0.00    -0.313 C  
ENDROOT
BRANCH   2   3
HETATM    3  C   UNL     1      -9.530   8.457  69.462  1.00  0.00    -0.166 C  
HETATM    4  C   UNL     1      -9.830   9.041  68.286  1.00  0.00    -0.186 C  
BRANCH   4   5
HETATM    5  C   UNL     1      -9.786  10.521  68.044  1.00  0.00    -0.162 C  
BRANCH   5   6
HETATM    6  C   UNL     1      -8.482  10.985  67.456  1.00  0.00    -0.127 C  
HETATM    7  C   UNL     1      -8.232  12.228  67.019  1.00  0.00    -0.155 C  
BRANCH   7   8
HETATM    8  C   UNL     1      -9.204  13.357  67.177  1.00  0.00    -0.240 C  
BRANCH   8   9
HETATM    9  C   UNL     1      -9.492  14.043  65.876  1.00  0.00    -0.106 C  
HETATM   10  C   UNL     1     -10.035  15.267  65.736  1.00  0.00    -0.391 C  
BRANCH  10  11
HETATM   11  C   UNL     1     -10.477  16.184  66.845  1.00  0.00    -0.300 C  
BRANCH  11  12
HETATM   12  C   UNL     1     -10.679  17.636  66.478  1.00  0.00    -0.097 C  
HETATM   13  C   UNL     1      -9.831  18.676  66.602  1.00  0.00    -0.377 C  
BRANCH  13  14
HETATM   14  C   UNL     1      -8.476  18.628  67.236  1.00  0.00    -0.275 C  
BRANCH  14  15
HETATM   15  C   UNL     1      -7.348  18.541  66.252  1.00  0.00    -0.290 C  
HETATM   16  C   UNL     1      -6.525  17.482  66.176  1.00  0.00    -0.266 C  
BRANCH  16  17
HETATM   17  C   UNL     1      -6.630  16.325  67.126  1.00  0.00    -0.230 C  
BRANCH  17  18
HETATM   18  C   UNL     1      -7.551  16.592  68.304  1.00  0.00    -0.170 C  
BRANCH  18  19
HETATM   19  C   UNL     1      -6.844  16.229  69.606  1.00  0.00    -0.125 C  
HETATM   20  C   UNL     1      -5.890  17.316  70.043  1.00  0.00    -0.230 C  
HETATM   21  O   UNL     1      -5.688  18.356  69.437  1.00  0.00    -0.214 OA 
HETATM   22  O   UNL     1      -5.271  17.012  71.202  1.00  0.00    -0.219 OA 
ENDBRANCH  18  19
ENDBRANCH  17  18
ENDBRANCH  16  17
ENDBRANCH  14  15
ENDBRANCH  13  14
ENDBRANCH  11  12
ENDBRANCH  10  11
ENDBRANCH   8   9
ENDBRANCH   7   8
ENDBRANCH   5   6
ENDBRANCH   4   5
ENDBRANCH   2   3
TORSDOF 12
ENDMDL
MODEL      431
REMARK 921   NORMALIZED FREE ENERGY PREDICTED BY IDOCK:   -1.64 KCAL/MOL
REMARK 922        TOTAL FREE ENERGY PREDICTED BY IDOCK:   -5.30 KCAL/MOL
REMARK 923 INTER-LIGAND FREE ENERGY PREDICTED BY IDOCK:   -3.54 KCAL/MOL
REMARK 924 INTRA-LIGAND FREE ENERGY PREDICTED BY IDOCK:   -1.76 KCAL/MOL
REMARK 927      BINDING AFFINITY PREDICTED BY RF-SCORE:    0.00 PKD
ROOT
HETATM    1  C   UNL     1     -11.715  11.093  69.047  1.00  0.00    -0.408 C  
HETATM    2  C   UNL     1     -10.416  10.574  68.449  1.00  0.00    -0.212 C  
ENDROOT
BRANCH   2   3
HETATM    3  C   UNL     1      -9.442  10.141  69.510  1.00  0.00    -0.235 C  
HETATM    4  C   UNL     1      -8.286   9.488  69.290  1.00  0.00    -0.112 C  
BRANCH   4   5
HETATM    5  C   UNL     1      -7.771   9.119  67.930  1.00  0.00    -0.093 C  
BRANCH   5   6
HETATM    6  C   UNL     1      -7.475  10.314  67.067  1.00  0.00    -0.093 C  
HETATM    7  C   UNL     1      -6.542  10.358  66.105  1.00  0.00    -0.112 C  
BRANCH   7   8
HETATM    8  C   UNL     1      -5.745   9.160  65.688  1.00  0.00    -0.049 C  
BRANCH   8   9
HETATM    9  C   UNL     1      -6.168   8.635  64.350  1.00  0.00    -0.067 C  
HETATM   10  C   UNL     1      -7.064   7.653  64.138  1.00  0.00    -0.068 C  
BRANCH  10  11
HETATM   11  C   UNL     1      -7.806   6.874  65.191  1.00  0.00    -0.120 C  
BRANCH  11  12
HETATM   12  C   UNL     1      -6.988   5.904  66.013  1.00  0.00    -0.062 C  
HETATM   13  C   UNL     1      -7.232   4.612  66.304  1.00  0.00    -0.076 C  
BRANCH  13  14
HETATM   14  C   UNL     1      -8.463   3.848  65.927  1.00  0.00    -0.110 C  
BRANCH  14  15
HETATM   15  C   UNL     1      -8.783   2.715  66.856  1.00  0.00    -0.134 C  
HETATM   16  C   UNL     1      -9.016   2.889  68.167  1.00  0.00    -0.196 C  
BRANCH  16  17
HETATM   17  C   UNL     1      -8.904   4.235  68.821  1.00  0.00    -0.138 C  
BRANCH  17  18
HETATM   18  C   UNL     1     -10.247   4.884  69.105  1.00  0.00    -0.186 C  
BRANCH  18  19
HETATM   19  C   UNL     1     -10.243   6.324  68.600  1.00  0.00    -0.211 C  
HETATM   20  C   UNL     1     -10.766   6.418  67.186  1.00  0.00    -0.361 C  
HETATM   21  O   UNL     1     -11.139   5.472  66.512  1.00  0.00    -0.179 OA 
HETATM   22  O   UNL     1     -10.781   7.690  66.735  1.00  0.00    -0.318 OA 
ENDBRANCH  18  19
ENDBRANCH  17  18
ENDBRANCH  16  17
ENDBRANCH  14  15
ENDBRANCH  13  14
ENDBRANCH  11  12
ENDBRANCH  10  11
ENDBRANCH   8   9
ENDBRANCH   7   8
ENDBRANCH   5   6
ENDBRANCH   4   5
ENDBRANCH   2   3
TORSDOF 12
ENDMDL
MODEL      432
REMARK 921   NORMALIZED FREE ENERGY PREDICTED BY IDOCK:   -1.58 KCAL/MOL
REMARK 922        TOTAL FREE ENERGY PREDICTED BY IDOCK:   -5.19 KCAL/MOL
REMARK 923 INTER-LIGAND FREE ENERGY PREDICTED BY IDOCK:   -4.96 KCAL/MOL
REMARK 924 INTRA-LIGAND FREE ENERGY PREDICTED BY IDOCK:   -0.23 KCAL/MOL
REMARK 927      BINDING AFFINITY PREDICTED BY RF-SCORE:    0.00 PKD
ROOT
HETATM    1  C   UNL     1      -5.162   9.533  69.646  1.00  0.00    -0.034 C  
HETATM    2  C   UNL     1      -6.554   9.573  69.036  1.00  0.00    -0.050 C  
ENDROOT
BRANCH   2   3
HETATM    3  C   UNL     1      -6.567  10.285  67.711  1.00  0.00    -0.066 C  
HETATM    4  C   UNL     1      -7.523  10.168  66.771  1.00  0.00    -0.104 C  
BRANCH   4   5
HETATM    5  C   UNL     1      -8.755   9.325  66.921  1.00  0.00    -0.136 C  
BRANCH   5   6
HETATM    6  C   UNL     1      -9.272   9.280  68.332  1.00  0.00    -0.132 C  
HETATM    7  C   UNL     1      -9.802  10.320  68.992  1.00  0.00    -0.215 C  
BRANCH   7   8
HETATM    8  C   UNL     1     -10.053  11.650  68.349  1.00  0.00    -0.207 C  
BRANCH   8   9
HETATM    9  C   UNL     1     -11.259  11.631  67.460  1.00  0.00    -0.355 C  
HETATM   10  C   UNL     1     -11.304  12.069  66.188  1.00  0.00    -0.407 C  
BRANCH  10  11
HETATM   11  C   UNL     1     -10.170  12.680  65.409  1.00  0.00    -0.301 C  
BRANCH  11  12
HETATM   12  C   UNL     1     -10.262  14.164  65.137  1.00  0.00    -0.411 C  
HETATM   13  C   UNL     1     -10.321  15.191  66.006  1.00  0.00    -0.326 C  
BRANCH  13  14
HETATM   14  C   UNL     1     -10.395  15.072  67.496  1.00  0.00    -0.241 C  
BRANCH  14  15
HETATM   15  C   UNL     1     -10.299  16.384  68.216  1.00  0.00    -0.279 C  
HETATM   16  C   UNL     1     -10.675  16.544  69.495  1.00  0.00    -0.321 C  
BRANCH  16  17
HETATM   17  C   UNL     1     -11.291  15.428  70.287  1.00  0.00    -0.332 C  
BRANCH  17  18
HETATM   18  C   UNL     1     -12.554  14.866  69.658  1.00  0.00    -0.094 C  
BRANCH  18  19
HETATM   19  C   UNL     1     -13.519  14.416  70.751  1.00  0.00    -0.122 C  
HETATM   20  C   UNL     1     -13.113  13.084  71.337  1.00  0.00    -0.248 C  
HETATM   21  O   UNL     1     -12.144  12.431  70.987  1.00  0.00    -0.222 OA 
HETATM   22  O   UNL     1     -13.951  12.684  72.316  1.00  0.00    -0.361 OA 
ENDBRANCH  18  19
ENDBRANCH  17  18
ENDBRANCH  16  17
ENDBRANCH  14  15
ENDBRANCH  13  14
ENDBRANCH  11  12
ENDBRANCH  10  11
ENDBRANCH   8   9
ENDBRANCH   7   8
ENDBRANCH   5   6
ENDBRANCH   4   5
ENDBRANCH   2   3
TORSDOF 12
ENDMDL
MODEL      433
REMARK 921   NORMALIZED FREE ENERGY PREDICTED BY IDOCK:   -1.43 KCAL/MOL
REMARK 922        TOTAL FREE ENERGY PREDICTED BY IDOCK:   -4.94 KCAL/MOL
REMARK 923 INTER-LIGAND FREE ENERGY PREDICTED BY IDOCK:   -3.51 KCAL/MOL
REMARK 924 INTRA-LIGAND FREE ENERGY PREDICTED BY IDOCK:   -1.43 KCAL/MOL
REMARK 927      BINDING AFFINITY PREDICTED BY RF-SCORE:    0.00 PKD
ROOT
HETATM    1  C   UNL     1     -10.954  11.357  64.316  1.00  0.00    -0.390 C  
HETATM    2  C   UNL     1     -10.948  12.848  64.613  1.00  0.00    -0.357 C  
ENDROOT
BRANCH   2   3
HETATM    3  C   UNL     1     -11.817  13.190  65.792  1.00  0.00    -0.442 C  
HETATM    4  C   UNL     1     -11.387  13.371  67.055  1.00  0.00    -0.346 C  
BRANCH   4   5
HETATM    5  C   UNL     1      -9.949  13.292  67.475  1.00  0.00    -0.223 C  
BRANCH   5   6
HETATM    6  C   UNL     1      -9.074  14.300  66.782  1.00  0.00    -0.269 C  
HETATM    7  C   UNL     1      -8.322  15.221  67.401  1.00  0.00    -0.202 C  
BRANCH   7   8
HETATM    8  C   UNL     1      -8.168  15.282  68.890  1.00  0.00    -0.186 C  
BRANCH   8   9
HETATM    9  C   UNL     1      -7.248  16.384  69.321  1.00  0.00    -0.221 C  
HETATM   10  C   UNL     1      -5.935  16.252  69.586  1.00  0.00    -0.176 C  
BRANCH  10  11
HETATM   11  C   UNL     1      -5.131  14.982  69.524  1.00  0.00    -0.088 C  
BRANCH  11  12
HETATM   12  C   UNL     1      -5.532  13.882  70.480  1.00  0.00    -0.132 C  
HETATM   13  C   UNL     1      -5.715  12.569  70.245  1.00  0.00    -0.165 C  
BRANCH  13  14
HETATM   14  C   UNL     1      -5.638  11.901  68.908  1.00  0.00    -0.050 C  
BRANCH  14  15
HETATM   15  C   UNL     1      -6.927  11.272  68.468  1.00  0.00    -0.078 C  
HETATM   16  C   UNL     1      -7.017  10.465  67.398  1.00  0.00    -0.085 C  
BRANCH  16  17
HETATM   17  C   UNL     1      -5.838  10.184  66.514  1.00  0.00    -0.060 C  
BRANCH  17  18
HETATM   18  C   UNL     1      -6.154  10.291  65.032  1.00  0.00    -0.130 C  
BRANCH  18  19
HETATM   19  C   UNL     1      -7.659  10.163  64.813  1.00  0.00    -0.139 C  
HETATM   20  C   UNL     1      -7.984   9.090  63.801  1.00  0.00    -0.147 C  
HETATM   21  O   UNL     1      -7.161   8.409  63.212  1.00  0.00    -0.088 OA 
HETATM   22  O   UNL     1      -9.314   8.958  63.612  1.00  0.00     0.468 OA 
ENDBRANCH  18  19
ENDBRANCH  17  18
ENDBRANCH  16  17
ENDBRANCH  14  15
ENDBRANCH  13  14
ENDBRANCH  11  12
ENDBRANCH  10  11
ENDBRANCH   8   9
ENDBRANCH   7   8
ENDBRANCH   5   6
ENDBRANCH   4   5
ENDBRANCH   2   3
TORSDOF 12
ENDMDL
MODEL      434
REMARK 921   NORMALIZED FREE ENERGY PREDICTED BY IDOCK:   -1.42 KCAL/MOL
REMARK 922        TOTAL FREE ENERGY PREDICTED BY IDOCK:   -4.92 KCAL/MOL
REMARK 923 INTER-LIGAND FREE ENERGY PREDICTED BY IDOCK:   -2.82 KCAL/MOL
REMARK 924 INTRA-LIGAND FREE ENERGY PREDICTED BY IDOCK:   -2.10 KCAL/MOL
REMARK 927      BINDING AFFINITY PREDICTED BY RF-SCORE:    0.00 PKD
ROOT
HETATM    1  C   UNL     1      -6.447  13.696  68.903  1.00  0.00    -0.101 C  
HETATM    2  C   UNL     1      -6.221  12.918  67.616  1.00  0.00    -0.157 C  
ENDROOT
BRANCH   2   3
HETATM    3  C   UNL     1      -5.847  11.486  67.883  1.00  0.00    -0.045 C  
HETATM    4  C   UNL     1      -6.313  10.417  67.210  1.00  0.00    -0.062 C  
BRANCH   4   5
HETATM    5  C   UNL     1      -7.264  10.499  66.053  1.00  0.00    -0.137 C  
BRANCH   5   6
HETATM    6  C   UNL     1      -6.579  10.773  64.743  1.00  0.00     0.240 C  
HETATM    7  C   UNL     1      -6.555   9.936  63.696  1.00  0.00    -0.125 C  
BRANCH   7   8
HETATM    8  C   UNL     1      -7.323   8.650  63.663  1.00  0.00    -0.104 C  
BRANCH   8   9
HETATM    9  C   UNL     1      -6.441   7.469  63.393  1.00  0.00    -0.054 C  
HETATM   10  C   UNL     1      -6.229   6.439  64.232  1.00  0.00    -0.030 C  
BRANCH  10  11
HETATM   11  C   UNL     1      -6.813   6.269  65.609  1.00  0.00    -0.052 C  
BRANCH  11  12
HETATM   12  C   UNL     1      -7.188   4.861  66.013  1.00  0.00    -0.076 C  
HETATM   13  C   UNL     1      -8.402   4.279  66.053  1.00  0.00    -0.109 C  
BRANCH  13  14
HETATM   14  C   UNL     1      -9.707   4.956  65.773  1.00  0.00    -0.184 C  
BRANCH  14  15
HETATM   15  C   UNL     1     -10.536   5.207  66.998  1.00  0.00    -0.256 C  
HETATM   16  C   UNL     1     -10.565   6.391  67.630  1.00  0.00    -0.340 C  
BRANCH  16  17
HETATM   17  C   UNL     1      -9.707   7.544  67.196  1.00  0.00    -0.228 C  
BRANCH  17  18
HETATM   18  C   UNL     1     -10.501   8.789  66.841  1.00  0.00    -0.319 C  
BRANCH  18  19
HETATM   19  C   UNL     1     -11.121   9.384  68.102  1.00  0.00    -0.000 C  
HETATM   20  C   UNL     1     -10.909  10.878  68.173  1.00  0.00    -0.234 C  
HETATM   21  O   UNL     1     -10.309  11.542  67.343  1.00  0.00    -0.199 OA 
HETATM   22  O   UNL     1     -11.466  11.418  69.277  1.00  0.00    -0.247 OA 
ENDBRANCH  18  19
ENDBRANCH  17  18
ENDBRANCH  16  17
ENDBRANCH  14  15
ENDBRANCH  13  14
ENDBRANCH  11  12
ENDBRANCH  10  11
ENDBRANCH   8   9
ENDBRANCH   7   8
ENDBRANCH   5   6
ENDBRANCH   4   5
ENDBRANCH   2   3
TORSDOF 12
ENDMDL
MODEL      435
REMARK 921   NORMALIZED FREE ENERGY PREDICTED BY IDOCK:   -1.37 KCAL/MOL
REMARK 922        TOTAL FREE ENERGY PREDICTED BY IDOCK:   -4.84 KCAL/MOL
REMARK 923 INTER-LIGAND FREE ENERGY PREDICTED BY IDOCK:   -5.13 KCAL/MOL
REMARK 924 INTRA-LIGAND FREE ENERGY PREDICTED BY IDOCK:    0.28 KCAL/MOL
REMARK 927      BINDING AFFINITY PREDICTED BY RF-SCORE:    0.00 PKD
ROOT
HETATM    1  C   UNL     1      -5.127   9.625  67.939  1.00  0.00    -0.036 C  
HETATM    2  C   UNL     1      -6.460   9.129  68.475  1.00  0.00    -0.054 C  
ENDROOT
BRANCH   2   3
HETATM    3  C   UNL     1      -7.623   9.735  67.738  1.00  0.00    -0.090 C  
HETATM    4  C   UNL     1      -8.859   9.207  67.660  1.00  0.00    -0.123 C  
BRANCH   4   5
HETATM    5  C   UNL     1      -9.278   7.934  68.334  1.00  0.00    -0.134 C  
BRANCH   5   6
HETATM    6  C   UNL     1      -9.637   8.123  69.782  1.00  0.00    -0.171 C  
HETATM    7  C   UNL     1     -10.014   9.284  70.337  1.00  0.00    -0.287 C  
BRANCH   7   8
HETATM    8  C   UNL     1     -10.240  10.532  69.540  1.00  0.00    -0.230 C  
BRANCH   8   9
HETATM    9  C   UNL     1     -11.576  10.539  68.862  1.00  0.00    -0.266 C  
HETATM   10  C   UNL     1     -11.890  11.230  67.751  1.00  0.00    -0.164 C  
BRANCH  10  11
HETATM   11  C   UNL     1     -10.980  12.145  66.976  1.00  0.00    -0.319 C  
BRANCH  11  12
HETATM   12  C   UNL     1     -11.511  13.528  66.677  1.00  0.00    -0.366 C  
HETATM   13  C   UNL     1     -11.882  14.504  67.527  1.00  0.00    -0.404 C  
BRANCH  13  14
HETATM   14  C   UNL     1     -11.929  14.394  69.018  1.00  0.00    -0.342 C  
BRANCH  14  15
HETATM   15  C   UNL     1     -12.003  15.715  69.724  1.00  0.00    -0.371 C  
HETATM   16  C   UNL     1     -11.071  16.671  69.584  1.00  0.00    -0.146 C  
BRANCH  16  17
HETATM   17  C   UNL     1      -9.836  16.460  68.758  1.00  0.00    -0.250 C  
BRANCH  17  18
HETATM   18  C   UNL     1      -9.654  17.499  67.665  1.00  0.00    -0.266 C  
BRANCH  18  19
HETATM   19  C   UNL     1      -8.198  17.522  67.210  1.00  0.00    -0.222 C  
HETATM   20  C   UNL     1      -7.941  18.633  66.220  1.00  0.00    -0.252 C  
HETATM   21  O   UNL     1      -8.783  19.417  65.813  1.00  0.00    -0.403 OA 
HETATM   22  O   UNL     1      -6.652  18.671  65.822  1.00  0.00    -0.227 OA 
ENDBRANCH  18  19
ENDBRANCH  17  18
ENDBRANCH  16  17
ENDBRANCH  14  15
ENDBRANCH  13  14
ENDBRANCH  11  12
ENDBRANCH  10  11
ENDBRANCH   8   9
ENDBRANCH   7   8
ENDBRANCH   5   6
ENDBRANCH   4   5
ENDBRANCH   2   3
TORSDOF 12
ENDMDL
MODEL      436
REMARK 921   NORMALIZED FREE ENERGY PREDICTED BY IDOCK:   -1.36 KCAL/MOL
REMARK 922        TOTAL FREE ENERGY PREDICTED BY IDOCK:   -4.82 KCAL/MOL
REMARK 923 INTER-LIGAND FREE ENERGY PREDICTED BY IDOCK:   -4.14 KCAL/MOL
REMARK 924 INTRA-LIGAND FREE ENERGY PREDICTED BY IDOCK:   -0.68 KCAL/MOL
REMARK 927      BINDING AFFINITY PREDICTED BY RF-SCORE:    0.00 PKD
ROOT
HETATM    1  C   UNL     1      -7.101  13.313  67.783  1.00  0.00    -0.149 C  
HETATM    2  C   UNL     1      -6.614  11.984  67.226  1.00  0.00    -0.145 C  
ENDROOT
BRANCH   2   3
HETATM    3  C   UNL     1      -6.292  11.001  68.317  1.00  0.00    -0.056 C  
HETATM    4  C   UNL     1      -7.021   9.912  68.628  1.00  0.00    -0.062 C  
BRANCH   4   5
HETATM    5  C   UNL     1      -8.263   9.492  67.899  1.00  0.00    -0.114 C  
BRANCH   5   6
HETATM    6  C   UNL     1      -7.978   8.690  66.660  1.00  0.00    -0.096 C  
HETATM    7  C   UNL     1      -8.596   7.550  66.320  1.00  0.00    -0.153 C  
BRANCH   7   8
HETATM    8  C   UNL     1      -9.750   6.988  67.093  1.00  0.00    -0.206 C  
BRANCH   8   9
HETATM    9  C   UNL     1     -10.053   5.571  66.711  1.00  0.00    -0.242 C  
HETATM   10  C   UNL     1      -9.171   4.554  66.704  1.00  0.00    -0.138 C  
BRANCH  10  11
HETATM   11  C   UNL     1      -7.710   4.631  67.056  1.00  0.00    -0.091 C  
BRANCH  11  12
HETATM   12  C   UNL     1      -7.380   4.998  68.485  1.00  0.00    -0.063 C  
HETATM   13  C   UNL     1      -8.027   4.677  69.622  1.00  0.00    -0.065 C  
BRANCH  13  14
HETATM   14  C   UNL     1      -9.317   3.924  69.711  1.00  0.00    -0.242 C  
BRANCH  14  15
HETATM   15  C   UNL     1     -10.138   4.264  70.919  1.00  0.00    -0.161 C  
HETATM   16  C   UNL     1     -10.442   5.525  71.264  1.00  0.00    -0.306 C  
BRANCH  16  17
HETATM   17  C   UNL     1      -9.921   6.706  70.498  1.00  0.00    -0.197 C  
BRANCH  17  18
HETATM   18  C   UNL     1      -9.922   7.996  71.299  1.00  0.00    -0.211 C  
BRANCH  18  19
HETATM   19  C   UNL     1     -11.309   8.238  71.887  1.00  0.00    -0.372 C  
HETATM   20  C   UNL     1     -11.934   9.498  71.336  1.00  0.00    -0.386 C  
HETATM   21  O   UNL     1     -11.407  10.248  70.530  1.00  0.00    -0.300 OA 
HETATM   22  O   UNL     1     -13.168   9.714  71.837  1.00  0.00    -0.387 OA 
ENDBRANCH  18  19
ENDBRANCH  17  18
ENDBRANCH  16  17
ENDBRANCH  14  15
ENDBRANCH  13  14
ENDBRANCH  11  12
ENDBRANCH  10  11
ENDBRANCH   8   9
ENDBRANCH   7   8
ENDBRANCH   5   6
ENDBRANCH   4   5
ENDBRANCH   2   3
TORSDOF 12
ENDMDL
MODEL      437
REMARK 921   NORMALIZED FREE ENERGY PREDICTED BY IDOCK:   -1.32 KCAL/MOL
REMARK 922        TOTAL FREE ENERGY PREDICTED BY IDOCK:   -4.75 KCAL/MOL
REMARK 923 INTER-LIGAND FREE ENERGY PREDICTED BY IDOCK:   -3.81 KCAL/MOL
REMARK 924 INTRA-LIGAND FREE ENERGY PREDICTED BY IDOCK:   -0.94 KCAL/MOL
REMARK 927      BINDING AFFINITY PREDICTED BY RF-SCORE:    0.00 PKD
ROOT
HETATM    1  C   UNL     1      -8.798  18.379  66.428  1.00  0.00    -0.262 C  
HETATM    2  C   UNL     1      -9.121  17.027  67.046  1.00  0.00    -0.234 C  
ENDROOT
BRANCH   2   3
HETATM    3  C   UNL     1      -8.727  16.963  68.496  1.00  0.00    -0.251 C  
HETATM    4  C   UNL     1      -7.789  16.149  69.016  1.00  0.00    -0.227 C  
BRANCH   4   5
HETATM    5  C   UNL     1      -6.960  15.193  68.209  1.00  0.00    -0.117 C  
BRANCH   5   6
HETATM    6  C   UNL     1      -7.146  13.758  68.620  1.00  0.00    -0.104 C  
HETATM    7  C   UNL     1      -8.198  12.994  68.296  1.00  0.00    -0.150 C  
BRANCH   7   8
HETATM    8  C   UNL     1      -9.283  13.451  67.369  1.00  0.00    -0.213 C  
BRANCH   8   9
HETATM    9  C   UNL     1     -10.649  13.247  67.950  1.00  0.00    -0.246 C  
HETATM   10  C   UNL     1     -11.050  12.174  68.656  1.00  0.00    -0.297 C  
BRANCH  10  11
HETATM   11  C   UNL     1     -10.225  10.961  68.991  1.00  0.00    -0.219 C  
BRANCH  11  12
HETATM   12  C   UNL     1     -10.481   9.723  68.162  1.00  0.00    -0.258 C  
HETATM   13  C   UNL     1     -10.282   8.428  68.474  1.00  0.00    -0.228 C  
BRANCH  13  14
HETATM   14  C   UNL     1      -9.658   7.919  69.736  1.00  0.00    -0.167 C  
BRANCH  14  15
HETATM   15  C   UNL     1      -8.178   8.152  69.818  1.00  0.00    -0.122 C  
HETATM   16  C   UNL     1      -7.273   7.230  69.453  1.00  0.00    -0.084 C  
BRANCH  16  17
HETATM   17  C   UNL     1      -7.676   5.858  68.997  1.00  0.00    -0.091 C  
BRANCH  17  18
HETATM   18  C   UNL     1      -7.364   5.590  67.535  1.00  0.00    -0.076 C  
BRANCH  18  19
HETATM   19  C   UNL     1      -7.673   4.135  67.198  1.00  0.00    -0.088 C  
HETATM   20  C   UNL     1      -8.564   4.022  65.983  1.00  0.00    -0.110 C  
HETATM   21  O   UNL     1      -9.002   4.966  65.345  1.00  0.00    -0.144 OA 
HETATM   22  O   UNL     1      -8.832   2.738  65.668  1.00  0.00    -0.123 OA 
ENDBRANCH  18  19
ENDBRANCH  17  18
ENDBRANCH  16  17
ENDBRANCH  14  15
ENDBRANCH  13  14
ENDBRANCH  11  12
ENDBRANCH  10  11
ENDBRANCH   8   9
ENDBRANCH   7   8
ENDBRANCH   5   6
ENDBRANCH   4   5
ENDBRANCH   2   3
TORSDOF 12
ENDMDL
MODEL      438
REMARK 921   NORMALIZED FREE ENERGY PREDICTED BY IDOCK:   -1.03 KCAL/MOL
REMARK 922        TOTAL FREE ENERGY PREDICTED BY IDOCK:   -4.25 KCAL/MOL
REMARK 923 INTER-LIGAND FREE ENERGY PREDICTED BY IDOCK:   -3.65 KCAL/MOL
REMARK 924 INTRA-LIGAND FREE ENERGY PREDICTED BY IDOCK:   -0.60 KCAL/MOL
REMARK 927      BINDING AFFINITY PREDICTED BY RF-SCORE:    0.00 PKD
ROOT
HETATM    1  C   UNL     1     -10.801   5.338  70.884  1.00  0.00    -0.119 C  
HETATM    2  C   UNL     1     -11.063   6.270  69.712  1.00  0.00    -0.473 C  
ENDROOT
BRANCH   2   3
HETATM    3  C   UNL     1     -10.024   6.124  68.634  1.00  0.00    -0.176 C  
HETATM    4  C   UNL     1      -9.882   6.936  67.569  1.00  0.00    -0.173 C  
BRANCH   4   5
HETATM    5  C   UNL     1     -10.731   8.147  67.313  1.00  0.00    -0.263 C  
BRANCH   5   6
HETATM    6  C   UNL     1     -10.088   9.426  67.774  1.00  0.00    -0.246 C  
HETATM    7  C   UNL     1     -10.499  10.162  68.816  1.00  0.00    -0.223 C  
BRANCH   7   8
HETATM    8  C   UNL     1     -11.598   9.729  69.737  1.00  0.00    -0.081 C  
BRANCH   8   9
HETATM    9  C   UNL     1     -11.094   9.406  71.111  1.00  0.00    -0.432 C  
HETATM   10  C   UNL     1      -9.801   9.314  71.472  1.00  0.00    -0.245 C  
BRANCH  10  11
HETATM   11  C   UNL     1      -8.605   9.496  70.576  1.00  0.00    -0.231 C  
BRANCH  11  12
HETATM   12  C   UNL     1      -7.265   9.101  71.154  1.00  0.00    -0.091 C  
HETATM   13  C   UNL     1      -6.986   8.438  72.293  1.00  0.00    -0.106 C  
BRANCH  13  14
HETATM   14  C   UNL     1      -7.985   8.004  73.318  1.00  0.00    -0.230 C  
BRANCH  14  15
HETATM   15  C   UNL     1      -7.391   7.226  74.455  1.00  0.00    -0.130 C  
HETATM   16  C   UNL     1      -7.391   5.884  74.499  1.00  0.00    -0.091 C  
BRANCH  16  17
HETATM   17  C   UNL     1      -8.054   5.054  73.439  1.00  0.00    -0.107 C  
BRANCH  17  18
HETATM   18  C   UNL     1      -7.073   4.382  72.495  1.00  0.00    -0.066 C  
BRANCH  18  19
HETATM   19  C   UNL     1      -7.799   3.924  71.234  1.00  0.00    -0.060 C  
HETATM   20  C   UNL     1      -6.928   4.064  70.008  1.00  0.00    -0.041 C  
HETATM   21  O   UNL     1      -5.787   4.498  70.005  1.00  0.00    -0.015 OA 
HETATM   22  O   UNL     1      -7.556   3.647  68.889  1.00  0.00    -0.053 OA 
ENDBRANCH  18  19
ENDBRANCH  17  18
ENDBRANCH  16  17
ENDBRANCH  14  15
ENDBRANCH  13  14
ENDBRANCH  11  12
ENDBRANCH  10  11
ENDBRANCH   8   9
ENDBRANCH   7   8
ENDBRANCH   5   6
ENDBRANCH   4   5
ENDBRANCH   2   3
TORSDOF 12
ENDMDL
MODEL      439
REMARK 921   NORMALIZED FREE ENERGY PREDICTED BY IDOCK:   -0.82 KCAL/MOL
REMARK 922        TOTAL FREE ENERGY PREDICTED BY IDOCK:   -3.90 KCAL/MOL
REMARK 923 INTER-LIGAND FREE ENERGY PREDICTED BY IDOCK:   -4.10 KCAL/MOL
REMARK 924 INTRA-LIGAND FREE ENERGY PREDICTED BY IDOCK:    0.20 KCAL/MOL
REMARK 927      BINDING AFFINITY PREDICTED BY RF-SCORE:    0.00 PKD
ROOT
HETATM    1  C   UNL     1     -10.898   9.781  66.664  1.00  0.00    -0.011 C  
HETATM    2  C   UNL     1      -9.644   8.998  67.018  1.00  0.00    -0.231 C  
ENDROOT
BRANCH   2   3
HETATM    3  C   UNL     1      -8.853   8.621  65.796  1.00  0.00    -0.231 C  
HETATM    4  C   UNL     1      -7.971   9.414  65.160  1.00  0.00    -0.116 C  
BRANCH   4   5
HETATM    5  C   UNL     1      -7.613  10.803  65.601  1.00  0.00    -0.044 C  
BRANCH   5   6
HETATM    6  C   UNL     1      -6.210  10.911  66.132  1.00  0.00    -0.130 C  
HETATM    7  C   UNL     1      -5.852  11.594  67.229  1.00  0.00    -0.111 C  
BRANCH   7   8
HETATM    8  C   UNL     1      -6.844  12.248  68.141  1.00  0.00    -0.078 C  
BRANCH   8   9
HETATM    9  C   UNL     1      -6.197  12.819  69.367  1.00  0.00    -0.112 C  
HETATM   10  C   UNL     1      -6.256  14.105  69.759  1.00  0.00    -0.138 C  
BRANCH  10  11
HETATM   11  C   UNL     1      -6.959  15.229  69.047  1.00  0.00    -0.136 C  
BRANCH  11  12
HETATM   12  C   UNL     1      -8.059  14.835  68.087  1.00  0.00    -0.134 C  
HETATM   13  C   UNL     1      -9.355  15.200  68.076  1.00  0.00    -0.187 C  
BRANCH  13  14
HETATM   14  C   UNL     1     -10.034  16.046  69.107  1.00  0.00    -0.246 C  
BRANCH  14  15
HETATM   15  C   UNL     1      -9.424  17.405  69.275  1.00  0.00     0.083 C  
HETATM   16  C   UNL     1      -9.514  18.367  68.342  1.00  0.00    -0.352 C  
BRANCH  16  17
HETATM   17  C   UNL     1     -10.178  18.129  67.018  1.00  0.00    -0.373 C  
BRANCH  17  18
HETATM   18  C   UNL     1      -9.904  19.220  65.998  1.00  0.00    -0.342 C  
BRANCH  18  19
HETATM   19  C   UNL     1      -8.489  19.760  66.186  1.00  0.00    -0.367 C  
HETATM   20  C   UNL     1      -7.449  18.693  65.942  1.00  0.00    -0.180 C  
HETATM   21  O   UNL     1      -7.690  17.534  65.642  1.00  0.00    -0.495 OA 
HETATM   22  O   UNL     1      -6.193  19.164  66.090  1.00  0.00    -0.170 OA 
ENDBRANCH  18  19
ENDBRANCH  17  18
ENDBRANCH  16  17
ENDBRANCH  14  15
ENDBRANCH  13  14
ENDBRANCH  11  12
ENDBRANCH  10  11
ENDBRANCH   8   9
ENDBRANCH   7   8
ENDBRANCH   5   6
ENDBRANCH   4   5
ENDBRANCH   2   3
TORSDOF 12
ENDMDL
MODEL      440
REMARK 921   NORMALIZED FREE ENERGY PREDICTED BY IDOCK:   -0.68 KCAL/MOL
REMARK 922        TOTAL FREE ENERGY PREDICTED BY IDOCK:   -3.67 KCAL/MOL
REMARK 923 INTER-LIGAND FREE ENERGY PREDICTED BY IDOCK:   -3.79 KCAL/MOL
REMARK 924 INTRA-LIGAND FREE ENERGY PREDICTED BY IDOCK:    0.12 KCAL/MOL
REMARK 927      BINDING AFFINITY PREDICTED BY RF-SCORE:    0.00 PKD
ROOT
HETATM    1  C   UNL     1     -11.162  16.876  71.389  1.00  0.00     0.639 C  
HETATM    2  C   UNL     1     -11.778  15.573  71.873  1.00  0.00    -0.527 C  
ENDROOT
BRANCH   2   3
HETATM    3  C   UNL     1     -13.235  15.732  72.212  1.00  0.00    -0.522 C  
HETATM    4  C   UNL     1     -14.210  14.859  71.898  1.00  0.00    -0.640 C  
BRANCH   4   5
HETATM    5  C   UNL     1     -13.982  13.561  71.180  1.00  0.00     0.495 C  
BRANCH   5   6
HETATM    6  C   UNL     1     -12.526  13.207  71.049  1.00  0.00    -0.406 C  
HETATM    7  C   UNL     1     -11.816  13.276  69.914  1.00  0.00    -0.380 C  
BRANCH   7   8
HETATM    8  C   UNL     1     -12.369  13.837  68.639  1.00  0.00    -0.014 C  
BRANCH   8   9
HETATM    9  C   UNL     1     -12.034  12.985  67.453  1.00  0.00    -0.372 C  
HETATM   10  C   UNL     1     -11.283  13.363  66.401  1.00  0.00    -0.323 C  
BRANCH  10  11
HETATM   11  C   UNL     1     -10.647  14.711  66.192  1.00  0.00    -0.314 C  
BRANCH  11  12
HETATM   12  C   UNL     1      -9.929  15.309  67.381  1.00  0.00    -0.223 C  
HETATM   13  C   UNL     1      -8.781  14.922  67.969  1.00  0.00    -0.165 C  
BRANCH  13  14
HETATM   14  C   UNL     1      -7.977  13.713  67.608  1.00  0.00    -0.180 C  
BRANCH  14  15
HETATM   15  C   UNL     1      -6.603  13.693  68.210  1.00  0.00    -0.108 C  
HETATM   16  C   UNL     1      -5.652  12.825  67.830  1.00  0.00    -0.128 C  
BRANCH  16  17
HETATM   17  C   UNL     1      -5.915  11.753  66.813  1.00  0.00    -0.107 C  
BRANCH  17  18
HETATM   18  C   UNL     1      -6.451  10.466  67.415  1.00  0.00    -0.066 C  
BRANCH  18  19
HETATM   19  C   UNL     1      -7.813  10.139  66.810  1.00  0.00    -0.108 C  
HETATM   20  C   UNL     1      -7.742   8.935  65.901  1.00  0.00    -0.098 C  
HETATM   21  O   UNL     1      -6.730   8.297  65.659  1.00  0.00    -0.052 OA 
HETATM   22  O   UNL     1      -8.945   8.628  65.372  1.00  0.00    -0.189 OA 
ENDBRANCH  18  19
ENDBRANCH  17  18
ENDBRANCH  16  17
ENDBRANCH  14  15
ENDBRANCH  13  14
ENDBRANCH  11  12
ENDBRANCH  10  11
ENDBRANCH   8   9
ENDBRANCH   7   8
ENDBRANCH   5   6
ENDBRANCH   4   5
ENDBRANCH   2   3
TORSDOF 12
ENDMDL
MODEL      441
REMARK 921   NORMALIZED FREE ENERGY PREDICTED BY IDOCK:   -0.55 KCAL/MOL
REMARK 922        TOTAL FREE ENERGY PREDICTED BY IDOCK:   -3.45 KCAL/MOL
REMARK 923 INTER-LIGAND FREE ENERGY PREDICTED BY IDOCK:   -3.14 KCAL/MOL
REMARK 924 INTRA-LIGAND FREE ENERGY PREDICTED BY IDOCK:   -0.30 KCAL/MOL
REMARK 927      BINDING AFFINITY PREDICTED BY RF-SCORE:    0.00 PKD
ROOT
HETATM    1  C   UNL     1      -7.110  13.309  67.765  1.00  0.00    -0.149 C  
HETATM    2  C   UNL     1      -6.648  12.027  67.091  1.00  0.00    -0.143 C  
ENDROOT
BRANCH   2   3
HETATM    3  C   UNL     1      -6.284  10.965  68.093  1.00  0.00    -0.049 C  
HETATM    4  C   UNL     1      -7.015   9.869  68.371  1.00  0.00    -0.068 C  
BRANCH   4   5
HETATM    5  C   UNL     1      -8.305   9.520  67.690  1.00  0.00    -0.125 C  
BRANCH   5   6
HETATM    6  C   UNL     1      -8.106   8.857  66.354  1.00  0.00    -0.110 C  
HETATM    7  C   UNL     1      -8.712   7.730  65.956  1.00  0.00    -0.184 C  
BRANCH   7   8
HETATM    8  C   UNL     1      -9.770   7.044  66.765  1.00  0.00    -0.241 C  
BRANCH   8   9
HETATM    9  C   UNL     1     -10.100   5.683  66.231  1.00  0.00    -0.160 C  
HETATM   10  C   UNL     1      -9.212   4.712  65.950  1.00  0.00    -0.144 C  
BRANCH  10  11
HETATM   11  C   UNL     1      -7.716   4.796  66.096  1.00  0.00    -0.091 C  
BRANCH  11  12
HETATM   12  C   UNL     1      -7.131   4.234  67.371  1.00  0.00    -0.067 C  
HETATM   13  C   UNL     1      -7.509   3.154  68.082  1.00  0.00    -0.053 C  
BRANCH  13  14
HETATM   14  C   UNL     1      -8.696   2.289  67.795  1.00  0.00    -0.139 C  
BRANCH  14  15
HETATM   15  C   UNL     1      -9.237   1.579  69.000  1.00  0.00    -0.181 C  
HETATM   16  C   UNL     1      -9.598   2.220  70.124  1.00  0.00    -0.073 C  
BRANCH  16  17
HETATM   17  C   UNL     1      -9.419   3.701  70.285  1.00  0.00    -0.257 C  
BRANCH  17  18
HETATM   18  C   UNL     1      -9.352   4.148  71.736  1.00  0.00    -0.194 C  
BRANCH  18  19
HETATM   19  C   UNL     1      -9.508   2.941  72.656  1.00  0.00    -0.160 C  
HETATM   20  C   UNL     1     -10.755   3.045  73.502  1.00  0.00    -0.203 C  
HETATM   21  O   UNL     1     -11.545   3.974  73.475  1.00  0.00    -0.210 OA 
HETATM   22  O   UNL     1     -10.911   1.974  74.309  1.00  0.00    -0.145 OA 
ENDBRANCH  18  19
ENDBRANCH  17  18
ENDBRANCH  16  17
ENDBRANCH  14  15
ENDBRANCH  13  14
ENDBRANCH  11  12
ENDBRANCH  10  11
ENDBRANCH   8   9
ENDBRANCH   7   8
ENDBRANCH   5   6
ENDBRANCH   4   5
ENDBRANCH   2   3
TORSDOF 12
ENDMDL
MODEL      442
REMARK 921   NORMALIZED FREE ENERGY PREDICTED BY IDOCK:    0.11 KCAL/MOL
REMARK 922        TOTAL FREE ENERGY PREDICTED BY IDOCK:   -2.32 KCAL/MOL
REMARK 923 INTER-LIGAND FREE ENERGY PREDICTED BY IDOCK:   -4.29 KCAL/MOL
REMARK 924 INTRA-LIGAND FREE ENERGY PREDICTED BY IDOCK:    1.97 KCAL/MOL
REMARK 927      BINDING AFFINITY PREDICTED BY RF-SCORE:    0.00 PKD
ROOT
HETATM    1  C   UNL     1      -9.174   4.889  66.407  1.00  0.00    -0.138 C  
HETATM    2  C   UNL     1      -8.717   5.133  67.837  1.00  0.00    -0.102 C  
ENDROOT
BRANCH   2   3
HETATM    3  C   UNL     1      -9.822   4.895  68.829  1.00  0.00    -0.231 C  
HETATM    4  C   UNL     1     -10.743   5.802  69.206  1.00  0.00    -0.386 C  
BRANCH   4   5
HETATM    5  C   UNL     1     -10.827   7.196  68.659  1.00  0.00    -0.149 C  
BRANCH   5   6
HETATM    6  C   UNL     1     -10.228   7.329  67.286  1.00  0.00    -0.323 C  
HETATM    7  C   UNL     1     -10.257   8.441  66.537  1.00  0.00    -0.277 C  
BRANCH   7   8
HETATM    8  C   UNL     1     -10.799   9.745  67.036  1.00  0.00    -0.165 C  
BRANCH   8   9
HETATM    9  C   UNL     1     -10.439   9.999  68.468  1.00  0.00    -0.229 C  
HETATM   10  C   UNL     1     -10.993  10.932  69.265  1.00  0.00    -0.295 C  
BRANCH  10  11
HETATM   11  C   UNL     1     -12.065  11.916  68.882  1.00  0.00    -0.213 C  
BRANCH  11  12
HETATM   12  C   UNL     1     -11.988  13.282  69.526  1.00  0.00    -0.366 C  
HETATM   13  C   UNL     1     -11.235  14.346  69.187  1.00  0.00    -0.300 C  
BRANCH  13  14
HETATM   14  C   UNL     1     -10.207  14.379  68.100  1.00  0.00    -0.232 C  
BRANCH  14  15
HETATM   15  C   UNL     1      -8.922  15.043  68.499  1.00  0.00    -0.186 C  
HETATM   16  C   UNL     1      -7.715  14.534  68.205  1.00  0.00    -0.126 C  
BRANCH  16  17
HETATM   17  C   UNL     1      -7.558  13.212  67.512  1.00  0.00    -0.166 C  
BRANCH  17  18
HETATM   18  C   UNL     1      -7.943  12.025  68.377  1.00  0.00    -0.152 C  
BRANCH  18  19
HETATM   19  C   UNL     1      -6.687  11.284  68.826  1.00  0.00    -0.070 C  
HETATM   20  C   UNL     1      -6.790   9.801  68.556  1.00  0.00    -0.056 C  
HETATM   21  O   UNL     1      -7.754   9.245  68.054  1.00  0.00    -0.088 OA 
HETATM   22  O   UNL     1      -5.678   9.138  68.936  1.00  0.00    -0.039 OA 
ENDBRANCH  18  19
ENDBRANCH  17  18
ENDBRANCH  16  17
ENDBRANCH  14  15
ENDBRANCH  13  14
ENDBRANCH  11  12
ENDBRANCH  10  11
ENDBRANCH   8   9
ENDBRANCH   7   8
ENDBRANCH   5   6
ENDBRANCH   4   5
ENDBRANCH   2   3
TORSDOF 12
ENDMDL
MODEL      443
REMARK 921   NORMALIZED FREE ENERGY PREDICTED BY IDOCK:    0.43 KCAL/MOL
REMARK 922        TOTAL FREE ENERGY PREDICTED BY IDOCK:   -1.78 KCAL/MOL
REMARK 923 INTER-LIGAND FREE ENERGY PREDICTED BY IDOCK:   -2.55 KCAL/MOL
REMARK 924 INTRA-LIGAND FREE ENERGY PREDICTED BY IDOCK:    0.77 KCAL/MOL
REMARK 927      BINDING AFFINITY PREDICTED BY RF-SCORE:    0.00 PKD
ROOT
HETATM    1  C   UNL     1      -8.743   9.375  63.678  1.00  0.00    -0.222 C  
HETATM    2  C   UNL     1      -8.785  10.894  63.629  1.00  0.00    -0.030 C  
ENDROOT
BRANCH   2   3
HETATM    3  C   UNL     1     -10.192  11.415  63.530  1.00  0.00    -0.461 C  
HETATM    4  C   UNL     1     -11.010  11.660  64.571  1.00  0.00    -0.376 C  
BRANCH   4   5
HETATM    5  C   UNL     1     -10.622  11.480  66.009  1.00  0.00    -0.310 C  
BRANCH   5   6
HETATM    6  C   UNL     1     -11.564  12.160  66.965  1.00  0.00    -0.406 C  
HETATM    7  C   UNL     1     -11.356  13.357  67.531  1.00  0.00    -0.327 C  
BRANCH   7   8
HETATM    8  C   UNL     1     -10.191  14.232  67.183  1.00  0.00    -0.254 C  
BRANCH   8   9
HETATM    9  C   UNL     1     -10.482  15.683  67.415  1.00  0.00    -0.291 C  
HETATM   10  C   UNL     1      -9.563  16.658  67.542  1.00  0.00    -0.242 C  
BRANCH  10  11
HETATM   11  C   UNL     1      -8.068  16.493  67.497  1.00  0.00    -0.171 C  
BRANCH  11  12
HETATM   12  C   UNL     1      -7.365  17.044  66.277  1.00  0.00    -0.294 C  
HETATM   13  C   UNL     1      -7.204  18.324  65.889  1.00  0.00    -0.270 C  
BRANCH  13  14
HETATM   14  C   UNL     1      -7.784  19.524  66.569  1.00  0.00    -0.294 C  
BRANCH  14  15
HETATM   15  C   UNL     1      -8.575  20.415  65.659  1.00  0.00     0.348 C  
HETATM   16  C   UNL     1      -9.906  20.311  65.511  1.00  0.00     0.038 C  
BRANCH  16  17
HETATM   17  C   UNL     1     -10.700  19.239  66.199  1.00  0.00    -0.478 C  
BRANCH  17  18
HETATM   18  C   UNL     1     -10.943  19.516  67.672  1.00  0.00    -0.340 C  
BRANCH  18  19
HETATM   19  C   UNL     1      -9.660  20.026  68.321  1.00  0.00    -0.381 C  
HETATM   20  C   UNL     1      -9.572  19.620  69.774  1.00  0.00     0.309 C  
HETATM   21  O   UNL     1     -10.417  18.975  70.373  1.00  0.00     0.996 OA 
HETATM   22  O   UNL     1      -8.433  20.052  70.353  1.00  0.00     0.908 OA 
ENDBRANCH  18  19
ENDBRANCH  17  18
ENDBRANCH  16  17
ENDBRANCH  14  15
ENDBRANCH  13  14
ENDBRANCH  11  12
ENDBRANCH  10  11
ENDBRANCH   8   9
ENDBRANCH   7   8
ENDBRANCH   5   6
ENDBRANCH   4   5
ENDBRANCH   2   3
TORSDOF 12
ENDMDL
MODEL      444
REMARK 921   NORMALIZED FREE ENERGY PREDICTED BY IDOCK:    0.45 KCAL/MOL
REMARK 922        TOTAL FREE ENERGY PREDICTED BY IDOCK:   -1.73 KCAL/MOL
REMARK 923 INTER-LIGAND FREE ENERGY PREDICTED BY IDOCK:   -1.90 KCAL/MOL
REMARK 924 INTRA-LIGAND FREE ENERGY PREDICTED BY IDOCK:    0.17 KCAL/MOL
REMARK 927      BINDING AFFINITY PREDICTED BY RF-SCORE:    0.00 PKD
ROOT
HETATM    1  C   UNL     1     -12.360  10.926  68.514  1.00  0.00     0.470 C  
HETATM    2  C   UNL     1     -10.933  10.909  67.988  1.00  0.00    -0.317 C  
ENDROOT
BRANCH   2   3
HETATM    3  C   UNL     1      -9.923  10.974  69.100  1.00  0.00    -0.142 C  
HETATM    4  C   UNL     1      -8.624  10.636  68.996  1.00  0.00    -0.150 C  
BRANCH   4   5
HETATM    5  C   UNL     1      -7.972  10.170  67.727  1.00  0.00    -0.102 C  
BRANCH   5   6
HETATM    6  C   UNL     1      -8.623  10.724  66.490  1.00  0.00    -0.150 C  
HETATM    7  C   UNL     1      -8.048  10.793  65.281  1.00  0.00    -0.021 C  
BRANCH   7   8
HETATM    8  C   UNL     1      -6.702  10.206  64.986  1.00  0.00    -0.127 C  
BRANCH   8   9
HETATM    9  C   UNL     1      -6.746   9.227  63.853  1.00  0.00    -0.092 C  
HETATM   10  C   UNL     1      -7.437   8.072  63.839  1.00  0.00    -0.117 C  
BRANCH  10  11
HETATM   11  C   UNL     1      -8.286   7.521  64.953  1.00  0.00    -0.045 C  
BRANCH  11  12
HETATM   12  C   UNL     1      -7.549   6.907  66.121  1.00  0.00    -0.092 C  
HETATM   13  C   UNL     1      -7.993   6.042  67.053  1.00  0.00    -0.102 C  
BRANCH  13  14
HETATM   14  C   UNL     1      -9.399   5.547  67.188  1.00  0.00    -0.115 C  
BRANCH  14  15
HETATM   15  C   UNL     1      -9.900   4.807  65.983  1.00  0.00    -0.229 C  
HETATM   16  C   UNL     1      -9.276   3.732  65.475  1.00  0.00    -0.153 C  
BRANCH  16  17
HETATM   17  C   UNL     1      -7.979   3.228  66.036  1.00  0.00    -0.088 C  
BRANCH  17  18
HETATM   18  C   UNL     1      -8.017   1.759  66.423  1.00  0.00    -0.073 C  
BRANCH  18  19
HETATM   19  C   UNL     1      -7.305   1.557  67.757  1.00  0.00    -0.046 C  
HETATM   20  C   UNL     1      -8.085   2.161  68.901  1.00  0.00    -0.051 C  
HETATM   21  O   UNL     1      -9.148   2.750  68.791  1.00  0.00    -0.119 OA 
HETATM   22  O   UNL     1      -7.471   1.974  70.088  1.00  0.00    -0.039 OA 
ENDBRANCH  18  19
ENDBRANCH  17  18
ENDBRANCH  16  17
ENDBRANCH  14  15
ENDBRANCH  13  14
ENDBRANCH  11  12
ENDBRANCH  10  11
ENDBRANCH   8   9
ENDBRANCH   7   8
ENDBRANCH   5   6
ENDBRANCH   4   5
ENDBRANCH   2   3
TORSDOF 12
ENDMDL
MODEL      445
REMARK 921   NORMALIZED FREE ENERGY PREDICTED BY IDOCK:    0.48 KCAL/MOL
REMARK 922        TOTAL FREE ENERGY PREDICTED BY IDOCK:   -1.68 KCAL/MOL
REMARK 923 INTER-LIGAND FREE ENERGY PREDICTED BY IDOCK:   -1.72 KCAL/MOL
REMARK 924 INTRA-LIGAND FREE ENERGY PREDICTED BY IDOCK:    0.04 KCAL/MOL
REMARK 927      BINDING AFFINITY PREDICTED BY RF-SCORE:    0.00 PKD
ROOT
HETATM    1  C   UNL     1      -6.218  13.441  66.836  1.00  0.00     1.201 C  
HETATM    2  C   UNL     1      -5.279  12.301  67.197  1.00  0.00    -0.053 C  
ENDROOT
BRANCH   2   3
HETATM    3  C   UNL     1      -5.774  10.979  66.677  1.00  0.00    -0.104 C  
HETATM    4  C   UNL     1      -6.567  10.123  67.349  1.00  0.00    -0.068 C  
BRANCH   4   5
HETATM    5  C   UNL     1      -7.112  10.378  68.723  1.00  0.00    -0.074 C  
BRANCH   5   6
HETATM    6  C   UNL     1      -8.479  11.005  68.709  1.00  0.00    -0.144 C  
HETATM    7  C   UNL     1      -8.733  12.305  68.917  1.00  0.00     0.264 C  
BRANCH   7   8
HETATM    8  C   UNL     1      -7.653  13.331  69.076  1.00  0.00     0.119 C  
BRANCH   8   9
HETATM    9  C   UNL     1      -8.200  14.724  69.158  1.00  0.00    -0.106 C  
HETATM   10  C   UNL     1      -9.382  15.134  68.662  1.00  0.00    -0.199 C  
BRANCH  10  11
HETATM   11  C   UNL     1     -10.381  14.293  67.914  1.00  0.00    -0.233 C  
BRANCH  11  12
HETATM   12  C   UNL     1     -11.840  14.589  68.176  1.00  0.00    -0.348 C  
HETATM   13  C   UNL     1     -12.530  14.536  69.331  1.00  0.00    -0.113 C  
BRANCH  13  14
HETATM   14  C   UNL     1     -11.994  14.070  70.649  1.00  0.00    -0.376 C  
BRANCH  14  15
HETATM   15  C   UNL     1     -12.956  13.227  71.432  1.00  0.00    -0.398 C  
HETATM   16  C   UNL     1     -12.831  11.895  71.550  1.00  0.00    -0.421 C  
BRANCH  16  17
HETATM   17  C   UNL     1     -11.749  11.133  70.842  1.00  0.00    -0.093 C  
BRANCH  17  18
HETATM   18  C   UNL     1     -12.272   9.990  69.989  1.00  0.00    -0.039 C  
BRANCH  18  19
HETATM   19  C   UNL     1     -11.493   8.716  70.299  1.00  0.00    -0.084 C  
HETATM   20  C   UNL     1     -10.707   8.240  69.101  1.00  0.00    -0.101 C  
HETATM   21  O   UNL     1     -10.693   8.786  68.009  1.00  0.00    -0.190 OA 
HETATM   22  O   UNL     1     -10.001   7.121  69.368  1.00  0.00    -0.160 OA 
ENDBRANCH  18  19
ENDBRANCH  17  18
ENDBRANCH  16  17
ENDBRANCH  14  15
ENDBRANCH  13  14
ENDBRANCH  11  12
ENDBRANCH  10  11
ENDBRANCH   8   9
ENDBRANCH   7   8
ENDBRANCH   5   6
ENDBRANCH   4   5
ENDBRANCH   2   3
TORSDOF 12
ENDMDL
MODEL      446
REMARK 921   NORMALIZED FREE ENERGY PREDICTED BY IDOCK:    0.54 KCAL/MOL
REMARK 922        TOTAL FREE ENERGY PREDICTED BY IDOCK:   -1.59 KCAL/MOL
REMARK 923 INTER-LIGAND FREE ENERGY PREDICTED BY IDOCK:   -4.05 KCAL/MOL
REMARK 924 INTRA-LIGAND FREE ENERGY PREDICTED BY IDOCK:    2.46 KCAL/MOL
REMARK 927      BINDING AFFINITY PREDICTED BY RF-SCORE:    0.00 PKD
ROOT
HETATM    1  C   UNL     1      -7.734  16.889  66.216  1.00  0.00    -0.332 C  
HETATM    2  C   UNL     1      -7.924  15.455  66.684  1.00  0.00    -0.068 C  
ENDROOT
BRANCH   2   3
HETATM    3  C   UNL     1      -8.295  15.383  68.140  1.00  0.00    -0.145 C  
HETATM    4  C   UNL     1      -7.924  14.411  68.994  1.00  0.00    -0.057 C  
BRANCH   4   5
HETATM    5  C   UNL     1      -7.042  13.254  68.624  1.00  0.00    -0.103 C  
BRANCH   5   6
HETATM    6  C   UNL     1      -7.519  11.944  69.188  1.00  0.00     0.066 C  
HETATM    7  C   UNL     1      -8.247  11.038  68.520  1.00  0.00    -0.146 C  
BRANCH   7   8
HETATM    8  C   UNL     1      -8.580  11.173  67.065  1.00  0.00    -0.147 C  
BRANCH   8   9
HETATM    9  C   UNL     1      -9.972  11.684  66.847  1.00  0.00    -0.225 C  
HETATM   10  C   UNL     1     -10.889  11.900  67.808  1.00  0.00    -0.254 C  
BRANCH  10  11
HETATM   11  C   UNL     1     -10.717  11.658  69.283  1.00  0.00    -0.144 C  
BRANCH  11  12
HETATM   12  C   UNL     1     -10.090  10.341  69.681  1.00  0.00    -0.257 C  
HETATM   13  C   UNL     1     -10.669   9.240  70.199  1.00  0.00    -0.269 C  
BRANCH  13  14
HETATM   14  C   UNL     1     -12.109   9.110  70.587  1.00  0.00    -0.115 C  
BRANCH  14  15
HETATM   15  C   UNL     1     -12.323   8.845  72.047  1.00  0.00    -0.460 C  
HETATM   16  C   UNL     1     -11.838   7.759  72.671  1.00  0.00    -0.317 C  
BRANCH  16  17
HETATM   17  C   UNL     1     -11.097   6.684  71.931  1.00  0.00    -0.289 C  
BRANCH  17  18
HETATM   18  C   UNL     1     -10.671   5.524  72.816  1.00  0.00    -0.290 C  
BRANCH  18  19
HETATM   19  C   UNL     1      -9.195   5.216  72.589  1.00  0.00    -0.146 C  
HETATM   20  C   UNL     1      -8.312   5.996  73.535  1.00  0.00    -0.116 C  
HETATM   21  O   UNL     1      -8.712   6.787  74.374  1.00  0.00    -0.150 OA 
HETATM   22  O   UNL     1      -7.004   5.719  73.354  1.00  0.00    -0.082 OA 
ENDBRANCH  18  19
ENDBRANCH  17  18
ENDBRANCH  16  17
ENDBRANCH  14  15
ENDBRANCH  13  14
ENDBRANCH  11  12
ENDBRANCH  10  11
ENDBRANCH   8   9
ENDBRANCH   7   8
ENDBRANCH   5   6
ENDBRANCH   4   5
ENDBRANCH   2   3
TORSDOF 12
ENDMDL
MODEL      447
REMARK 921   NORMALIZED FREE ENERGY PREDICTED BY IDOCK:    0.85 KCAL/MOL
REMARK 922        TOTAL FREE ENERGY PREDICTED BY IDOCK:   -1.06 KCAL/MOL
REMARK 923 INTER-LIGAND FREE ENERGY PREDICTED BY IDOCK:   -2.21 KCAL/MOL
REMARK 924 INTRA-LIGAND FREE ENERGY PREDICTED BY IDOCK:    1.15 KCAL/MOL
REMARK 927      BINDING AFFINITY PREDICTED BY RF-SCORE:    0.00 PKD
ROOT
HETATM    1  C   UNL     1     -12.360  10.926  68.514  1.00  0.00     0.470 C  
HETATM    2  C   UNL     1     -10.933  10.909  67.988  1.00  0.00    -0.317 C  
ENDROOT
BRANCH   2   3
HETATM    3  C   UNL     1      -9.923  10.974  69.100  1.00  0.00    -0.142 C  
HETATM    4  C   UNL     1      -8.624  10.636  68.996  1.00  0.00    -0.150 C  
BRANCH   4   5
HETATM    5  C   UNL     1      -7.972  10.170  67.727  1.00  0.00    -0.102 C  
BRANCH   5   6
HETATM    6  C   UNL     1      -8.623  10.724  66.490  1.00  0.00    -0.150 C  
HETATM    7  C   UNL     1      -8.048  10.793  65.281  1.00  0.00    -0.021 C  
BRANCH   7   8
HETATM    8  C   UNL     1      -6.702  10.206  64.986  1.00  0.00    -0.127 C  
BRANCH   8   9
HETATM    9  C   UNL     1      -6.746   9.227  63.853  1.00  0.00    -0.092 C  
HETATM   10  C   UNL     1      -7.437   8.072  63.839  1.00  0.00    -0.117 C  
BRANCH  10  11
HETATM   11  C   UNL     1      -8.286   7.521  64.953  1.00  0.00    -0.045 C  
BRANCH  11  12
HETATM   12  C   UNL     1      -7.549   6.907  66.121  1.00  0.00    -0.092 C  
HETATM   13  C   UNL     1      -7.993   6.042  67.053  1.00  0.00    -0.102 C  
BRANCH  13  14
HETATM   14  C   UNL     1      -9.399   5.547  67.188  1.00  0.00    -0.115 C  
BRANCH  14  15
HETATM   15  C   UNL     1      -9.501   4.086  67.512  1.00  0.00    -0.231 C  
HETATM   16  C   UNL     1      -8.909   3.533  68.583  1.00  0.00    -0.159 C  
BRANCH  16  17
HETATM   17  C   UNL     1      -8.036   4.330  69.507  1.00  0.00    -0.056 C  
BRANCH  17  18
HETATM   18  C   UNL     1      -8.459   4.245  70.964  1.00  0.00    -0.103 C  
BRANCH  18  19
HETATM   19  C   UNL     1      -8.368   5.624  71.610  1.00  0.00    -0.124 C  
HETATM   20  C   UNL     1      -9.107   6.665  70.804  1.00  0.00    -0.151 C  
HETATM   21  O   UNL     1      -9.698   6.452  69.757  1.00  0.00    -0.153 OA 
HETATM   22  O   UNL     1      -9.047   7.886  71.375  1.00  0.00    -0.131 OA 
ENDBRANCH  18  19
ENDBRANCH  17  18
ENDBRANCH  16  17
ENDBRANCH  14  15
ENDBRANCH  13  14
ENDBRANCH  11  12
ENDBRANCH  10  11
ENDBRANCH   8   9
ENDBRANCH   7   8
ENDBRANCH   5   6
ENDBRANCH   4   5
ENDBRANCH   2   3
TORSDOF 12
ENDMDL
MODEL      448
REMARK 921   NORMALIZED FREE ENERGY PREDICTED BY IDOCK:    1.02 KCAL/MOL
REMARK 922        TOTAL FREE ENERGY PREDICTED BY IDOCK:   -0.78 KCAL/MOL
REMARK 923 INTER-LIGAND FREE ENERGY PREDICTED BY IDOCK:   -3.93 KCAL/MOL
REMARK 924 INTRA-LIGAND FREE ENERGY PREDICTED BY IDOCK:    3.15 KCAL/MOL
REMARK 927      BINDING AFFINITY PREDICTED BY RF-SCORE:    0.00 PKD
ROOT
HETATM    1  C   UNL     1     -11.568  12.782  69.269  1.00  0.00    -0.372 C  
HETATM    2  C   UNL     1     -12.306  12.333  70.521  1.00  0.00    -0.349 C  
ENDROOT
BRANCH   2   3
HETATM    3  C   UNL     1     -12.678  13.494  71.401  1.00  0.00    -0.423 C  
HETATM    4  C   UNL     1     -12.144  14.728  71.336  1.00  0.00    -0.401 C  
BRANCH   4   5
HETATM    5  C   UNL     1     -11.105  15.145  70.337  1.00  0.00    -0.289 C  
BRANCH   5   6
HETATM    6  C   UNL     1     -11.559  16.269  69.447  1.00  0.00    -0.178 C  
HETATM    7  C   UNL     1     -10.990  16.608  68.281  1.00  0.00    -0.341 C  
BRANCH   7   8
HETATM    8  C   UNL     1      -9.882  15.816  67.656  1.00  0.00    -0.232 C  
BRANCH   8   9
HETATM    9  C   UNL     1      -9.131  14.998  68.662  1.00  0.00    -0.191 C  
HETATM   10  C   UNL     1      -9.000  13.659  68.645  1.00  0.00    -0.025 C  
BRANCH  10  11
HETATM   11  C   UNL     1      -9.588  12.713  67.633  1.00  0.00    -0.188 C  
BRANCH  11  12
HETATM   12  C   UNL     1      -8.965  12.726  66.256  1.00  0.00     0.043 C  
HETATM   13  C   UNL     1      -9.176  11.900  65.213  1.00  0.00     0.082 C  
BRANCH  13  14
HETATM   14  C   UNL     1     -10.051  10.686  65.223  1.00  0.00    -0.363 C  
BRANCH  14  15
HETATM   15  C   UNL     1      -9.337   9.418  64.861  1.00  0.00    -0.218 C  
HETATM   16  C   UNL     1      -8.357   8.891  65.614  1.00  0.00    -0.144 C  
BRANCH  16  17
HETATM   17  C   UNL     1      -7.851   9.576  66.850  1.00  0.00    -0.101 C  
BRANCH  17  18
HETATM   18  C   UNL     1      -6.337   9.550  66.979  1.00  0.00    -0.066 C  
BRANCH  18  19
HETATM   19  C   UNL     1      -5.870  10.731  67.824  1.00  0.00    -0.043 C  
HETATM   20  C   UNL     1      -5.571  10.315  69.245  1.00  0.00    -0.037 C  
HETATM   21  O   UNL     1      -5.693   9.183  69.684  1.00  0.00    -0.033 OA 
HETATM   22  O   UNL     1      -5.142  11.350  69.997  1.00  0.00    -0.059 OA 
ENDBRANCH  18  19
ENDBRANCH  17  18
ENDBRANCH  16  17
ENDBRANCH  14  15
ENDBRANCH  13  14
ENDBRANCH  11  12
ENDBRANCH  10  11
ENDBRANCH   8   9
ENDBRANCH   7   8
ENDBRANCH   5   6
ENDBRANCH   4   5
ENDBRANCH   2   3
TORSDOF 12
ENDMDL
MODEL      449
REMARK 921   NORMALIZED FREE ENERGY PREDICTED BY IDOCK:    6.49 KCAL/MOL
REMARK 922        TOTAL FREE ENERGY PREDICTED BY IDOCK:    8.53 KCAL/MOL
REMARK 923 INTER-LIGAND FREE ENERGY PREDICTED BY IDOCK:   -1.39 KCAL/MOL
REMARK 924 INTRA-LIGAND FREE ENERGY PREDICTED BY IDOCK:    9.92 KCAL/MOL
REMARK 927      BINDING AFFINITY PREDICTED BY RF-SCORE:    0.00 PKD
ROOT
HETATM    1  C   UNL     1      -7.912   2.733  64.553  1.00  0.00    -0.078 C  
HETATM    2  C   UNL     1      -8.732   3.112  65.776  1.00  0.00    -0.128 C  
ENDROOT
BRANCH   2   3
HETATM    3  C   UNL     1     -10.102   3.605  65.404  1.00  0.00     0.041 C  
HETATM    4  C   UNL     1     -10.665   4.751  65.834  1.00  0.00    -0.225 C  
BRANCH   4   5
HETATM    5  C   UNL     1      -9.984   5.738  66.736  1.00  0.00    -0.207 C  
BRANCH   5   6
HETATM    6  C   UNL     1     -10.437   5.639  68.167  1.00  0.00    -0.260 C  
HETATM    7  C   UNL     1      -9.731   5.082  69.161  1.00  0.00    -0.243 C  
BRANCH   7   8
HETATM    8  C   UNL     1      -8.329   4.583  68.985  1.00  0.00    -0.086 C  
BRANCH   8   9
HETATM    9  C   UNL     1      -7.407   5.650  68.478  1.00  0.00    -0.076 C  
HETATM   10  C   UNL     1      -6.504   6.323  69.215  1.00  0.00    -0.043 C  
BRANCH  10  11
HETATM   11  C   UNL     1      -6.247   6.159  70.689  1.00  0.00    -0.038 C  
BRANCH  11  12
HETATM   12  C   UNL     1      -7.435   5.776  71.541  1.00  0.00    -0.093 C  
HETATM   13  C   UNL     1      -7.975   6.419  72.594  1.00  0.00    -0.104 C  
BRANCH  13  14
HETATM   14  C   UNL     1      -7.439   7.665  73.226  1.00  0.00    -0.125 C  
BRANCH  14  15
HETATM   15  C   UNL     1      -6.210   8.205  72.558  1.00  0.00    -0.067 C  
HETATM   16  C   UNL     1      -6.150   8.468  71.242  1.00  0.00    -0.042 C  
BRANCH  16  17
HETATM   17  C   UNL     1      -7.297   8.172  70.320  1.00  0.00    -0.059 C  
BRANCH  17  18
HETATM   18  C   UNL     1      -7.162   8.826  68.956  1.00  0.00    -0.072 C  
BRANCH  18  19
HETATM   19  C   UNL     1      -6.249  10.045  69.056  1.00  0.00    -0.044 C  
HETATM   20  C   UNL     1      -6.947  11.210  69.717  1.00  0.00    -0.050 C  
HETATM   21  O   UNL     1      -8.100  11.201  70.117  1.00  0.00     0.733 OA 
HETATM   22  O   UNL     1      -6.143  12.289  69.824  1.00  0.00    -0.120 OA 
ENDBRANCH  18  19
ENDBRANCH  17  18
ENDBRANCH  16  17
ENDBRANCH  14  15
ENDBRANCH  13  14
ENDBRANCH  11  12
ENDBRANCH  10  11
ENDBRANCH   8   9
ENDBRANCH   7   8
ENDBRANCH   5   6
ENDBRANCH   4   5
ENDBRANCH   2   3
TORSDOF 12
ENDMDL
MODEL      450
REMARK 921   NORMALIZED FREE ENERGY PREDICTED BY IDOCK:    9.31 KCAL/MOL
REMARK 922        TOTAL FREE ENERGY PREDICTED BY IDOCK:   13.34 KCAL/MOL
REMARK 923 INTER-LIGAND FREE ENERGY PREDICTED BY IDOCK:    8.22 KCAL/MOL
REMARK 924 INTRA-LIGAND FREE ENERGY PREDICTED BY IDOCK:    5.12 KCAL/MOL
REMARK 927      BINDING AFFINITY PREDICTED BY RF-SCORE:    0.00 PKD
ROOT
HETATM    1  C   UNL     1      -9.014   9.131  63.390  1.00  0.00     0.020 C  
HETATM    2  C   UNL     1      -9.402  10.383  62.619  1.00  0.00    -0.335 C  
ENDROOT
BRANCH   2   3
HETATM    3  C   UNL     1     -10.882  10.447  62.358  1.00  0.00     2.017 C  
HETATM    4  C   UNL     1     -11.808  10.914  63.218  1.00  0.00     1.430 C  
BRANCH   4   5
HETATM    5  C   UNL     1     -11.493  11.481  64.570  1.00  0.00    -0.204 C  
BRANCH   5   6
HETATM    6  C   UNL     1     -12.407  12.608  64.966  1.00  0.00    -0.561 C  
HETATM    7  C   UNL     1     -12.006  13.836  65.321  1.00  0.00    -0.388 C  
BRANCH   7   8
HETATM    8  C   UNL     1     -10.576  14.278  65.255  1.00  0.00    -0.396 C  
BRANCH   8   9
HETATM    9  C   UNL     1     -10.447  15.761  65.081  1.00  0.00    -0.394 C  
HETATM   10  C   UNL     1      -9.454  16.526  65.570  1.00  0.00     0.202 C  
BRANCH  10  11
HETATM   11  C   UNL     1      -8.289  16.060  66.400  1.00  0.00    -0.344 C  
BRANCH  11  12
HETATM   12  C   UNL     1      -6.929  16.109  65.740  1.00  0.00     2.729 C  
HETATM   13  C   UNL     1      -6.122  17.164  65.522  1.00  0.00     1.072 C  
BRANCH  13  14
HETATM   14  C   UNL     1      -6.450  18.593  65.825  1.00  0.00    -0.296 C  
BRANCH  14  15
HETATM   15  C   UNL     1      -6.485  19.478  64.614  1.00  0.00    -0.093 C  
HETATM   16  C   UNL     1      -7.621  20.010  64.132  1.00  0.00     2.250 C  
BRANCH  16  17
HETATM   17  C   UNL     1      -8.960  19.699  64.732  1.00  0.00     3.100 C  
BRANCH  17  18
HETATM   18  C   UNL     1      -9.003  19.870  66.241  1.00  0.00    -0.419 C  
BRANCH  18  19
HETATM   19  C   UNL     1      -7.666  19.454  66.846  1.00  0.00    -0.270 C  
HETATM   20  C   UNL     1      -7.795  19.141  68.318  1.00  0.00    -0.315 C  
HETATM   21  O   UNL     1      -8.829  19.217  68.963  1.00  0.00    -0.336 OA 
HETATM   22  O   UNL     1      -6.621  18.756  68.861  1.00  0.00    -0.246 OA 
ENDBRANCH  18  19
ENDBRANCH  17  18
ENDBRANCH  16  17
ENDBRANCH  14  15
ENDBRANCH  13  14
ENDBRANCH  11  12
ENDBRANCH  10  11
ENDBRANCH   8   9
ENDBRANCH   7   8
ENDBRANCH   5   6
ENDBRANCH   4   5
ENDBRANCH   2   3
TORSDOF 12
ENDMDL
MODEL      451
REMARK 921   NORMALIZED FREE ENERGY PREDICTED BY IDOCK:   36.57 KCAL/MOL
REMARK 922        TOTAL FREE ENERGY PREDICTED BY IDOCK:   59.72 KCAL/MOL
REMARK 923 INTER-LIGAND FREE ENERGY PREDICTED BY IDOCK:   -2.25 KCAL/MOL
REMARK 924 INTRA-LIGAND FREE ENERGY PREDICTED BY IDOCK:   61.97 KCAL/MOL
REMARK 927      BINDING AFFINITY PREDICTED BY RF-SCORE:    0.00 PKD
ROOT
HETATM    1  C   UNL     1      -7.588   3.135  65.460  1.00  0.00    -0.077 C  
HETATM    2  C   UNL     1      -8.390   3.518  66.694  1.00  0.00    -0.101 C  
ENDROOT
BRANCH   2   3
HETATM    3  C   UNL     1      -9.759   4.029  66.338  1.00  0.00    -0.206 C  
HETATM    4  C   UNL     1     -10.305   5.176  66.784  1.00  0.00    -0.306 C  
BRANCH   4   5
HETATM    5  C   UNL     1      -9.606   6.148  67.687  1.00  0.00    -0.113 C  
BRANCH   5   6
HETATM    6  C   UNL     1     -10.029   6.027  69.125  1.00  0.00    -0.205 C  
HETATM    7  C   UNL     1      -9.318   5.425  70.090  1.00  0.00    -0.193 C  
BRANCH   7   8
HETATM    8  C   UNL     1      -7.935   4.892  69.870  1.00  0.00    -0.069 C  
BRANCH   8   9
HETATM    9  C   UNL     1      -6.986   5.314  70.951  1.00  0.00    -0.056 C  
HETATM   10  C   UNL     1      -6.597   4.558  71.994  1.00  0.00    -0.023 C  
BRANCH  10  11
HETATM   11  C   UNL     1      -7.044   3.153  72.300  1.00  0.00    -0.035 C  
BRANCH  11  12
HETATM   12  C   UNL     1      -8.399   2.747  71.768  1.00  0.00    -0.070 C  
HETATM   13  C   UNL     1      -9.604   2.797  72.368  1.00  0.00    -0.188 C  
BRANCH  13  14
HETATM   14  C   UNL     1      -9.858   3.208  73.785  1.00  0.00    -0.151 C  
BRANCH  14  15
HETATM   15  C   UNL     1      -8.644   3.729  74.494  1.00  0.00    -0.088 C  
HETATM   16  C   UNL     1      -7.515   4.075  73.852  1.00  0.00    -0.075 C  
BRANCH  16  17
HETATM   17  C   UNL     1      -7.359   3.897  72.370  1.00  0.00    -0.058 C  
BRANCH  17  18
HETATM   18  C   UNL     1      -6.071   4.488  71.822  1.00  0.00    -0.017 C  
BRANCH  18  19
HETATM   19  C   UNL     1      -5.607   5.634  72.715  1.00  0.00    -0.026 C  
HETATM   20  C   UNL     1      -6.420   6.886  72.480  1.00  0.00    -0.054 C  
HETATM   21  O   UNL     1      -7.329   6.990  71.673  1.00  0.00    -0.080 OA 
HETATM   22  O   UNL     1      -6.027   7.902  73.277  1.00  0.00    -0.055 OA 
ENDBRANCH  18  19
ENDBRANCH  17  18
ENDBRANCH  16  17
ENDBRANCH  14  15
ENDBRANCH  13  14
ENDBRANCH  11  12
ENDBRANCH  10  11
ENDBRANCH   8   9
ENDBRANCH   7   8
ENDBRANCH   5   6
ENDBRANCH   4   5
ENDBRANCH   2   3
TORSDOF 12
ENDMDL
